REMARK  8 active torsions:
REMARK  status: ('A' for Active; 'I' for Inactive)
REMARK    1  A    between atoms: C5_5  and  C6_6 
REMARK       I    between atoms: C6_6  and  N1_8 
REMARK    2  A    between atoms: N1_8  and  C7_9 
REMARK    3  A    between atoms: C7_9  and  C8_10 
REMARK    4  A    between atoms: C8_10  and  O2_11 
REMARK    5  A    between atoms: C12_15  and  O3_16 
REMARK    6  A    between atoms: C14_19  and  O4_20 
REMARK    7  A    between atoms: O4_20  and  C15_21 
REMARK    8  A    between atoms: C15_21  and  C16_22 
ROOT
HETATM    1  C1  UNL     1      -1.651   1.986   1.304  1.00  0.00     0.068 C 
HETATM    2  C2  UNL     1      -0.587   1.061   0.951  1.00  0.00     0.007 C 
HETATM    3  C3  UNL     1       0.523   1.562   0.443  1.00  0.00     0.025 C 
HETATM    4  C4  UNL     1       1.783   0.997  -0.025  1.00  0.00     0.019 C 
HETATM    5  C5  UNL     1       2.482  -0.116   0.219  1.00  0.00     0.031 C 
HETATM    6  C9  UNL     1       2.152  -1.234   1.137  1.00  0.00     0.015 C 
HETATM    7  C10 UNL     1       0.984  -1.715   1.558  1.00  0.00     0.006 C 
HETATM    8  C11 UNL     1      -0.490  -1.610   1.508  1.00  0.00     0.170 C 
HETATM    9  C12 UNL     1      -1.097  -1.928   2.831  1.00  0.00     0.108 C 
HETATM   10  C13 UNL     1      -2.291  -1.336   2.721  1.00  0.00     0.173 C 
HETATM   11  F1  UNL     1      -3.151  -1.421   3.782  1.00  0.00    -0.203 F 
HETATM   12  C14 UNL     1      -2.344  -0.697   1.338  1.00  0.00     0.290 C 
HETATM   13  N2  UNL     1      -0.964  -0.274   1.234  1.00  0.00    -0.338 N 
ENDROOT
BRANCH  12  14
HETATM   14  O4  UNL     1      -2.649  -1.635   0.394  1.00  0.00    -0.355 OA
BRANCH  14  15
HETATM   15  C15 UNL     1      -3.814  -1.537  -0.289  1.00  0.00     0.209 C 
BRANCH  15  16
HETATM   16  C16 UNL     1      -3.981  -0.293  -1.075  1.00  0.00    -0.034 A 
HETATM   17  C17 UNL     1      -4.598   0.867  -0.654  1.00  0.00     0.012 A 
HETATM   18  C18 UNL     1      -4.714   1.985  -1.430  1.00  0.00     0.043 A 
HETATM   19  C19 UNL     1      -4.204   2.006  -2.712  1.00  0.00     0.116 A 
HETATM   20  F2  UNL     1      -4.347   3.140  -3.436  1.00  0.00    -0.206 F 
HETATM   21  C20 UNL     1      -3.571   0.881  -3.207  1.00  0.00     0.043 A 
HETATM   22  C21 UNL     1      -3.482  -0.215  -2.381  1.00  0.00     0.012 A 
ENDBRANCH  15  16
ENDBRANCH  14  15
ENDBRANCH  12  14
BRANCH   9  23
HETATM   23  O3  UNL     1      -0.477  -2.657   3.823  1.00  0.00    -0.360 OA
HETATM   24  H15 UNL     1      -0.648  -3.639   3.961  1.00  0.00     0.217 HD
ENDBRANCH   9  23
BRANCH   5  25
HETATM   25  C6  UNL     1       3.727  -0.354  -0.446  1.00  0.00     0.251 C 
HETATM   26  O1  UNL     1       4.386  -1.415  -0.207  1.00  0.00    -0.268 OA
HETATM   27  N1  UNL     1       4.411   0.418  -1.381  1.00  0.00    -0.355 N 
HETATM   28  H6  UNL     1       3.990   1.323  -1.679  1.00  0.00     0.162 HD
BRANCH  27  29
HETATM   29  C7  UNL     1       5.679   0.102  -2.008  1.00  0.00     0.148 C 
BRANCH  29  30
HETATM   30  C8  UNL     1       6.798  -0.041  -1.000  1.00  0.00     0.183 C 
BRANCH  30  31
HETATM   31  O2  UNL     1       6.994   1.129  -0.267  1.00  0.00    -0.399 OA
HETATM   32  H11 UNL     1       6.851   1.905  -0.859  1.00  0.00     0.209 HD
ENDBRANCH  30  31
ENDBRANCH  29  30
ENDBRANCH  27  29
ENDBRANCH   5  25
TORSDOF 8
