REMARK  3 active torsions:
REMARK  status: ('A' for Active; 'I' for Inactive)
REMARK       I    between atoms: N1_2  and  C2_3 
REMARK    1  A    between atoms: C2_3  and  C3_5 
REMARK    2  A    between atoms: C5_8  and  C6_9 
REMARK    3  A    between atoms: C7_10  and  C8_11 
ROOT
HETATM    1  C3  UNL     1       3.161   0.375   0.388  1.00  0.00     0.199 A 
HETATM    2  N2  UNL     1       2.980   1.045   1.544  1.00  0.00    -0.235 NA
HETATM    3  C4  UNL     1       1.643   0.999   1.803  1.00  0.00     0.158 A 
HETATM    4  C5  UNL     1       1.010   0.296   0.799  1.00  0.00     0.108 A 
HETATM    5  N3  UNL     1       1.972  -0.092  -0.086  1.00  0.00    -0.323 N 
HETATM    6  C15 UNL     1       1.721  -0.861  -1.295  1.00  0.00     0.159 C 
ENDROOT
BRANCH   4   7
HETATM    7  C6  UNL     1      -0.388  -0.007   0.649  1.00  0.00    -0.042 C 
HETATM    8  C7  UNL     1      -1.564  -0.275   0.505  1.00  0.00    -0.059 C 
BRANCH   8   9
HETATM    9  C8  UNL     1      -2.953  -0.583   0.311  1.00  0.00     0.027 A 
HETATM   10  C9  UNL     1      -3.335  -1.838   0.374  1.00  0.00     0.071 A 
HETATM   11  C10 UNL     1      -4.759  -2.083   0.169  1.00  0.00     0.154 A 
HETATM   12  O2  UNL     1      -5.257  -3.239   0.203  1.00  0.00    -0.293 OA
HETATM   13  C11 UNL     1      -5.816  -1.078  -0.101  1.00  0.00     0.110 A 
HETATM   14  C12 UNL     1      -5.156   0.260  -0.127  1.00  0.00    -0.011 A 
HETATM   15  C13 UNL     1      -3.865   0.502   0.057  1.00  0.00    -0.046 A 
HETATM   16  C14 UNL     1      -3.400   1.900  -0.007  1.00  0.00     0.049 C 
ENDBRANCH   8   9
ENDBRANCH   4   7
BRANCH   1  17
HETATM   17  C2  UNL     1       4.398   0.123  -0.340  1.00  0.00     0.287 C 
HETATM   18  N1  UNL     1       5.597   0.634   0.205  1.00  0.00    -0.359 N 
HETATM   19  C1  UNL     1       6.950   0.539  -0.293  1.00  0.00     0.149 C 
HETATM   20  H4  UNL     1       5.601   1.185   1.115  1.00  0.00     0.162 HD
HETATM   21  O1  UNL     1       4.576  -0.493  -1.404  1.00  0.00    -0.264 OA
ENDBRANCH   1  17
TORSDOF 3
