REMARK  6 active torsions:
REMARK  status: ('A' for Active; 'I' for Inactive)
REMARK    1  A    between atoms: C2_3  and  N2_4 
REMARK    2  A    between atoms: C2_3  and  C3_5 
REMARK    3  A    between atoms: C6_8  and  C7_9 
REMARK    4  A    between atoms: C7_9  and  N3_10 
REMARK    5  A    between atoms: C12_17  and  O1_18 
REMARK    6  A    between atoms: O1_18  and  C13_19 
ROOT
HETATM    1  N1  UNL     1      -4.463  -3.782   0.262  1.00  0.00    -0.195 NA
HETATM    2  C1  UNL     1      -4.384  -2.673  -0.045  1.00  0.00     0.100 C 
HETATM    3  C2  UNL     1      -4.302  -1.278  -0.426  1.00  0.00     0.356 C 
ENDROOT
BRANCH   3   4
HETATM    4  N2  UNL     1      -4.388  -1.104  -1.869  1.00  0.00     0.100 N 
HETATM    5  H2  UNL     1      -3.453  -1.364  -2.282  1.00  0.00     0.315 HD
HETATM    6  H3  UNL     1      -5.173  -1.667  -2.269  1.00  0.00     0.315 HD
ENDBRANCH   3   4
BRANCH   3   7
HETATM    7  C3  UNL     1      -3.009  -0.697   0.014  1.00  0.00    -0.009 A 
HETATM    8  C4  UNL     1      -2.253  -1.413   0.917  1.00  0.00     0.011 A 
HETATM    9  C5  UNL     1      -1.049  -0.967   1.383  1.00  0.00     0.012 A 
HETATM   10  C6  UNL     1      -0.574   0.241   0.933  1.00  0.00    -0.007 A 
HETATM   11  C12 UNL     1      -1.240   1.041   0.033  1.00  0.00     0.083 A 
HETATM   12  C14 UNL     1      -2.473   0.527  -0.409  1.00  0.00     0.048 A 
BRANCH  10  13
HETATM   13  C7  UNL     1       0.707   0.795   1.377  1.00  0.00     0.158 C 
BRANCH  13  14
HETATM   14  N3  UNL     1       1.733   0.652   0.393  1.00  0.00    -0.406 N 
HETATM   15  C8  UNL     1       3.001   1.173   0.779  1.00  0.00     0.132 C 
HETATM   16  C9  UNL     1       4.121   0.669  -0.094  1.00  0.00     0.121 C 
HETATM   17  N4  UNL     1       4.200  -0.753   0.054  1.00  0.00    -0.253 NA
HETATM   18  I1  UNL     1       5.369  -1.706  -1.341  1.00  0.00     0.020 I 
HETATM   19  C10 UNL     1       2.937  -1.393   0.259  1.00  0.00     0.121 C 
HETATM   20  C11 UNL     1       1.758  -0.586  -0.305  1.00  0.00     0.132 C 
ENDBRANCH  13  14
ENDBRANCH  10  13
BRANCH  11  21
HETATM   21  O1  UNL     1      -1.064   2.203  -0.572  1.00  0.00    -0.290 OA
BRANCH  21  22
HETATM   22  C13 UNL     1      -0.165   3.230  -0.650  1.00  0.00     0.505 C 
HETATM   23  F1  UNL     1      -0.793   4.446  -0.302  1.00  0.00    -0.184 F 
HETATM   24  F2  UNL     1       0.273   3.427  -1.979  1.00  0.00    -0.184 F 
ENDBRANCH  21  22
ENDBRANCH  11  21
ENDBRANCH   3   7
TORSDOF 6
