REMARK  8 active torsions:
REMARK  status: ('A' for Active; 'I' for Inactive)
REMARK    1  A    between atoms: C5_5  and  C6_6 
REMARK       I    between atoms: C6_6  and  N1_8 
REMARK    2  A    between atoms: N1_8  and  C7_9 
REMARK    3  A    between atoms: C7_9  and  C8_10 
REMARK    4  A    between atoms: C8_10  and  O2_11 
REMARK    5  A    between atoms: C10_13  and  N2_14 
REMARK    6  A    between atoms: C12_17  and  O3_18 
REMARK    7  A    between atoms: O3_18  and  C13_19 
REMARK    8  A    between atoms: C13_19  and  C14_20 
ROOT
HETATM    1  N2  UNL     1       0.041  -1.465   0.348  1.00  0.00    -0.271 N 
HETATM    2  C11 UNL     1       0.865  -0.621   0.991  1.00  0.00     0.221 A 
HETATM    3  N3  UNL     1       2.180  -0.641   0.737  1.00  0.00    -0.218 NA
HETATM    4  C12 UNL     1       2.775  -1.465  -0.141  1.00  0.00     0.193 A 
HETATM    5  C20 UNL     1       1.894  -2.340  -0.801  1.00  0.00     0.155 A 
HETATM    6 CL1  UNL     1       2.309  -3.544  -2.000  1.00  0.00    -0.074 Cl
HETATM    7  C21 UNL     1       0.511  -2.342  -0.556  1.00  0.00     0.279 A 
HETATM    8  O4  UNL     1      -0.345  -3.062  -1.076  1.00  0.00    -0.266 OA
ENDROOT
BRANCH   1   9
HETATM    9  C10 UNL     1      -1.315  -1.266   0.778  1.00  0.00     0.050 A 
HETATM   10  C2  UNL     1      -1.639  -1.839   1.991  1.00  0.00    -0.035 A 
HETATM   11  C1  UNL     1      -0.680  -2.618   2.818  1.00  0.00     0.050 C 
HETATM   12  C3  UNL     1      -2.933  -1.651   2.414  1.00  0.00     0.010 A 
HETATM   13  C4  UNL     1      -3.869  -0.927   1.670  1.00  0.00     0.017 A 
HETATM   14  C5  UNL     1      -3.514  -0.367   0.463  1.00  0.00     0.034 A 
HETATM   15  C9  UNL     1      -2.220  -0.542   0.015  1.00  0.00     0.047 A 
BRANCH  14  16
HETATM   16  C6  UNL     1      -4.530   0.381  -0.275  1.00  0.00     0.251 C 
HETATM   17  O1  UNL     1      -5.671   0.460   0.298  1.00  0.00    -0.268 OA
HETATM   18  N1  UNL     1      -4.370   1.006  -1.525  1.00  0.00    -0.355 N 
HETATM   19  H6  UNL     1      -3.412   0.895  -1.924  1.00  0.00     0.162 HD
BRANCH  18  20
HETATM   20  C7  UNL     1      -5.463   1.710  -2.132  1.00  0.00     0.148 C 
BRANCH  20  21
HETATM   21  C8  UNL     1      -5.997   2.859  -1.333  1.00  0.00     0.183 C 
BRANCH  21  22
HETATM   22  O2  UNL     1      -7.053   3.421  -2.080  1.00  0.00    -0.399 OA
HETATM   23  H11 UNL     1      -7.779   2.780  -2.222  1.00  0.00     0.209 HD
ENDBRANCH  21  22
ENDBRANCH  20  21
ENDBRANCH  18  20
ENDBRANCH  14  16
ENDBRANCH   1   9
BRANCH   4  24
HETATM   24  O3  UNL     1       4.007  -1.699  -0.580  1.00  0.00    -0.328 OA
BRANCH  24  25
HETATM   25  C13 UNL     1       5.276  -1.261  -0.397  1.00  0.00     0.219 C 
BRANCH  25  26
HETATM   26  C14 UNL     1       5.488   0.178  -0.690  1.00  0.00     0.005 A 
HETATM   27  C15 UNL     1       6.029   0.489  -1.920  1.00  0.00     0.015 A 
HETATM   28  C16 UNL     1       6.257   1.796  -2.322  1.00  0.00     0.043 A 
HETATM   29  C17 UNL     1       5.949   2.856  -1.495  1.00  0.00     0.119 A 
HETATM   30  F1  UNL     1       6.101   4.168  -1.726  1.00  0.00    -0.206 F 
HETATM   31  C18 UNL     1       5.413   2.550  -0.275  1.00  0.00     0.085 A 
HETATM   32  C19 UNL     1       5.185   1.244   0.128  1.00  0.00     0.127 A 
HETATM   33  F2  UNL     1       4.672   0.975   1.344  1.00  0.00    -0.205 F 
ENDBRANCH  25  26
ENDBRANCH  24  25
ENDBRANCH   4  24
TORSDOF 8
