REMARK  4 active torsions:
REMARK  status: ('A' for Active; 'I' for Inactive)
REMARK    1  A    between atoms: C9_11  and  N2_12 
REMARK    2  A    between atoms: C11_15  and  O2_16 
REMARK    3  A    between atoms: O2_16  and  C12_17 
REMARK    4  A    between atoms: C12_17  and  C13_18 
ROOT
HETATM    1  N2  UNL     1       0.184  -0.594  -0.008  1.00  0.00    -0.297 N 
HETATM    2  C10 UNL     1      -0.856  -0.163   0.675  1.00  0.00     0.216 A 
HETATM    3  N3  UNL     1      -1.997  -0.830   0.581  1.00  0.00    -0.218 NA
HETATM    4  C11 UNL     1      -2.201  -1.919  -0.150  1.00  0.00     0.193 A 
HETATM    5  C19 UNL     1      -1.131  -2.409  -0.885  1.00  0.00     0.154 A 
HETATM    6 CL1  UNL     1      -1.453  -3.850  -1.831  1.00  0.00    -0.074 Cl
HETATM    7  C20 UNL     1       0.047  -1.712  -0.784  1.00  0.00     0.275 A 
HETATM    8  O3  UNL     1       0.896  -2.314  -1.528  1.00  0.00    -0.266 OA
ENDROOT
BRANCH   1   9
HETATM    9  C9  UNL     1       1.491   0.041  -0.096  1.00  0.00     0.053 C 
HETATM   10  C2  UNL     1       1.522   1.516   0.112  1.00  0.00    -0.038 C 
HETATM   11  C1  UNL     1       0.393   2.480   0.180  1.00  0.00     0.048 C 
HETATM   12  C3  UNL     1       2.608   2.224   0.060  1.00  0.00     0.139 C 
HETATM   13  O1  UNL     1       3.839   1.537   0.006  1.00  0.00    -0.361 OA
HETATM   14  C4  UNL     1       4.398   1.414   1.325  1.00  0.00     0.193 C 
HETATM   15  C5  UNL     1       5.606   0.597   1.363  1.00  0.00     0.140 C 
HETATM   16  N1  UNL     1       5.494  -0.742   0.985  1.00  0.00    -0.419 N 
HETATM   17  C6  UNL     1       5.166  -1.128  -0.317  1.00  0.00     0.114 C 
HETATM   18  H9  UNL     1       6.145  -1.359   1.478  1.00  0.00     0.153 HD
HETATM   19  C7  UNL     1       3.741  -1.209  -0.752  1.00  0.00     0.027 C 
HETATM   20  C8  UNL     1       2.793  -0.200  -0.410  1.00  0.00     0.095 C 
ENDBRANCH   1   9
BRANCH   4  21
HETATM   21  O2  UNL     1      -3.427  -2.537  -0.176  1.00  0.00    -0.328 OA
BRANCH  21  22
HETATM   22  C12 UNL     1      -4.573  -2.114   0.531  1.00  0.00     0.219 C 
BRANCH  22  23
HETATM   23  C13 UNL     1      -5.001  -0.759   0.114  1.00  0.00     0.005 A 
HETATM   24  C14 UNL     1      -4.589   0.064  -0.907  1.00  0.00     0.015 A 
HETATM   25  C15 UNL     1      -5.172   1.297  -1.092  1.00  0.00     0.043 A 
HETATM   26  C16 UNL     1      -6.178   1.769  -0.285  1.00  0.00     0.119 A 
HETATM   27  F1  UNL     1      -6.749   2.985  -0.472  1.00  0.00    -0.206 F 
HETATM   28  C17 UNL     1      -6.606   0.949   0.751  1.00  0.00     0.085 A 
HETATM   29  C18 UNL     1      -6.028  -0.308   0.958  1.00  0.00     0.127 A 
HETATM   30  F2  UNL     1      -6.565  -0.972   2.013  1.00  0.00    -0.205 F 
ENDBRANCH  22  23
ENDBRANCH  21  22
ENDBRANCH   4  21
TORSDOF 4
