REMARK  8 active torsions:
REMARK  status: ('A' for Active; 'I' for Inactive)
REMARK    1  A    between atoms: C5_5  and  N1_6 
REMARK    2  A    between atoms: N1_6  and  C6_7 
REMARK    3  A    between atoms: C6_7  and  C7_8 
REMARK    4  A    between atoms: C7_8  and  O1_9 
REMARK    5  A    between atoms: C9_11  and  N2_12 
REMARK    6  A    between atoms: C11_15  and  O2_16 
REMARK    7  A    between atoms: O2_16  and  C12_17 
REMARK    8  A    between atoms: C12_17  and  C13_18 
ROOT
HETATM    1  N2  UNL     1      -0.571  -0.581  -0.257  1.00  0.00    -0.271 N 
HETATM    2  C10 UNL     1       0.211  -1.434   0.428  1.00  0.00     0.221 A 
HETATM    3  N3  UNL     1       1.540  -1.213   0.602  1.00  0.00    -0.218 NA
HETATM    4  C11 UNL     1       2.123  -0.100   0.076  1.00  0.00     0.193 A 
HETATM    5  C19 UNL     1       1.326   0.797  -0.638  1.00  0.00     0.155 A 
HETATM    6 CL1  UNL     1       1.972   2.271  -1.364  1.00  0.00    -0.074 Cl
HETATM    7  C20 UNL     1      -0.037   0.534  -0.795  1.00  0.00     0.279 A 
HETATM    8  O3  UNL     1      -0.734   1.363  -1.446  1.00  0.00    -0.266 OA
ENDROOT
BRANCH   1   9
HETATM    9  C9  UNL     1      -1.962  -0.752  -0.477  1.00  0.00     0.051 A 
HETATM   10  C2  UNL     1      -2.304  -1.352  -1.661  1.00  0.00    -0.035 A 
HETATM   11  C1  UNL     1      -1.301  -1.805  -2.666  1.00  0.00     0.050 C 
HETATM   12  C3  UNL     1      -3.641  -1.548  -1.939  1.00  0.00     0.011 A 
HETATM   13  C4  UNL     1      -4.559  -1.125  -1.002  1.00  0.00     0.030 A 
HETATM   14  C5  UNL     1      -4.260  -0.524   0.188  1.00  0.00     0.030 A 
HETATM   15  C8  UNL     1      -2.915  -0.346   0.429  1.00  0.00     0.059 A 
BRANCH  14  16
HETATM   16  N1  UNL     1      -5.194  -0.073   1.145  1.00  0.00    -0.388 N 
HETATM   17  H6  UNL     1      -4.826   0.336   2.045  1.00  0.00     0.159 HD
BRANCH  16  18
HETATM   18  C6  UNL     1      -6.638  -0.082   1.088  1.00  0.00     0.146 C 
BRANCH  18  19
HETATM   19  C7  UNL     1      -7.078   0.953   0.087  1.00  0.00     0.183 C 
BRANCH  19  20
HETATM   20  O1  UNL     1      -6.588   2.176   0.561  1.00  0.00    -0.399 OA
HETATM   21  H11 UNL     1      -5.778   2.028   1.101  1.00  0.00     0.209 HD
ENDBRANCH  19  20
ENDBRANCH  18  19
ENDBRANCH  16  18
ENDBRANCH  14  16
ENDBRANCH   1   9
BRANCH   4  22
HETATM   22  O2  UNL     1       3.443   0.279   0.154  1.00  0.00    -0.328 OA
BRANCH  22  23
HETATM   23  C12 UNL     1       4.478  -0.403   0.795  1.00  0.00     0.219 C 
BRANCH  23  24
HETATM   24  C13 UNL     1       5.772   0.349   0.644  1.00  0.00     0.005 A 
HETATM   25  C14 UNL     1       6.760  -0.064  -0.256  1.00  0.00     0.015 A 
HETATM   26  C15 UNL     1       7.934   0.662  -0.363  1.00  0.00     0.043 A 
HETATM   27  C16 UNL     1       8.154   1.790   0.402  1.00  0.00     0.119 A 
HETATM   28  F1  UNL     1       9.311   2.498   0.291  1.00  0.00    -0.206 F 
HETATM   29  C17 UNL     1       7.172   2.184   1.283  1.00  0.00     0.085 A 
HETATM   30  C18 UNL     1       5.996   1.475   1.404  1.00  0.00     0.127 A 
HETATM   31  F2  UNL     1       5.049   1.897   2.288  1.00  0.00    -0.205 F 
ENDBRANCH  23  24
ENDBRANCH  22  23
ENDBRANCH   4  22
TORSDOF 8
