REMARK  6 active torsions:
REMARK  status: ('A' for Active; 'I' for Inactive)
REMARK    1  A    between atoms: O1_2  and  C2_3 
REMARK    2  A    between atoms: C2_3  and  C3_4 
REMARK    3  A    between atoms: C3_4  and  O3_26 
REMARK    4  A    between atoms: C4_5  and  C5_6 
REMARK    5  A    between atoms: C9_11  and  N2_12 
REMARK    6  A    between atoms: N2_12  and  C10_13 
ROOT
HETATM    1  C5  UNL     1      -1.867  -1.456  -0.575  1.00  0.00     0.078 C 
HETATM    2  C6  UNL     1      -1.009  -2.484  -0.696  1.00  0.00     0.030 C 
HETATM    3  C7  UNL     1       0.338  -2.764  -0.184  1.00  0.00     0.150 C 
HETATM    4  N1  UNL     1       1.238  -1.635  -0.370  1.00  0.00    -0.380 N 
HETATM    5  C8  UNL     1       1.015  -0.329   0.158  1.00  0.00     0.129 A 
HETATM    6  C9  UNL     1       2.197   0.333   0.404  1.00  0.00     0.160 A 
HETATM    7  N3  UNL     1       2.123   1.577   0.894  1.00  0.00    -0.222 NA
HETATM    8  C16 UNL     1       0.921   2.123   1.124  1.00  0.00     0.238 A 
HETATM    9  N4  UNL     1      -0.273   1.503   0.896  1.00  0.00    -0.215 NA
HETATM   10  C17 UNL     1      -0.246   0.233   0.395  1.00  0.00     0.202 A 
HETATM   11  O2  UNL     1      -1.521  -0.328   0.192  1.00  0.00    -0.290 OA
HETATM   12  H10 UNL     1       2.130  -1.670  -0.909  1.00  0.00     0.160 HD
ENDROOT
BRANCH   6  13
HETATM   13  N2  UNL     1       3.474  -0.236   0.158  1.00  0.00    -0.339 N 
HETATM   14  H11 UNL     1       3.812  -1.134  -0.216  1.00  0.00     0.167 HD
BRANCH  13  15
HETATM   15  C10 UNL     1       4.686   0.436   0.447  1.00  0.00     0.035 A 
HETATM   16  C11 UNL     1       4.749   1.290   1.526  1.00  0.00     0.032 A 
HETATM   17  C12 UNL     1       5.871   1.990   1.850  1.00  0.00     0.046 A 
HETATM   18  C13 UNL     1       7.038   1.879   1.095  1.00  0.00     0.138 A 
HETATM   19  F1  UNL     1       8.187   2.543   1.359  1.00  0.00    -0.204 F 
HETATM   20  C14 UNL     1       7.043   1.043   0.005  1.00  0.00     0.074 A 
HETATM   21 CL1  UNL     1       8.434   0.787  -1.055  1.00  0.00    -0.081 Cl
HETATM   22  C15 UNL     1       5.882   0.362  -0.276  1.00  0.00     0.056 A 
ENDBRANCH  13  15
ENDBRANCH   6  13
BRANCH   1  23
HETATM   23  C4  UNL     1      -3.164  -1.508  -1.238  1.00  0.00     0.071 C 
HETATM   24  C3  UNL     1      -4.095  -0.601  -1.215  1.00  0.00     0.072 C 
BRANCH  24  25
HETATM   25  C2  UNL     1      -4.235   0.709  -0.591  1.00  0.00     0.231 C 
BRANCH  25  26
HETATM   26  O1  UNL     1      -5.351   0.646   0.261  1.00  0.00    -0.390 OA
HETATM   27  C1  UNL     1      -5.539   1.886   0.899  1.00  0.00     0.201 C 
ENDBRANCH  25  26
ENDBRANCH  24  25
BRANCH  24  28
HETATM   28  O3  UNL     1      -5.287  -0.843  -1.927  1.00  0.00    -0.358 OA
HETATM   29  C18 UNL     1      -6.123  -1.833  -1.314  1.00  0.00     0.209 C 
ENDBRANCH  24  28
ENDBRANCH   1  23
TORSDOF 6
