REMARK  8 active torsions:
REMARK  status: ('A' for Active; 'I' for Inactive)
REMARK    1  A    between atoms: C5_5  and  C6_6 
REMARK       I    between atoms: C6_6  and  N1_8 
REMARK    2  A    between atoms: N1_8  and  C7_9 
REMARK    3  A    between atoms: C7_9  and  C8_10 
REMARK    4  A    between atoms: C8_10  and  O2_11 
REMARK    5  A    between atoms: C10_13  and  N2_14 
REMARK    6  A    between atoms: C12_17  and  O3_18 
REMARK    7  A    between atoms: O3_18  and  C13_19 
REMARK    8  A    between atoms: C13_19  and  C14_20 
ROOT
HETATM    1  N2  UNL     1      -0.028   0.002   0.574  1.00  0.00    -0.271 N 
HETATM    2  C11 UNL     1       0.696  -0.897   1.266  1.00  0.00     0.221 A 
HETATM    3  N3  UNL     1       2.026  -1.046   1.124  1.00  0.00    -0.218 NA
HETATM    4  C12 UNL     1       2.712  -0.298   0.273  1.00  0.00     0.193 A 
HETATM    5  C20 UNL     1       2.008   0.653  -0.473  1.00  0.00     0.155 A 
HETATM    6 CL1  UNL     1       2.747   1.726  -1.641  1.00  0.00    -0.074 Cl
HETATM    7  C21 UNL     1       0.637   0.792  -0.312  1.00  0.00     0.279 A 
HETATM    8  O4  UNL     1      -0.033   1.650  -0.977  1.00  0.00    -0.266 OA
ENDROOT
BRANCH   1   9
HETATM    9  C10 UNL     1      -1.432   0.186   0.699  1.00  0.00     0.050 A 
HETATM   10  C2  UNL     1      -1.793   0.784   1.897  1.00  0.00    -0.035 A 
HETATM   11  C1  UNL     1      -0.811   1.195   2.953  1.00  0.00     0.050 C 
HETATM   12  C3  UNL     1      -3.131   1.033   2.170  1.00  0.00     0.010 A 
HETATM   13  C4  UNL     1      -4.032   0.654   1.197  1.00  0.00     0.017 A 
HETATM   14  C5  UNL     1      -3.687   0.059   0.002  1.00  0.00     0.034 A 
HETATM   15  C9  UNL     1      -2.360  -0.172  -0.235  1.00  0.00     0.047 A 
BRANCH  14  16
HETATM   16  C6  UNL     1      -4.648  -0.337  -1.020  1.00  0.00     0.251 C 
HETATM   17  O1  UNL     1      -4.289  -0.884  -2.102  1.00  0.00    -0.268 OA
HETATM   18  N1  UNL     1      -6.053  -0.159  -0.920  1.00  0.00    -0.355 N 
HETATM   19  H6  UNL     1      -6.417   0.297  -0.032  1.00  0.00     0.162 HD
BRANCH  18  20
HETATM   20  C7  UNL     1      -6.941  -0.572  -1.965  1.00  0.00     0.148 C 
BRANCH  20  21
HETATM   21  C8  UNL     1      -8.369  -0.241  -1.549  1.00  0.00     0.183 C 
BRANCH  21  22
HETATM   22  O2  UNL     1      -8.429   1.144  -1.355  1.00  0.00    -0.399 OA
HETATM   23  H11 UNL     1      -8.525   1.600  -2.229  1.00  0.00     0.209 HD
ENDBRANCH  21  22
ENDBRANCH  20  21
ENDBRANCH  18  20
ENDBRANCH  14  16
ENDBRANCH   1   9
BRANCH   4  24
HETATM   24  O3  UNL     1       4.052  -0.296  -0.014  1.00  0.00    -0.328 OA
BRANCH  24  25
HETATM   25  C13 UNL     1       5.040  -1.109   0.542  1.00  0.00     0.219 C 
BRANCH  25  26
HETATM   26  C14 UNL     1       6.331  -0.704  -0.115  1.00  0.00     0.004 A 
HETATM   27  C15 UNL     1       7.033  -1.364  -1.102  1.00  0.00     0.012 A 
HETATM   28  C16 UNL     1       8.200  -0.810  -1.562  1.00  0.00     0.001 A 
HETATM   29  C17 UNL     1       8.678   0.369  -1.068  1.00  0.00     0.003 A 
HETATM   30  C18 UNL     1       7.989   1.056  -0.071  1.00  0.00     0.043 A 
HETATM   31  C19 UNL     1       6.804   0.494   0.396  1.00  0.00     0.124 A 
HETATM   32  F1  UNL     1       6.206   1.235   1.366  1.00  0.00    -0.205 F 
ENDBRANCH  25  26
ENDBRANCH  24  25
ENDBRANCH   4  24
TORSDOF 8
