REMARK  10 active torsions:
REMARK  status: ('A' for Active; 'I' for Inactive)
REMARK       I    between atoms: C1_2  and  N1_3 
REMARK    1  A    between atoms: C1_2  and  C4_7 
REMARK    2  A    between atoms: N1_3  and  C2_4 
REMARK    3  A    between atoms: C2_4  and  C3_5 
REMARK    4  A    between atoms: C3_5  and  O2_6 
REMARK    5  A    between atoms: C7_10  and  C8_11 
REMARK    6  A    between atoms: C8_11  and  O3_12 
REMARK    7  A    between atoms: O3_12  and  C9_13 
REMARK    8  A    between atoms: C9_13  and  C10_14 
REMARK    9  A    between atoms: C16_21  and  C17_22 
REMARK   10  A    between atoms: C20_26  and  O4_27 
ROOT
HETATM    1  C4  UNL     1       2.513   0.081   0.313  1.00  0.00     0.032 A 
HETATM    2  C5  UNL     1       1.735  -0.628   1.221  1.00  0.00     0.017 A 
HETATM    3  C6  UNL     1       0.472  -0.175   1.464  1.00  0.00     0.011 A 
HETATM    4  C7  UNL     1      -0.135   0.927   0.902  1.00  0.00    -0.027 A 
HETATM    5  C16 UNL     1       0.625   1.641   0.001  1.00  0.00    -0.033 A 
HETATM    6  C21 UNL     1       1.931   1.189  -0.264  1.00  0.00     0.026 A 
ENDROOT
BRANCH   4   7
HETATM    7  C8  UNL     1      -1.495   1.408   1.218  1.00  0.00     0.207 C 
BRANCH   7   8
HETATM    8  O3  UNL     1      -2.420   1.299   0.274  1.00  0.00    -0.382 OA
BRANCH   8   9
HETATM    9  C9  UNL     1      -2.914   0.214  -0.284  1.00  0.00     0.209 C 
BRANCH   9  10
HETATM   10  C10 UNL     1      -3.667  -0.759   0.511  1.00  0.00     0.004 A 
HETATM   11  C11 UNL     1      -5.052  -0.507   0.487  1.00  0.00     0.012 A 
HETATM   12  C12 UNL     1      -5.983  -1.238   1.183  1.00  0.00     0.001 A 
HETATM   13  C13 UNL     1      -5.603  -2.295   1.972  1.00  0.00     0.003 A 
HETATM   14  C14 UNL     1      -4.266  -2.585   2.031  1.00  0.00     0.043 A 
HETATM   15  C15 UNL     1      -3.380  -1.828   1.319  1.00  0.00     0.124 A 
HETATM   16  F1  UNL     1      -2.058  -2.105   1.321  1.00  0.00    -0.205 F 
ENDBRANCH   9  10
ENDBRANCH   8   9
ENDBRANCH   7   8
ENDBRANCH   4   7
BRANCH   5  17
HETATM   17  C17 UNL     1       0.243   2.839  -0.732  1.00  0.00     0.117 A 
HETATM   18  C18 UNL     1      -0.467   3.878   0.059  1.00  0.00     0.105 A 
HETATM   19  N2  UNL     1      -1.523   4.255  -0.585  1.00  0.00    -0.274 NA
HETATM   20  C19 UNL     1      -1.639   3.538  -1.831  1.00  0.00     0.148 A 
HETATM   21  C20 UNL     1      -0.591   2.695  -1.918  1.00  0.00     0.074 A 
BRANCH  21  22
HETATM   22  O4  UNL     1      -0.522   1.900  -3.063  1.00  0.00    -0.362 OA
HETATM   23  H20 UNL     1      -0.810   0.925  -2.959  1.00  0.00     0.217 HD
ENDBRANCH  21  22
ENDBRANCH   5  17
BRANCH   1  24
HETATM   24  C1  UNL     1       3.872  -0.309  -0.017  1.00  0.00     0.251 C 
HETATM   25  O1  UNL     1       4.510   0.375  -0.883  1.00  0.00    -0.268 OA
HETATM   26  N1  UNL     1       4.537  -1.413   0.569  1.00  0.00    -0.355 N 
HETATM   27  H1  UNL     1       4.012  -1.968   1.279  1.00  0.00     0.162 HD
BRANCH  26  28
HETATM   28  C2  UNL     1       5.886  -1.862   0.289  1.00  0.00     0.148 C 
BRANCH  28  29
HETATM   29  C3  UNL     1       5.931  -2.225  -1.193  1.00  0.00     0.183 C 
BRANCH  29  30
HETATM   30  O2  UNL     1       4.999  -3.251  -1.463  1.00  0.00    -0.399 OA
HETATM   31  H6  UNL     1       4.458  -3.459  -0.653  1.00  0.00     0.209 HD
ENDBRANCH  29  30
ENDBRANCH  28  29
ENDBRANCH  26  28
ENDBRANCH   1  24
TORSDOF 10
