REMARK  5 active torsions:
REMARK  status: ('A' for Active; 'I' for Inactive)
REMARK    1  A    between atoms: O1_2  and  C2_3 
REMARK    2  A    between atoms: C2_3  and  C3_4 
REMARK    3  A    between atoms: C3_4  and  C4_5 
REMARK    4  A    between atoms: C4_5  and  C5_7 
REMARK    5  A    between atoms: B1_25  and  O4_26 
ROOT
HETATM    1  C5  UNL     1       1.372   0.139  -0.624  1.00  0.00     0.026 C 
HETATM    2  C6  UNL     1       0.911  -1.086  -0.700  1.00  0.00     0.018 C 
HETATM    3  C7  UNL     1       0.174  -2.310  -0.644  1.00  0.00     0.025 C 
HETATM    4  C8  UNL     1      -1.052  -2.513  -0.100  1.00  0.00     0.008 C 
HETATM    5  C9  UNL     1      -1.629  -3.897  -0.165  1.00  0.00     0.068 C 
HETATM    6  N1  UNL     1      -2.116  -1.815   0.606  1.00  0.00    -0.347 N 
HETATM    7  C10 UNL     1      -2.366  -2.277   1.961  1.00  0.00     0.205 C 
HETATM    8  N2  UNL     1      -1.924  -1.364   2.795  1.00  0.00    -0.259 NA
HETATM    9  C11 UNL     1      -2.587  -0.077   2.892  1.00  0.00     0.243 C 
HETATM   10  O3  UNL     1      -1.639   1.010   2.903  1.00  0.00    -0.328 OA
HETATM   11  C12 UNL     1      -1.184   1.466   1.659  1.00  0.00     0.110 A 
HETATM   12  C13 UNL     1      -1.614   2.547   0.931  1.00  0.00     0.043 A 
HETATM   13  C14 UNL     1      -1.055   2.843  -0.292  1.00  0.00     0.046 A 
HETATM   14  C15 UNL     1      -0.044   2.008  -0.760  1.00  0.00     0.130 A 
HETATM   15  F1  UNL     1       0.458   2.345  -1.956  1.00  0.00    -0.205 F 
HETATM   16  C16 UNL     1       0.352   0.927   0.022  1.00  0.00     0.058 A 
HETATM   17  C17 UNL     1      -0.188   0.616   1.244  1.00  0.00     0.163 A 
HETATM   18  F2  UNL     1       0.351  -0.461   1.856  1.00  0.00    -0.202 F 
HETATM   19  B1  UNL     1      -3.443   0.087   1.576  1.00  0.00     0.406 B 
HETATM   20  C18 UNL     1      -3.021  -0.725   0.298  1.00  0.00     0.083 C 
HETATM   21  C19 UNL     1      -4.249  -1.210  -0.479  1.00  0.00     0.024 C 
ENDROOT
BRANCH   1  22
HETATM   22  C4  UNL     1       2.680   0.578  -1.139  1.00  0.00     0.162 C 
HETATM   23  O2  UNL     1       2.733   1.797  -0.866  1.00  0.00    -0.292 OA
BRANCH  22  24
HETATM   24  C3  UNL     1       3.967   0.909  -1.669  1.00  0.00     0.110 C 
BRANCH  24  25
HETATM   25  C2  UNL     1       4.338   2.337  -1.434  1.00  0.00     0.174 C 
BRANCH  25  26
HETATM   26  O1  UNL     1       5.561   2.676  -1.956  1.00  0.00    -0.396 OA
HETATM   27  C1  UNL     1       6.627   1.964  -1.442  1.00  0.00     0.201 C 
ENDBRANCH  25  26
ENDBRANCH  24  25
ENDBRANCH  22  24
ENDBRANCH   1  22
BRANCH  19  28
HETATM   28  O4  UNL     1      -4.860   0.387   1.746  1.00  0.00    -0.457 OA
HETATM   29  H17 UNL     1      -4.917   1.191   2.354  1.00  0.00     0.182 HD
ENDBRANCH  19  28
TORSDOF 5
