REMARK  1 active torsions:
REMARK  status: ('A' for Active; 'I' for Inactive)
REMARK    1  A    between atoms: N1_11  and  C11_12 
ROOT
HETATM    1  C1  UNL     1      -0.850  -2.946  -1.632  1.00  0.00     0.027 C 
HETATM    2  C2  UNL     1      -1.267  -1.873  -0.688  1.00  0.00     0.027 C 
HETATM    3  C3  UNL     1      -2.754  -1.779  -0.602  1.00  0.00     0.059 C 
HETATM    4  C4  UNL     1      -2.841  -0.687   0.463  1.00  0.00    -0.045 C 
HETATM    5  C5  UNL     1      -2.734  -1.038   1.756  1.00  0.00     0.008 C 
HETATM    6  C6  UNL     1      -1.449  -1.866   1.900  1.00  0.00     0.005 C 
HETATM    7  C7  UNL     1      -0.793  -1.987   0.703  1.00  0.00    -0.057 C 
HETATM    8  C8  UNL     1       0.607  -2.148   0.155  1.00  0.00     0.050 C 
HETATM    9  C9  UNL     1       1.613  -2.018   1.296  1.00  0.00     0.044 C 
HETATM   10  C10 UNL     1       2.073  -0.561   1.412  1.00  0.00     0.274 C 
HETATM   11  N1  UNL     1       2.757  -0.258   0.208  1.00  0.00     0.098 N 
HETATM   12  C14 UNL     1       1.848   0.069  -0.827  1.00  0.00     0.310 C 
HETATM   13  C15 UNL     1       0.690  -0.853  -0.674  1.00  0.00    -0.020 C 
HETATM   14  C16 UNL     1      -0.596  -0.586  -1.055  1.00  0.00     0.027 C 
HETATM   15  N2  UNL     1      -1.083   0.731  -1.525  1.00  0.00    -0.358 N 
HETATM   16  C17 UNL     1      -2.205   1.383  -0.780  1.00  0.00     0.042 C 
HETATM   17  C18 UNL     1      -2.225   2.674  -1.117  1.00  0.00     0.036 C 
HETATM   18  C19 UNL     1      -3.006   3.600  -0.518  1.00  0.00    -0.022 C 
HETATM   19  C20 UNL     1      -2.867   5.002  -0.561  1.00  0.00     0.082 C 
HETATM   20  N3  UNL     1      -2.736   6.139  -0.605  1.00  0.00    -0.193 NA
HETATM   21  B1  UNL     1      -4.510   2.849   0.551  1.00  0.00     0.226 B 
HETATM   22  C21 UNL     1      -3.893   1.234   1.125  1.00  0.00    -0.066 C 
HETATM   23  C22 UNL     1      -2.985   0.788   0.240  1.00  0.00    -0.017 C 
HETATM   24  H20 UNL     1      -0.553   1.088  -2.292  1.00  0.00     0.166 HD
ENDROOT
BRANCH  11  25
HETATM   25  C11 UNL     1       3.849   0.642   0.383  1.00  0.00     0.241 C 
HETATM   26  C12 UNL     1       3.599   1.997   0.936  1.00  0.00     0.110 C 
HETATM   27  S1  UNL     1       5.237   2.466   0.256  1.00  0.00    -0.165 SA
HETATM   28  C13 UNL     1       4.410   1.265  -0.855  1.00  0.00     0.110 C 
ENDBRANCH  11  25
TORSDOF 1
