REMARK  1 active torsions:
REMARK  status: ('A' for Active; 'I' for Inactive)
REMARK    1  A    between atoms: N2_27  and  C24_28 
ROOT
HETATM    1  N1  UNL     1       9.696  -0.584   0.365  1.00  0.00    -0.191 NA
HETATM    2  C1  UNL     1       8.556  -0.460   0.471  1.00  0.00     0.099 C 
HETATM    3  C2  UNL     1       7.137  -0.321   0.588  1.00  0.00     0.045 A 
HETATM    4  C3  UNL     1       6.667   0.348   1.708  1.00  0.00     0.023 A 
HETATM    5  C4  UNL     1       5.304   0.493   1.839  1.00  0.00     0.014 A 
HETATM    6  C5  UNL     1       4.353   0.033   0.957  1.00  0.00    -0.015 A 
HETATM    7  C6  UNL     1       4.864  -0.625  -0.140  1.00  0.00    -0.042 A 
HETATM    8  C7  UNL     1       6.217  -0.811  -0.343  1.00  0.00     0.031 A 
HETATM    9  C8  UNL     1       3.702  -1.041  -0.953  1.00  0.00     0.075 A 
HETATM   10  C9  UNL     1       2.529  -0.537  -0.202  1.00  0.00    -0.048 A 
HETATM   11  C10 UNL     1       2.889   0.084   0.911  1.00  0.00     0.029 A 
HETATM   12  C11 UNL     1       2.016   0.651   1.961  1.00  0.00     0.194 C 
HETATM   13  O1  UNL     1       2.444   1.229   2.979  1.00  0.00    -0.287 OA
HETATM   14  C12 UNL     1       0.595   0.408   1.583  1.00  0.00     0.022 A 
HETATM   15  C13 UNL     1      -0.361   0.824   2.522  1.00  0.00     0.018 A 
HETATM   16  C14 UNL     1      -1.729   0.588   2.330  1.00  0.00     0.030 A 
HETATM   17  C15 UNL     1      -2.223  -0.072   1.198  1.00  0.00     0.031 A 
HETATM   18  C16 UNL     1      -1.052  -0.287   0.592  1.00  0.00     0.038 A 
HETATM   19  C17 UNL     1       0.278  -0.260   0.397  1.00  0.00    -0.029 A 
HETATM   20  C18 UNL     1       1.105  -0.703  -0.750  1.00  0.00     0.075 C 
HETATM   21  P1  UNL     1       1.081   0.431  -2.203  1.00  0.00    -0.116 P 
HETATM   22  C19 UNL     1      -0.320   0.236  -3.411  1.00  0.00     0.032 C 
HETATM   23  C20 UNL     1      -1.524   0.231  -2.559  1.00  0.00     0.005 C 
HETATM   24  C21 UNL     1      -2.931   0.243  -3.020  1.00  0.00     0.002 C 
HETATM   25  C22 UNL     1      -3.695   0.421  -1.642  1.00  0.00     0.020 C 
HETATM   26  C23 UNL     1      -3.425  -0.691  -0.708  1.00  0.00     0.123 C 
HETATM   27  N2  UNL     1      -3.534  -0.351   0.720  1.00  0.00    -0.372 N 
HETATM   28  H10 UNL     1       2.355   0.444  -2.845  1.00  0.00     0.058 HD
ENDROOT
BRANCH  27  29
HETATM   29  C24 UNL     1      -4.492  -0.100   1.750  1.00  0.00     0.132 C 
HETATM   30  C25 UNL     1      -5.453   1.023   1.599  1.00  0.00     0.195 C 
HETATM   31  O2  UNL     1      -6.377   0.208   2.304  1.00  0.00    -0.387 OA
HETATM   32  C26 UNL     1      -5.823  -0.846   1.540  1.00  0.00     0.195 C 
ENDBRANCH  27  29
TORSDOF 1
