REMARK  2 active torsions:
REMARK  status: ('A' for Active; 'I' for Inactive)
REMARK    1  A    between atoms: C5_5  and  C6_6 
REMARK    2  A    between atoms: N1_9  and  C9_10 
ROOT
HETATM    1  C1  UNL     1      -2.949   1.892   2.409  1.00  0.00     0.021 C 
HETATM    2  C2  UNL     1      -2.491   1.331   1.045  1.00  0.00     0.001 C 
HETATM    3  C3  UNL     1      -1.031   1.378   0.997  1.00  0.00    -0.015 C 
HETATM    4  C4  UNL     1      -0.156   0.498   0.480  1.00  0.00     0.004 C 
HETATM    5  C5  UNL     1       0.129  -0.755  -0.219  1.00  0.00    -0.051 C 
HETATM    6  C13 UNL     1      -0.683  -1.656  -0.734  1.00  0.00     0.029 C 
HETATM    7  C14 UNL     1      -1.960  -2.232  -1.089  1.00  0.00     0.041 C 
HETATM    8  C15 UNL     1      -2.099  -3.543  -1.712  1.00  0.00     0.099 C 
HETATM    9  N2  UNL     1      -2.191  -4.605  -2.222  1.00  0.00    -0.191 NA
HETATM   10  C16 UNL     1      -3.158  -1.700  -0.912  1.00  0.00     0.002 C 
HETATM   11  C17 UNL     1      -3.375  -0.398  -0.329  1.00  0.00     0.038 C 
HETATM   12  C18 UNL     1      -4.769   0.154  -0.331  1.00  0.00     0.278 C 
HETATM   13  N3  UNL     1      -4.597   1.612  -0.231  1.00  0.00     0.085 N 
HETATM   14  C19 UNL     1      -3.244   2.028  -0.012  1.00  0.00     0.282 C 
HETATM   15  C20 UNL     1      -2.823  -0.182   1.033  1.00  0.00     0.025 C 
HETATM   16  H23 UNL     1      -4.883   1.987  -1.169  1.00  0.00     0.315 HD
ENDROOT
BRANCH   5  17
HETATM   17  C6  UNL     1       1.632  -0.921  -0.285  1.00  0.00     0.048 C 
HETATM   18  C7  UNL     1       2.217  -0.843   1.112  1.00  0.00     0.041 C 
HETATM   19  C8  UNL     1       3.334   0.144   1.035  1.00  0.00     0.273 C 
HETATM   20  N1  UNL     1       3.405   0.652  -0.307  1.00  0.00     0.098 N 
HETATM   21  C12 UNL     1       2.267   0.204  -1.033  1.00  0.00     0.282 C 
BRANCH  20  22
HETATM   22  C9  UNL     1       4.578   0.225  -1.022  1.00  0.00     0.270 C 
HETATM   23  C10 UNL     1       5.906   0.592  -0.464  1.00  0.00     0.205 C 
HETATM   24  O1  UNL     1       6.320  -0.729  -0.635  1.00  0.00    -0.387 OA
HETATM   25  C11 UNL     1       5.032  -1.187  -0.835  1.00  0.00     0.205 C 
ENDBRANCH  20  22
ENDBRANCH   5  17
TORSDOF 2
