REMARK  0 active torsions:
REMARK  status: ('A' for Active; 'I' for Inactive)
ROOT
HETATM    1  C1  UNL     1       2.198   2.108  -1.017  1.00  0.00     0.020 C 
HETATM    2  C2  UNL     1       1.952   1.216   0.159  1.00  0.00    -0.019 C 
HETATM    3  C3  UNL     1       1.623   1.934   1.456  1.00  0.00     0.020 C 
HETATM    4  C4  UNL     1       3.425   0.821   0.484  1.00  0.00     0.013 C 
HETATM    5  C5  UNL     1       4.232   0.429  -0.685  1.00  0.00     0.001 C 
HETATM    6  C6  UNL     1       5.212  -0.628  -0.159  1.00  0.00     0.008 C 
HETATM    7  C7  UNL     1       4.454  -1.667   0.635  1.00  0.00     0.084 C 
HETATM    8  C8  UNL     1       3.159  -1.999  -0.017  1.00  0.00     0.160 C 
HETATM    9  O1  UNL     1       3.251  -3.121  -0.622  1.00  0.00    -0.292 OA
HETATM   10  C9  UNL     1       1.802  -1.402  -0.165  1.00  0.00     0.017 A 
HETATM   11  C10 UNL     1       1.137  -2.563  -0.433  1.00  0.00     0.016 A 
HETATM   12  C11 UNL     1      -0.219  -2.450  -0.652  1.00  0.00     0.009 A 
HETATM   13  C12 UNL     1      -0.786  -1.203  -0.584  1.00  0.00    -0.051 A 
HETATM   14  C13 UNL     1      -0.119  -0.016  -0.308  1.00  0.00    -0.044 A 
HETATM   15  C14 UNL     1       1.296  -0.067  -0.074  1.00  0.00    -0.029 A 
HETATM   16  C15 UNL     1      -0.630   1.300  -0.179  1.00  0.00     0.042 C 
HETATM   17  C16 UNL     1      -2.068   1.692  -0.398  1.00  0.00     0.039 C 
HETATM   18  C17 UNL     1      -3.078   1.201   0.573  1.00  0.00     0.146 C 
HETATM   19  O2  UNL     1      -3.745   2.174   1.307  1.00  0.00    -0.382 OA
HETATM   20  C18 UNL     1      -4.922   1.849   0.712  1.00  0.00     0.195 C 
HETATM   21  C19 UNL     1      -4.329   0.627   0.028  1.00  0.00     0.129 C 
HETATM   22  N1  UNL     1      -4.749  -0.546   0.693  1.00  0.00    -0.413 N 
HETATM   23  C20 UNL     1      -4.441  -1.822   0.160  1.00  0.00     0.114 C 
HETATM   24  C21 UNL     1      -2.929  -2.037   0.202  1.00  0.00     0.024 C 
HETATM   25  C22 UNL     1      -2.220  -1.292  -0.882  1.00  0.00     0.041 C 
HETATM   26  H25 UNL     1      -5.705  -0.476   1.110  1.00  0.00     0.153 HD
ENDROOT
TORSDOF 0
