REMARK  5 active torsions:
REMARK  status: ('A' for Active; 'I' for Inactive)
REMARK    1  A    between atoms: O1_2  and  C2_3 
REMARK    2  A    between atoms: C2_3  and  C3_4 
REMARK    3  A    between atoms: C8_9  and  O2_10 
REMARK    4  A    between atoms: C12_17  and  N3_18 
REMARK    5  A    between atoms: N3_18  and  C13_19 
ROOT
HETATM    1  C3  UNL     1      -3.518   0.035  -0.409  1.00  0.00    -0.001 A 
HETATM    2  C4  UNL     1      -2.215  -0.070  -0.906  1.00  0.00     0.023 A 
HETATM    3  C5  UNL     1      -1.079  -0.331  -0.157  1.00  0.00    -0.006 A 
HETATM    4  C6  UNL     1      -1.329  -0.491   1.196  1.00  0.00     0.088 A 
HETATM    5  C7  UNL     1      -2.597  -0.393   1.713  1.00  0.00     0.075 A 
HETATM    6  C8  UNL     1      -3.721  -0.135   0.969  1.00  0.00     0.079 A 
HETATM    7  O3  UNL     1      -0.317  -0.761   2.134  1.00  0.00    -0.289 OA
HETATM    8  C10 UNL     1       0.932  -0.118   2.135  1.00  0.00     0.202 A 
HETATM    9  N1  UNL     1       1.433   0.235   3.360  1.00  0.00    -0.215 NA
HETATM   10  C11 UNL     1       2.627   0.853   3.388  1.00  0.00     0.238 A 
HETATM   11  N2  UNL     1       3.395   1.166   2.312  1.00  0.00    -0.222 NA
HETATM   12  C12 UNL     1       2.924   0.826   1.075  1.00  0.00     0.160 A 
HETATM   13  C19 UNL     1       1.686   0.183   1.015  1.00  0.00     0.129 A 
HETATM   14  N4  UNL     1       1.355  -0.090  -0.339  1.00  0.00    -0.379 N 
HETATM   15  C20 UNL     1       0.104  -0.373  -1.008  1.00  0.00     0.161 C 
HETATM   16  H16 UNL     1       2.120  -0.106  -1.049  1.00  0.00     0.160 HD
ENDROOT
BRANCH  12  17
HETATM   17  N3  UNL     1       3.635   1.102  -0.126  1.00  0.00    -0.339 N 
HETATM   18  H12 UNL     1       3.546   1.891  -0.818  1.00  0.00     0.167 HD
BRANCH  17  19
HETATM   19  C13 UNL     1       4.639   0.129  -0.434  1.00  0.00     0.035 A 
HETATM   20  C14 UNL     1       4.958  -0.875   0.488  1.00  0.00     0.032 A 
HETATM   21  C15 UNL     1       5.928  -1.851   0.248  1.00  0.00     0.046 A 
HETATM   22  C16 UNL     1       6.611  -1.822  -0.975  1.00  0.00     0.138 A 
HETATM   23  F1  UNL     1       7.555  -2.761  -1.223  1.00  0.00    -0.204 F 
HETATM   24  C17 UNL     1       6.297  -0.824  -1.898  1.00  0.00     0.074 A 
HETATM   25 CL1  UNL     1       7.182  -0.839  -3.413  1.00  0.00    -0.081 Cl
HETATM   26  C18 UNL     1       5.335   0.124  -1.628  1.00  0.00     0.056 A 
ENDBRANCH  17  19
ENDBRANCH  12  17
BRANCH   6  27
HETATM   27  O2  UNL     1      -5.012  -0.016   1.356  1.00  0.00    -0.355 OA
HETATM   28  C9  UNL     1      -5.411  -0.154   2.692  1.00  0.00     0.210 C 
ENDBRANCH   6  27
BRANCH   1  29
HETATM   29  C2  UNL     1      -4.608   0.322  -1.371  1.00  0.00     0.208 C 
BRANCH  29  30
HETATM   30  O1  UNL     1      -5.040   1.654  -1.306  1.00  0.00    -0.391 OA
HETATM   31  C1  UNL     1      -6.046   1.801  -2.261  1.00  0.00     0.201 C 
ENDBRANCH  29  30
ENDBRANCH   1  29
TORSDOF 5
