REMARK  5 active torsions:
REMARK  status: ('A' for Active; 'I' for Inactive)
REMARK    1  A    between atoms: C3_4  and  C4_5 
REMARK    2  A    between atoms: C4_5  and  C5_6 
REMARK    3  A    between atoms: C5_6  and  C6_7 
REMARK    4  A    between atoms: C13_15  and  C14_16 
REMARK    5  A    between atoms: N1_19  and  C17_20 
ROOT
HETATM    1  C6  UNL     1       2.816  -0.473  -0.456  1.00  0.00     0.031 C 
HETATM    2  C7  UNL     1       2.645   0.506  -1.406  1.00  0.00     0.080 C 
HETATM    3  C8  UNL     1       1.946   0.868  -2.731  1.00  0.00     0.164 C 
HETATM    4  O1  UNL     1       1.873   1.826  -3.530  1.00  0.00    -0.292 OA
HETATM    5  C9  UNL     1       1.242  -0.454  -2.857  1.00  0.00     0.051 A 
HETATM    6  C10 UNL     1       2.311  -1.096  -3.401  1.00  0.00    -0.027 A 
HETATM    7  C11 UNL     1       1.613  -1.896  -2.570  1.00  0.00     0.041 A 
HETATM    8  C12 UNL     1       0.467  -1.386  -1.923  1.00  0.00     0.017 A 
HETATM    9  C13 UNL     1      -0.547  -0.716  -1.443  1.00  0.00    -0.079 A 
HETATM   10  C22 UNL     1       0.147   0.107  -2.265  1.00  0.00     0.047 A 
HETATM   11  C23 UNL     1       0.830  -2.190  -0.690  1.00  0.00     0.135 C 
HETATM   12  N2  UNL     1       2.264  -1.820  -0.410  1.00  0.00    -0.389 N 
HETATM   13  H27 UNL     1       2.954  -2.558  -0.155  1.00  0.00     0.159 HD
ENDROOT
BRANCH   9  14
HETATM   14  C14 UNL     1      -1.674  -0.918  -0.566  1.00  0.00     0.015 C 
HETATM   15  C15 UNL     1      -3.006  -1.081  -1.273  1.00  0.00     0.039 C 
HETATM   16  C16 UNL     1      -3.962  -1.604  -0.226  1.00  0.00     0.273 C 
HETATM   17  N1  UNL     1      -4.108  -0.707   0.886  1.00  0.00     0.097 N 
HETATM   18  C20 UNL     1      -2.853  -0.295   1.463  1.00  0.00     0.273 C 
HETATM   19  C21 UNL     1      -1.863   0.189   0.439  1.00  0.00     0.039 C 
BRANCH  17  20
HETATM   20  C17 UNL     1      -4.984   0.403   0.611  1.00  0.00     0.270 C 
HETATM   21  C18 UNL     1      -5.154   1.301   1.801  1.00  0.00     0.205 C 
HETATM   22  O2  UNL     1      -6.486   1.477   1.403  1.00  0.00    -0.387 OA
HETATM   23  C19 UNL     1      -6.438   0.148   0.937  1.00  0.00     0.205 C 
ENDBRANCH  17  20
ENDBRANCH   9  14
BRANCH   1  24
HETATM   24  C5  UNL     1       3.698  -0.079   0.620  1.00  0.00     0.029 C 
BRANCH  24  25
HETATM   25  C4  UNL     1       4.488   0.611   1.361  1.00  0.00     0.004 C 
BRANCH  25  26
HETATM   26  C3  UNL     1       4.958   1.998   1.170  1.00  0.00     0.019 C 
HETATM   27  C2  UNL     1       5.733   2.819   1.804  1.00  0.00     0.008 C 
HETATM   28  C1  UNL     1       6.354   2.353   3.043  1.00  0.00     0.062 C 
HETATM   29 CL1  UNL     1       6.078   4.435   1.282  1.00  0.00    -0.089 Cl
ENDBRANCH  25  26
ENDBRANCH  24  25
ENDBRANCH   1  24
TORSDOF 5
