REMARK  1 active torsions:
REMARK  status: ('A' for Active; 'I' for Inactive)
REMARK    1  A    between atoms: C14_15  and  N1_16 
ROOT
HETATM    1  C1  UNL     1       5.216  -0.019  -1.633  1.00  0.00     0.016 C 
HETATM    2  C2  UNL     1       4.761  -0.590  -0.314  1.00  0.00     0.032 C 
HETATM    3  C3  UNL     1       4.094  -1.917  -0.573  1.00  0.00    -0.021 C 
HETATM    4  C4  UNL     1       2.910  -2.504  -0.523  1.00  0.00    -0.003 C 
HETATM    5  C5  UNL     1       1.526  -2.239  -0.207  1.00  0.00     0.012 C 
HETATM    6  C6  UNL     1       0.595  -1.375   0.164  1.00  0.00     0.005 C 
HETATM    7  C7  UNL     1      -0.683  -2.161   0.235  1.00  0.00     0.189 C 
HETATM    8  O1  UNL     1      -0.943  -3.409   0.039  1.00  0.00    -0.287 OA
HETATM    9  C8  UNL     1      -1.959  -1.542   0.578  1.00  0.00     0.012 C 
HETATM   10  C9  UNL     1      -2.039  -0.181   0.852  1.00  0.00     0.000 C 
HETATM   11  C10 UNL     1      -1.018   0.354  -0.090  1.00  0.00    -0.000 C 
HETATM   12  C11 UNL     1      -1.406  -0.229  -1.380  1.00  0.00     0.049 C 
HETATM   13  C12 UNL     1      -2.675   0.703  -1.178  1.00  0.00    -0.076 C 
HETATM   14  C13 UNL     1      -3.810   1.401  -0.964  1.00  0.00     0.026 C 
HETATM   15  C14 UNL     1      -4.929   0.738  -0.370  1.00  0.00     0.006 C 
HETATM   16  C15 UNL     1      -5.183  -0.400   0.227  1.00  0.00     0.023 C 
HETATM   17  C16 UNL     1      -4.482  -1.595   0.684  1.00  0.00     0.003 C 
HETATM   18  C17 UNL     1      -3.264  -2.032   0.809  1.00  0.00     0.015 C 
HETATM   19  C18 UNL     1      -1.485   1.626  -0.680  1.00  0.00     0.049 C 
HETATM   20  C19 UNL     1       0.292   0.059   0.488  1.00  0.00     0.039 C 
HETATM   21  C20 UNL     1       0.125   0.080   2.009  1.00  0.00     0.025 C 
HETATM   22  C21 UNL     1       1.407   0.930   0.163  1.00  0.00     0.212 C 
HETATM   23  C22 UNL     1       1.223   2.272  -0.440  1.00  0.00     0.212 C 
HETATM   24  O2  UNL     1       2.432   2.647   0.211  1.00  0.00    -0.386 OA
HETATM   25  C23 UNL     1       1.936   1.835   1.264  1.00  0.00     0.212 C 
HETATM   26  N2  UNL     1       2.522   0.259  -0.475  1.00  0.00     0.099 N 
HETATM   27  C24 UNL     1       3.686   0.256   0.333  1.00  0.00     0.279 C 
HETATM   28  H26 UNL     1       2.756   0.599  -1.415  1.00  0.00     0.317 HD
ENDROOT
BRANCH  15  29
HETATM   29  N1  UNL     1      -6.002   1.685  -0.557  1.00  0.00    -0.303 NA
HETATM   30  H12 UNL     1      -6.937   2.019  -0.852  1.00  0.00     0.124 HD
HETATM   31  H13 UNL     1      -6.953   1.556  -0.993  1.00  0.00     0.124 HD
ENDBRANCH  15  29
TORSDOF 1
