REMARK  1 active torsions:
REMARK  status: ('A' for Active; 'I' for Inactive)
REMARK    1  A    between atoms: O1_2  and  C2_3 
ROOT
HETATM    1  C2  UNL     1       1.531  -1.613   1.223  1.00  0.00     0.091 C 
HETATM    2  C3  UNL     1       2.195  -0.760   0.394  1.00  0.00     0.043 C 
HETATM    3  C4  UNL     1       2.640  -1.206  -0.998  1.00  0.00     0.065 C 
HETATM    4  C5  UNL     1       2.171  -0.210  -2.015  1.00  0.00    -0.003 C 
HETATM    5  C6  UNL     1       3.237   0.904  -1.945  1.00  0.00     0.025 C 
HETATM    6  C7  UNL     1       3.739   0.973  -0.473  1.00  0.00     0.125 C 
HETATM    7  N1  UNL     1       2.619   0.629   0.395  1.00  0.00    -0.360 N 
HETATM    8  C8  UNL     1       1.999   1.784   1.123  1.00  0.00     0.292 C 
HETATM    9  O2  UNL     1       1.516   2.524   0.130  1.00  0.00    -0.372 OA
HETATM   10  C9  UNL     1       0.708   3.554   0.127  1.00  0.00     0.171 C 
HETATM   11  C10 UNL     1      -0.725   3.230   0.582  1.00  0.00     0.041 C 
HETATM   12  C11 UNL     1      -1.318   2.120  -0.230  1.00  0.00    -0.008 C 
HETATM   13  C12 UNL     1      -1.474   2.497  -1.675  1.00  0.00     0.021 C 
HETATM   14  C13 UNL     1      -0.631   0.879   0.023  1.00  0.00    -0.008 C 
HETATM   15  C14 UNL     1      -0.118   0.007  -0.842  1.00  0.00    -0.054 C 
HETATM   16  C15 UNL     1       0.785   0.213  -2.011  1.00  0.00     0.043 C 
HETATM   17  C16 UNL     1      -0.732  -1.226  -0.221  1.00  0.00    -0.042 C 
HETATM   18  C17 UNL     1       0.050  -1.737   0.827  1.00  0.00     0.047 C 
HETATM   19  C18 UNL     1      -1.731  -2.153  -0.202  1.00  0.00     0.060 A 
HETATM   20  C19 UNL     1      -3.153  -1.930  -0.552  1.00  0.00     0.045 A 
HETATM   21  C20 UNL     1      -4.074  -2.979  -0.880  1.00  0.00    -0.008 A 
HETATM   22  C21 UNL     1      -4.287  -3.458   0.494  1.00  0.00     0.017 A 
HETATM   23  C22 UNL     1      -3.477  -2.711   1.640  1.00  0.00     0.038 A 
HETATM   24  C23 UNL     1      -3.498  -2.821   2.965  1.00  0.00     0.096 C 
HETATM   25  N2  UNL     1      -3.519  -2.898   4.066  1.00  0.00    -0.192 NA
HETATM   26  C24 UNL     1      -2.905  -1.947   0.816  1.00  0.00     0.062 A 
HETATM   27  C25 UNL     1      -3.125  -0.644  -0.044  1.00  0.00     0.013 A 
HETATM   28  N3  UNL     1      -3.293   0.676  -0.237  1.00  0.00    -0.393 N 
HETATM   29  C26 UNL     1      -2.729   1.860   0.265  1.00  0.00     0.132 C 
HETATM   30  H27 UNL     1      -4.050   0.735  -0.957  1.00  0.00     0.159 HD
ENDROOT
BRANCH   1  31
HETATM   31  O1  UNL     1       1.913  -2.342   2.286  1.00  0.00    -0.354 OA
HETATM   32  C1  UNL     1       3.158  -3.050   2.288  1.00  0.00     0.210 C 
ENDBRANCH   1  31
TORSDOF 1
