REMARK  1 active torsions:
REMARK  status: ('A' for Active; 'I' for Inactive)
REMARK    1  A    between atoms: C7_7  and  C8_8 
ROOT
HETATM    1  C1  UNL     1      -5.968   1.461  -1.401  1.00  0.00     0.025 C 
HETATM    2  C2  UNL     1      -5.123   0.641  -0.769  1.00  0.00    -0.025 A 
HETATM    3  C3  UNL     1      -4.892  -0.444   0.210  1.00  0.00    -0.015 A 
HETATM    4  C4  UNL     1      -3.834   0.120  -0.487  1.00  0.00    -0.012 A 
HETATM    5  C5  UNL     1      -2.402  -0.146  -0.467  1.00  0.00     0.148 C 
HETATM    6  C6  UNL     1      -1.575   1.148  -0.516  1.00  0.00     0.093 C 
HETATM    7  C7  UNL     1      -0.238   0.534  -0.178  1.00  0.00     0.057 C 
HETATM    8  N1  UNL     1      -0.531  -0.456   0.549  1.00  0.00    -0.178 NA
HETATM    9  N2  UNL     1      -1.891  -0.649   0.787  1.00  0.00    -0.255 N 
HETATM   10  C16 UNL     1      -2.298  -1.208   2.029  1.00  0.00     0.232 A 
HETATM   11  N3  UNL     1      -2.855  -2.199   2.689  1.00  0.00    -0.174 NA
HETATM   12  C17 UNL     1      -4.150  -1.755   2.223  1.00  0.00     0.070 A 
HETATM   13  C18 UNL     1      -5.019  -1.509   1.227  1.00  0.00     0.045 C 
HETATM   14  S2  UNL     1      -2.898  -2.124   3.445  1.00  0.00    -0.041 SA
ENDROOT
BRANCH   7  15
HETATM   15  C8  UNL     1       1.014   1.091  -0.668  1.00  0.00     0.040 C 
HETATM   16  C9  UNL     1       2.220   0.639  -0.436  1.00  0.00    -0.032 A 
HETATM   17  C10 UNL     1       2.427  -0.539   0.388  1.00  0.00     0.025 A 
HETATM   18  C15 UNL     1       3.373   1.316  -1.003  1.00  0.00     0.025 A 
HETATM   19  C11 UNL     1       3.567  -1.116   0.714  1.00  0.00    -0.020 A 
HETATM   20  C12 UNL     1       3.820  -2.301   1.539  1.00  0.00     0.056 C 
HETATM   21  S1  UNL     1       5.093  -0.423   0.107  1.00  0.00    -0.100 SA
HETATM   22  C13 UNL     1       4.639   0.995  -0.869  1.00  0.00    -0.020 A 
HETATM   23  C14 UNL     1       5.753   1.748  -1.488  1.00  0.00     0.056 C 
ENDBRANCH   7  15
TORSDOF 1
