REMARK  1 active torsions:
REMARK  status: ('A' for Active; 'I' for Inactive)
REMARK    1  A    between atoms: C7_9  and  C8_10 
ROOT
HETATM    1  F1  UNL     1      -4.408  -3.678   1.853  1.00  0.00    -0.206 F 
HETATM    2  C1  UNL     1      -3.637  -2.583   1.585  1.00  0.00     0.118 A 
HETATM    3  C2  UNL     1      -4.133  -1.279   1.692  1.00  0.00     0.043 A 
HETATM    4  C3  UNL     1      -3.239  -0.249   1.389  1.00  0.00     0.014 A 
HETATM    5  C4  UNL     1      -1.959  -0.458   1.010  1.00  0.00    -0.007 A 
HETATM    6  C5  UNL     1      -1.501  -1.758   0.915  1.00  0.00     0.041 A 
HETATM    7  C6  UNL     1      -2.331  -2.814   1.199  1.00  0.00     0.072 A 
HETATM    8  N1  UNL     1      -0.149  -1.925   0.513  1.00  0.00    -0.358 N 
HETATM    9  C7  UNL     1       0.792  -0.820   0.223  1.00  0.00     0.151 C 
HETATM   10  C14 UNL     1       1.690  -0.588   1.386  1.00  0.00     0.062 C 
HETATM   11  C15 UNL     1       1.930   0.846   1.624  1.00  0.00    -0.015 C 
HETATM   12  C16 UNL     1       2.100   2.158   1.784  1.00  0.00     0.043 C 
HETATM   13  C17 UNL     1       1.575   3.377   1.145  1.00  0.00    -0.025 C 
HETATM   14  C18 UNL     1       0.839   4.117   0.298  1.00  0.00    -0.024 C 
HETATM   15  C19 UNL     1      -0.145   3.786  -0.749  1.00  0.00     0.083 C 
HETATM   16  C20 UNL     1      -0.439   2.302  -0.779  1.00  0.00     0.038 C 
HETATM   17  N2  UNL     1       0.069   1.183  -1.160  1.00  0.00    -0.183 NA
HETATM   18  N3  UNL     1      -0.023   0.303  -0.072  1.00  0.00    -0.262 N 
HETATM   19  C21 UNL     1      -1.184   0.725   0.739  1.00  0.00     0.148 C 
HETATM   20  C22 UNL     1      -1.735   1.720  -0.228  1.00  0.00     0.088 C 
HETATM   21  H4  UNL     1       0.192  -2.912   0.420  1.00  0.00     0.162 HD
ENDROOT
BRANCH   9  22
HETATM   22  C8  UNL     1       1.534  -1.297  -0.992  1.00  0.00    -0.008 A 
HETATM   23  C9  UNL     1       2.851  -1.553  -1.301  1.00  0.00     0.011 A 
HETATM   24  C10 UNL     1       3.189  -1.993  -2.547  1.00  0.00     0.001 A 
HETATM   25  C11 UNL     1       2.288  -2.206  -3.548  1.00  0.00     0.000 A 
HETATM   26  C12 UNL     1       0.978  -1.962  -3.274  1.00  0.00     0.001 A 
HETATM   27  C13 UNL     1       0.589  -1.509  -2.008  1.00  0.00     0.011 A 
ENDBRANCH   9  22
TORSDOF 1
