REMARK  2 active torsions:
REMARK  status: ('A' for Active; 'I' for Inactive)
REMARK    1  A    between atoms: C3_3  and  C4_5 
REMARK    2  A    between atoms: C7_8  and  N1_9 
ROOT
HETATM    1  C4  UNL     1       1.937   0.664  -0.345  1.00  0.00     0.191 A 
HETATM    2  C5  UNL     1       2.235   1.145  -1.743  1.00  0.00     0.062 C 
HETATM    3  C6  UNL     1       1.541  -0.767  -0.435  1.00  0.00     0.157 A 
HETATM    4  C7  UNL     1       0.166  -1.201  -0.003  1.00  0.00     0.127 A 
HETATM    5  C8  UNL     1      -1.105  -0.484   0.547  1.00  0.00     0.116 A 
HETATM    6  S1  UNL     1       0.176   0.652   0.246  1.00  0.00    -0.020 SA
HETATM    7  C9  UNL     1      -0.555   2.097   0.700  1.00  0.00     0.343 A 
HETATM    8  N2  UNL     1      -1.631   1.651   1.020  1.00  0.00    -0.237 NA
HETATM    9  C10 UNL     1      -2.060   0.395   1.003  1.00  0.00     0.066 A 
HETATM   10  C11 UNL     1      -3.008  -0.677   1.146  1.00  0.00    -0.010 A 
HETATM   11  C12 UNL     1      -4.133  -0.361   0.343  1.00  0.00     0.013 A 
HETATM   12  C13 UNL     1      -5.290  -1.119   0.277  1.00  0.00     0.001 A 
HETATM   13  C14 UNL     1      -5.263  -2.239   1.076  1.00  0.00     0.000 A 
HETATM   14  C15 UNL     1      -4.215  -2.613   1.879  1.00  0.00     0.001 A 
HETATM   15  C16 UNL     1      -3.101  -1.808   1.890  1.00  0.00     0.013 A 
HETATM   16  N3  UNL     1       0.936   1.690   0.124  1.00  0.00     0.020 N 
HETATM   17  H16 UNL     1       1.017   2.817   0.219  1.00  0.00     0.298 HD
ENDROOT
BRANCH   4  18
HETATM   18  N1  UNL     1      -0.718  -2.197   0.174  1.00  0.00    -0.317 NA
HETATM   19  H10 UNL     1      -0.417  -3.144  -0.066  1.00  0.00     0.181 HD
ENDBRANCH   4  18
BRANCH   1  20
HETATM   20  C3  UNL     1       3.107   0.890   0.515  1.00  0.00     0.051 C 
HETATM   21  C2  UNL     1       4.212   1.458   0.031  1.00  0.00    -0.008 C 
HETATM   22  C1  UNL     1       5.107   2.093  -0.962  1.00  0.00     0.037 C 
HETATM   23 CL1  UNL     1       2.528   0.220   2.060  1.00  0.00    -0.086 Cl
ENDBRANCH   1  20
TORSDOF 2
