REMARK  3 active torsions:
REMARK  status: ('A' for Active; 'I' for Inactive)
REMARK    1  A    between atoms: C9_10  and  N2_11 
REMARK    2  A    between atoms: C9_10  and  C17_21 
REMARK    3  A    between atoms: N2_11  and  C10_12 
ROOT
HETATM    1  C1  UNL     1      -5.393  -0.598   0.101  1.00  0.00     0.048 C 
HETATM    2  C2  UNL     1      -4.669   0.662   0.028  1.00  0.00    -0.057 A 
HETATM    3  C3  UNL     1      -4.930   1.881   0.703  1.00  0.00    -0.007 A 
HETATM    4  C4  UNL     1      -3.940   2.755   0.204  1.00  0.00     0.016 A 
HETATM    5  C5  UNL     1      -2.833   3.129  -0.570  1.00  0.00     0.032 A 
HETATM    6  C6  UNL     1      -2.698   1.798  -1.190  1.00  0.00     0.049 A 
HETATM    7  C7  UNL     1      -3.582   0.733  -0.854  1.00  0.00    -0.029 A 
HETATM    8  C8  UNL     1      -2.733  -0.205  -1.557  1.00  0.00     0.122 C 
HETATM    9  N1  UNL     1      -1.586  -0.687  -1.354  1.00  0.00    -0.263 NA
HETATM   10  C9  UNL     1      -0.594  -0.525  -0.320  1.00  0.00     0.164 C 
HETATM   11  C23 UNL     1      -1.188  -0.048   1.046  1.00  0.00     0.142 C 
HETATM   12  C24 UNL     1      -2.138   0.941   0.778  1.00  0.00    -0.166 C 
HETATM   13  C25 UNL     1      -2.931   1.749   0.537  1.00  0.00     0.038 A 
ENDROOT
BRANCH  10  14
HETATM   14  N2  UNL     1       0.397   0.420  -0.684  1.00  0.00    -0.337 N 
HETATM   15  H8  UNL     1       0.007   0.960  -1.544  1.00  0.00     0.164 HD
BRANCH  14  16
HETATM   16  C10 UNL     1       1.682   0.959  -0.356  1.00  0.00     0.164 A 
HETATM   17  N3  UNL     1       2.722   0.311  -0.539  1.00  0.00    -0.240 NA
HETATM   18  C11 UNL     1       3.570   1.311  -0.063  1.00  0.00     0.132 A 
HETATM   19  C12 UNL     1       4.333   0.993   1.200  1.00  0.00     0.018 A 
HETATM   20  C16 UNL     1       4.521   1.865  -1.132  1.00  0.00     0.076 A 
HETATM   21  S1  UNL     1       2.263   2.459   0.315  1.00  0.00    -0.054 SA
HETATM   22  C13 UNL     1       5.597   1.102   1.555  1.00  0.00    -0.001 A 
HETATM   23  C14 UNL     1       6.477   1.639   0.532  1.00  0.00    -0.004 A 
HETATM   24  C15 UNL     1       5.895   1.940  -0.615  1.00  0.00    -0.023 A 
ENDBRANCH  14  16
ENDBRANCH  10  14
BRANCH  10  25
HETATM   25  C17 UNL     1      -0.136  -1.909  -0.012  1.00  0.00    -0.007 A 
HETATM   26  C18 UNL     1      -1.130  -2.892  -0.203  1.00  0.00     0.013 A 
HETATM   27  C19 UNL     1      -0.949  -4.247   0.028  1.00  0.00     0.024 A 
HETATM   28  C20 UNL     1       0.248  -4.718   0.473  1.00  0.00     0.034 A 
HETATM   29 CL1  UNL     1       0.532  -6.405   0.789  1.00  0.00    -0.084 Cl
HETATM   30  C21 UNL     1       1.272  -3.817   0.685  1.00  0.00     0.024 A 
HETATM   31  C22 UNL     1       0.999  -2.524   0.432  1.00  0.00     0.013 A 
ENDBRANCH  10  25
TORSDOF 3
