REMARK  5 active torsions:
REMARK  status: ('A' for Active; 'I' for Inactive)
REMARK    1  A    between atoms: C2_2  and  C3_3 
REMARK    2  A    between atoms: N1_12  and  C12_13 
REMARK    3  A    between atoms: C12_13  and  S1_14 
REMARK    4  A    between atoms: S1_14  and  C13_15 
REMARK    5  A    between atoms: C18_20  and  N2_21 
ROOT
HETATM    1  C3  UNL     1       3.487   1.684   0.178  1.00  0.00    -0.009 A 
HETATM    2  C4  UNL     1       3.370   0.647   1.455  1.00  0.00     0.042 C 
HETATM    3  C5  UNL     1       3.660  -0.714   1.106  1.00  0.00    -0.018 C 
HETATM    4  C6  UNL     1       2.968  -1.619   0.349  1.00  0.00    -0.058 C 
HETATM    5  C7  UNL     1       3.632  -2.959   0.196  1.00  0.00     0.048 C 
HETATM    6  C8  UNL     1       1.611  -1.442  -0.255  1.00  0.00    -0.034 C 
HETATM    7  C9  UNL     1       1.197  -2.702  -0.979  1.00  0.00     0.050 C 
HETATM    8  C10 UNL     1       0.582  -0.614  -0.332  1.00  0.00     0.010 C 
HETATM    9  C11 UNL     1      -0.675  -0.797  -1.125  1.00  0.00     0.068 C 
HETATM   10  N1  UNL     1       0.237   0.637   0.286  1.00  0.00    -0.374 N 
HETATM   11  C20 UNL     1       0.905   1.873  -0.219  1.00  0.00     0.135 C 
HETATM   12  C21 UNL     1       2.426   1.812   0.089  1.00  0.00     0.002 A 
HETATM   13  C22 UNL     1       3.416   1.211  -0.779  1.00  0.00     0.020 A 
HETATM   14  C23 UNL     1       3.303   0.534  -2.095  1.00  0.00     0.008 A 
HETATM   15  C24 UNL     1       2.585   1.144  -1.125  1.00  0.00    -0.009 A 
ENDROOT
BRANCH  10  16
HETATM   16  C12 UNL     1      -0.721   0.381   1.384  1.00  0.00     0.201 C 
BRANCH  16  17
HETATM   17  S1  UNL     1      -1.903   1.767   1.477  1.00  0.00    -0.120 SA
BRANCH  17  18
HETATM   18  C13 UNL     1      -2.953   1.742   0.005  1.00  0.00     0.071 C 
HETATM   19  C14 UNL     1      -3.957   0.926  -0.383  1.00  0.00     0.018 C 
HETATM   20  C15 UNL     1      -4.983   0.558  -1.388  1.00  0.00     0.084 C 
HETATM   21  N3  UNL     1      -4.124  -0.092   0.669  1.00  0.00    -0.355 N 
HETATM   22  C16 UNL     1      -4.509  -0.666  -2.123  1.00  0.00    -0.021 C 
HETATM   23  C17 UNL     1      -4.273  -1.592  -1.195  1.00  0.00     0.025 C 
HETATM   24  C18 UNL     1      -4.443  -1.458   0.287  1.00  0.00     0.342 C 
HETATM   25  C19 UNL     1      -4.024  -0.029   2.139  1.00  0.00     0.152 C 
BRANCH  24  26
HETATM   26  N2  UNL     1      -5.796  -1.840   0.600  1.00  0.00     0.105 N 
HETATM   27  H25 UNL     1      -6.305  -1.166   1.185  1.00  0.00     0.315 HD
HETATM   28  H26 UNL     1      -5.758  -2.813   0.935  1.00  0.00     0.315 HD
ENDBRANCH  24  26
ENDBRANCH  17  18
ENDBRANCH  16  17
ENDBRANCH  10  16
BRANCH   1  29
HETATM   29  C2  UNL     1       4.335   2.784   0.156  1.00  0.00    -0.047 C 
HETATM   30  C1  UNL     1       5.033   3.973  -0.273  1.00  0.00     0.032 C 
ENDBRANCH   1  29
TORSDOF 5
