REMARK  3 active torsions:
REMARK  status: ('A' for Active; 'I' for Inactive)
REMARK    1  A    between atoms: C5_5  and  C6_6 
REMARK    2  A    between atoms: C8_8  and  C9_9 
REMARK    3  A    between atoms: N1_16  and  N2_17 
ROOT
HETATM    1  C6  UNL     1      -0.042  -0.726  -1.251  1.00  0.00     0.109 C 
HETATM    2  C7  UNL     1       0.654  -1.323  -0.030  1.00  0.00     0.052 C 
HETATM    3  C8  UNL     1       1.872  -1.029  -0.882  1.00  0.00     0.109 C 
HETATM    4  N1  UNL     1       1.132   0.161  -1.319  1.00  0.00    -0.236 NA
ENDROOT
BRANCH   1   5
HETATM    5  C5  UNL     1      -1.318  -0.050  -0.979  1.00  0.00    -0.038 A 
HETATM    6  C4  UNL     1      -1.783   1.114  -1.565  1.00  0.00     0.009 A 
HETATM    7  C3  UNL     1      -3.010   1.643  -1.211  1.00  0.00     0.008 A 
HETATM    8  C2  UNL     1      -3.803   1.010  -0.255  1.00  0.00    -0.056 A 
HETATM    9  C1  UNL     1      -5.134   1.540   0.161  1.00  0.00     0.049 C 
HETATM   10  C16 UNL     1      -3.356  -0.150   0.339  1.00  0.00    -0.056 A 
HETATM   11  C15 UNL     1      -2.114  -0.671  -0.029  1.00  0.00     0.016 A 
HETATM   12  C17 UNL     1      -4.195  -0.850   1.373  1.00  0.00     0.049 C 
ENDBRANCH   1   5
BRANCH   4  13
HETATM   13  N2  UNL     1       1.051   1.076  -0.268  1.00  0.00    -0.267 NA
HETATM   14  H14 UNL     1       0.905   2.050  -0.574  1.00  0.00     0.137 HD
HETATM   15  H15 UNL     1       1.885   1.071   0.362  1.00  0.00     0.137 HD
ENDBRANCH   4  13
BRANCH   3  16
HETATM   16  C9  UNL     1       3.122  -0.764  -0.171  1.00  0.00    -0.039 A 
HETATM   17  C10 UNL     1       3.889   0.218  -0.792  1.00  0.00     0.012 A 
HETATM   18  C11 UNL     1       5.121   0.630  -0.286  1.00  0.00     0.043 A 
HETATM   19  C12 UNL     1       5.581   0.047   0.854  1.00  0.00     0.116 A 
HETATM   20  F1  UNL     1       6.782   0.425   1.378  1.00  0.00    -0.206 F 
HETATM   21  C13 UNL     1       4.852  -0.917   1.484  1.00  0.00     0.043 A 
HETATM   22  C14 UNL     1       3.621  -1.336   0.988  1.00  0.00     0.012 A 
ENDBRANCH   3  16
TORSDOF 3
