REMARK  2 active torsions:
REMARK  status: ('A' for Active; 'I' for Inactive)
REMARK    1  A    between atoms: C2_2  and  C3_3 
REMARK    2  A    between atoms: C12_15  and  N3_16 
ROOT
HETATM    1  C3  UNL     1       2.664  -0.911  -1.384  1.00  0.00    -0.016 C 
HETATM    2  C4  UNL     1       1.550  -0.059  -1.335  1.00  0.00     0.057 A 
HETATM    3  C5  UNL     1       1.229   1.179  -0.384  1.00  0.00     0.023 A 
HETATM    4  C6  UNL     1       0.743   0.507  -1.430  1.00  0.00     0.055 A 
HETATM    5  C7  UNL     1       0.007  -0.018  -2.540  1.00  0.00     0.106 C 
HETATM    6  S1  UNL     1      -0.854  -1.565  -2.113  1.00  0.00    -0.166 SA
HETATM    7  C8  UNL     1      -0.105  -2.819  -1.160  1.00  0.00     0.081 C 
HETATM    8  C9  UNL     1      -0.184  -2.619   0.345  1.00  0.00     0.088 C 
HETATM    9  C10 UNL     1       0.313  -1.309   0.741  1.00  0.00     0.096 C 
HETATM   10  N1  UNL     1       1.515  -0.939   0.427  1.00  0.00    -0.276 NA
HETATM   11  C11 UNL     1       1.839   0.447   0.870  1.00  0.00     0.164 C 
HETATM   12  N2  UNL     1      -0.522  -0.504   1.661  1.00  0.00    -0.349 N 
HETATM   13  C12 UNL     1      -1.361   0.297   2.522  1.00  0.00     0.322 C 
HETATM   14  C13 UNL     1      -2.742  -0.164   2.657  1.00  0.00     0.049 A 
HETATM   15  C14 UNL     1      -3.876  -0.046   2.023  1.00  0.00     0.005 A 
HETATM   16  C15 UNL     1      -3.000   0.746   1.193  1.00  0.00     0.076 A 
HETATM   17  C16 UNL     1      -3.618   1.310   0.084  1.00  0.00     0.034 A 
HETATM   18 CL1  UNL     1      -4.753   1.839  -1.183  1.00  0.00    -0.204 Cl
HETATM   19  C17 UNL     1      -2.982   1.842  -1.196  1.00  0.00     0.122 A 
HETATM   20  C18 UNL     1      -1.630   1.652  -1.031  1.00  0.00     0.079 C 
HETATM   21  N4  UNL     1      -0.197   1.681  -1.377  1.00  0.00    -0.385 N 
HETATM   22  C19 UNL     1       0.196   3.030  -1.775  1.00  0.00     0.149 C 
HETATM   23  H14 UNL     1       0.118  -1.027   2.346  1.00  0.00     0.163 HD
ENDROOT
BRANCH   1  24
HETATM   24  C2  UNL     1       3.992  -1.194  -0.774  1.00  0.00    -0.010 C 
HETATM   25  C1  UNL     1       5.170  -1.830  -0.545  1.00  0.00     0.005 C 
ENDBRANCH   1  24
BRANCH  13  26
HETATM   26  N3  UNL     1      -0.747   0.409   3.830  1.00  0.00     0.101 N 
HETATM   27  H16 UNL     1      -1.471   0.194   4.545  1.00  0.00     0.315 HD
HETATM   28  H17 UNL     1      -0.447   1.390   3.990  1.00  0.00     0.315 HD
ENDBRANCH  13  26
TORSDOF 2
