REMARK  3 active torsions:
REMARK  status: ('A' for Active; 'I' for Inactive)
REMARK    1  A    between atoms: O1_2  and  C2_3 
REMARK    2  A    between atoms: C7_8  and  O2_9 
REMARK    3  A    between atoms: C11_16  and  N3_17 
ROOT
HETATM    1  C2  UNL     1      -3.685  -0.228   1.008  1.00  0.00     0.102 A 
HETATM    2  C3  UNL     1      -2.330  -0.353   1.287  1.00  0.00     0.051 A 
HETATM    3  C4  UNL     1      -1.345  -0.146   0.323  1.00  0.00    -0.004 A 
HETATM    4  C5  UNL     1      -1.831   0.191  -0.920  1.00  0.00     0.088 A 
HETATM    5  C6  UNL     1      -3.162   0.331  -1.261  1.00  0.00     0.077 A 
HETATM    6  C7  UNL     1      -4.134   0.118  -0.277  1.00  0.00     0.104 A 
HETATM    7  O3  UNL     1      -1.059   0.450  -2.062  1.00  0.00    -0.289 OA
HETATM    8  C9  UNL     1       0.317   0.334  -2.181  1.00  0.00     0.202 A 
HETATM    9  N1  UNL     1       0.699   0.400  -3.491  1.00  0.00    -0.215 NA
HETATM   10  C10 UNL     1       2.010   0.302  -3.753  1.00  0.00     0.238 A 
HETATM   11  N2  UNL     1       3.022   0.141  -2.842  1.00  0.00    -0.221 NA
HETATM   12  C11 UNL     1       2.674   0.071  -1.510  1.00  0.00     0.166 A 
HETATM   13  C17 UNL     1       1.332   0.172  -1.257  1.00  0.00     0.129 A 
HETATM   14  N4  UNL     1       1.095   0.072   0.141  1.00  0.00    -0.379 N 
HETATM   15  C18 UNL     1      -0.027  -0.347   0.912  1.00  0.00     0.161 C 
HETATM   16  H14 UNL     1       1.949   0.378   0.704  1.00  0.00     0.160 HD
ENDROOT
BRANCH  12  17
HETATM   17  N3  UNL     1       3.665  -0.100  -0.507  1.00  0.00    -0.314 N 
HETATM   18  C12 UNL     1       4.319   1.157  -0.277  1.00  0.00     0.097 A 
HETATM   19  C13 UNL     1       5.302   1.290   0.628  1.00  0.00     0.033 A 
HETATM   20  C14 UNL     1       5.762   0.126   1.441  1.00  0.00     0.240 A 
HETATM   21  F1  UNL     1       5.522   0.478   2.761  1.00  0.00    -0.239 F 
HETATM   22  C15 UNL     1       5.032  -1.096   1.124  1.00  0.00     0.065 A 
HETATM   23 CL1  UNL     1       5.468  -2.542   2.007  1.00  0.00    -0.084 Cl
HETATM   24  C16 UNL     1       4.077  -1.234   0.249  1.00  0.00     0.120 A 
ENDBRANCH  12  17
BRANCH   6  25
HETATM   25  O2  UNL     1      -5.492   0.216  -0.438  1.00  0.00    -0.353 OA
HETATM   26  C8  UNL     1      -6.062   0.561  -1.673  1.00  0.00     0.210 C 
ENDBRANCH   6  25
BRANCH   1  27
HETATM   27  O1  UNL     1      -4.648  -0.439   1.976  1.00  0.00    -0.353 OA
HETATM   28  C1  UNL     1      -4.374  -0.793   3.308  1.00  0.00     0.210 C 
ENDBRANCH   1  27
TORSDOF 3
