REMARK  5 active torsions:
REMARK  status: ('A' for Active; 'I' for Inactive)
REMARK    1  A    between atoms: C4_5  and  S1_6 
REMARK    2  A    between atoms: C7_9  and  O1_10 
REMARK    3  A    between atoms: C10_13  and  N2_14 
REMARK    4  A    between atoms: N2_14  and  C11_15 
REMARK    5  A    between atoms: C14_19  and  C15_20 
ROOT
HETATM    1  C1  UNL     1      -5.445  -1.228   1.059  1.00  0.00     0.025 C 
HETATM    2  C2  UNL     1      -4.258  -0.893   0.612  1.00  0.00    -0.022 A 
HETATM    3  C3  UNL     1      -4.138   0.400  -0.066  1.00  0.00     0.123 A 
HETATM    4  N1  UNL     1      -2.950   0.506  -0.412  1.00  0.00    -0.281 NA
HETATM    5  C4  UNL     1      -2.235   1.554  -1.105  1.00  0.00     0.194 A 
HETATM    6  C6  UNL     1      -0.852   1.172  -1.181  1.00  0.00     0.047 A 
HETATM    7  C7  UNL     1       0.401   1.171  -1.417  1.00  0.00     0.069 A 
HETATM    8  C9  UNL     1       1.796   0.865  -1.530  1.00  0.00     0.062 A 
HETATM    9  C10 UNL     1       1.988  -0.365  -0.962  1.00  0.00     0.018 A 
HETATM   10  C17 UNL     1       2.083  -1.649  -0.353  1.00  0.00     0.078 A 
HETATM   11  C18 UNL     1       1.557  -2.660   0.225  1.00  0.00    -0.073 A 
HETATM   12  C19 UNL     1       2.776  -3.483   0.404  1.00  0.00     0.044 C 
HETATM   13  C20 UNL     1       0.314  -3.252   0.785  1.00  0.00     0.003 A 
HETATM   14  C21 UNL     1      -0.937  -3.135   1.003  1.00  0.00     0.001 A 
HETATM   15  C22 UNL     1      -2.050  -2.262   0.811  1.00  0.00     0.007 A 
HETATM   16  C23 UNL     1      -3.296  -1.935   0.927  1.00  0.00    -0.051 A 
HETATM   17  C24 UNL     1      -3.667  -3.171   1.629  1.00  0.00     0.049 C 
ENDROOT
BRANCH   9  18
HETATM   18  N2  UNL     1       3.471  -0.438  -1.181  1.00  0.00    -0.368 N 
HETATM   19  H13 UNL     1       4.354  -0.849  -1.622  1.00  0.00     0.161 HD
BRANCH  18  20
HETATM   20  C11 UNL     1       4.291   0.635  -0.408  1.00  0.00     0.118 A 
HETATM   21  N3  UNL     1       3.424   0.377   0.706  1.00  0.00    -0.217 N 
HETATM   22  C12 UNL     1       4.371   1.146   1.753  1.00  0.00     0.117 A 
HETATM   23  C13 UNL     1       5.211   1.754   0.553  1.00  0.00     0.024 A 
HETATM   24  C14 UNL     1       5.305   2.388   1.547  1.00  0.00     0.028 A 
HETATM   25  C16 UNL     1       5.729   1.809  -0.935  1.00  0.00     0.019 A 
HETATM   26  C15 UNL     1       5.403   1.843   0.139  1.00  0.00     0.024 A 
ENDBRANCH  18  20
ENDBRANCH   9  18
BRANCH   7  27
HETATM   27  O1  UNL     1       0.206   2.446  -2.012  1.00  0.00    -0.356 OA
HETATM   28  C8  UNL     1       0.299   3.665  -1.370  1.00  0.00     0.210 C 
ENDBRANCH   7  27
BRANCH   5  29
HETATM   29  S1  UNL     1      -3.019   1.962  -2.650  1.00  0.00    -0.142 SA
HETATM   30  C5  UNL     1      -4.596   2.770  -2.542  1.00  0.00     0.092 C 
ENDBRANCH   5  29
TORSDOF 5
