REMARK  1 active torsions:
REMARK  status: ('A' for Active; 'I' for Inactive)
REMARK    1  A    between atoms: O1_2  and  C2_3 
ROOT
HETATM    1  C2  UNL     1       4.841   0.055   0.330  1.00  0.00     0.051 A 
HETATM    2  C3  UNL     1       4.711   1.126  -0.437  1.00  0.00     0.033 A 
HETATM    3  C4  UNL     1       3.442   1.674  -0.871  1.00  0.00     0.012 A 
HETATM    4  C5  UNL     1       2.317   1.088  -0.493  1.00  0.00    -0.031 A 
HETATM    5  C6  UNL     1       1.012   1.679  -0.959  1.00  0.00     0.047 C 
HETATM    6  C7  UNL     1       0.102   1.765   0.275  1.00  0.00     0.067 C 
HETATM    7  C8  UNL     1      -0.609   0.487   0.373  1.00  0.00     0.067 C 
HETATM    8  C9  UNL     1      -2.029   0.374   0.199  1.00  0.00    -0.009 A 
HETATM    9  C10 UNL     1      -2.896   1.404  -0.075  1.00  0.00     0.014 A 
HETATM   10  C11 UNL     1      -4.263   1.234  -0.233  1.00  0.00     0.008 A 
HETATM   11  C12 UNL     1      -4.814  -0.032  -0.115  1.00  0.00    -0.056 A 
HETATM   12  C13 UNL     1      -6.273  -0.222  -0.283  1.00  0.00     0.049 C 
HETATM   13  C14 UNL     1      -3.969  -1.066   0.157  1.00  0.00    -0.055 A 
HETATM   14  C15 UNL     1      -4.604  -2.407   0.275  1.00  0.00     0.049 C 
HETATM   15  C16 UNL     1      -2.612  -0.869   0.310  1.00  0.00     0.020 A 
HETATM   16  N1  UNL     1       0.058  -0.606   0.629  1.00  0.00    -0.154 NA
HETATM   17  N2  UNL     1       1.418  -0.845   0.849  1.00  0.00    -0.154 NA
HETATM   18  C17 UNL     1       2.394  -0.115   0.365  1.00  0.00     0.069 A 
HETATM   19  C18 UNL     1       3.659  -0.699   0.826  1.00  0.00     0.126 A 
ENDROOT
BRANCH   1  20
HETATM   20  O1  UNL     1       6.062  -0.431   0.718  1.00  0.00    -0.360 OA
HETATM   21  C1  UNL     1       6.687  -1.558   0.138  1.00  0.00     0.209 C 
ENDBRANCH   1  20
TORSDOF 1
