REMARK  3 active torsions:
REMARK  status: ('A' for Active; 'I' for Inactive)
REMARK    1  A    between atoms: C9_9  and  C10_10 
REMARK    2  A    between atoms: C11_14  and  C12_15 
REMARK    3  A    between atoms: C12_15  and  C13_16 
ROOT
HETATM    1  C10 UNL     1       0.145  -0.074   1.246  1.00  0.00     0.086 A 
HETATM    2  N1  UNL     1       0.011  -0.586   2.430  1.00  0.00    -0.133 NA
HETATM    3  N2  UNL     1       1.240  -0.642   3.062  1.00  0.00    -0.048 NA
HETATM    4  N3  UNL     1       2.156  -0.187   2.334  1.00  0.00    -0.161 NA
HETATM    5  C11 UNL     1       1.573   0.229   1.092  1.00  0.00     0.190 A 
ENDROOT
BRANCH   1   6
HETATM    6  C9  UNL     1      -0.873   0.176   0.230  1.00  0.00     0.043 C 
HETATM    7  C8  UNL     1      -2.168  -0.031   0.204  1.00  0.00    -0.029 C 
HETATM    8  C2  UNL     1      -2.925   0.346  -1.012  1.00  0.00    -0.055 C 
HETATM    9  C7  UNL     1      -2.879  -0.625   1.349  1.00  0.00     0.008 C 
HETATM   10  C1  UNL     1      -2.086   0.382  -2.243  1.00  0.00     0.049 C 
HETATM   11  C3  UNL     1      -4.223   0.654  -1.155  1.00  0.00    -0.019 C 
HETATM   12  C4  UNL     1      -5.211   0.673  -0.052  1.00  0.00     0.031 C 
HETATM   13  C5  UNL     1      -5.316  -0.601   0.717  1.00  0.00     0.031 C 
HETATM   14  C6  UNL     1      -4.152  -0.877   1.605  1.00  0.00    -0.026 C 
ENDBRANCH   1   6
BRANCH   5  15
HETATM   15  C12 UNL     1       2.147  -0.593  -0.048  1.00  0.00     0.074 C 
BRANCH  15  16
HETATM   16  C13 UNL     1       3.587  -0.299  -0.217  1.00  0.00    -0.056 A 
HETATM   17  C14 UNL     1       3.931   0.736  -1.084  1.00  0.00     0.008 A 
HETATM   18  C15 UNL     1       5.260   1.094  -1.314  1.00  0.00     0.019 A 
HETATM   19  C16 UNL     1       6.259   0.404  -0.664  1.00  0.00     0.011 A 
HETATM   20 BR1  UNL     1       8.089   0.880  -0.966  1.00  0.00    -0.051 Br
HETATM   21  C17 UNL     1       5.921  -0.621   0.196  1.00  0.00     0.019 A 
HETATM   22  C18 UNL     1       4.594  -0.981   0.428  1.00  0.00     0.008 A 
ENDBRANCH  15  16
ENDBRANCH   5  15
TORSDOF 3
