REMARK  5 active torsions:
REMARK  status: ('A' for Active; 'I' for Inactive)
REMARK    1  A    between atoms: C5_5  and  C6_6 
REMARK    2  A    between atoms: N1_7  and  N2_8 
REMARK    3  A    between atoms: N2_8  and  C7_9 
REMARK    4  A    between atoms: C8_10  and  N3_11 
REMARK    5  A    between atoms: C8_10  and  C9_12 
ROOT
HETATM    1  N2  UNL     1       0.476   0.220   0.351  1.00  0.00    -0.288 N 
HETATM    2  H7  UNL     1       0.483   0.667   1.317  1.00  0.00     0.188 HD
ENDROOT
BRANCH   1   3
HETATM    3  N1  UNL     1       0.266  -0.259  -0.945  1.00  0.00    -0.187 NA
HETATM    4  C6  UNL     1      -0.946  -0.424  -1.340  1.00  0.00     0.149 C 
BRANCH   4   5
HETATM    5  C5  UNL     1      -2.339  -0.295  -0.926  1.00  0.00    -0.017 A 
HETATM    6  C4  UNL     1      -3.284  -0.655  -1.864  1.00  0.00     0.013 A 
HETATM    7  C3  UNL     1      -4.582  -0.512  -1.419  1.00  0.00     0.008 A 
HETATM    8  C2  UNL     1      -4.916  -0.056  -0.160  1.00  0.00    -0.056 A 
HETATM    9  C1  UNL     1      -6.356   0.060   0.223  1.00  0.00     0.049 C 
HETATM   10  C16 UNL     1      -3.919   0.286   0.729  1.00  0.00    -0.055 A 
HETATM   11  C15 UNL     1      -2.607   0.166   0.342  1.00  0.00     0.020 A 
HETATM   12  C17 UNL     1      -4.322   0.773   2.074  1.00  0.00     0.049 C 
ENDBRANCH   4   5
ENDBRANCH   1   3
BRANCH   1  13
HETATM   13  C7  UNL     1       1.728  -0.468   0.512  1.00  0.00     0.133 C 
HETATM   14  C8  UNL     1       2.776   0.225   0.147  1.00  0.00     0.033 C 
BRANCH  14  15
HETATM   15  N3  UNL     1       2.212   1.442  -0.284  1.00  0.00    -0.301 NA
HETATM   16  H9  UNL     1       2.121   1.878  -1.245  1.00  0.00     0.124 HD
HETATM   17  H10 UNL     1       2.043   2.001  -1.143  1.00  0.00     0.124 HD
ENDBRANCH  14  15
BRANCH  14  18
HETATM   18  C9  UNL     1       4.188  -0.092   0.148  1.00  0.00    -0.014 A 
HETATM   19  C10 UNL     1       4.572  -1.335   0.605  1.00  0.00     0.015 A 
HETATM   20  C11 UNL     1       5.952  -1.560   0.572  1.00  0.00     0.024 A 
HETATM   21  C12 UNL     1       6.864  -0.625   0.122  1.00  0.00     0.034 A 
HETATM   22 CL1  UNL     1       8.583  -0.943   0.096  1.00  0.00    -0.084 Cl
HETATM   23  C13 UNL     1       6.387   0.610  -0.324  1.00  0.00     0.024 A 
HETATM   24  C14 UNL     1       5.021   0.903  -0.318  1.00  0.00     0.015 A 
ENDBRANCH  14  18
ENDBRANCH   1  13
TORSDOF 5
