REMARK  4 active torsions:
REMARK  status: ('A' for Active; 'I' for Inactive)
REMARK    1  A    between atoms: C2_2  and  C3_3 
REMARK    2  A    between atoms: C3_3  and  C4_4 
REMARK    3  A    between atoms: N1_11  and  N2_12 
REMARK    4  A    between atoms: N2_12  and  C11_13 
ROOT
HETATM    1  C4  UNL     1      -2.885  -0.138  -0.084  1.00  0.00    -0.052 C 
HETATM    2  C5  UNL     1      -2.429  -1.246   0.482  1.00  0.00     0.014 C 
HETATM    3  C6  UNL     1      -1.163  -1.747   1.124  1.00  0.00    -0.064 C 
HETATM    4  C7  UNL     1      -1.224  -3.202   1.521  1.00  0.00     0.048 C 
HETATM    5  C8  UNL     1       0.006  -1.143   1.402  1.00  0.00     0.001 C 
HETATM    6  C9  UNL     1       0.709   0.171   1.299  1.00  0.00     0.099 C 
HETATM    7  C10 UNL     1      -0.147   1.347   1.640  1.00  0.00     0.032 C 
HETATM    8  N1  UNL     1       1.237   0.208  -0.071  1.00  0.00    -0.220 NA
HETATM    9  C17 UNL     1       0.161  -0.116  -0.953  1.00  0.00     0.142 C 
HETATM   10  C18 UNL     1      -0.915   0.852  -1.127  1.00  0.00    -0.003 C 
HETATM   11  C19 UNL     1      -2.222   0.982  -0.840  1.00  0.00    -0.058 C 
HETATM   12  C20 UNL     1      -2.852   2.216  -1.324  1.00  0.00     0.048 C 
ENDROOT
BRANCH   8  13
HETATM   13  N2  UNL     1       2.152  -0.848  -0.152  1.00  0.00    -0.321 N 
HETATM   14  H15 UNL     1       1.909  -1.858  -0.039  1.00  0.00     0.180 HD
BRANCH  13  15
HETATM   15  C11 UNL     1       3.492  -0.457  -0.410  1.00  0.00     0.042 C 
HETATM   16  C12 UNL     1       4.473  -1.227   0.061  1.00  0.00     0.039 C 
HETATM   17 CL1  UNL     1       4.122  -2.686   0.977  1.00  0.00    -0.087 Cl
HETATM   18  C13 UNL     1       5.832  -0.693  -0.286  1.00  0.00     0.080 C 
HETATM   19  C14 UNL     1       5.928   0.744   0.150  1.00  0.00    -0.025 C 
HETATM   20  C15 UNL     1       4.910   1.465  -0.324  1.00  0.00    -0.024 C 
HETATM   21  C16 UNL     1       3.903   0.746  -1.167  1.00  0.00     0.086 C 
ENDBRANCH  13  15
ENDBRANCH   8  13
BRANCH   1  22
HETATM   22  C3  UNL     1      -4.290  -0.033  -0.578  1.00  0.00     0.039 C 
BRANCH  22  23
HETATM   23  C2  UNL     1      -5.096   0.996   0.126  1.00  0.00    -0.024 C 
HETATM   24  C1  UNL     1      -6.281   0.683   0.736  1.00  0.00     0.029 C 
ENDBRANCH  22  23
ENDBRANCH   1  22
TORSDOF 4
