REMARK  4 active torsions:
REMARK  status: ('A' for Active; 'I' for Inactive)
REMARK    1  A    between atoms: C2_2  and  C3_3 
REMARK    2  A    between atoms: C4_5  and  C5_6 
REMARK    3  A    between atoms: C6_7  and  C7_8 
REMARK    4  A    between atoms: C9_11  and  N1_12 
ROOT
HETATM    1  C7  UNL     1       1.096   0.128   1.732  1.00  0.00     0.052 A 
HETATM    2  C8  UNL     1       0.449  -0.249   3.019  1.00  0.00     0.081 A 
HETATM    3  S1  UNL     1      -1.291  -0.199   2.400  1.00  0.00    -0.060 SA
HETATM    4  C9  UNL     1      -0.908   0.261   0.726  1.00  0.00     0.190 A 
HETATM    5  N3  UNL     1       0.260   0.343   0.699  1.00  0.00    -0.226 NA
ENDROOT
BRANCH   4   6
HETATM    6  N1  UNL     1      -2.162   0.422  -0.153  1.00  0.00    -0.234 N 
HETATM    7  N2  UNL     1      -2.127   0.762  -1.705  1.00  0.00    -0.181 NA
HETATM    8  C10 UNL     1      -2.447  -0.513  -2.173  1.00  0.00     0.150 C 
HETATM    9  C11 UNL     1      -3.649   0.039  -1.360  1.00  0.00    -0.018 C 
HETATM   10  C12 UNL     1      -4.173   1.105  -0.653  1.00  0.00     0.018 C 
HETATM   11  C16 UNL     1      -3.867  -1.366  -0.623  1.00  0.00     0.017 C 
HETATM   12  C13 UNL     1      -3.489   0.379   0.435  1.00  0.00     0.165 C 
HETATM   13  C14 UNL     1      -4.456  -0.778   0.459  1.00  0.00    -0.055 C 
HETATM   14  C15 UNL     1      -5.509  -0.880   1.524  1.00  0.00     0.046 C 
ENDBRANCH   4   6
BRANCH   1  15
HETATM   15  C6  UNL     1       2.274   0.431   0.827  1.00  0.00     0.074 C 
HETATM   16  C5  UNL     1       3.514   0.593   0.452  1.00  0.00    -0.013 C 
BRANCH  16  17
HETATM   17  C4  UNL     1       3.238   0.966  -0.974  1.00  0.00     0.020 C 
HETATM   18  C3  UNL     1       4.430   1.180  -1.574  1.00  0.00     0.033 C 
HETATM   19 CL1  UNL     1       4.531   1.625  -3.283  1.00  0.00    -0.084 Cl
BRANCH  18  20
HETATM   20  C2  UNL     1       5.683   1.046  -0.867  1.00  0.00     0.013 C 
HETATM   21  C1  UNL     1       6.808   1.262  -1.491  1.00  0.00     0.013 C 
ENDBRANCH  18  20
ENDBRANCH  16  17
ENDBRANCH   1  15
TORSDOF 4
