REMARK  0 active torsions:
REMARK  status: ('A' for Active; 'I' for Inactive)
ROOT
HETATM    1  C1  UNL     1      -4.283  -0.492  -0.619  1.00  0.00     0.045 C 
HETATM    2  C2  UNL     1      -2.922  -0.167  -0.065  1.00  0.00    -0.064 C 
HETATM    3  C3  UNL     1      -2.503   1.070  -0.226  1.00  0.00    -0.003 A 
HETATM    4  C4  UNL     1      -3.528   1.844  -0.929  1.00  0.00     0.012 A 
HETATM    5  C5  UNL     1      -3.535   3.108  -1.334  1.00  0.00    -0.004 A 
HETATM    6  C6  UNL     1      -2.347   3.931  -1.066  1.00  0.00     0.177 A 
HETATM    7  N1  UNL     1      -1.371   3.134  -0.381  1.00  0.00    -0.283 NA
HETATM    8  C7  UNL     1      -1.384   1.923  -0.002  1.00  0.00     0.091 A 
HETATM    9  C8  UNL     1      -0.026   1.888   0.535  1.00  0.00     0.093 C 
HETATM   10  C9  UNL     1       0.715   2.776   1.162  1.00  0.00     0.084 C 
HETATM   11  S1  UNL     1       2.318   2.879   1.842  1.00  0.00    -0.103 SA
HETATM   12  C10 UNL     1       3.541   1.987   0.861  1.00  0.00    -0.010 C 
HETATM   13  C11 UNL     1       3.186   0.730   1.112  1.00  0.00     0.024 C 
HETATM   14  C12 UNL     1       3.381  -0.080  -0.153  1.00  0.00    -0.035 C 
HETATM   15  C13 UNL     1       3.874   0.802  -1.035  1.00  0.00    -0.008 C 
HETATM   16  C14 UNL     1       4.687   1.696  -0.082  1.00  0.00     0.045 C 
HETATM   17  C15 UNL     1       5.690   0.898   0.686  1.00  0.00     0.020 C 
HETATM   18  C16 UNL     1       2.857  -1.400   0.190  1.00  0.00     0.149 C 
HETATM   19  C17 UNL     1       2.594  -2.420  -0.869  1.00  0.00     0.089 C 
HETATM   20  C18 UNL     1       1.278  -2.949  -0.254  1.00  0.00     0.038 C 
HETATM   21  N2  UNL     1       0.867  -1.786  -0.654  1.00  0.00    -0.180 NA
HETATM   22  N3  UNL     1       1.381  -1.017   0.398  1.00  0.00    -0.254 N 
HETATM   23  C19 UNL     1       0.738  -0.145   1.322  1.00  0.00     0.230 C 
HETATM   24  N4  UNL     1       0.612   0.650   0.318  1.00  0.00    -0.240 NA
HETATM   25  C20 UNL     1      -0.030  -3.346   0.303  1.00  0.00     0.083 C 
HETATM   26  C21 UNL     1      -1.157  -3.312  -0.610  1.00  0.00    -0.024 C 
HETATM   27  C22 UNL     1      -2.179  -2.482  -0.406  1.00  0.00    -0.022 C 
HETATM   28  C23 UNL     1      -2.586  -1.449   0.562  1.00  0.00     0.033 C 
HETATM   29  C24 UNL     1      -3.706  -1.916   1.451  1.00  0.00     0.019 C 
ENDROOT
TORSDOF 0
