REMARK  2 active torsions:
REMARK  status: ('A' for Active; 'I' for Inactive)
REMARK    1  A    between atoms: O1_1  and  C1_2 
REMARK    2  A    between atoms: C4_5  and  C5_6 
ROOT
HETATM    1  C5  UNL     1       1.484  -0.080   0.058  1.00  0.00     0.048 C 
HETATM    2  C6  UNL     1       1.233  -1.545   0.233  1.00  0.00     0.020 C 
HETATM    3  C7  UNL     1      -0.152  -2.035   0.258  1.00  0.00     0.062 C 
HETATM    4  C8  UNL     1      -1.077  -1.560  -0.787  1.00  0.00     0.051 C 
HETATM    5  N1  UNL     1      -1.049  -1.038  -1.963  1.00  0.00    -0.178 NA
HETATM    6  N2  UNL     1      -2.267  -0.702  -2.646  1.00  0.00    -0.255 N 
HETATM    7  C9  UNL     1      -3.143   0.100  -1.810  1.00  0.00     0.182 A 
HETATM    8  N3  UNL     1      -2.514   0.819  -1.109  1.00  0.00    -0.227 NA
HETATM    9  C10 UNL     1      -2.750   1.763  -0.129  1.00  0.00     0.057 A 
HETATM   10  C11 UNL     1      -4.122   1.766  -0.054  1.00  0.00     0.075 A 
HETATM   11  S1  UNL     1      -4.868   0.537  -1.268  1.00  0.00    -0.088 SA
HETATM   12  C12 UNL     1      -5.800  -0.730  -0.752  1.00  0.00     0.015 C 
HETATM   13  C13 UNL     1      -5.159  -1.916  -0.637  1.00  0.00     0.002 C 
HETATM   14  C14 UNL     1      -3.759  -1.987  -0.195  1.00  0.00     0.045 C 
HETATM   15  C15 UNL     1      -2.452  -1.865  -0.268  1.00  0.00     0.011 C 
HETATM   16  C16 UNL     1      -1.209   1.917  -0.041  1.00  0.00     0.035 A 
HETATM   17  C17 UNL     1      -0.772   2.499  -1.211  1.00  0.00     0.020 A 
HETATM   18  C18 UNL     1       0.215   1.690  -0.740  1.00  0.00     0.040 A 
HETATM   19  C19 UNL     1       0.439   0.866   0.316  1.00  0.00    -0.066 A 
HETATM   20  C20 UNL     1      -0.071   0.359   1.460  1.00  0.00     0.001 A 
HETATM   21  C21 UNL     1      -1.161   1.127   1.104  1.00  0.00    -0.009 A 
HETATM   22  H9  UNL     1      -2.484  -1.000  -3.616  1.00  0.00     0.191 HD
ENDROOT
BRANCH   1  23
HETATM   23  C4  UNL     1       2.806   0.295   0.496  1.00  0.00    -0.050 A 
HETATM   24  C3  UNL     1       3.750   0.961  -0.239  1.00  0.00     0.010 A 
HETATM   25  C2  UNL     1       5.027   1.342   0.138  1.00  0.00     0.037 A 
HETATM   26  C1  UNL     1       5.375   0.993   1.433  1.00  0.00     0.065 A 
HETATM   27  C23 UNL     1       4.490   0.321   2.249  1.00  0.00     0.037 A 
HETATM   28  C22 UNL     1       3.217  -0.028   1.794  1.00  0.00     0.010 A 
BRANCH  26  29
HETATM   29  O1  UNL     1       6.650   1.360   1.845  1.00  0.00    -0.361 OA
HETATM   30  H1  UNL     1       7.486   1.123   1.329  1.00  0.00     0.217 HD
ENDBRANCH  26  29
ENDBRANCH   1  23
TORSDOF 2
