REMARK  2 active torsions:
REMARK  status: ('A' for Active; 'I' for Inactive)
REMARK    1  A    between atoms: C12_14  and  C13_15 
REMARK    2  A    between atoms: C15_17  and  S1_18 
ROOT
HETATM    1  C1  UNL     1      -1.220   2.997  -0.815  1.00  0.00     0.043 C 
HETATM    2  C2  UNL     1      -0.819   1.612  -0.314  1.00  0.00    -0.083 C 
HETATM    3  C3  UNL     1      -1.548   0.547  -0.755  1.00  0.00    -0.018 C 
HETATM    4  C4  UNL     1      -1.913  -0.937  -0.850  1.00  0.00     0.083 C 
HETATM    5  C5  UNL     1      -1.095  -1.679   0.175  1.00  0.00     0.032 C 
HETATM    6  C6  UNL     1      -1.793  -1.671   1.510  1.00  0.00     0.068 C 
HETATM    7  N1  UNL     1      -0.026  -2.062  -0.402  1.00  0.00    -0.184 NA
HETATM    8  N2  UNL     1       1.048  -2.766   0.131  1.00  0.00    -0.278 N 
HETATM    9  C7  UNL     1       1.146  -1.494   0.886  1.00  0.00     0.063 A 
HETATM   10  C8  UNL     1       1.110  -1.671   2.278  1.00  0.00     0.032 A 
HETATM   11  C9  UNL     1       0.936  -0.600   3.175  1.00  0.00     0.003 A 
HETATM   12  C10 UNL     1       0.790   0.672   2.649  1.00  0.00     0.008 A 
HETATM   13  C11 UNL     1       0.843   0.723   1.287  1.00  0.00    -0.039 A 
HETATM   14  C12 UNL     1       1.018  -0.202   0.325  1.00  0.00     0.028 A 
HETATM   15  C16 UNL     1       0.370   1.949   0.575  1.00  0.00     0.073 C 
HETATM   16  H10 UNL     1       1.821  -3.361   0.469  1.00  0.00     0.189 HD
ENDROOT
BRANCH  14  17
HETATM   17  C13 UNL     1       1.260  -0.007  -1.092  1.00  0.00     0.073 A 
HETATM   18  C14 UNL     1       1.597  -0.752  -2.128  1.00  0.00     0.071 A 
HETATM   19  C15 UNL     1       1.583   0.365  -3.050  1.00  0.00     0.093 A 
HETATM   20  N3  UNL     1       1.258   1.083  -2.040  1.00  0.00    -0.241 NA
BRANCH  19  21
HETATM   21  S1  UNL     1       1.821   0.901  -4.736  1.00  0.00    -0.123 SA
HETATM   22  H15 UNL     1       3.143   1.375  -4.897  1.00  0.00     0.108 HD
ENDBRANCH  19  21
ENDBRANCH  14  17
TORSDOF 2
