REMARK  5 active torsions:
REMARK  status: ('A' for Active; 'I' for Inactive)
REMARK    1  A    between atoms: S1_3  and  C2_4 
REMARK    2  A    between atoms: C2_4  and  N1_5 
REMARK    3  A    between atoms: C3_7  and  C4_8 
REMARK    4  A    between atoms: C10_15  and  C11_16 
REMARK    5  A    between atoms: C14_19  and  O1_20 
ROOT
HETATM    1  B1  UNL     1       3.362   5.782  -0.334  1.00  0.00     0.206 B 
HETATM    2  C1  UNL     1       2.892   3.575  -0.321  1.00  0.00    -0.193 C 
HETATM    3  S1  UNL     1       2.516   1.830  -0.284  1.00  0.00    -0.087 SA
ENDROOT
BRANCH   3   4
HETATM    4  C2  UNL     1       0.699   1.814  -0.658  1.00  0.00     0.231 C 
BRANCH   4   5
HETATM    5  N1  UNL     1       0.153   0.508  -0.606  1.00  0.00    -0.286 N 
HETATM    6  N2  UNL     1       0.637  -0.491  -1.391  1.00  0.00    -0.184 NA
HETATM    7  C3  UNL     1       0.227  -1.697  -0.985  1.00  0.00     0.046 C 
HETATM    8  C9  UNL     1      -0.548  -1.470   0.301  1.00  0.00     0.089 C 
HETATM    9  C10 UNL     1      -0.972  -0.074   0.072  1.00  0.00     0.143 C 
BRANCH   7  10
HETATM   10  C4  UNL     1       0.689  -2.872  -1.798  1.00  0.00     0.082 A 
HETATM   11  C5  UNL     1       1.703  -3.651  -1.082  1.00  0.00    -0.011 A 
HETATM   12  C6  UNL     1       2.774  -3.658  -1.899  1.00  0.00     0.016 A 
HETATM   13  C7  UNL     1       2.550  -2.936  -3.121  1.00  0.00     0.007 A 
HETATM   14 BR1  UNL     1       3.872  -2.766  -4.512  1.00  0.00    -0.051 Br
HETATM   15  C8  UNL     1       1.325  -2.479  -3.056  1.00  0.00     0.007 A 
ENDBRANCH   7  10
BRANCH   9  16
HETATM   16  C11 UNL     1      -1.535   0.718   1.183  1.00  0.00    -0.033 A 
HETATM   17  C12 UNL     1      -0.427   1.060   1.855  1.00  0.00     0.012 A 
HETATM   18  C13 UNL     1      -0.907   1.957   2.885  1.00  0.00     0.037 A 
HETATM   19  C14 UNL     1      -2.259   2.366   3.104  1.00  0.00     0.065 A 
HETATM   20  C15 UNL     1      -3.311   1.905   2.290  1.00  0.00     0.037 A 
HETATM   21  C16 UNL     1      -2.853   1.030   1.285  1.00  0.00     0.012 A 
BRANCH  19  22
HETATM   22  O1  UNL     1      -2.943   3.210   4.019  1.00  0.00    -0.361 OA
HETATM   23  H12 UNL     1      -3.321   2.687   4.817  1.00  0.00     0.217 HD
ENDBRANCH  19  22
ENDBRANCH   9  16
ENDBRANCH   4   5
ENDBRANCH   3   4
TORSDOF 5
