REMARK  4 active torsions:
REMARK  status: ('A' for Active; 'I' for Inactive)
REMARK    1  A    between atoms: C3_4  and  C4_5 
REMARK    2  A    between atoms: N1_6  and  N2_7 
REMARK    3  A    between atoms: N2_7  and  C5_8 
REMARK    4  A    between atoms: C6_10  and  C7_11 
ROOT
HETATM    1  C5  UNL     1       0.001   0.363   0.210  1.00  0.00     0.187 A 
HETATM    2  N3  UNL     1      -1.154   0.340   0.311  1.00  0.00    -0.222 NA
HETATM    3  C6  UNL     1      -1.991  -0.576  -0.147  1.00  0.00     0.076 A 
HETATM    4  C13 UNL     1      -1.444  -1.652  -0.836  1.00  0.00     0.085 A 
HETATM    5  S1  UNL     1       0.343  -1.232  -0.765  1.00  0.00    -0.060 SA
ENDROOT
BRANCH   1   6
HETATM    6  N2  UNL     1       1.145   1.124   0.546  1.00  0.00    -0.256 N 
HETATM    7  H4  UNL     1       0.891   1.981   1.077  1.00  0.00     0.191 HD
BRANCH   6   8
HETATM    8  N1  UNL     1       2.454   0.830   0.243  1.00  0.00    -0.188 NA
HETATM    9  C4  UNL     1       3.070   1.302  -0.791  1.00  0.00     0.124 C 
BRANCH   9  10
HETATM   10  C3  UNL     1       4.490   0.897  -0.992  1.00  0.00     0.074 A 
HETATM   11  C2  UNL     1       4.605  -0.538  -0.693  1.00  0.00     0.006 A 
HETATM   12  C1  UNL     1       5.346  -0.740   0.410  1.00  0.00     0.007 A 
HETATM   13 BR1  UNL     1       5.908  -2.309   1.378  1.00  0.00    -0.051 Br
HETATM   14  C15 UNL     1       5.774   0.559   0.917  1.00  0.00     0.015 A 
HETATM   15  C14 UNL     1       5.287   1.496   0.119  1.00  0.00    -0.011 A 
ENDBRANCH   9  10
ENDBRANCH   6   8
ENDBRANCH   1   6
BRANCH   3  16
HETATM   16  C7  UNL     1      -3.451  -0.467   0.062  1.00  0.00    -0.007 A 
HETATM   17  C8  UNL     1      -4.087   0.543   0.721  1.00  0.00     0.014 A 
HETATM   18  C9  UNL     1      -5.448   0.614   0.898  1.00  0.00     0.001 A 
HETATM   19  C10 UNL     1      -6.248  -0.373   0.394  1.00  0.00     0.000 A 
HETATM   20  C11 UNL     1      -5.684  -1.418  -0.278  1.00  0.00     0.001 A 
HETATM   21  C12 UNL     1      -4.321  -1.442  -0.427  1.00  0.00     0.014 A 
ENDBRANCH   3  16
TORSDOF 4
