REMARK  8 active torsions:
REMARK  status: ('A' for Active; 'I' for Inactive)
REMARK    1  A    between atoms: O1_2  and  C2_3 
REMARK    2  A    between atoms: C5_6  and  N1_7 
REMARK    3  A    between atoms: N1_7  and  B1_8 
REMARK    4  A    between atoms: B1_8  and  C6_9 
REMARK    5  A    between atoms: C6_9  and  C7_10 
REMARK    6  A    between atoms: C7_10  and  C8_11 
REMARK    7  A    between atoms: C12_17  and  C13_18 
REMARK    8  A    between atoms: C13_18  and  C14_19 
ROOT
HETATM    1  C6  UNL     1      -0.994   0.774  -0.903  1.00  0.00    -0.085 C 
ENDROOT
BRANCH   1   2
HETATM    2  B1  UNL     1       0.177  -0.238  -0.056  1.00  0.00     0.300 B 
BRANCH   2   3
HETATM    3  N1  UNL     1       1.222  -0.847   1.243  1.00  0.00    -0.440 N 
HETATM    4  H6  UNL     1       0.886  -1.220   2.138  1.00  0.00     0.138 HD
BRANCH   3   5
HETATM    5  C5  UNL     1       2.634  -0.806   0.999  1.00  0.00     0.013 A 
HETATM    6  C4  UNL     1       3.528  -1.249   1.930  1.00  0.00     0.030 A 
HETATM    7  C3  UNL     1       4.884  -1.184   1.639  1.00  0.00     0.039 A 
HETATM    8  C2  UNL     1       5.393  -0.688   0.441  1.00  0.00     0.068 A 
HETATM    9  C17 UNL     1       4.484  -0.242  -0.494  1.00  0.00     0.039 A 
HETATM   10  C16 UNL     1       3.148  -0.316  -0.185  1.00  0.00     0.030 A 
BRANCH   8  11
HETATM   11  O1  UNL     1       6.765  -0.652   0.214  1.00  0.00    -0.356 OA
HETATM   12  C1  UNL     1       7.216  -0.131  -1.035  1.00  0.00     0.210 C 
ENDBRANCH   8  11
ENDBRANCH   3   5
ENDBRANCH   2   3
ENDBRANCH   1   2
BRANCH   1  13
HETATM   13  C7  UNL     1      -1.797   1.972  -0.549  1.00  0.00     0.026 C 
BRANCH  13  14
HETATM   14  C8  UNL     1      -3.249   1.645  -0.896  1.00  0.00     0.045 C 
HETATM   15  C9  UNL     1      -4.038   2.872  -0.529  1.00  0.00     0.022 C 
HETATM   16  C10 UNL     1      -4.591   2.855   0.673  1.00  0.00     0.100 C 
HETATM   17 BR1  UNL     1      -5.596   4.434   1.124  1.00  0.00    -0.029 Br
HETATM   18  N2  UNL     1      -4.481   1.778   1.598  1.00  0.00    -0.239 NA
HETATM   19  C11 UNL     1      -4.058   0.664   1.150  1.00  0.00     0.090 C 
HETATM   20  C12 UNL     1      -3.714   0.490  -0.096  1.00  0.00    -0.035 C 
BRANCH  20  21
HETATM   21  C13 UNL     1      -3.790  -0.856  -0.702  1.00  0.00     0.093 C 
BRANCH  21  22
HETATM   22  C14 UNL     1      -4.284  -1.867   0.288  1.00  0.00     0.030 A 
HETATM   23  N3  UNL     1      -4.698  -2.075   1.523  1.00  0.00    -0.291 NA
HETATM   24  C15 UNL     1      -4.690  -3.205   0.776  1.00  0.00     0.203 A 
ENDBRANCH  21  22
ENDBRANCH  20  21
ENDBRANCH  13  14
ENDBRANCH   1  13
TORSDOF 8
