REMARK  3 active torsions:
REMARK  status: ('A' for Active; 'I' for Inactive)
REMARK    1  A    between atoms: P1_5  and  C5_6 
REMARK    2  A    between atoms: C5_6  and  N1_7 
REMARK    3  A    between atoms: C8_11  and  C9_12 
ROOT
HETATM    1  N1  UNL     1       0.916  -0.233  -0.192  1.00  0.00    -0.246 NA
HETATM    2  C6  UNL     1       0.316   1.006   0.231  1.00  0.00     0.150 C 
HETATM    3  C7  UNL     1      -0.753   0.854   1.236  1.00  0.00     0.105 C 
HETATM    4  N2  UNL     1      -1.932   0.303   1.138  1.00  0.00    -0.263 NA
HETATM    5  C8  UNL     1      -2.570  -0.328   0.040  1.00  0.00     0.073 C 
HETATM    6  C15 UNL     1      -1.853  -0.943  -0.876  1.00  0.00     0.094 C 
HETATM    7  S1  UNL     1      -0.145  -1.232  -1.151  1.00  0.00    -0.051 SA
ENDROOT
BRANCH   1   8
HETATM    8  C5  UNL     1       2.032   0.136  -1.057  1.00  0.00     0.139 C 
BRANCH   8   9
HETATM    9  P1  UNL     1       3.263   1.138  -0.249  1.00  0.00    -0.078 P 
HETATM   10  C3  UNL     1       5.113   0.451  -0.673  1.00  0.00     0.027 A 
HETATM   11  C2  UNL     1       4.998  -0.573   0.203  1.00  0.00    -0.068 C 
HETATM   12  C4  UNL     1       4.544   1.747  -1.264  1.00  0.00     0.057 A 
HETATM   13  C1  UNL     1       6.178  -1.506   0.059  1.00  0.00     0.044 C 
HETATM   14  C17 UNL     1       3.895  -0.715   1.195  1.00  0.00     0.016 C 
HETATM   15  C16 UNL     1       3.510   0.625   1.291  1.00  0.00    -0.022 C 
ENDBRANCH   8   9
ENDBRANCH   1   8
BRANCH   5  16
HETATM   16  C9  UNL     1      -4.020  -0.257  -0.011  1.00  0.00    -0.007 A 
HETATM   17  C10 UNL     1      -4.855  -0.774  -0.949  1.00  0.00     0.014 A 
HETATM   18  C11 UNL     1      -6.221  -0.656  -0.913  1.00  0.00     0.001 A 
HETATM   19  C12 UNL     1      -6.844   0.007   0.099  1.00  0.00     0.000 A 
HETATM   20  C13 UNL     1      -6.026   0.543   1.068  1.00  0.00     0.001 A 
HETATM   21  C14 UNL     1      -4.669   0.410   1.005  1.00  0.00     0.014 A 
ENDBRANCH   5  16
TORSDOF 3
