REMARK  3 active torsions:
REMARK  status: ('A' for Active; 'I' for Inactive)
REMARK    1  A    between atoms: C7_8  and  C8_9 
REMARK    2  A    between atoms: C8_9  and  C9_10 
REMARK    3  A    between atoms: C9_10  and  C10_11 
ROOT
HETATM    1  C1  UNL     1      -5.525  -1.123  -2.698  1.00  0.00     0.108 A 
HETATM    2  C2  UNL     1      -4.510  -1.260  -1.889  1.00  0.00    -0.043 A 
HETATM    3  C3  UNL     1      -4.012  -2.428  -1.082  1.00  0.00     0.017 C 
HETATM    4  C4  UNL     1      -2.866  -2.028  -0.490  1.00  0.00     0.073 C 
HETATM    5  C5  UNL     1      -2.186  -3.035   0.396  1.00  0.00    -0.004 C 
HETATM    6 BR1  UNL     1      -2.146  -4.818   1.241  1.00  0.00    -0.055 Br
HETATM    7  C6  UNL     1      -1.020  -2.650   0.941  1.00  0.00     0.044 C 
HETATM    8  C7  UNL     1      -0.258  -1.436   0.834  1.00  0.00     0.055 C 
HETATM    9  N2  UNL     1      -1.104  -0.866   0.105  1.00  0.00    -0.183 NA
HETATM   10  N3  UNL     1      -0.930   0.439  -0.426  1.00  0.00    -0.301 N 
HETATM   11  C16 UNL     1      -1.143   0.603  -1.850  1.00  0.00     0.157 A 
HETATM   12  C17 UNL     1       0.058   1.148  -2.474  1.00  0.00     0.029 A 
HETATM   13  C18 UNL     1       0.439   2.158  -3.212  1.00  0.00     0.139 A 
HETATM   14  O1  UNL     1      -0.705   2.967  -3.471  1.00  0.00    -0.335 OA
HETATM   15  C19 UNL     1      -1.899   2.542  -2.918  1.00  0.00     0.147 A 
HETATM   16  C20 UNL     1      -2.300   1.486  -2.142  1.00  0.00    -0.021 A 
HETATM   17  C21 UNL     1      -3.723   1.572  -1.814  1.00  0.00     0.107 C 
HETATM   18  S1  UNL     1      -4.738   0.350  -2.587  1.00  0.00    -0.184 SA
HETATM   19  H18 UNL     1      -0.674   1.387  -0.086  1.00  0.00     0.183 HD
ENDROOT
BRANCH   8  20
HETATM   20  C8  UNL     1       0.987  -0.758   1.216  1.00  0.00     0.063 C 
BRANCH  20  21
HETATM   21  C9  UNL     1       2.178  -1.429   0.623  1.00  0.00     0.035 C 
BRANCH  21  22
HETATM   22  C10 UNL     1       3.479  -0.772   1.019  1.00  0.00     0.104 A 
HETATM   23  C11 UNL     1       3.565   0.629   0.629  1.00  0.00    -0.001 A 
HETATM   24  C12 UNL     1       3.868   1.624   1.484  1.00  0.00     0.006 A 
HETATM   25  C13 UNL     1       4.155   1.460   2.930  1.00  0.00    -0.047 A 
HETATM   26  C14 UNL     1       4.455   2.696   3.639  1.00  0.00     0.049 C 
HETATM   27  C15 UNL     1       4.064   0.187   3.225  1.00  0.00     0.090 A 
HETATM   28  N1  UNL     1       3.757  -0.921   2.426  1.00  0.00    -0.391 N 
HETATM   29  H17 UNL     1       3.744  -1.858   2.902  1.00  0.00     0.159 HD
ENDBRANCH  21  22
ENDBRANCH  20  21
ENDBRANCH   8  20
TORSDOF 3
