REMARK  5 active torsions:
REMARK  status: ('A' for Active; 'I' for Inactive)
REMARK    1  A    between atoms: O1_2  and  C2_3 
REMARK    2  A    between atoms: N1_9  and  S1_10 
REMARK    3  A    between atoms: S1_10  and  C8_11 
REMARK    4  A    between atoms: C9_12  and  N2_13 
REMARK    5  A    between atoms: C9_12  and  C10_14 
ROOT
HETATM    1  C2  UNL     1      -0.745   2.494  -0.346  1.00  0.00     0.105 A 
HETATM    2  C3  UNL     1      -1.798   2.505  -1.229  1.00  0.00     0.040 A 
HETATM    3  C4  UNL     1      -2.470   1.385  -1.651  1.00  0.00     0.010 A 
HETATM    4  C5  UNL     1      -1.958   0.260  -1.086  1.00  0.00    -0.055 A 
HETATM    5  C6  UNL     1      -0.929   0.022  -0.212  1.00  0.00     0.050 A 
HETATM    6  C7  UNL     1      -0.351   1.259   0.134  1.00  0.00     0.202 A 
HETATM    7  N1  UNL     1       0.544   0.703   1.208  1.00  0.00     0.099 N 
HETATM    8  N3  UNL     1      -0.237  -0.186   2.146  1.00  0.00    -0.083 NA
HETATM    9  C16 UNL     1      -1.642  -0.254   2.040  1.00  0.00     0.021 C 
HETATM   10  C17 UNL     1      -2.624  -0.847   1.309  1.00  0.00    -0.057 C 
HETATM   11  C18 UNL     1      -4.000  -0.448   1.772  1.00  0.00     0.062 C 
HETATM   12  C19 UNL     1      -4.129   1.049   1.813  1.00  0.00    -0.026 C 
HETATM   13  C20 UNL     1      -3.129   1.564   2.502  1.00  0.00    -0.025 C 
HETATM   14  C21 UNL     1      -2.075   0.660   3.111  1.00  0.00     0.080 C 
HETATM   15  C22 UNL     1      -2.566  -1.774   0.154  1.00  0.00     0.040 C 
HETATM   16  C23 UNL     1      -2.761  -1.011  -1.165  1.00  0.00     0.043 C 
HETATM   17  H15 UNL     1       0.587   0.188   1.823  1.00  0.00     0.447 HD
ENDROOT
BRANCH   7  18
HETATM   18  S1  UNL     1       1.910   1.611   0.463  1.00  0.00     0.109 SA
BRANCH  18  19
HETATM   19  C8  UNL     1       2.718   0.475  -0.654  1.00  0.00     0.107 C 
HETATM   20  C9  UNL     1       3.165  -0.685  -0.246  1.00  0.00     0.044 C 
BRANCH  20  21
HETATM   21  N2  UNL     1       2.995  -1.021   1.105  1.00  0.00    -0.398 N 
HETATM   22  H8  UNL     1       2.825  -1.375   2.044  1.00  0.00     0.156 HD
HETATM   23  H9  UNL     1       2.585  -1.973   1.250  1.00  0.00     0.156 HD
ENDBRANCH  20  21
BRANCH  20  24
HETATM   24  C10 UNL     1       3.826  -1.630  -1.144  1.00  0.00    -0.009 A 
HETATM   25  C11 UNL     1       4.027  -1.359  -2.477  1.00  0.00     0.013 A 
HETATM   26  C12 UNL     1       4.651  -2.276  -3.289  1.00  0.00     0.001 A 
HETATM   27  C13 UNL     1       5.065  -3.455  -2.752  1.00  0.00     0.000 A 
HETATM   28  C14 UNL     1       4.892  -3.775  -1.437  1.00  0.00     0.001 A 
HETATM   29  C15 UNL     1       4.266  -2.854  -0.621  1.00  0.00     0.013 A 
ENDBRANCH  20  24
ENDBRANCH  18  19
ENDBRANCH   7  18
BRANCH   1  30
HETATM   30  O1  UNL     1       0.100   3.397   0.249  1.00  0.00    -0.354 OA
HETATM   31  C1  UNL     1      -0.067   4.748  -0.060  1.00  0.00     0.210 C 
ENDBRANCH   1  30
TORSDOF 5
