REMARK  4 active torsions:
REMARK  status: ('A' for Active; 'I' for Inactive)
REMARK    1  A    between atoms: C2_2  and  C3_4 
REMARK    2  A    between atoms: N2_6  and  C4_7 
REMARK    3  A    between atoms: C13_18  and  C14_19 
REMARK    4  A    between atoms: C14_19  and  C15_20 
ROOT
HETATM    1  C3  UNL     1      -1.308  -2.943  -0.774  1.00  0.00     0.049 C 
HETATM    2  N1  UNL     1      -0.182  -2.858  -0.164  1.00  0.00    -0.178 NA
HETATM    3  N2  UNL     1      -0.092  -1.708   0.597  1.00  0.00    -0.241 N 
HETATM    4  C13 UNL     1      -1.449  -1.235   0.796  1.00  0.00     0.122 C 
HETATM    5  C20 UNL     1      -2.135  -1.752  -0.441  1.00  0.00     0.085 C 
ENDROOT
BRANCH   3   6
HETATM    6  C4  UNL     1       1.172  -1.166   1.057  1.00  0.00     0.190 A 
HETATM    7  N3  UNL     1       2.033  -0.569   0.991  1.00  0.00    -0.261 N 
HETATM    8  C5  UNL     1       3.070   0.128   0.948  1.00  0.00     0.066 A 
HETATM    9  S1  UNL     1       2.072  -1.557   2.685  1.00  0.00    -0.019 SA
HETATM   10  C6  UNL     1       3.968   1.078   0.328  1.00  0.00    -0.008 A 
HETATM   11  C12 UNL     1       3.411  -0.447   2.278  1.00  0.00     0.095 A 
HETATM   12  C7  UNL     1       5.133   1.483   0.916  1.00  0.00     0.014 A 
HETATM   13  C11 UNL     1       3.601   1.571  -0.904  1.00  0.00     0.014 A 
HETATM   14  C8  UNL     1       5.935   2.392   0.256  1.00  0.00     0.001 A 
HETATM   15  C9  UNL     1       5.569   2.889  -0.980  1.00  0.00     0.000 A 
HETATM   16  C10 UNL     1       4.392   2.490  -1.591  1.00  0.00     0.001 A 
ENDBRANCH   3   6
BRANCH   4  17
HETATM   17  C14 UNL     1      -1.468   0.264   0.921  1.00  0.00     0.064 C 
BRANCH  17  18
HETATM   18  C15 UNL     1      -2.799   0.844   1.125  1.00  0.00    -0.043 C 
HETATM   19  C16 UNL     1      -3.939   0.207   1.205  1.00  0.00     0.088 C 
HETATM   20  N4  UNL     1      -5.025   0.691   0.800  1.00  0.00    -0.259 NA
HETATM   21  C17 UNL     1      -5.117   2.037   0.344  1.00  0.00     0.113 C 
HETATM   22  C18 UNL     1      -4.070   2.821   0.566  1.00  0.00    -0.003 C 
HETATM   23  C19 UNL     1      -2.843   2.343   1.257  1.00  0.00     0.065 C 
ENDBRANCH  17  18
ENDBRANCH   4  17
BRANCH   1  24
HETATM   24  C2  UNL     1      -1.886  -3.967  -1.699  1.00  0.00     0.103 C 
HETATM   25  C1  UNL     1      -2.201  -3.327  -3.027  1.00  0.00     0.028 C 
HETATM   26 BR1  UNL     1      -3.522  -4.680  -0.899  1.00  0.00    -0.085 Br
ENDBRANCH   1  24
TORSDOF 4
