REMARK  6 active torsions:
REMARK  status: ('A' for Active; 'I' for Inactive)
REMARK    1  A    between atoms: C2_2  and  C3_3 
REMARK    2  A    between atoms: C3_3  and  C4_4 
REMARK    3  A    between atoms: C4_4  and  C5_5 
REMARK    4  A    between atoms: C6_6  and  C7_7 
REMARK    5  A    between atoms: N1_10  and  N2_11 
REMARK    6  A    between atoms: N2_11  and  C9_12 
ROOT
HETATM    1  C7  UNL     1       1.520  -0.328   2.177  1.00  0.00     0.066 C 
HETATM    2  C8  UNL     1       0.707   0.071   1.139  1.00  0.00     0.101 C 
HETATM    3  S1  UNL     1      -0.215  -0.529  -0.157  1.00  0.00     0.001 SA
HETATM    4  N1  UNL     1      -1.600  -1.379   0.161  1.00  0.00    -0.224 N 
HETATM    5  C15 UNL     1      -1.459  -2.368   1.052  1.00  0.00     0.075 C 
HETATM    6  C16 UNL     1      -1.482  -3.020   2.284  1.00  0.00     0.036 C 
HETATM    7  C17 UNL     1      -0.301  -3.443   2.913  1.00  0.00     0.039 C 
HETATM    8  C18 UNL     1       0.958  -3.594   2.311  1.00  0.00     0.076 C 
HETATM    9  O1  UNL     1       2.085  -3.457   2.972  1.00  0.00    -0.304 OA
HETATM   10  C19 UNL     1       2.288  -2.214   3.420  1.00  0.00     0.259 C 
HETATM   11  N3  UNL     1       1.623  -1.041   3.307  1.00  0.00    -0.236 NA
HETATM   12  C20 UNL     1       1.130  -3.889   1.009  1.00  0.00     0.038 C 
HETATM   13  C21 UNL     1       0.199  -3.468  -0.065  1.00  0.00     0.017 C 
HETATM   14  C22 UNL     1      -1.058  -3.053   0.004  1.00  0.00     0.006 C 
ENDROOT
BRANCH   4  15
HETATM   15  N2  UNL     1      -2.873  -1.211  -0.361  1.00  0.00    -0.293 N 
HETATM   16  H9  UNL     1      -3.681  -1.805  -0.081  1.00  0.00     0.188 HD
BRANCH  15  17
HETATM   17  C9  UNL     1      -3.430  -0.312  -1.306  1.00  0.00     0.017 A 
HETATM   18  C10 UNL     1      -4.164  -0.643  -2.355  1.00  0.00    -0.051 A 
HETATM   19  B1  UNL     1      -4.725   0.437  -3.329  1.00  0.00     0.216 B 
HETATM   20  C11 UNL     1      -4.369   1.917  -2.989  1.00  0.00    -0.108 A 
HETATM   21  H11 UNL     1      -5.623   0.217  -4.064  1.00  0.00    -0.017 HD
HETATM   22  C12 UNL     1      -4.841   3.055  -3.831  1.00  0.00     0.031 C 
HETATM   23  C13 UNL     1      -3.623   2.090  -1.904  1.00  0.00    -0.015 A 
HETATM   24 BR1  UNL     1      -3.189   3.911  -1.489  1.00  0.00    -0.056 Br
HETATM   25  C14 UNL     1      -3.087   1.080  -0.985  1.00  0.00     0.103 A 
ENDBRANCH  15  17
ENDBRANCH   4  15
BRANCH   1  26
HETATM   26  C6  UNL     1       2.891   0.140   2.193  1.00  0.00     0.032 C 
HETATM   27  C5  UNL     1       3.179   0.897   1.159  1.00  0.00     0.002 C 
BRANCH  27  28
HETATM   28  C4  UNL     1       4.026   1.751   0.280  1.00  0.00    -0.000 C 
BRANCH  28  29
HETATM   29  C3  UNL     1       4.477   2.542  -0.719  1.00  0.00    -0.004 C 
BRANCH  29  30
HETATM   30  C2  UNL     1       5.887   2.935  -0.556  1.00  0.00    -0.026 C 
HETATM   31  C1  UNL     1       5.616   3.558  -1.692  1.00  0.00     0.031 C 
ENDBRANCH  29  30
ENDBRANCH  28  29
ENDBRANCH  27  28
ENDBRANCH   1  26
TORSDOF 6
