REMARK  6 active torsions:
REMARK  status: ('A' for Active; 'I' for Inactive)
REMARK    1  A    between atoms: C7_7  and  N1_8 
REMARK    2  A    between atoms: N1_8  and  C8_9 
REMARK    3  A    between atoms: C15_19  and  O2_20 
REMARK    4  A    between atoms: O2_20  and  C16_21 
REMARK    5  A    between atoms: C16_21  and  C17_22 
REMARK    6  A    between atoms: C17_22  and  O3_23 
ROOT
HETATM    1  C1  UNL     1      -8.282  -2.336   0.264  1.00  0.00     0.018 C 
HETATM    2  C2  UNL     1      -7.383  -1.531   0.287  1.00  0.00    -0.078 C 
HETATM    3  C3  UNL     1      -6.329  -0.557   0.310  1.00  0.00     0.019 A 
HETATM    4  C4  UNL     1      -6.463   0.710   0.845  1.00  0.00     0.021 A 
HETATM    5  C5  UNL     1      -5.371   1.543   0.800  1.00  0.00     0.004 A 
HETATM    6  C6  UNL     1      -4.171   1.149   0.245  1.00  0.00     0.029 A 
HETATM    7  C7  UNL     1      -4.007  -0.123  -0.302  1.00  0.00     0.035 A 
HETATM    8  C20 UNL     1      -5.134  -0.951  -0.244  1.00  0.00     0.050 A 
ENDROOT
BRANCH   7   9
HETATM    9  N1  UNL     1      -2.699  -0.375  -0.802  1.00  0.00    -0.340 N 
HETATM   10  H5  UNL     1      -3.046  -0.796  -1.681  1.00  0.00     0.167 HD
BRANCH   9  11
HETATM   11  C8  UNL     1      -1.604   0.013   0.008  1.00  0.00     0.141 A 
HETATM   12  N2  UNL     1      -1.906   0.548   1.197  1.00  0.00    -0.224 NA
HETATM   13  C9  UNL     1      -0.956   0.950   2.056  1.00  0.00     0.236 A 
HETATM   14  N3  UNL     1       0.333   0.817   1.724  1.00  0.00    -0.241 NA
HETATM   15  C10 UNL     1       0.736   0.295   0.561  1.00  0.00     0.074 A 
HETATM   16  C11 UNL     1      -0.269  -0.104  -0.289  1.00  0.00     0.037 A 
HETATM   17  C19 UNL     1       2.057   0.327   0.596  1.00  0.00     0.071 C 
HETATM   18  C12 UNL     1      -0.280  -0.646  -1.489  1.00  0.00     0.017 C 
HETATM   19  C13 UNL     1       0.635  -1.106  -2.534  1.00  0.00     0.203 C 
HETATM   20  O1  UNL     1       1.929  -1.410  -2.136  1.00  0.00    -0.357 OA
HETATM   21  C14 UNL     1       3.015  -0.820  -1.516  1.00  0.00     0.171 C 
HETATM   22  C15 UNL     1       3.046  -0.106  -0.387  1.00  0.00     0.092 C 
BRANCH  22  23
HETATM   23  O2  UNL     1       4.323   0.331  -0.067  1.00  0.00    -0.347 OA
BRANCH  23  24
HETATM   24  C16 UNL     1       4.781   0.787   1.152  1.00  0.00     0.201 C 
BRANCH  24  25
HETATM   25  C17 UNL     1       6.238   1.138   1.073  1.00  0.00     0.193 C 
BRANCH  25  26
HETATM   26  O3  UNL     1       7.094   0.128   0.739  1.00  0.00    -0.394 OA
HETATM   27  C18 UNL     1       6.922  -0.485  -0.466  1.00  0.00     0.201 C 
ENDBRANCH  25  26
ENDBRANCH  24  25
ENDBRANCH  23  24
ENDBRANCH  22  23
ENDBRANCH   9  11
ENDBRANCH   7   9
TORSDOF 6
