REMARK  9 active torsions:
REMARK  status: ('A' for Active; 'I' for Inactive)
REMARK    1  A    between atoms: O1_2  and  C2_3 
REMARK    2  A    between atoms: C2_3  and  C3_4 
REMARK    3  A    between atoms: C3_4  and  O2_5 
REMARK    4  A    between atoms: O2_5  and  C4_6 
REMARK    5  A    between atoms: C9_11  and  O3_12 
REMARK    6  A    between atoms: O3_12  and  C10_13 
REMARK    7  A    between atoms: C10_13  and  C11_14 
REMARK    8  A    between atoms: C11_14  and  O4_15 
REMARK    9  A    between atoms: C14_20  and  C15_21 
ROOT
HETATM    1  C4  UNL     1      -1.648   0.379   0.558  1.00  0.00     0.102 A 
HETATM    2  C5  UNL     1      -0.265   0.540   0.727  1.00  0.00     0.049 A 
HETATM    3  C6  UNL     1       0.614  -0.534   0.866  1.00  0.00    -0.021 A 
HETATM    4  C7  UNL     1       0.054  -1.769   0.829  1.00  0.00     0.067 A 
HETATM    5  C8  UNL     1      -1.298  -1.936   0.664  1.00  0.00     0.071 A 
HETATM    6  C9  UNL     1      -2.201  -0.912   0.523  1.00  0.00     0.104 A 
HETATM    7  N1  UNL     1       0.720  -3.017   0.946  1.00  0.00    -0.242 NA
HETATM    8  C13 UNL     1       1.995  -3.252   0.751  1.00  0.00     0.234 C 
HETATM    9  N2  UNL     1       2.990  -2.282   0.375  1.00  0.00    -0.245 NA
HETATM   10  C14 UNL     1       3.015  -1.004   0.482  1.00  0.00     0.050 C 
HETATM   11  C22 UNL     1       2.020  -0.087   1.032  1.00  0.00     0.101 C 
ENDROOT
BRANCH  10  12
HETATM   12  C15 UNL     1       4.260  -0.496  -0.054  1.00  0.00    -0.011 A 
HETATM   13  C16 UNL     1       5.230  -1.314  -0.589  1.00  0.00     0.013 A 
HETATM   14  C17 UNL     1       6.431  -0.874  -1.108  1.00  0.00     0.001 A 
HETATM   15  C18 UNL     1       6.717   0.468  -1.111  1.00  0.00     0.007 A 
HETATM   16  C19 UNL     1       5.787   1.340  -0.590  1.00  0.00    -0.061 A 
HETATM   17  C20 UNL     1       6.085   2.806  -0.586  1.00  0.00     0.048 C 
HETATM   18  C21 UNL     1       4.610   0.825  -0.089  1.00  0.00     0.020 A 
ENDBRANCH  10  12
BRANCH   1  19
HETATM   19  O2  UNL     1      -2.409   1.546   0.431  1.00  0.00    -0.346 OA
BRANCH  19  20
HETATM   20  C3  UNL     1      -1.725   2.775   0.484  1.00  0.00     0.201 C 
BRANCH  20  21
HETATM   21  C2  UNL     1      -2.714   3.923   0.330  1.00  0.00     0.193 C 
BRANCH  21  22
HETATM   22  O1  UNL     1      -3.320   3.728  -0.925  1.00  0.00    -0.394 OA
HETATM   23  C1  UNL     1      -4.245   4.747  -1.142  1.00  0.00     0.201 C 
ENDBRANCH  21  22
ENDBRANCH  20  21
ENDBRANCH  19  20
ENDBRANCH   1  19
BRANCH   6  24
HETATM   24  O3  UNL     1      -3.534  -0.859   0.351  1.00  0.00    -0.346 OA
BRANCH  24  25
HETATM   25  C10 UNL     1      -4.466  -1.875   0.238  1.00  0.00     0.201 C 
BRANCH  25  26
HETATM   26  C11 UNL     1      -4.322  -2.789  -0.930  1.00  0.00     0.193 C 
BRANCH  26  27
HETATM   27  O4  UNL     1      -5.281  -3.795  -1.007  1.00  0.00    -0.394 OA
HETATM   28  C12 UNL     1      -5.317  -4.655   0.053  1.00  0.00     0.201 C 
ENDBRANCH  26  27
ENDBRANCH  25  26
ENDBRANCH  24  25
ENDBRANCH   6  24
TORSDOF 9
