REMARK  2 active torsions:
REMARK  status: ('A' for Active; 'I' for Inactive)
REMARK    1  A    between atoms: C2_2  and  C3_3 
REMARK    2  A    between atoms: C3_3  and  C4_4 
ROOT
HETATM    1  C4  UNL     1       2.644  -0.377   0.881  1.00  0.00     0.152 C 
HETATM    2  N1  UNL     1       1.294  -0.812   0.789  1.00  0.00    -0.185 NA
HETATM    3  O1  UNL     1       1.075  -2.155   0.509  1.00  0.00    -0.263 OA
HETATM    4  C5  UNL     1      -0.309  -2.372   0.289  1.00  0.00     0.088 C 
HETATM    5  C6  UNL     1      -0.904  -2.132   1.480  1.00  0.00     0.016 C 
HETATM    6  C7  UNL     1      -2.285  -1.485   1.382  1.00  0.00     0.069 C 
HETATM    7  C8  UNL     1      -2.902  -2.185   0.366  1.00  0.00    -0.042 C 
HETATM    8  C9  UNL     1      -4.238  -2.203   0.377  1.00  0.00    -0.000 C 
HETATM    9  C10 UNL     1      -4.546  -1.019  -0.173  1.00  0.00     0.022 C 
HETATM   10 BR1  UNL     1      -5.785   0.330  -0.590  1.00  0.00    -0.050 Br
HETATM   11  C11 UNL     1      -3.344  -0.379  -0.798  1.00  0.00     0.016 C 
HETATM   12  C12 UNL     1      -2.721   0.834  -0.735  1.00  0.00    -0.019 C 
HETATM   13  C13 UNL     1      -1.750   1.845  -1.023  1.00  0.00     0.083 C 
HETATM   14  C14 UNL     1      -0.934   2.385   0.071  1.00  0.00     0.041 C 
HETATM   15  N2  UNL     1      -0.118   1.619   0.736  1.00  0.00    -0.251 NA
HETATM   16  C15 UNL     1       1.221   2.115   0.370  1.00  0.00     0.406 C 
HETATM   17  N3  UNL     1       0.973   3.530   0.647  1.00  0.00     0.123 N 
HETATM   18  C16 UNL     1      -0.459   3.493   0.948  1.00  0.00     0.327 C 
HETATM   19  S1  UNL     1       2.513   1.397   1.380  1.00  0.00    -0.089 SA
HETATM   20  C17 UNL     1      -2.364  -2.865  -0.775  1.00  0.00     0.011 C 
HETATM   21  C18 UNL     1      -1.026  -2.761  -0.916  1.00  0.00     0.039 C 
HETATM   22  H7  UNL     1       0.837  -0.258  -0.022  1.00  0.00     0.155 HD
HETATM   23  H16 UNL     1       1.531   3.757   1.496  1.00  0.00     0.320 HD
ENDROOT
BRANCH   1  24
HETATM   24  C3  UNL     1       3.221  -0.484  -0.537  1.00  0.00     0.059 C 
BRANCH  24  25
HETATM   25  C2  UNL     1       4.639  -0.038  -0.491  1.00  0.00    -0.034 C 
HETATM   26  C1  UNL     1       5.855  -0.509  -0.742  1.00  0.00     0.007 C 
ENDBRANCH  24  25
ENDBRANCH   1  24
TORSDOF 2
