REMARK  6 active torsions:
REMARK  status: ('A' for Active; 'I' for Inactive)
REMARK    1  A    between atoms: O1_2  and  C2_3 
REMARK    2  A    between atoms: C2_3  and  C3_4 
REMARK    3  A    between atoms: C3_4  and  O2_5 
REMARK    4  A    between atoms: O2_5  and  C4_6 
REMARK    5  A    between atoms: C11_15  and  N1_16 
REMARK    6  A    between atoms: N1_16  and  C12_17 
ROOT
HETATM    1  C12 UNL     1      -4.200  -0.804  -3.437  1.00  0.00     0.119 C 
HETATM    2  C13 UNL     1      -4.138  -1.011  -4.711  1.00  0.00     0.205 C 
HETATM    3  F1  UNL     1      -4.034  -1.180  -6.078  1.00  0.00    -0.218 F 
ENDROOT
BRANCH   1   4
HETATM    4  N1  UNL     1      -3.514   0.295  -2.824  1.00  0.00    -0.348 N 
HETATM    5  H15 UNL     1      -3.729   1.180  -3.376  1.00  0.00     0.167 HD
BRANCH   4   6
HETATM    6  C11 UNL     1      -2.673   0.209  -1.660  1.00  0.00     0.133 C 
HETATM    7  C10 UNL     1      -1.739   1.322  -1.455  1.00  0.00     0.017 C 
HETATM    8  C6  UNL     1      -0.358   1.536  -0.986  1.00  0.00     0.188 C 
HETATM    9  C9  UNL     1      -2.243   2.516  -1.777  1.00  0.00     0.013 C 
HETATM   10  O3  UNL     1       0.313   0.297  -0.820  1.00  0.00    -0.348 OA
HETATM   11  C7  UNL     1       0.450   2.412  -1.907  1.00  0.00     0.205 C 
HETATM   12  C5  UNL     1       0.936  -0.044   0.378  1.00  0.00     0.172 C 
HETATM   13  C4  UNL     1       1.076  -0.742   1.502  1.00  0.00     0.091 C 
HETATM   14  C16 UNL     1       0.303  -1.820   2.067  1.00  0.00     0.054 C 
HETATM   15  C15 UNL     1      -0.769  -2.434   1.608  1.00  0.00     0.077 C 
HETATM   16  N3  UNL     1      -1.237  -1.969   0.354  1.00  0.00    -0.398 NA
HETATM   17  C14 UNL     1      -2.341  -1.373   0.131  1.00  0.00     0.446 C 
HETATM   18  N2  UNL     1      -2.925  -0.868  -1.040  1.00  0.00    -0.240 NA
HETATM   19  O4  UNL     1      -0.212   3.561  -2.315  1.00  0.00    -0.385 OA
HETATM   20  C8  UNL     1      -1.419   3.751  -1.633  1.00  0.00     0.196 C 
BRANCH  13  21
HETATM   21  O2  UNL     1       2.199  -0.318   2.239  1.00  0.00    -0.347 OA
BRANCH  21  22
HETATM   22  C3  UNL     1       2.624  -0.985   3.389  1.00  0.00     0.201 C 
BRANCH  22  23
HETATM   23  C2  UNL     1       3.920  -0.345   3.821  1.00  0.00     0.193 C 
BRANCH  23  24
HETATM   24  O1  UNL     1       4.869  -0.437   2.845  1.00  0.00    -0.394 OA
HETATM   25  C1  UNL     1       5.159  -1.746   2.532  1.00  0.00     0.201 C 
ENDBRANCH  23  24
ENDBRANCH  22  23
ENDBRANCH  21  22
ENDBRANCH  13  21
ENDBRANCH   4   6
ENDBRANCH   1   4
TORSDOF 6
