REMARK  2 active torsions:
REMARK  status: ('A' for Active; 'I' for Inactive)
REMARK    1  A    between atoms: O1_1  and  C1_2 
REMARK    2  A    between atoms: C9_13  and  C10_14 
ROOT
HETATM    1  C1  UNL     1      -4.946  -1.801   0.534  1.00  0.00     0.066 A 
HETATM    2  C2  UNL     1      -4.457  -3.089   0.790  1.00  0.00     0.037 A 
HETATM    3  C3  UNL     1      -3.127  -3.372   0.579  1.00  0.00     0.012 A 
HETATM    4  C4  UNL     1      -2.209  -2.432   0.116  1.00  0.00    -0.024 A 
HETATM    5  C5  UNL     1      -2.802  -1.199  -0.100  1.00  0.00     0.005 A 
HETATM    6  C6  UNL     1      -4.091  -0.811   0.071  1.00  0.00     0.051 A 
HETATM    7  C7  UNL     1      -2.019  -0.088  -0.590  1.00  0.00     0.088 C 
HETATM    8  N1  UNL     1      -0.739  -0.302  -0.820  1.00  0.00    -0.156 NA
HETATM    9  N2  UNL     1      -0.129  -1.398  -0.194  1.00  0.00    -0.206 N 
HETATM   10  C8  UNL     1      -0.763  -2.677  -0.127  1.00  0.00     0.211 C 
HETATM   11  N3  UNL     1       1.095  -1.013   0.313  1.00  0.00    -0.284 N 
HETATM   12  C9  UNL     1       2.171  -0.112   0.266  1.00  0.00     0.060 C 
HETATM   13  C15 UNL     1       2.169   1.122   0.711  1.00  0.00     0.074 C 
HETATM   14  S1  UNL     1       1.602   2.593   1.439  1.00  0.00    -0.136 SA
HETATM   15  C16 UNL     1       1.499   4.006   0.340  1.00  0.00     0.105 C 
HETATM   16  C17 UNL     1       0.139   4.609   0.299  1.00  0.00    -0.018 C 
HETATM   17  C18 UNL     1      -0.824   4.892  -0.578  1.00  0.00    -0.019 C 
HETATM   18  C19 UNL     1      -2.136   5.408  -1.017  1.00  0.00    -0.082 C 
HETATM   19  B1  UNL     1      -3.158   4.005  -0.911  1.00  0.00     0.197 B 
HETATM   20  C20 UNL     1      -2.495   2.475  -0.367  1.00  0.00    -0.079 C 
HETATM   21  C21 UNL     1      -2.478   1.263  -0.841  1.00  0.00     0.019 C 
HETATM   22  H7  UNL     1       1.418  -1.637   1.092  1.00  0.00     0.188 HD
ENDROOT
BRANCH  12  23
HETATM   23  C10 UNL     1       3.471  -0.534  -0.331  1.00  0.00     0.156 A 
HETATM   24  C11 UNL     1       4.589  -0.571   0.641  1.00  0.00     0.004 A 
HETATM   25  C12 UNL     1       5.373  -1.651   0.848  1.00  0.00    -0.000 A 
HETATM   26  C13 UNL     1       5.178  -2.891   0.106  1.00  0.00     0.017 A 
HETATM   27  C14 UNL     1       4.202  -2.922  -0.782  1.00  0.00     0.084 A 
HETATM   28  N4  UNL     1       3.387  -1.786  -0.995  1.00  0.00    -0.386 N 
HETATM   29  H13 UNL     1       2.601  -1.747  -1.682  1.00  0.00     0.160 HD
ENDBRANCH  12  23
BRANCH   1  30
HETATM   30  O1  UNL     1      -6.305  -1.678   0.789  1.00  0.00    -0.361 OA
HETATM   31  H1  UNL     1      -6.952  -2.404   0.537  1.00  0.00     0.217 HD
ENDBRANCH   1  30
TORSDOF 2
