REMARK  5 active torsions:
REMARK  status: ('A' for Active; 'I' for Inactive)
REMARK    1  A    between atoms: N1_9  and  C8_10 
REMARK    2  A    between atoms: N3_18  and  C14_19 
REMARK    3  A    between atoms: C14_19  and  C15_20 
REMARK    4  A    between atoms: C15_20  and  C16_21 
REMARK    5  A    between atoms: C17_22  and  C18_23 
ROOT
HETATM    1  F1  UNL     1       0.435   5.376  -0.571  1.00  0.00    -0.211 F 
HETATM    2  C1  UNL     1       0.595   4.014  -0.438  1.00  0.00     0.090 C 
HETATM    3  C2  UNL     1       0.481   3.185  -1.471  1.00  0.00     0.013 C 
HETATM    4  C3  UNL     1       0.660   1.713  -1.293  1.00  0.00     0.064 C 
HETATM    5  C4  UNL     1       0.015   1.197  -0.025  1.00  0.00     0.066 C 
HETATM    6  C5  UNL     1       0.132   2.135   1.124  1.00  0.00     0.041 C 
HETATM    7  C6  UNL     1       0.903   3.393   0.873  1.00  0.00     0.072 C 
HETATM    8  C7  UNL     1      -1.476   1.034  -0.400  1.00  0.00     0.177 C 
HETATM    9  N1  UNL     1      -1.725  -0.395  -0.412  1.00  0.00    -0.293 N 
HETATM   10  N2  UNL     1      -0.449  -0.974  -0.542  1.00  0.00    -0.148 NA
HETATM   11  N3  UNL     1       0.383  -0.136   0.148  1.00  0.00    -0.318 N 
HETATM   12  H14 UNL     1      -0.479  -1.884  -0.014  1.00  0.00     0.172 HD
ENDROOT
BRANCH   9  13
HETATM   13  C8  UNL     1      -2.936  -1.125  -0.306  1.00  0.00     0.047 A 
HETATM   14  C9  UNL     1      -4.132  -0.586   0.099  1.00  0.00     0.032 A 
HETATM   15  C10 UNL     1      -5.259  -1.397   0.157  1.00  0.00     0.021 A 
HETATM   16  C11 UNL     1      -5.209  -2.724  -0.179  1.00  0.00     0.011 A 
HETATM   17 BR1  UNL     1      -6.754  -3.858  -0.104  1.00  0.00    -0.051 Br
HETATM   18  C12 UNL     1      -4.027  -3.311  -0.593  1.00  0.00     0.021 A 
HETATM   19  C13 UNL     1      -2.942  -2.467  -0.633  1.00  0.00     0.032 A 
ENDBRANCH   9  13
BRANCH  11  20
HETATM   20  C14 UNL     1       1.047  -0.626   1.255  1.00  0.00     0.143 C 
BRANCH  20  21
HETATM   21  C15 UNL     1       2.481  -0.166   1.302  1.00  0.00     0.048 C 
BRANCH  21  22
HETATM   22  C16 UNL     1       3.184  -0.699   0.078  1.00  0.00    -0.028 C 
HETATM   23  C17 UNL     1       4.215  -1.504   0.291  1.00  0.00    -0.016 C 
BRANCH  23  24
HETATM   24  C18 UNL     1       5.134  -2.208  -0.648  1.00  0.00     0.141 C 
HETATM   25 CL1  UNL     1       6.804  -1.681  -0.359  1.00  0.00    -0.126 Cl
ENDBRANCH  23  24
ENDBRANCH  21  22
ENDBRANCH  20  21
ENDBRANCH  11  20
TORSDOF 5
