REMARK  4 active torsions:
REMARK  status: ('A' for Active; 'I' for Inactive)
REMARK    1  A    between atoms: C1_2  and  C2_3 
REMARK    2  A    between atoms: C4_5  and  C5_6 
REMARK    3  A    between atoms: N2_14  and  C11_15 
REMARK    4  A    between atoms: C12_17  and  C13_18 
ROOT
HETATM    1  C2  UNL     1      -0.847  -1.219   1.104  1.00  0.00     0.179 C 
HETATM    2  C3  UNL     1      -2.357  -1.199   1.138  1.00  0.00     0.096 C 
HETATM    3  C4  UNL     1      -2.663  -0.121   0.167  1.00  0.00     0.067 C 
HETATM    4  N1  UNL     1      -1.630   0.102  -0.595  1.00  0.00    -0.173 NA
HETATM    5  N2  UNL     1      -0.588  -0.746  -0.240  1.00  0.00    -0.234 N 
ENDROOT
BRANCH   5   6
HETATM    6  C11 UNL     1       0.583  -1.131  -0.974  1.00  0.00     0.190 A 
HETATM    7  N3  UNL     1       1.663  -0.737  -0.667  1.00  0.00    -0.222 NA
HETATM    8  C12 UNL     1       2.807  -0.993  -1.246  1.00  0.00     0.076 A 
HETATM    9  C19 UNL     1       2.706  -1.873  -2.408  1.00  0.00     0.086 A 
HETATM   10  S1  UNL     1       0.854  -2.224  -2.500  1.00  0.00    -0.060 SA
BRANCH   8  11
HETATM   11  C13 UNL     1       4.110  -0.498  -0.824  1.00  0.00    -0.007 A 
HETATM   12  C14 UNL     1       4.196   0.315   0.285  1.00  0.00     0.015 A 
HETATM   13  C15 UNL     1       5.297   0.883   0.848  1.00  0.00     0.024 A 
HETATM   14  C16 UNL     1       6.470   0.576   0.183  1.00  0.00     0.034 A 
HETATM   15 CL1  UNL     1       7.980   1.237   0.796  1.00  0.00    -0.084 Cl
HETATM   16  C17 UNL     1       6.471  -0.242  -0.950  1.00  0.00     0.024 A 
HETATM   17  C18 UNL     1       5.294  -0.784  -1.460  1.00  0.00     0.015 A 
ENDBRANCH   8  11
ENDBRANCH   5   6
BRANCH   1  18
HETATM   18  C1  UNL     1      -0.316  -0.175   2.029  1.00  0.00     0.258 C 
HETATM   19  O1  UNL     1       0.217   0.837   1.589  1.00  0.00    -0.305 OA
ENDBRANCH   1  18
BRANCH   3  20
HETATM   20  C5  UNL     1      -3.908   0.619   0.003  1.00  0.00    -0.010 A 
HETATM   21  C6  UNL     1      -4.008   1.570  -0.988  1.00  0.00     0.015 A 
HETATM   22  C7  UNL     1      -5.219   2.220  -1.089  1.00  0.00     0.020 A 
HETATM   23  C8  UNL     1      -6.300   1.948  -0.246  1.00  0.00     0.011 A 
HETATM   24 BR1  UNL     1      -7.951   2.878  -0.441  1.00  0.00    -0.051 Br
HETATM   25  C9  UNL     1      -6.161   1.000   0.725  1.00  0.00     0.020 A 
HETATM   26  C10 UNL     1      -4.968   0.320   0.867  1.00  0.00     0.015 A 
ENDBRANCH   3  20
TORSDOF 4
