REMARK  2 active torsions:
REMARK  status: ('A' for Active; 'I' for Inactive)
REMARK    1  A    between atoms: O1_2  and  C2_3 
REMARK    2  A    between atoms: C2_3  and  C3_4 
ROOT
HETATM    1  C3  UNL     1       3.027  -0.033   0.827  1.00  0.00    -0.044 C 
HETATM    2  P1  UNL     1       1.430  -0.004   1.128  1.00  0.00    -0.056 P 
HETATM    3  C4  UNL     1       0.466   1.163   2.144  1.00  0.00     0.051 C 
HETATM    4  C5  UNL     1      -0.813   1.676   1.432  1.00  0.00     0.084 C 
HETATM    5  C6  UNL     1      -1.610   0.460   1.042  1.00  0.00     0.108 C 
HETATM    6  N1  UNL     1      -1.653  -0.747   1.350  1.00  0.00    -0.228 NA
HETATM    7  C7  UNL     1      -2.579  -1.603   0.727  1.00  0.00     0.235 C 
HETATM    8  N2  UNL     1      -2.567  -2.290  -0.381  1.00  0.00    -0.246 NA
HETATM    9  C8  UNL     1      -1.474  -2.305  -1.289  1.00  0.00     0.044 C 
HETATM   10  C9  UNL     1      -0.212  -2.649  -1.113  1.00  0.00     0.027 C 
HETATM   11  C10 UNL     1       0.513  -3.143   0.058  1.00  0.00     0.197 C 
HETATM   12  O2  UNL     1       1.530  -2.314   0.425  1.00  0.00    -0.387 OA
HETATM   13  C11 UNL     1       2.392  -2.010  -0.573  1.00  0.00     0.172 C 
HETATM   14  C12 UNL     1       3.526  -1.166   0.014  1.00  0.00     0.064 C 
HETATM   15  C13 UNL     1      -2.045  -1.839  -2.640  1.00  0.00     0.144 C 
HETATM   16  C14 UNL     1      -2.730  -0.634  -2.508  1.00  0.00    -0.144 C 
HETATM   17  C15 UNL     1      -3.287   0.343  -2.380  1.00  0.00    -0.004 A 
HETATM   18  C16 UNL     1      -3.957   1.520  -2.200  1.00  0.00     0.035 A 
HETATM   19  C17 UNL     1      -3.245   1.207  -1.082  1.00  0.00     0.122 A 
HETATM   20  N3  UNL     1      -2.582   0.918   0.123  1.00  0.00    -0.337 N 
HETATM   21  C18 UNL     1      -3.642   1.451   0.970  1.00  0.00     0.089 C 
HETATM   22  C19 UNL     1      -4.635   1.925   0.171  1.00  0.00    -0.006 C 
HETATM   23  C20 UNL     1      -4.302   2.525  -1.197  1.00  0.00     0.070 A 
ENDROOT
BRANCH   1  24
HETATM   24  C2  UNL     1       4.185   0.802   1.227  1.00  0.00     0.202 C 
BRANCH  24  25
HETATM   25  O1  UNL     1       4.827   1.290   0.077  1.00  0.00    -0.392 OA
HETATM   26  C1  UNL     1       5.909   2.073   0.422  1.00  0.00     0.201 C 
ENDBRANCH  24  25
ENDBRANCH   1  24
TORSDOF 2
