REMARK  4 active torsions:
REMARK  status: ('A' for Active; 'I' for Inactive)
REMARK    1  A    between atoms: C3_3  and  C4_5 
REMARK    2  A    between atoms: C5_6  and  C6_7 
REMARK    3  A    between atoms: C6_7  and  C7_8 
REMARK    4  A    between atoms: N1_11  and  C9_12 
ROOT
HETATM    1  C7  UNL     1       0.589  -0.528   0.471  1.00  0.00     0.032 C 
HETATM    2  C8  UNL     1       0.215  -0.495  -0.769  1.00  0.00     0.090 C 
HETATM    3  S1  UNL     1      -1.320  -1.434  -0.849  1.00  0.00    -0.030 SA
HETATM    4  N1  UNL     1      -1.462  -1.663   0.876  1.00  0.00    -0.153 NA
HETATM    5  N2  UNL     1      -0.209  -1.232   1.332  1.00  0.00    -0.311 N 
HETATM    6  H18 UNL     1       0.137  -1.430   2.321  1.00  0.00     0.181 HD
ENDROOT
BRANCH   4   7
HETATM    7  C9  UNL     1      -2.475  -0.746   1.380  1.00  0.00     0.061 A 
HETATM    8  C10 UNL     1      -1.891   0.657   1.470  1.00  0.00     0.040 C 
HETATM    9  C11 UNL     1      -3.585  -0.669   0.382  1.00  0.00     0.002 A 
HETATM   10  C12 UNL     1      -4.883  -0.858   0.458  1.00  0.00     0.017 A 
HETATM   11  C13 UNL     1      -5.373  -1.221   1.767  1.00  0.00     0.007 A 
HETATM   12 BR1  UNL     1      -7.214  -1.519   2.043  1.00  0.00    -0.051 Br
HETATM   13  C14 UNL     1      -4.434  -1.309   2.686  1.00  0.00    -0.005 A 
HETATM   14  C15 UNL     1      -2.964  -1.131   2.733  1.00  0.00     0.060 A 
ENDBRANCH   4   7
BRANCH   1  15
HETATM   15  C6  UNL     1       1.883   0.229   0.706  1.00  0.00     0.086 C 
BRANCH  15  16
HETATM   16  C5  UNL     1       2.456   0.704  -0.604  1.00  0.00    -0.019 C 
HETATM   17  C4  UNL     1       3.693   0.303  -0.941  1.00  0.00     0.020 C 
BRANCH  17  18
HETATM   18  C3  UNL     1       4.155   0.818  -2.232  1.00  0.00     0.029 C 
HETATM   19  C2  UNL     1       5.310   0.633  -2.864  1.00  0.00    -0.007 C 
HETATM   20  C1  UNL     1       5.328   1.334  -4.192  1.00  0.00     0.038 C 
HETATM   21 CL1  UNL     1       3.115   1.825  -3.230  1.00  0.00    -0.085 Cl
ENDBRANCH  17  18
ENDBRANCH  15  16
ENDBRANCH   1  15
TORSDOF 4
