REMARK  5 active torsions:
REMARK  status: ('A' for Active; 'I' for Inactive)
REMARK    1  A    between atoms: C3_4  and  S1_5 
REMARK    2  A    between atoms: S1_5  and  C4_6 
REMARK    3  A    between atoms: C5_7  and  N1_8 
REMARK    4  A    between atoms: C10_17  and  C11_18 
REMARK    5  A    between atoms: C10_17  and  C17_25 
ROOT
HETATM    1  C4  UNL     1       2.126   0.497   0.452  1.00  0.00     0.127 C 
HETATM    2  C5  UNL     1       2.775  -0.907   0.271  1.00  0.00     0.025 C 
HETATM    3  C6  UNL     1       2.018  -2.060   0.175  1.00  0.00     0.078 C 
HETATM    4  S2  UNL     1       0.668  -2.212   1.400  1.00  0.00    -0.086 SA
HETATM    5  N2  UNL     1       0.918  -0.721   1.817  1.00  0.00    -0.172 NA
HETATM    6  C7  UNL     1       0.763   0.140   0.599  1.00  0.00     0.165 C 
HETATM    7  C8  UNL     1      -0.505   0.712   0.800  1.00  0.00     0.172 A 
HETATM    8  N3  UNL     1      -1.569   0.202   0.150  1.00  0.00     0.073 N 
HETATM    9  N4  UNL     1      -1.763  -0.939   0.951  1.00  0.00    -0.191 N 
HETATM   10  C9  UNL     1      -0.967  -2.161   0.680  1.00  0.00     0.238 C 
HETATM   11  C10 UNL     1      -2.634   0.204   1.343  1.00  0.00     0.358 A 
HETATM   12  C17 UNL     1      -1.749   1.443   1.143  1.00  0.00     0.362 A 
ENDROOT
BRANCH  11  13
HETATM   13  C11 UNL     1      -3.819   0.169   0.500  1.00  0.00    -0.006 A 
HETATM   14  C12 UNL     1      -4.377  -1.104   0.339  1.00  0.00     0.013 A 
HETATM   15  C13 UNL     1      -5.509  -1.292  -0.437  1.00  0.00     0.024 A 
HETATM   16  C14 UNL     1      -6.137  -0.243  -1.083  1.00  0.00     0.034 A 
HETATM   17 CL2  UNL     1      -7.562  -0.427  -2.070  1.00  0.00    -0.084 Cl
HETATM   18  C15 UNL     1      -5.589   1.006  -0.925  1.00  0.00     0.024 A 
HETATM   19  C16 UNL     1      -4.476   1.185  -0.162  1.00  0.00     0.013 A 
ENDBRANCH  11  13
BRANCH   1  20
HETATM   20  S1  UNL     1       2.618   1.616  -0.845  1.00  0.00    -0.127 SA
BRANCH  20  21
HETATM   21  C3  UNL     1       4.364   1.961  -0.710  1.00  0.00     0.064 C 
HETATM   22  C2  UNL     1       5.613   1.720  -1.082  1.00  0.00     0.014 C 
HETATM   23  C1  UNL     1       5.925   0.696  -2.104  1.00  0.00     0.062 C 
HETATM   24 CL1  UNL     1       6.868   2.658  -0.320  1.00  0.00    -0.089 Cl
ENDBRANCH  20  21
ENDBRANCH   1  20
BRANCH   2  25
HETATM   25  N1  UNL     1       4.197  -0.884   0.214  1.00  0.00    -0.401 N 
HETATM   26  H6  UNL     1       4.344  -1.320  -0.747  1.00  0.00     0.156 HD
HETATM   27  H7  UNL     1       4.699  -0.492   1.034  1.00  0.00     0.156 HD
ENDBRANCH   2  25
TORSDOF 5
