REMARK  6 active torsions:
REMARK  status: ('A' for Active; 'I' for Inactive)
REMARK    1  A    between atoms: O1_2  and  C2_3 
REMARK    2  A    between atoms: C5_6  and  C6_7 
REMARK    3  A    between atoms: C8_9  and  C16_22 
REMARK    4  A    between atoms: C9_12  and  N3_13 
REMARK    5  A    between atoms: C10_14  and  C11_15 
REMARK    6  A    between atoms: C16_22  and  S2_23 
ROOT
HETATM    1  C6  UNL     1      -1.019  -0.919   0.072  1.00  0.00     0.476 A 
HETATM    2  C7  UNL     1      -0.430  -0.532   1.424  1.00  0.00     0.363 A 
HETATM    3  C8  UNL     1       0.669  -0.926   1.104  1.00  0.00     0.269 A 
HETATM    4  N1  UNL     1      -0.393  -0.976   0.366  1.00  0.00     0.159 N 
HETATM    5  N2  UNL     1       0.002  -1.560  -0.822  1.00  0.00     0.213 N 
HETATM    6  C9  UNL     1       1.619  -2.232  -1.560  1.00  0.00     0.367 A 
HETATM    7  S2  UNL     1       0.668  -2.150  -1.864  1.00  0.00     0.106 SA
ENDROOT
BRANCH   1   8
HETATM    8  C5  UNL     1      -1.819   0.137  -0.581  1.00  0.00     0.004 A 
HETATM    9  C4  UNL     1      -2.571  -0.250  -1.670  1.00  0.00     0.014 A 
HETATM   10  C3  UNL     1      -3.336   0.571  -2.443  1.00  0.00     0.037 A 
HETATM   11  C2  UNL     1      -3.401   1.922  -2.155  1.00  0.00     0.068 A 
HETATM   12  C18 UNL     1      -2.652   2.340  -1.062  1.00  0.00     0.037 A 
HETATM   13  C17 UNL     1      -1.870   1.459  -0.283  1.00  0.00     0.014 A 
BRANCH  11  14
HETATM   14  O1  UNL     1      -4.059   2.996  -2.713  1.00  0.00    -0.356 OA
HETATM   15  C1  UNL     1      -4.908   2.922  -3.825  1.00  0.00     0.210 C 
ENDBRANCH  11  14
ENDBRANCH   1   8
BRANCH   3  16
HETATM   16  C16 UNL     1       1.521  -1.534   0.131  1.00  0.00     0.172 A 
HETATM   17  C10 UNL     1       2.993  -1.775   0.312  1.00  0.00     0.041 A 
HETATM   18  N3  UNL     1       2.662  -2.177  -0.869  1.00  0.00    -0.205 NA
BRANCH  17  19
HETATM   19  C11 UNL     1       3.456  -1.303   1.604  1.00  0.00    -0.015 A 
HETATM   20  C12 UNL     1       4.534  -0.780   1.101  1.00  0.00     0.020 A 
HETATM   21  C13 UNL     1       5.305  -0.168   2.199  1.00  0.00     0.055 A 
HETATM   22  S1  UNL     1       4.783  -0.210   3.742  1.00  0.00    -0.078 SA
HETATM   23 CL1  UNL     1       5.844   0.648   5.346  1.00  0.00    -0.047 Cl
HETATM   24  C14 UNL     1       3.194  -1.069   3.964  1.00  0.00     0.055 A 
HETATM   25  C15 UNL     1       2.748  -1.505   2.832  1.00  0.00     0.020 A 
ENDBRANCH  17  19
ENDBRANCH   3  16
TORSDOF 6
