REMARK  0 active torsions:
REMARK  status: ('A' for Active; 'I' for Inactive)
ROOT
HETATM    1  C1  UNL     1       4.693   0.184   1.173  1.00  0.00     0.000 C 
HETATM    2  O1  UNL     1       3.304  -0.066   1.030  1.00  0.00     0.000 OA
HETATM    3  C2  UNL     1       2.529   0.512   0.061  1.00  0.00    -0.068 A 
HETATM    4  C3  UNL     1       1.932  -0.592   0.487  1.00  0.00     0.028 A 
HETATM    5  C4  UNL     1       1.986  -1.752   1.401  1.00  0.00     0.058 C 
HETATM    6  C5  UNL     1       1.935  -3.063   0.711  1.00  0.00     0.112 C 
HETATM    7  N1  UNL     1       1.351  -3.924  -0.002  1.00  0.00    -0.189 NA
HETATM    8  N2  UNL     1       0.073  -3.832  -0.560  1.00  0.00    -0.256 N 
HETATM    9  C6  UNL     1      -0.916  -2.844  -0.788  1.00  0.00     0.187 A 
HETATM   10  N3  UNL     1      -1.558  -2.190  -0.152  1.00  0.00    -0.227 NA
HETATM   11  C7  UNL     1      -2.450  -1.293  -0.447  1.00  0.00     0.043 A 
HETATM   12  C8  UNL     1      -2.652  -1.105  -1.815  1.00  0.00     0.080 A 
HETATM   13  S1  UNL     1      -1.415  -2.361  -2.528  1.00  0.00    -0.060 SA
HETATM   14  C9  UNL     1      -3.063  -0.665   0.754  1.00  0.00     0.049 C 
HETATM   15  C10 UNL     1      -3.950   0.499   0.412  1.00  0.00    -0.047 C 
HETATM   16  B1  UNL     1      -3.221   1.681  -0.325  1.00  0.00     0.156 B 
HETATM   17  C11 UNL     1      -1.921   2.392   0.234  1.00  0.00    -0.049 C 
HETATM   18  C12 UNL     1      -0.938   2.511  -0.909  1.00  0.00     0.016 C 
HETATM   19  C13 UNL     1       0.327   3.148  -0.479  1.00  0.00    -0.031 C 
HETATM   20  C14 UNL     1       1.592   2.691  -0.490  1.00  0.00    -0.026 C 
HETATM   21  C15 UNL     1       1.909   1.339  -0.991  1.00  0.00     0.061 C 
HETATM   22  H8  UNL     1      -0.184  -4.809  -0.898  1.00  0.00     0.191 HD
HETATM   23  H14 UNL     1      -3.894   2.363  -1.045  1.00  0.00    -0.026 HD
ENDROOT
TORSDOF 0
