REMARK  3 active torsions:
REMARK  status: ('A' for Active; 'I' for Inactive)
REMARK    1  A    between atoms: C3_3  and  C4_4 
REMARK    2  A    between atoms: C4_4  and  C5_5 
REMARK    3  A    between atoms: C6_7  and  C7_8 
ROOT
HETATM    1  C5  UNL     1       0.323  -1.195   0.414  1.00  0.00     0.079 A 
HETATM    2  N1  UNL     1       1.486  -0.523   0.598  1.00  0.00    -0.245 NA
HETATM    3  C6  UNL     1       2.380  -0.711  -0.344  1.00  0.00     0.074 A 
HETATM    4  C13 UNL     1       2.208  -1.548  -1.506  1.00  0.00     0.084 A 
HETATM    5  S1  UNL     1       0.475  -2.128  -1.133  1.00  0.00    -0.084 SA
ENDROOT
BRANCH   1   6
HETATM    6  C4  UNL     1      -0.894  -1.244   1.227  1.00  0.00     0.101 C 
BRANCH   6   7
HETATM    7  C3  UNL     1      -1.898  -0.201   0.870  1.00  0.00    -0.068 C 
HETATM    8  C2  UNL     1      -3.084  -0.577   0.472  1.00  0.00    -0.073 C 
HETATM    9  C1  UNL     1      -3.398  -2.034   0.388  1.00  0.00     0.044 C 
HETATM   10  C17 UNL     1      -4.054   0.484   0.126  1.00  0.00     0.032 C 
HETATM   11  C16 UNL     1      -3.444   1.726  -0.365  1.00  0.00    -0.022 C 
HETATM   12  C18 UNL     1      -4.961  -0.106  -0.945  1.00  0.00     0.019 C 
HETATM   13  C15 UNL     1      -2.236   2.096   0.024  1.00  0.00    -0.026 C 
HETATM   14  C14 UNL     1      -1.504   1.213   0.982  1.00  0.00     0.061 C 
ENDBRANCH   6   7
ENDBRANCH   1   6
BRANCH   3  15
HETATM   15  C7  UNL     1       3.658  -0.007  -0.195  1.00  0.00    -0.007 A 
HETATM   16  C8  UNL     1       4.686  -0.114  -1.110  1.00  0.00     0.014 A 
HETATM   17  C9  UNL     1       5.899   0.528  -1.009  1.00  0.00     0.001 A 
HETATM   18  C10 UNL     1       6.132   1.344   0.077  1.00  0.00     0.000 A 
HETATM   19  C11 UNL     1       5.168   1.516   1.045  1.00  0.00     0.001 A 
HETATM   20  C12 UNL     1       3.992   0.830   0.849  1.00  0.00     0.014 A 
ENDBRANCH   3  15
TORSDOF 3
