REMARK  2 active torsions:
REMARK  status: ('A' for Active; 'I' for Inactive)
REMARK    1  A    between atoms: C4_5  and  C5_6 
REMARK    2  A    between atoms: C7_9  and  N1_10 
ROOT
HETATM    1  C5  UNL     1       2.081  -0.384   0.906  1.00  0.00     0.076 A 
HETATM    2  C6  UNL     1       1.986  -1.371   1.967  1.00  0.00     0.085 A 
HETATM    3  S1  UNL     1       0.257  -1.200   2.502  1.00  0.00    -0.062 SA
HETATM    4  C7  UNL     1      -0.058   0.163   1.220  1.00  0.00     0.170 A 
HETATM    5  N2  UNL     1       0.957   0.270   0.691  1.00  0.00    -0.223 NA
ENDROOT
BRANCH   4   6
HETATM    6  N1  UNL     1      -1.364   0.745   1.154  1.00  0.00    -0.339 N 
HETATM    7  C8  UNL     1      -2.758   0.731   1.742  1.00  0.00     0.137 A 
HETATM    8  C9  UNL     1      -3.374  -0.570   1.561  1.00  0.00     0.001 C 
HETATM    9  C15 UNL     1      -2.422   1.595   0.709  1.00  0.00     0.137 A 
HETATM   10  C10 UNL     1      -4.189  -1.376   0.855  1.00  0.00    -0.001 C 
HETATM   11  C11 UNL     1      -4.963  -1.057  -0.367  1.00  0.00     0.019 C 
HETATM   12  C12 UNL     1      -4.791  -0.139  -1.339  1.00  0.00     0.010 C 
HETATM   13 BR1  UNL     1      -6.109  -0.185  -2.678  1.00  0.00    -0.051 Br
HETATM   14  C13 UNL     1      -3.750   0.896  -1.538  1.00  0.00     0.017 C 
HETATM   15  C14 UNL     1      -2.911   1.471  -0.658  1.00  0.00     0.002 C 
ENDBRANCH   4   6
BRANCH   1  16
HETATM   16  C4  UNL     1       3.334  -0.193   0.192  1.00  0.00    -0.007 A 
HETATM   17  C3  UNL     1       3.488   0.724  -0.822  1.00  0.00     0.015 A 
HETATM   18  C2  UNL     1       4.625   0.971  -1.545  1.00  0.00     0.024 A 
HETATM   19  C1  UNL     1       5.725   0.218  -1.217  1.00  0.00     0.034 A 
HETATM   20 CL1  UNL     1       7.240   0.432  -2.063  1.00  0.00    -0.084 Cl
HETATM   21  C17 UNL     1       5.673  -0.729  -0.215  1.00  0.00     0.024 A 
HETATM   22  C16 UNL     1       4.476  -0.909   0.464  1.00  0.00     0.015 A 
ENDBRANCH   1  16
TORSDOF 2
