REMARK  6 active torsions:
REMARK  status: ('A' for Active; 'I' for Inactive)
REMARK    1  A    between atoms: C2_2  and  C3_3 
REMARK    2  A    between atoms: C4_4  and  C5_5 
REMARK    3  A    between atoms: C5_5  and  C6_6 
REMARK    4  A    between atoms: C6_6  and  N1_8 
REMARK    5  A    between atoms: C9_11  and  C10_12 
REMARK    6  A    between atoms: C13_15  and  O1_16 
ROOT
HETATM    1  N1  UNL     1       2.482  -0.755   1.043  1.00  0.00    -0.068 NA
HETATM    2  C8  UNL     1       1.230  -0.733   0.746  1.00  0.00     0.724 A 
HETATM    3  N2  UNL     1       0.394  -0.167  -0.226  1.00  0.00    -0.064 NA
HETATM    4  C9  UNL     1      -0.851  -0.498  -0.030  1.00  0.00     0.093 A 
HETATM    5  C17 UNL     1      -0.976  -1.360   1.143  1.00  0.00     0.100 A 
HETATM    6  C18 UNL     1      -1.413  -2.777   0.838  1.00  0.00     0.067 C 
HETATM    7  C19 UNL     1      -1.380  -3.515   2.149  1.00  0.00    -0.009 C 
HETATM    8  C20 UNL     1      -2.124  -3.064   3.179  1.00  0.00    -0.015 C 
HETATM    9 BR1  UNL     1      -2.040  -4.037   4.804  1.00  0.00    -0.056 Br
HETATM   10  C21 UNL     1      -2.861  -1.828   2.716  1.00  0.00     0.053 C 
HETATM   11  C22 UNL     1      -1.877  -0.811   2.219  1.00  0.00     0.021 C 
HETATM   12  C23 UNL     1      -1.012  -0.370   3.395  1.00  0.00     0.013 C 
HETATM   13  N3  UNL     1       0.397  -1.483   1.617  1.00  0.00    -0.207 N 
HETATM   14  H26 UNL     1       0.534  -2.077   2.483  1.00  0.00     0.179 HD
ENDROOT
BRANCH   1  15
HETATM   15  C6  UNL     1       3.417  -0.052   0.256  1.00  0.00     0.047 C 
HETATM   16  C7  UNL     1       4.233  -0.873  -0.380  1.00  0.00     0.041 C 
BRANCH  15  17
HETATM   17  C5  UNL     1       3.485   1.428   0.150  1.00  0.00     0.086 C 
BRANCH  17  18
HETATM   18  C4  UNL     1       4.586   1.817  -0.757  1.00  0.00    -0.021 C 
HETATM   19  C3  UNL     1       5.647   2.544  -0.526  1.00  0.00    -0.008 C 
BRANCH  19  20
HETATM   20  C2  UNL     1       6.591   2.785  -1.592  1.00  0.00    -0.027 C 
HETATM   21  C1  UNL     1       7.668   3.507  -1.407  1.00  0.00     0.031 C 
ENDBRANCH  19  20
ENDBRANCH  17  18
ENDBRANCH  15  17
ENDBRANCH   1  15
BRANCH   4  22
HETATM   22  C10 UNL     1      -1.838   0.020  -0.967  1.00  0.00    -0.008 A 
HETATM   23  C11 UNL     1      -3.184  -0.261  -0.861  1.00  0.00     0.016 A 
HETATM   24  C12 UNL     1      -4.165   0.198  -1.714  1.00  0.00     0.037 A 
HETATM   25  C13 UNL     1      -3.803   1.001  -2.764  1.00  0.00     0.068 A 
HETATM   26  C15 UNL     1      -2.475   1.324  -2.934  1.00  0.00     0.037 A 
HETATM   27  C16 UNL     1      -1.551   0.830  -2.043  1.00  0.00     0.016 A 
BRANCH  25  28
HETATM   28  O1  UNL     1      -4.699   1.520  -3.685  1.00  0.00    -0.356 OA
HETATM   29  C14 UNL     1      -6.097   1.276  -3.641  1.00  0.00     0.210 C 
ENDBRANCH  25  28
ENDBRANCH   4  22
TORSDOF 6
