REMARK  2 active torsions:
REMARK  status: ('A' for Active; 'I' for Inactive)
REMARK    1  A    between atoms: O1_2  and  C2_3 
REMARK    2  A    between atoms: C13_17  and  C14_18 
ROOT
HETATM    1  C2  UNL     1       3.399   0.858   0.667  1.00  0.00     0.069 A 
HETATM    2  C3  UNL     1       2.923   1.524  -0.430  1.00  0.00     0.037 A 
HETATM    3  C4  UNL     1       1.811   1.243  -1.175  1.00  0.00     0.017 A 
HETATM    4  C5  UNL     1       1.140   0.154  -0.716  1.00  0.00     0.001 A 
HETATM    5  C6  UNL     1       1.565  -0.596   0.411  1.00  0.00    -0.021 A 
HETATM    6  C7  UNL     1       2.695  -0.238   1.101  1.00  0.00     0.049 A 
HETATM    7  C8  UNL     1       0.692  -1.763   0.635  1.00  0.00     0.019 C 
HETATM    8  C9  UNL     1       0.310  -3.016   0.701  1.00  0.00     0.047 C 
HETATM    9  S1  UNL     1      -1.443  -2.927   1.226  1.00  0.00    -0.120 SA
HETATM   10  C10 UNL     1      -2.328  -2.755  -0.383  1.00  0.00     0.223 C 
HETATM   11  N1  UNL     1      -1.869  -1.516  -0.989  1.00  0.00    -0.290 N 
HETATM   12  N2  UNL     1      -0.486  -1.533  -1.325  1.00  0.00    -0.180 NA
HETATM   13  C11 UNL     1      -0.127  -0.295  -1.340  1.00  0.00     0.067 C 
HETATM   14  C12 UNL     1      -1.217   0.425  -2.038  1.00  0.00     0.090 C 
HETATM   15  C13 UNL     1      -2.442  -0.245  -1.382  1.00  0.00     0.122 C 
ENDROOT
BRANCH  15  16
HETATM   16  C14 UNL     1      -2.913   0.620  -0.285  1.00  0.00     0.057 A 
HETATM   17  C15 UNL     1      -3.961   0.013   0.568  1.00  0.00    -0.015 A 
HETATM   18  C16 UNL     1      -3.620   0.105   1.844  1.00  0.00     0.015 A 
HETATM   19  C17 UNL     1      -2.319   0.780   1.930  1.00  0.00     0.007 A 
HETATM   20 BR1  UNL     1      -1.551   1.064   3.666  1.00  0.00    -0.051 Br
HETATM   21  C18 UNL     1      -1.921   1.073   0.685  1.00  0.00     0.003 A 
ENDBRANCH  15  16
BRANCH   1  22
HETATM   22  O1  UNL     1       4.500   1.096   1.446  1.00  0.00    -0.356 OA
HETATM   23  C1  UNL     1       5.439   2.113   1.306  1.00  0.00     0.210 C 
ENDBRANCH   1  22
TORSDOF 2
