REMARK  3 active torsions:
REMARK  status: ('A' for Active; 'I' for Inactive)
REMARK    1  A    between atoms: O1_2  and  C2_3 
REMARK    2  A    between atoms: C6_7  and  C7_8 
REMARK    3  A    between atoms: C10_11  and  O2_12 
ROOT
HETATM    1  C2  UNL     1      -3.838  -0.319  -0.700  1.00  0.00     0.075 C 
HETATM    2  C3  UNL     1      -3.215  -0.794  -1.769  1.00  0.00     0.006 C 
HETATM    3  C4  UNL     1      -2.249   0.039  -2.156  1.00  0.00    -0.010 C 
HETATM    4  C5  UNL     1      -1.045  -0.400  -1.455  1.00  0.00     0.054 C 
HETATM    5  C6  UNL     1       0.136   0.517  -1.584  1.00  0.00     0.112 C 
HETATM    6  N1  UNL     1      -0.121   1.759  -0.841  1.00  0.00    -0.236 NA
HETATM    7  N2  UNL     1      -0.024   1.605   0.498  1.00  0.00    -0.356 N 
HETATM    8  C14 UNL     1      -1.052   2.001   1.380  1.00  0.00     0.138 C 
HETATM    9  C15 UNL     1      -2.374   1.323   1.020  1.00  0.00     0.020 C 
HETATM   10  C16 UNL     1      -3.039   0.518   0.150  1.00  0.00     0.041 C 
HETATM   11  H15 UNL     1       0.361   2.577  -1.260  1.00  0.00     0.146 HD
HETATM   12  H16 UNL     1       0.451   0.729   0.805  1.00  0.00     0.174 HD
ENDROOT
BRANCH   5  13
HETATM   13  C7  UNL     1       1.369  -0.051  -0.983  1.00  0.00    -0.038 A 
HETATM   14  C8  UNL     1       2.437   0.787  -0.732  1.00  0.00     0.011 A 
HETATM   15  C9  UNL     1       3.586   0.249  -0.170  1.00  0.00     0.037 A 
HETATM   16  C10 UNL     1       3.680  -1.093   0.140  1.00  0.00     0.068 A 
HETATM   17  C12 UNL     1       2.590  -1.930  -0.120  1.00  0.00     0.037 A 
HETATM   18  C13 UNL     1       1.454  -1.389  -0.677  1.00  0.00     0.011 A 
BRANCH  16  19
HETATM   19  O2  UNL     1       4.773  -1.726   0.699  1.00  0.00    -0.356 OA
HETATM   20  C11 UNL     1       5.983  -1.129   1.054  1.00  0.00     0.210 C 
ENDBRANCH  16  19
ENDBRANCH   5  13
BRANCH   1  21
HETATM   21  O1  UNL     1      -4.711   0.035   0.320  1.00  0.00    -0.355 OA
HETATM   22  C1  UNL     1      -5.697  -0.942   0.647  1.00  0.00     0.210 C 
ENDBRANCH   1  21
TORSDOF 3
