REMARK  0 active torsions:
REMARK  status: ('A' for Active; 'I' for Inactive)
ROOT
HETATM    1  C1  UNL     1       5.486   0.499   1.815  1.00  0.00     0.036 C 
HETATM    2  C2  UNL     1       4.041   0.163   1.779  1.00  0.00    -0.022 C 
HETATM    3  C3  UNL     1       3.556  -0.680   0.893  1.00  0.00    -0.043 A 
HETATM    4  C4  UNL     1       4.547  -1.245  -0.031  1.00  0.00     0.008 A 
HETATM    5  C5  UNL     1       4.271  -2.144  -0.938  1.00  0.00     0.003 A 
HETATM    6  C6  UNL     1       2.938  -2.670  -1.120  1.00  0.00     0.029 A 
HETATM    7  C7  UNL     1       2.029  -2.168  -0.303  1.00  0.00     0.055 A 
HETATM    8  N1  UNL     1       0.704  -2.449  -0.217  1.00  0.00    -0.236 NA
HETATM    9  C8  UNL     1      -0.332  -2.308  -0.969  1.00  0.00     0.131 C 
HETATM   10  N2  UNL     1      -1.580  -2.768  -0.426  1.00  0.00    -0.241 NA
HETATM   11  C9  UNL     1      -2.465  -1.797  -0.201  1.00  0.00     0.029 C 
HETATM   12  C10 UNL     1      -2.516  -1.937  -1.685  1.00  0.00     0.068 C 
HETATM   13  C11 UNL     1      -1.123  -1.946  -2.152  1.00  0.00     0.066 C 
HETATM   14  C12 UNL     1      -0.709  -0.697  -2.861  1.00  0.00     0.039 C 
HETATM   15  C13 UNL     1      -1.029   0.576  -2.215  1.00  0.00    -0.030 C 
HETATM   16  C14 UNL     1      -0.410   1.676  -1.693  1.00  0.00    -0.028 C 
HETATM   17  C15 UNL     1      -1.358   2.718  -1.132  1.00  0.00     0.061 C 
HETATM   18  C16 UNL     1      -1.182   2.572   0.374  1.00  0.00     0.150 C 
HETATM   19  C17 UNL     1      -2.385   3.220   1.090  1.00  0.00     0.207 C 
HETATM   20  O1  UNL     1      -2.842   2.296   2.151  1.00  0.00    -0.352 OA
HETATM   21  C18 UNL     1      -3.109   0.996   1.505  1.00  0.00     0.052 A 
HETATM   22  C19 UNL     1      -3.853   1.022   0.355  1.00  0.00     0.030 A 
HETATM   23  C20 UNL     1      -3.832  -0.305   0.015  1.00  0.00    -0.008 A 
HETATM   24  C21 UNL     1      -3.106  -0.930   0.991  1.00  0.00     0.033 A 
HETATM   25  C22 UNL     1      -2.332  -1.337   2.115  1.00  0.00     0.022 A 
HETATM   26  C23 UNL     1      -2.513   0.008   2.186  1.00  0.00     0.067 A 
HETATM   27  O2  UNL     1      -0.010   2.603   0.944  1.00  0.00    -0.374 OA
HETATM   28  C24 UNL     1       0.679   1.551   1.491  1.00  0.00     0.243 C 
HETATM   29  S1  UNL     1       1.127   0.296   0.353  1.00  0.00    -0.127 SA
HETATM   30  C25 UNL     1       2.106  -1.091   0.790  1.00  0.00     0.134 A 
ENDROOT
TORSDOF 0
