REMARK  4 active torsions:
REMARK  status: ('A' for Active; 'I' for Inactive)
REMARK    1  A    between atoms: O1_2  and  C2_3 
REMARK    2  A    between atoms: C5_6  and  C6_7 
REMARK    3  A    between atoms: C16_20  and  C17_21 
REMARK    4  A    between atoms: C20_24  and  O2_25 
ROOT
HETATM    1  C6  UNL     1       0.364   0.499   0.872  1.00  0.00     0.044 C 
HETATM    2  N1  UNL     1       1.155   1.029   0.041  1.00  0.00    -0.254 NA
HETATM    3  C7  UNL     1       1.385   2.029  -0.964  1.00  0.00     0.180 C 
HETATM    4  C8  UNL     1       2.788   2.110  -1.326  1.00  0.00     0.031 C 
HETATM    5  C9  UNL     1       3.731   2.770  -2.020  1.00  0.00     0.000 C 
HETATM    6  C10 UNL     1       3.636   3.954  -2.881  1.00  0.00    -0.000 C 
HETATM    7  C11 UNL     1       2.666   4.857  -3.094  1.00  0.00    -0.000 C 
HETATM    8  C12 UNL     1       1.317   5.033  -2.563  1.00  0.00    -0.003 C 
HETATM    9  C13 UNL     1       0.668   4.348  -1.634  1.00  0.00    -0.010 C 
HETATM   10  C14 UNL     1       0.647   3.265  -0.678  1.00  0.00     0.134 C 
HETATM   11  C15 UNL     1      -0.457   2.298  -1.063  1.00  0.00     0.111 C 
HETATM   12  N2  UNL     1       0.398   1.991  -2.023  1.00  0.00    -0.237 NA
HETATM   13  N3  UNL     1      -1.752   2.014  -0.491  1.00  0.00    -0.369 N 
HETATM   14  C16 UNL     1      -2.002   1.274   0.734  1.00  0.00     0.121 C 
HETATM   15  C23 UNL     1      -0.765   1.117   1.591  1.00  0.00     0.089 C 
HETATM   16  H13 UNL     1      -2.719   2.283  -0.845  1.00  0.00     0.161 HD
ENDROOT
BRANCH   1  17
HETATM   17  C5  UNL     1       0.672  -0.915   1.104  1.00  0.00    -0.012 A 
HETATM   18  C4  UNL     1       1.730  -1.521   0.461  1.00  0.00     0.016 A 
HETATM   19  C3  UNL     1       2.054  -2.830   0.638  1.00  0.00     0.037 A 
HETATM   20  C2  UNL     1       1.318  -3.643   1.495  1.00  0.00     0.068 A 
HETATM   21  C25 UNL     1       0.252  -3.075   2.157  1.00  0.00     0.037 A 
HETATM   22  C24 UNL     1      -0.032  -1.746   1.942  1.00  0.00     0.016 A 
BRANCH  20  23
HETATM   23  O1  UNL     1       1.803  -4.929   1.536  1.00  0.00    -0.356 OA
HETATM   24  C1  UNL     1       1.292  -5.986   2.294  1.00  0.00     0.210 C 
ENDBRANCH  20  23
ENDBRANCH   1  17
BRANCH  14  25
HETATM   25  C17 UNL     1      -2.657  -0.021   0.483  1.00  0.00    -0.035 A 
HETATM   26  C18 UNL     1      -3.747  -0.488   1.226  1.00  0.00     0.012 A 
HETATM   27  C19 UNL     1      -4.253  -1.736   0.869  1.00  0.00     0.037 A 
HETATM   28  C20 UNL     1      -3.727  -2.489  -0.153  1.00  0.00     0.065 A 
HETATM   29  C21 UNL     1      -2.645  -1.987  -0.864  1.00  0.00     0.037 A 
HETATM   30  C22 UNL     1      -2.107  -0.753  -0.548  1.00  0.00     0.012 A 
BRANCH  28  31
HETATM   31  O2  UNL     1      -4.379  -3.681  -0.329  1.00  0.00    -0.361 OA
HETATM   32  H17 UNL     1      -3.950  -4.468  -0.815  1.00  0.00     0.217 HD
ENDBRANCH  28  31
ENDBRANCH  14  25
TORSDOF 4
