REMARK  3 active torsions:
REMARK  status: ('A' for Active; 'I' for Inactive)
REMARK    1  A    between atoms: C7_9  and  C8_10 
REMARK    2  A    between atoms: C11_13  and  O1_14 
REMARK    3  A    between atoms: C14_17  and  S1_18 
ROOT
HETATM    1  C1  UNL     1      -4.711   1.859  -0.924  1.00  0.00     0.045 C 
HETATM    2  C2  UNL     1      -3.734   1.006  -0.661  1.00  0.00     0.048 A 
HETATM    3  C3  UNL     1      -3.466   0.320   0.599  1.00  0.00     0.041 A 
HETATM    4  C4  UNL     1      -2.381  -0.466   0.468  1.00  0.00    -0.009 A 
HETATM    5  C5  UNL     1      -1.908  -1.267   1.616  1.00  0.00     0.191 C 
HETATM    6  N1  UNL     1      -1.440  -2.571   1.259  1.00  0.00    -0.281 NA
HETATM    7  C6  UNL     1      -1.032  -3.001   0.117  1.00  0.00     0.197 C 
HETATM    8  N2  UNL     1      -0.869  -2.457  -1.183  1.00  0.00    -0.371 N 
HETATM    9  C7  UNL     1      -0.738  -1.019  -1.400  1.00  0.00     0.169 C 
HETATM   10  C16 UNL     1      -1.932  -0.295  -0.887  1.00  0.00     0.070 A 
HETATM   11  N3  UNL     1      -2.706   0.546  -1.530  1.00  0.00    -0.251 NA
HETATM   12  H7  UNL     1      -0.846  -3.121  -1.988  1.00  0.00     0.161 HD
ENDROOT
BRANCH   9  13
HETATM   13  C8  UNL     1       0.529  -0.560  -0.772  1.00  0.00    -0.013 A 
HETATM   14  C9  UNL     1       1.461  -1.479  -0.338  1.00  0.00     0.013 A 
HETATM   15  C10 UNL     1       2.658  -1.142   0.253  1.00  0.00     0.037 A 
HETATM   16  C11 UNL     1       2.975   0.189   0.437  1.00  0.00     0.069 A 
HETATM   17  C13 UNL     1       2.069   1.136   0.015  1.00  0.00     0.055 A 
HETATM   18  C14 UNL     1       0.880   0.757  -0.573  1.00  0.00     0.011 A 
BRANCH  16  19
HETATM   19  O1  UNL     1       4.159   0.614   1.024  1.00  0.00    -0.356 OA
HETATM   20  C12 UNL     1       5.086  -0.345   1.455  1.00  0.00     0.210 C 
ENDBRANCH  16  19
BRANCH  18  21
HETATM   21  S1  UNL     1      -0.265   2.022  -1.105  1.00  0.00    -0.134 SA
HETATM   22  C15 UNL     1       0.472   3.633  -0.712  1.00  0.00     0.095 C 
ENDBRANCH  18  21
ENDBRANCH   9  13
TORSDOF 3
