REMARK  1 active torsions:
REMARK  status: ('A' for Active; 'I' for Inactive)
REMARK    1  A    between atoms: N2_10  and  C9_11 
ROOT
HETATM    1  C1  UNL     1      -2.436  -2.666  -1.883  1.00  0.00     0.050 C 
HETATM    2  C2  UNL     1      -2.576  -1.531  -0.902  1.00  0.00    -0.036 C 
HETATM    3  C3  UNL     1      -1.489  -0.925  -1.195  1.00  0.00     0.008 C 
HETATM    4  C4  UNL     1      -0.246  -0.438  -1.689  1.00  0.00    -0.001 C 
HETATM    5  C5  UNL     1       0.740   0.429  -1.728  1.00  0.00     0.000 C 
HETATM    6  C6  UNL     1       1.418   1.632  -1.314  1.00  0.00     0.134 C 
HETATM    7  C7  UNL     1       0.413   2.692  -0.851  1.00  0.00     0.093 C 
HETATM    8  C8  UNL     1       0.382   2.406   0.630  1.00  0.00     0.067 C 
HETATM    9  N1  UNL     1       1.675   2.601   0.638  1.00  0.00    -0.179 NA
HETATM   10  N2  UNL     1       2.318   1.638  -0.219  1.00  0.00    -0.280 N 
HETATM   11  C17 UNL     1      -1.029   2.083   1.088  1.00  0.00    -0.010 A 
HETATM   12  C18 UNL     1      -0.912   1.114   2.052  1.00  0.00     0.016 A 
HETATM   13  C19 UNL     1      -2.217   0.729   1.996  1.00  0.00     0.037 A 
HETATM   14  C20 UNL     1      -3.120   1.293   1.166  1.00  0.00     0.069 A 
HETATM   15  C21 UNL     1      -3.302   2.240   0.221  1.00  0.00     0.037 A 
HETATM   16  C22 UNL     1      -1.993   2.609   0.289  1.00  0.00     0.016 A 
HETATM   17  O1  UNL     1      -4.383   0.636   1.286  1.00  0.00    -0.345 OA
HETATM   18  C23 UNL     1      -4.321  -0.798   1.253  1.00  0.00     0.234 C 
HETATM   19  C24 UNL     1      -3.668  -1.385   0.084  1.00  0.00     0.056 C 
HETATM   20  N3  UNL     1      -4.369  -2.375  -0.355  1.00  0.00    -0.302 NA
HETATM   21  H23 UNL     1      -5.258  -2.641   0.067  1.00  0.00     0.186 HD
ENDROOT
BRANCH  10  22
HETATM   22  C9  UNL     1       3.580   0.988   0.176  1.00  0.00     0.190 C 
HETATM   23  S1  UNL     1       4.720   1.104  -1.264  1.00  0.00    -0.113 SA
HETATM   24  C10 UNL     1       4.263  -0.492  -1.973  1.00  0.00     0.044 C 
HETATM   25  C11 UNL     1       3.623  -1.135  -1.003  1.00  0.00     0.001 C 
HETATM   26  C12 UNL     1       3.446  -0.482   0.290  1.00  0.00     0.045 A 
HETATM   27  C13 UNL     1       2.210  -0.934   0.949  1.00  0.00    -0.006 A 
HETATM   28  C16 UNL     1       4.491  -0.927   1.286  1.00  0.00    -0.006 A 
HETATM   29  C14 UNL     1       2.481  -1.528   2.106  1.00  0.00    -0.003 A 
HETATM   30  C15 UNL     1       3.931  -1.526   2.325  1.00  0.00    -0.003 A 
ENDBRANCH  10  22
TORSDOF 1
