REMARK  0 active torsions:
REMARK  status: ('A' for Active; 'I' for Inactive)
ROOT
HETATM    1  F1  UNL     1       3.312  -1.076   2.520  1.00  0.00    -0.210 F 
HETATM    2  C1  UNL     1       2.890  -0.759   1.236  1.00  0.00     0.099 C 
HETATM    3  C2  UNL     1       3.720   0.116   0.613  1.00  0.00     0.039 C 
HETATM    4  C3  UNL     1       4.076   0.927  -0.538  1.00  0.00     0.019 C 
HETATM    5  C4  UNL     1       3.532   1.197  -1.750  1.00  0.00     0.083 C 
HETATM    6  N1  UNL     1       2.232   0.637  -2.242  1.00  0.00    -0.393 N 
HETATM    7  C5  UNL     1       1.484   0.331  -1.160  1.00  0.00     0.186 C 
HETATM    8  C6  UNL     1       0.346  -0.080  -0.488  1.00  0.00     0.093 C 
HETATM    9  C7  UNL     1       0.412  -1.022   0.517  1.00  0.00     0.043 C 
HETATM   10  C8  UNL     1       1.758  -1.547   0.804  1.00  0.00     0.129 C 
HETATM   11  N2  UNL     1      -0.716  -1.490   1.239  1.00  0.00    -0.386 N 
HETATM   12  C9  UNL     1      -2.053  -1.640   0.708  1.00  0.00     0.161 C 
HETATM   13  C10 UNL     1      -2.660  -0.353   0.294  1.00  0.00    -0.005 A 
HETATM   14  C11 UNL     1      -3.951  -0.266   0.793  1.00  0.00     0.030 A 
HETATM   15  C12 UNL     1      -4.680   0.878   0.500  1.00  0.00     0.011 A 
HETATM   16 BR1  UNL     1      -6.466   1.011   1.176  1.00  0.00    -0.051 Br
HETATM   17  C13 UNL     1      -4.088   1.872  -0.270  1.00  0.00     0.022 A 
HETATM   18  C14 UNL     1      -2.807   1.767  -0.755  1.00  0.00     0.039 A 
HETATM   19  C15 UNL     1      -2.067   0.632  -0.472  1.00  0.00     0.083 A 
HETATM   20  O1  UNL     1      -0.760   0.614  -1.015  1.00  0.00    -0.311 OA
HETATM   21  H4  UNL     1       2.076   0.556  -3.245  1.00  0.00     0.159 HD
HETATM   22  H9  UNL     1      -0.367  -1.704   2.221  1.00  0.00     0.159 HD
ENDROOT
TORSDOF 0
