REMARK  4 active torsions:
REMARK  status: ('A' for Active; 'I' for Inactive)
REMARK    1  A    between atoms: C6_7  and  C7_8 
REMARK    2  A    between atoms: C10_12  and  S1_13 
REMARK    3  A    between atoms: S1_13  and  C11_14 
REMARK    4  A    between atoms: C12_15  and  C13_16 
ROOT
HETATM    1  C7  UNL     1      -2.146   1.784  -0.513  1.00  0.00     0.322 A 
HETATM    2  C8  UNL     1      -1.665   2.575  -1.699  1.00  0.00     0.352 A 
HETATM    3  C9  UNL     1      -0.217   2.814  -1.273  1.00  0.00     0.328 A 
HETATM    4  N1  UNL     1       0.849   2.709  -0.434  1.00  0.00    -0.222 NA
HETATM    5  C10 UNL     1       0.390   1.991   0.623  1.00  0.00     0.173 A 
HETATM    6  N2  UNL     1      -0.904   1.740   0.307  1.00  0.00    -0.047 NA
HETATM    7  N3  UNL     1      -1.297   2.218  -0.818  1.00  0.00     0.064 N 
ENDROOT
BRANCH   5   8
HETATM    8  S1  UNL     1       0.517   1.186   2.216  1.00  0.00    -0.069 SA
BRANCH   8   9
HETATM    9  C11 UNL     1       1.047  -0.483   2.136  1.00  0.00     0.054 C 
HETATM   10  C12 UNL     1       1.812  -1.486   1.831  1.00  0.00     0.018 C 
BRANCH  10  11
HETATM   11  C13 UNL     1       3.051  -1.362   1.101  1.00  0.00    -0.036 A 
HETATM   12  C14 UNL     1       3.799  -2.499   0.818  1.00  0.00     0.013 A 
HETATM   13  C15 UNL     1       4.986  -2.442   0.126  1.00  0.00     0.024 A 
HETATM   14  C16 UNL     1       5.455  -1.209  -0.305  1.00  0.00     0.034 A 
HETATM   15 CL1  UNL     1       6.967  -1.124  -1.189  1.00  0.00    -0.084 Cl
HETATM   16  C17 UNL     1       4.736  -0.068  -0.040  1.00  0.00     0.024 A 
HETATM   17  C18 UNL     1       3.534  -0.148   0.664  1.00  0.00     0.013 A 
ENDBRANCH  10  11
ENDBRANCH   8   9
ENDBRANCH   5   8
BRANCH   1  18
HETATM   18  C6  UNL     1      -2.491   0.394  -1.000  1.00  0.00     0.124 A 
HETATM   19  C2  UNL     1      -3.016  -0.509   0.020  1.00  0.00    -0.070 A 
HETATM   20  C1  UNL     1      -2.364  -0.963   1.271  1.00  0.00     0.044 C 
HETATM   21  C3  UNL     1      -4.245  -0.872  -0.390  1.00  0.00     0.006 A 
HETATM   22  C4  UNL     1      -4.621  -0.261  -1.671  1.00  0.00     0.039 A 
HETATM   23  C5  UNL     1      -3.557   0.479  -1.997  1.00  0.00     0.105 A 
HETATM   24  F1  UNL     1      -3.737   1.135  -3.192  1.00  0.00    -0.210 F 
ENDBRANCH   1  18
TORSDOF 4
