REMARK  3 active torsions:
REMARK  status: ('A' for Active; 'I' for Inactive)
REMARK    1  A    between atoms: O1_2  and  C2_3 
REMARK    2  A    between atoms: C10_11  and  N1_12 
REMARK    3  A    between atoms: N3_20  and  C17_21 
ROOT
HETATM    1  C2  UNL     1       4.611   0.847  -2.358  1.00  0.00     0.069 A 
HETATM    2  C3  UNL     1       3.583   1.693  -2.660  1.00  0.00     0.037 A 
HETATM    3  C4  UNL     1       2.286   1.522  -2.272  1.00  0.00     0.017 A 
HETATM    4  C5  UNL     1       1.969   0.394  -1.502  1.00  0.00     0.000 A 
HETATM    5  C6  UNL     1       3.029  -0.425  -1.222  1.00  0.00    -0.024 A 
HETATM    6  C7  UNL     1       4.327  -0.268  -1.602  1.00  0.00     0.048 A 
HETATM    7  C8  UNL     1       2.818  -1.613  -0.416  1.00  0.00    -0.003 C 
HETATM    8  C9  UNL     1       2.164  -2.517   0.261  1.00  0.00     0.072 C 
HETATM    9  C10 UNL     1       0.905  -3.041   0.765  1.00  0.00     0.011 C 
HETATM   10  C11 UNL     1      -0.401  -3.172   1.015  1.00  0.00     0.025 C 
HETATM   11  C12 UNL     1      -1.608  -2.436   0.678  1.00  0.00     0.000 C 
HETATM   12  C13 UNL     1      -2.082  -1.383   0.035  1.00  0.00     0.000 C 
HETATM   13  C14 UNL     1      -1.699  -0.203  -0.806  1.00  0.00     0.135 C 
HETATM   14  C15 UNL     1      -0.526  -0.563  -1.675  1.00  0.00     0.093 C 
HETATM   15  C16 UNL     1       0.570   0.250  -1.120  1.00  0.00     0.068 C 
HETATM   16  N2  UNL     1       0.195   0.969  -0.120  1.00  0.00    -0.178 NA
HETATM   17  N3  UNL     1      -1.211   0.834   0.041  1.00  0.00    -0.272 N 
ENDROOT
BRANCH  17  18
HETATM   18  C17 UNL     1      -1.993   1.664   0.943  1.00  0.00     0.123 C 
HETATM   19  C18 UNL     1      -1.112   2.667   1.670  1.00  0.00     0.058 C 
HETATM   20  S1  UNL     1      -3.246   2.625   0.045  1.00  0.00    -0.104 SA
HETATM   21  C19 UNL     1      -4.632   1.514  -0.188  1.00  0.00     0.045 C 
HETATM   22  C20 UNL     1      -4.961   0.847   0.919  1.00  0.00    -0.007 C 
HETATM   23  C21 UNL     1      -4.179   1.096   2.138  1.00  0.00     0.063 A 
HETATM   24  C22 UNL     1      -4.535   0.180   3.243  1.00  0.00    -0.014 A 
HETATM   25  C25 UNL     1      -2.718   0.894   1.982  1.00  0.00    -0.029 A 
HETATM   26  C23 UNL     1      -3.494  -0.489   3.712  1.00  0.00    -0.003 A 
HETATM   27  C24 UNL     1      -2.389  -0.006   2.893  1.00  0.00     0.007 A 
ENDBRANCH  17  18
BRANCH   9  28
HETATM   28  N1  UNL     1       1.776  -4.055   1.327  1.00  0.00    -0.402 N 
HETATM   29  H9  UNL     1       2.371  -4.393   2.123  1.00  0.00     0.156 HD
HETATM   30  H10 UNL     1       2.252  -4.992   1.211  1.00  0.00     0.156 HD
ENDBRANCH   9  28
BRANCH   1  31
HETATM   31  O1  UNL     1       5.893   1.112  -2.802  1.00  0.00    -0.356 OA
HETATM   32  C1  UNL     1       6.112   2.277  -3.574  1.00  0.00     0.210 C 
ENDBRANCH   1  31
TORSDOF 3
