REMARK  4 active torsions:
REMARK  status: ('A' for Active; 'I' for Inactive)
REMARK    1  A    between atoms: C4_7  and  C5_8 
REMARK    2  A    between atoms: C5_8  and  C6_9 
REMARK    3  A    between atoms: C7_10  and  C8_11 
REMARK    4  A    between atoms: C12_16  and  O1_17 
ROOT
HETATM    1  B1  UNL     1       1.983  -4.304   3.225  1.00  0.00     0.224 B 
HETATM    2  C1  UNL     1       1.257  -3.391   1.859  1.00  0.00    -0.135 C 
HETATM    3  N1  UNL     1       0.688  -2.705   0.794  1.00  0.00    -0.246 N 
HETATM    4  N2  UNL     1      -0.112  -3.358  -0.369  1.00  0.00    -0.191 NA
HETATM    5  C2  UNL     1      -0.590  -2.243  -0.741  1.00  0.00     0.118 A 
HETATM    6  C3  UNL     1       0.764  -1.636  -1.123  1.00  0.00     0.077 C 
HETATM    7  C4  UNL     1       0.669  -1.293   0.463  1.00  0.00     0.086 C 
HETATM    8  C10 UNL     1      -0.769  -0.791   0.267  1.00  0.00     0.068 A 
HETATM    9  C11 UNL     1      -1.276   0.379   0.945  1.00  0.00     0.030 A 
HETATM   10  C12 UNL     1      -2.585   0.835   0.705  1.00  0.00     0.065 A 
HETATM   11  C14 UNL     1      -3.387   0.154  -0.187  1.00  0.00     0.037 A 
HETATM   12  C15 UNL     1      -2.958  -0.968  -0.862  1.00  0.00     0.009 A 
HETATM   13  C16 UNL     1      -1.719  -1.436  -0.663  1.00  0.00    -0.029 A 
ENDROOT
BRANCH   7  14
HETATM   14  C5  UNL     1       1.552  -0.320   0.876  1.00  0.00     0.062 C 
BRANCH  14  15
HETATM   15  C6  UNL     1       2.990  -0.437   0.531  1.00  0.00    -0.023 C 
HETATM   16  C7  UNL     1       3.606   0.489  -0.189  1.00  0.00     0.015 C 
BRANCH  16  17
HETATM   17  C8  UNL     1       3.009   1.704  -0.729  1.00  0.00     0.008 A 
HETATM   18  C9  UNL     1       3.518   2.694  -1.455  1.00  0.00     0.152 A 
HETATM   19 CL1  UNL     1       1.782   2.899  -1.076  1.00  0.00    -0.182 Cl
ENDBRANCH  16  17
ENDBRANCH  14  15
ENDBRANCH   7  14
BRANCH  10  20
HETATM   20  O1  UNL     1      -3.179   1.934   1.287  1.00  0.00    -0.356 OA
HETATM   21  C13 UNL     1      -4.497   2.357   1.017  1.00  0.00     0.210 C 
ENDBRANCH  10  20
TORSDOF 4
