REMARK  2 active torsions:
REMARK  status: ('A' for Active; 'I' for Inactive)
REMARK    1  A    between atoms: N1_6  and  C5_7 
REMARK    2  A    between atoms: C9_11  and  O1_12 
ROOT
HETATM    1  C5  UNL     1      -0.559  -0.300  -1.344  1.00  0.00     0.102 C 
HETATM    2  C6  UNL     1      -1.657   0.117  -2.247  1.00  0.00    -0.005 C 
HETATM    3  C7  UNL     1      -2.946   0.334  -2.437  1.00  0.00     0.000 C 
HETATM    4  C8  UNL     1      -4.048   0.176  -1.501  1.00  0.00     0.033 C 
HETATM    5  C9  UNL     1      -4.175  -0.151  -0.230  1.00  0.00     0.059 C 
HETATM    6  C10 UNL     1      -3.304  -0.524   0.905  1.00  0.00     0.044 A 
HETATM    7  C11 UNL     1      -3.293  -1.992   1.114  1.00  0.00    -0.006 A 
HETATM    8  C12 UNL     1      -3.722  -2.265   2.357  1.00  0.00    -0.003 A 
HETATM    9  C13 UNL     1      -4.053  -1.012   3.077  1.00  0.00    -0.003 A 
HETATM   10  C14 UNL     1      -3.801  -0.041   2.215  1.00  0.00    -0.006 A 
HETATM   11  C15 UNL     1      -1.892  -0.013   0.725  1.00  0.00     0.026 C 
HETATM   12  C16 UNL     1      -1.045  -0.939  -0.076  1.00  0.00     0.027 C 
ENDROOT
BRANCH   1  13
HETATM   13  N1  UNL     1       0.274   0.835  -1.058  1.00  0.00    -0.218 NA
HETATM   14  C4  UNL     1       1.339   0.686  -0.195  1.00  0.00     0.192 A 
HETATM   15  S1  UNL     1       1.495   0.296   1.486  1.00  0.00    -0.125 SA
HETATM   16  C3  UNL     1       3.324   0.309   1.649  1.00  0.00     0.049 A 
HETATM   17  C2  UNL     1       4.546   0.452   1.092  1.00  0.00    -0.072 A 
HETATM   18  C1  UNL     1       5.481   0.237   2.263  1.00  0.00     0.044 C 
HETATM   19  C20 UNL     1       4.281   0.736  -0.327  1.00  0.00     0.028 A 
HETATM   20  C19 UNL     1       4.975   0.980  -1.461  1.00  0.00     0.002 A 
HETATM   21  C18 UNL     1       3.774   1.144  -2.376  1.00  0.00     0.005 A 
HETATM   22  C17 UNL     1       2.450   1.168  -2.593  1.00  0.00     0.146 A 
HETATM   23  N2  UNL     1       1.022   1.090  -2.293  1.00  0.00    -0.346 N 
HETATM   24  H20 UNL     1       1.080   1.292  -3.305  1.00  0.00     0.174 HD
ENDBRANCH   1  13
BRANCH   5  25
HETATM   25  O1  UNL     1      -5.445  -0.193   0.321  1.00  0.00    -0.364 OA
HETATM   26  H11 UNL     1      -5.767  -1.114   0.623  1.00  0.00     0.217 HD
ENDBRANCH   5  25
TORSDOF 2
