REMARK  7 active torsions:
REMARK  status: ('A' for Active; 'I' for Inactive)
REMARK    1  A    between atoms: C2_2  and  O1_3 
REMARK    2  A    between atoms: C2_2  and  C4_5 
REMARK    3  A    between atoms: C5_6  and  N1_7 
REMARK    4  A    between atoms: N1_7  and  C6_8 
REMARK    5  A    between atoms: C6_8  and  C7_9 
REMARK    6  A    between atoms: C8_10  and  N2_11 
REMARK    7  A    between atoms: C8_10  and  C9_12 
ROOT
HETATM    1  C7  UNL     1       0.757  -0.008   1.430  1.00  0.00     0.022 C 
HETATM    2  C8  UNL     1       1.820  -0.654   0.991  1.00  0.00     0.033 C 
ENDROOT
BRANCH   1   3
HETATM    3  C6  UNL     1      -0.561  -0.663   1.630  1.00  0.00     0.149 C 
BRANCH   3   4
HETATM    4  N1  UNL     1      -1.517   0.017   0.780  1.00  0.00    -0.389 N 
HETATM    5  H6  UNL     1      -2.255   0.591   1.221  1.00  0.00     0.159 HD
BRANCH   4   6
HETATM    6  C5  UNL     1      -1.606   0.024  -0.632  1.00  0.00     0.012 A 
HETATM    7  C4  UNL     1      -2.443  -0.096  -1.611  1.00  0.00    -0.025 A 
HETATM    8  C16 UNL     1      -1.449   0.080  -2.641  1.00  0.00     0.047 A 
HETATM    9  C15 UNL     1      -0.486   0.214  -1.522  1.00  0.00     0.062 A 
BRANCH   7  10
HETATM   10  C2  UNL     1      -3.844  -0.319  -1.663  1.00  0.00    -0.027 C 
HETATM   11  C1  UNL     1      -4.569  -0.419  -2.793  1.00  0.00     0.025 C 
BRANCH  10  12
HETATM   12  O1  UNL     1      -4.962  -0.508  -0.915  1.00  0.00     0.000 OA
HETATM   13  C3  UNL     1      -5.230   0.273   0.217  1.00  0.00     0.000 C 
ENDBRANCH  10  12
ENDBRANCH   7  10
ENDBRANCH   4   6
ENDBRANCH   3   4
ENDBRANCH   1   3
BRANCH   2  14
HETATM   14  N2  UNL     1       1.666  -2.037   0.705  1.00  0.00    -0.399 N 
HETATM   15  H10 UNL     1       1.638  -2.586  -0.184  1.00  0.00     0.156 HD
HETATM   16  H11 UNL     1       1.572  -2.482   1.650  1.00  0.00     0.156 HD
ENDBRANCH   2  14
BRANCH   2  17
HETATM   17  C9  UNL     1       3.098   0.022   0.812  1.00  0.00    -0.010 A 
HETATM   18  C10 UNL     1       4.187  -0.700   0.347  1.00  0.00     0.015 A 
HETATM   19  C11 UNL     1       5.421  -0.084   0.168  1.00  0.00     0.024 A 
HETATM   20  C12 UNL     1       5.488   1.250   0.474  1.00  0.00     0.034 A 
HETATM   21 CL1  UNL     1       7.019   2.074   0.268  1.00  0.00    -0.084 Cl
HETATM   22  C13 UNL     1       4.437   2.031   0.942  1.00  0.00     0.024 A 
HETATM   23  C14 UNL     1       3.216   1.363   1.105  1.00  0.00     0.015 A 
ENDBRANCH   2  17
TORSDOF 7
