REMARK  8 active torsions:
REMARK  status: ('A' for Active; 'I' for Inactive)
REMARK    1  A    between atoms: O1_2  and  C2_3 
REMARK    2  A    between atoms: C5_6  and  C6_7 
REMARK    3  A    between atoms: C6_7  and  C7_8 
REMARK    4  A    between atoms: C8_10  and  N2_11 
REMARK    5  A    between atoms: C8_10  and  C9_13 
REMARK    6  A    between atoms: N2_11  and  N3_12 
REMARK    7  A    between atoms: C10_15  and  C11_16 
REMARK    8  A    between atoms: C17_23  and  S1_24 
ROOT
HETATM    1  C7  UNL     1      -1.648  -1.024   0.716  1.00  0.00     0.064 A 
HETATM    2  N1  UNL     1      -0.723  -1.435   1.657  1.00  0.00    -0.253 NA
HETATM    3  C8  UNL     1      -0.379  -1.702   0.359  1.00  0.00     0.219 A 
ENDROOT
BRANCH   3   4
HETATM    4  N2  UNL     1      -0.437  -3.034  -0.214  1.00  0.00    -0.223 NA
HETATM    5  H10 UNL     1      -0.796  -3.047  -1.177  1.00  0.00     0.144 HD
BRANCH   4   6
HETATM    6  N3  UNL     1      -1.049  -3.952   0.634  1.00  0.00    -0.268 NA
HETATM    7  H11 UNL     1      -0.320  -4.696   0.851  1.00  0.00     0.137 HD
HETATM    8  H12 UNL     1      -1.895  -4.405   0.234  1.00  0.00     0.137 HD
ENDBRANCH   4   6
ENDBRANCH   3   4
BRANCH   3   9
HETATM    9  C9  UNL     1       0.724  -0.843  -0.241  1.00  0.00     0.242 A 
HETATM   10  N4  UNL     1       1.464  -0.202  -0.710  1.00  0.00     0.070 N 
HETATM   11  C10 UNL     1       2.721   0.093  -0.695  1.00  0.00     0.189 A 
HETATM   12  S1  UNL     1       0.377   0.422  -1.621  1.00  0.00     0.090 SA
HETATM   13  C17 UNL     1       2.121   0.914  -1.684  1.00  0.00     0.361 A 
BRANCH  11  14
HETATM   14  C11 UNL     1       4.150   0.188  -0.432  1.00  0.00    -0.001 A 
HETATM   15  C12 UNL     1       4.733  -0.611   0.530  1.00  0.00     0.015 A 
HETATM   16  C13 UNL     1       6.068  -0.616   0.872  1.00  0.00     0.024 A 
HETATM   17  C14 UNL     1       6.774   0.291   0.122  1.00  0.00     0.034 A 
HETATM   18 CL1  UNL     1       8.507   0.407   0.440  1.00  0.00    -0.084 Cl
HETATM   19  C15 UNL     1       6.291   1.130  -0.856  1.00  0.00     0.024 A 
HETATM   20  C16 UNL     1       4.948   1.062  -1.124  1.00  0.00     0.015 A 
ENDBRANCH  11  14
ENDBRANCH   3   9
BRANCH   1  21
HETATM   21  C6  UNL     1      -2.949  -0.355   0.713  1.00  0.00     0.070 C 
BRANCH  21  22
HETATM   22  C5  UNL     1      -2.990   0.950  -0.049  1.00  0.00     0.051 A 
HETATM   23  C2  UNL     1      -4.277   1.624  -0.057  1.00  0.00     0.046 A 
HETATM   24  C3  UNL     1      -3.833   2.664   0.543  1.00  0.00     0.006 A 
HETATM   25  C4  UNL     1      -2.471   2.141   0.640  1.00  0.00     0.041 A 
BRANCH  23  26
HETATM   26  O1  UNL     1      -5.526   1.302  -0.522  1.00  0.00    -0.360 OA
HETATM   27  C1  UNL     1      -6.439   0.640   0.311  1.00  0.00     0.209 C 
ENDBRANCH  23  26
ENDBRANCH  21  22
ENDBRANCH   1  21
TORSDOF 8
