REMARK  3 active torsions:
REMARK  status: ('A' for Active; 'I' for Inactive)
REMARK    1  A    between atoms: O1_2  and  C2_3 
REMARK    2  A    between atoms: C8_9  and  C9_10 
REMARK    3  A    between atoms: C12_13  and  O2_14 
ROOT
HETATM    1  C2  UNL     1       2.551   1.156   0.166  1.00  0.00     0.068 A 
HETATM    2  C3  UNL     1       3.473   0.304  -0.403  1.00  0.00     0.036 A 
HETATM    3  C4  UNL     1       2.993  -0.912  -0.916  1.00  0.00     0.000 A 
HETATM    4  C5  UNL     1       1.611  -1.134  -0.796  1.00  0.00    -0.070 A 
HETATM    5  C6  UNL     1       0.664  -0.302  -0.229  1.00  0.00    -0.032 A 
HETATM    6  C7  UNL     1       1.205   0.876   0.255  1.00  0.00     0.046 A 
HETATM    7  C8  UNL     1      -0.631  -1.032  -0.320  1.00  0.00     0.053 C 
HETATM    8  C15 UNL     1      -0.651  -2.279   0.574  1.00  0.00     0.026 C 
HETATM    9  C16 UNL     1       0.090  -3.380  -0.218  1.00  0.00    -0.022 C 
HETATM   10  B1  UNL     1       0.751  -2.395  -1.292  1.00  0.00     0.296 B 
HETATM   11  N1  UNL     1      -0.577  -1.641  -1.634  1.00  0.00    -0.349 NA
HETATM   12  H16 UNL     1      -1.340  -2.307  -1.833  1.00  0.00     0.105 HD
ENDROOT
BRANCH   7  13
HETATM   13  C9  UNL     1      -1.794  -0.168  -0.124  1.00  0.00    -0.032 A 
HETATM   14  C10 UNL     1      -1.869   0.381   1.149  1.00  0.00     0.012 A 
HETATM   15  C11 UNL     1      -2.892   1.224   1.536  1.00  0.00     0.037 A 
HETATM   16  C12 UNL     1      -3.873   1.522   0.603  1.00  0.00     0.065 A 
HETATM   17  C13 UNL     1      -3.833   1.003  -0.653  1.00  0.00     0.037 A 
HETATM   18  C14 UNL     1      -2.797   0.167  -1.001  1.00  0.00     0.012 A 
BRANCH  16  19
HETATM   19  O2  UNL     1      -4.914   2.374   0.983  1.00  0.00    -0.361 OA
HETATM   20  H9  UNL     1      -5.549   2.773   0.322  1.00  0.00     0.217 HD
ENDBRANCH  16  19
ENDBRANCH   7  13
BRANCH   1  21
HETATM   21  O1  UNL     1       3.066   2.345   0.660  1.00  0.00    -0.356 OA
HETATM   22  C1  UNL     1       4.438   2.673   0.590  1.00  0.00     0.210 C 
ENDBRANCH   1  21
TORSDOF 3
