REMARK  5 active torsions:
REMARK  status: ('A' for Active; 'I' for Inactive)
REMARK    1  A    between atoms: O1_2  and  C2_3 
REMARK    2  A    between atoms: C5_6  and  C6_7 
REMARK    3  A    between atoms: N2_9  and  C7_10 
REMARK    4  A    between atoms: C14_20  and  C15_21 
REMARK    5  A    between atoms: C18_24  and  O2_25 
ROOT
HETATM    1  C6  UNL     1       1.838  -0.058  -0.587  1.00  0.00     0.067 C 
HETATM    2  N1  UNL     1       1.026  -0.872  -0.016  1.00  0.00    -0.173 NA
HETATM    3  N2  UNL     1      -0.308  -0.414  -0.080  1.00  0.00    -0.237 N 
HETATM    4  C14 UNL     1      -0.312   0.698  -0.959  1.00  0.00     0.152 C 
HETATM    5  C22 UNL     1       1.135   1.112  -1.139  1.00  0.00     0.094 C 
ENDROOT
BRANCH   3   6
HETATM    6  C7  UNL     1      -1.334  -1.068   0.660  1.00  0.00     0.182 C 
HETATM    7  N3  UNL     1      -2.429  -1.237   0.065  1.00  0.00    -0.245 NA
HETATM    8  C8  UNL     1      -3.499  -1.860   0.686  1.00  0.00     0.102 A 
HETATM    9  C9  UNL     1      -4.070  -2.894  -0.253  1.00  0.00     0.013 A 
HETATM   10  C12 UNL     1      -4.711  -1.027   0.905  1.00  0.00     0.035 A 
HETATM   11  C13 UNL     1      -3.137  -2.561   1.949  1.00  0.00     0.124 C 
HETATM   12  C10 UNL     1      -5.369  -2.682  -0.516  1.00  0.00     0.022 A 
HETATM   13  C11 UNL     1      -5.748  -1.503   0.223  1.00  0.00     0.032 A 
HETATM   14 CL1  UNL     1      -7.402  -0.933   0.107  1.00  0.00    -0.085 Cl
HETATM   15  S1  UNL     1      -1.539  -1.766   2.295  1.00  0.00    -0.088 SA
ENDBRANCH   3   6
BRANCH   4  16
HETATM   16  C15 UNL     1      -1.203   1.810  -0.639  1.00  0.00    -0.027 A 
HETATM   17  C16 UNL     1      -1.906   2.456  -1.666  1.00  0.00     0.012 A 
HETATM   18  C17 UNL     1      -2.784   3.517  -1.503  1.00  0.00     0.037 A 
HETATM   19  C18 UNL     1      -2.981   3.971  -0.234  1.00  0.00     0.066 A 
HETATM   20  C19 UNL     1      -2.337   3.401   0.819  1.00  0.00     0.043 A 
HETATM   21  C20 UNL     1      -1.473   2.347   0.600  1.00  0.00    -0.051 A 
HETATM   22  C21 UNL     1      -0.800   1.772   1.770  1.00  0.00     0.049 C 
BRANCH  19  23
HETATM   23  O2  UNL     1      -3.864   5.034  -0.093  1.00  0.00    -0.361 OA
HETATM   24  H14 UNL     1      -4.052   5.367   0.832  1.00  0.00     0.217 HD
ENDBRANCH  19  23
ENDBRANCH   4  16
BRANCH   1  25
HETATM   25  C5  UNL     1       3.274  -0.324  -0.645  1.00  0.00    -0.010 A 
HETATM   26  C4  UNL     1       3.791  -1.473  -0.078  1.00  0.00     0.016 A 
HETATM   27  C3  UNL     1       5.127  -1.812  -0.080  1.00  0.00     0.037 A 
HETATM   28  C2  UNL     1       5.992  -0.925  -0.698  1.00  0.00     0.068 A 
HETATM   29  C24 UNL     1       5.478   0.235  -1.271  1.00  0.00     0.037 A 
HETATM   30  C23 UNL     1       4.117   0.552  -1.253  1.00  0.00     0.016 A 
BRANCH  28  31
HETATM   31  O1  UNL     1       7.349  -1.210  -0.733  1.00  0.00    -0.356 OA
HETATM   32  C1  UNL     1       7.816  -2.391  -0.142  1.00  0.00     0.210 C 
ENDBRANCH  28  31
ENDBRANCH   1  25
TORSDOF 5
