REMARK  6 active torsions:
REMARK  status: ('A' for Active; 'I' for Inactive)
REMARK    1  A    between atoms: C2_2  and  C3_3 
REMARK    2  A    between atoms: C4_5  and  C5_6 
REMARK    3  A    between atoms: C6_7  and  C7_8 
REMARK    4  A    between atoms: N1_12  and  N2_13 
REMARK    5  A    between atoms: C10_14  and  C11_15 
REMARK    6  A    between atoms: C14_18  and  O1_19 
ROOT
HETATM    1  C7  UNL     1      -1.440  -2.231   0.406  1.00  0.00     0.060 C 
HETATM    2  C8  UNL     1      -2.246  -2.892   1.222  1.00  0.00     0.077 C 
HETATM    3  S1  UNL     1      -1.430  -4.473   1.568  1.00  0.00    -0.117 SA
HETATM    4  C9  UNL     1       0.230  -3.896   1.023  1.00  0.00     0.229 C 
HETATM    5  N1  UNL     1      -0.256  -2.894   0.057  1.00  0.00    -0.260 N 
ENDROOT
BRANCH   5   6
HETATM    6  N2  UNL     1       0.474  -2.670  -1.119  1.00  0.00    -0.183 NA
HETATM    7  C10 UNL     1       1.419  -1.845  -1.273  1.00  0.00     0.150 C 
BRANCH   7   8
HETATM    8  C11 UNL     1       2.191  -0.839  -0.556  1.00  0.00    -0.017 A 
HETATM    9  C12 UNL     1       1.879  -0.614   0.766  1.00  0.00     0.015 A 
HETATM   10  C13 UNL     1       2.666   0.361   1.373  1.00  0.00     0.037 A 
HETATM   11  C14 UNL     1       3.672   1.050   0.723  1.00  0.00     0.068 A 
HETATM   12  C16 UNL     1       3.902   0.743  -0.611  1.00  0.00     0.037 A 
HETATM   13  C17 UNL     1       3.164  -0.221  -1.307  1.00  0.00     0.015 A 
BRANCH  11  14
HETATM   14  O1  UNL     1       4.438   2.017   1.357  1.00  0.00    -0.356 OA
HETATM   15  C15 UNL     1       5.465   2.715   0.682  1.00  0.00     0.210 C 
ENDBRANCH  11  14
ENDBRANCH   7   8
ENDBRANCH   5   6
BRANCH   1  16
HETATM   16  C6  UNL     1      -1.768  -0.900  -0.095  1.00  0.00     0.032 C 
HETATM   17  C5  UNL     1      -2.910  -0.352   0.288  1.00  0.00     0.004 C 
BRANCH  17  18
HETATM   18  C4  UNL     1      -3.317   0.968  -0.160  1.00  0.00     0.024 C 
HETATM   19  C3  UNL     1      -4.430   1.583   0.171  1.00  0.00     0.033 C 
HETATM   20 CL1  UNL     1      -5.543   0.751   1.256  1.00  0.00    -0.084 Cl
BRANCH  19  21
HETATM   21  C2  UNL     1      -4.774   2.912  -0.319  1.00  0.00     0.013 C 
HETATM   22  C1  UNL     1      -5.920   3.504   0.043  1.00  0.00     0.013 C 
ENDBRANCH  19  21
ENDBRANCH  17  18
ENDBRANCH   1  16
TORSDOF 6
