REMARK  1 active torsions:
REMARK  status: ('A' for Active; 'I' for Inactive)
REMARK    1  A    between atoms: C4_6  and  C5_7 
ROOT
HETATM    1  C5  UNL     1       0.094   0.309  -0.310  1.00  0.00    -0.002 A 
HETATM    2  C6  UNL     1       0.538   1.363  -0.976  1.00  0.00     0.152 A 
HETATM    3  O1  UNL     1       1.895   1.640  -1.067  1.00  0.00    -0.320 OA
HETATM    4  C7  UNL     1       2.861   0.840  -0.473  1.00  0.00     0.100 A 
HETATM    5  C8  UNL     1       4.220   1.059  -0.525  1.00  0.00     0.042 A 
HETATM    6  C9  UNL     1       5.062   0.160   0.126  1.00  0.00     0.042 A 
HETATM    7  C10 UNL     1       4.545  -0.918   0.804  1.00  0.00     0.103 A 
HETATM    8 BR1  UNL     1       5.808  -2.060   1.644  1.00  0.00    -0.029 Br
HETATM    9  N2  UNL     1       3.214  -1.107   0.838  1.00  0.00    -0.243 NA
HETATM   10  C11 UNL     1       2.360  -0.247   0.212  1.00  0.00     0.074 A 
HETATM   11  C12 UNL     1       0.944  -0.660   0.389  1.00  0.00     0.105 A 
ENDROOT
BRANCH   1  12
HETATM   12  C4  UNL     1      -1.356   0.120  -0.283  1.00  0.00     0.061 C 
HETATM   13  N1  UNL     1      -2.121   0.946  -0.881  1.00  0.00    -0.285 NA
HETATM   14  C3  UNL     1      -3.497   1.168  -1.121  1.00  0.00     0.179 C 
HETATM   15  C2  UNL     1      -4.451   0.326  -0.404  1.00  0.00     0.039 C 
HETATM   16  C1  UNL     1      -4.329  -0.742   0.366  1.00  0.00     0.136 C 
HETATM   17  F1  UNL     1      -5.523  -1.177   0.810  1.00  0.00    -0.205 F 
HETATM   18  C14 UNL     1      -3.105  -1.420   0.732  1.00  0.00     0.074 C 
HETATM   19  C13 UNL     1      -1.863  -1.040   0.449  1.00  0.00     0.058 C 
HETATM   20 CL1  UNL     1      -3.359  -2.894   1.647  1.00  0.00    -0.081 Cl
ENDBRANCH   1  12
TORSDOF 1
