REMARK  7 active torsions:
REMARK  status: ('A' for Active; 'I' for Inactive)
REMARK    1  A    between atoms: C2_2  and  C4_4 
REMARK    2  A    between atoms: C4_4  and  C17_21 
REMARK    3  A    between atoms: C5_5  and  C6_6 
REMARK    4  A    between atoms: C6_6  and  C7_7 
REMARK    5  A    between atoms: N2_9  and  C8_10 
REMARK    6  A    between atoms: C10_13  and  C11_14 
REMARK    7  A    between atoms: C17_21  and  S1_22 
ROOT
HETATM    1  C7  UNL     1       0.812  -1.502   0.247  1.00  0.00     0.154 A 
HETATM    2  N1  UNL     1       0.293  -1.265   1.445  1.00  0.00    -0.148 NA
HETATM    3  N2  UNL     1      -0.440  -0.795   0.436  1.00  0.00    -0.198 N 
ENDROOT
BRANCH   3   4
HETATM    4  C8  UNL     1      -1.326  -0.239  -0.565  1.00  0.00     0.153 A 
HETATM    5  N3  UNL     1      -1.044   0.691  -1.397  1.00  0.00    -0.270 NA
HETATM    6  C9  UNL     1      -1.894   1.262  -2.396  1.00  0.00     0.163 A 
HETATM    7  C10 UNL     1      -3.272   0.688  -2.469  1.00  0.00     0.052 A 
HETATM    8  C14 UNL     1      -3.495  -0.382  -1.462  1.00  0.00    -0.006 A 
HETATM    9  C15 UNL     1      -2.644  -0.860  -0.554  1.00  0.00    -0.017 A 
HETATM   10  C16 UNL     1      -3.123  -1.949   0.349  1.00  0.00     0.052 C 
BRANCH   7  11
HETATM   11  C11 UNL     1      -4.263   1.767  -2.228  1.00  0.00     0.002 C 
HETATM   12  C12 UNL     1      -5.270   2.074  -1.405  1.00  0.00     0.005 C 
HETATM   13  C13 UNL     1      -5.711   1.193  -0.299  1.00  0.00     0.061 C 
HETATM   14 CL1  UNL     1      -6.113   3.593  -1.645  1.00  0.00    -0.090 Cl
ENDBRANCH   7  11
ENDBRANCH   3   4
BRANCH   1  15
HETATM   15  C6  UNL     1       2.100  -2.229   0.057  1.00  0.00     0.110 C 
BRANCH  15  16
HETATM   16  C5  UNL     1       3.269  -1.474   0.484  1.00  0.00    -0.011 C 
HETATM   17  C4  UNL     1       3.705  -0.337   0.944  1.00  0.00    -0.047 C 
BRANCH  17  18
HETATM   18  C2  UNL     1       5.135  -0.098   1.230  1.00  0.00    -0.065 C 
HETATM   19  C1  UNL     1       5.629   1.025   1.693  1.00  0.00     0.019 C 
HETATM   20  C3  UNL     1       6.303  -0.999   1.079  1.00  0.00     0.048 C 
ENDBRANCH  17  18
BRANCH  17  21
HETATM   21  C17 UNL     1       2.937   0.905   1.238  1.00  0.00     0.109 C 
BRANCH  21  22
HETATM   22  S1  UNL     1       3.111   1.278   2.979  1.00  0.00    -0.178 SA
HETATM   23  H22 UNL     1       2.218   2.278   3.373  1.00  0.00     0.101 HD
ENDBRANCH  21  22
ENDBRANCH  17  21
ENDBRANCH  15  16
ENDBRANCH   1  15
TORSDOF 7
