REMARK  4 active torsions:
REMARK  status: ('A' for Active; 'I' for Inactive)
REMARK    1  A    between atoms: C3_3  and  C5_5 
REMARK    2  A    between atoms: C5_5  and  C17_20 
REMARK    3  A    between atoms: C6_6  and  C7_7 
REMARK    4  A    between atoms: C17_20  and  S1_21 
ROOT
HETATM    1  C7  UNL     1       0.638   0.213  -0.447  1.00  0.00     0.088 C 
HETATM    2  N1  UNL     1       1.005   1.323  -0.963  1.00  0.00    -0.175 NA
HETATM    3  N2  UNL     1       2.233   1.882  -1.298  1.00  0.00    -0.288 N 
HETATM    4  C8  UNL     1       3.341   1.659  -0.402  1.00  0.00     0.116 C 
HETATM    5  C9  UNL     1       3.698   0.578   0.324  1.00  0.00    -0.034 C 
HETATM    6  C10 UNL     1       4.893   0.611   1.173  1.00  0.00     0.050 C 
HETATM    7  C11 UNL     1       2.923  -0.686   0.285  1.00  0.00    -0.016 A 
HETATM    8  C12 UNL     1       3.731  -1.742   0.627  1.00  0.00     0.014 A 
HETATM    9  C13 UNL     1       3.160  -3.009   0.599  1.00  0.00     0.024 A 
HETATM   10  C14 UNL     1       1.822  -3.200   0.238  1.00  0.00     0.035 A 
HETATM   11 CL1  UNL     1       1.125  -4.811   0.209  1.00  0.00    -0.084 Cl
HETATM   12  C15 UNL     1       1.060  -2.100  -0.096  1.00  0.00     0.038 A 
HETATM   13  C16 UNL     1       1.577  -0.829  -0.082  1.00  0.00     0.007 A 
HETATM   14  H9  UNL     1       2.403   2.457  -2.149  1.00  0.00     0.188 HD
ENDROOT
BRANCH   1  15
HETATM   15  C6  UNL     1      -0.748  -0.107  -0.203  1.00  0.00     0.042 C 
HETATM   16  C5  UNL     1      -1.826   0.646  -0.487  1.00  0.00    -0.041 C 
BRANCH  16  17
HETATM   17  C3  UNL     1      -3.200   0.174  -0.170  1.00  0.00    -0.059 C 
HETATM   18  C2  UNL     1      -4.312   0.832  -0.415  1.00  0.00    -0.024 C 
HETATM   19  C1  UNL     1      -5.569   0.163  -0.000  1.00  0.00     0.036 C 
HETATM   20  C4  UNL     1      -3.274  -1.157   0.486  1.00  0.00     0.048 C 
ENDBRANCH  16  17
BRANCH  16  21
HETATM   21  C17 UNL     1      -1.851   1.967  -1.128  1.00  0.00     0.109 C 
BRANCH  21  22
HETATM   22  S1  UNL     1      -2.562   3.262  -0.043  1.00  0.00    -0.178 SA
HETATM   23  H19 UNL     1      -1.715   4.383  -0.135  1.00  0.00     0.101 HD
ENDBRANCH  21  22
ENDBRANCH  16  21
ENDBRANCH   1  15
TORSDOF 4
