REMARK  1 active torsions:
REMARK  status: ('A' for Active; 'I' for Inactive)
REMARK    1  A    between atoms: C3_6  and  C4_7 
ROOT
HETATM    1  B1  UNL     1      -3.814   1.861  -0.504  1.00  0.00     0.325 B 
HETATM    2  O1  UNL     1      -2.770   2.858  -0.352  1.00  0.00    -0.439 OA
HETATM    3  C1  UNL     1      -1.688   2.533   0.397  1.00  0.00     0.294 C 
HETATM    4  N1  UNL     1      -0.874   1.451  -0.024  1.00  0.00    -0.281 NA
HETATM    5  C2  UNL     1      -0.415   0.597   0.804  1.00  0.00     0.095 C 
HETATM    6  C3  UNL     1       0.413  -0.618   0.865  1.00  0.00     0.059 C 
HETATM    7  C11 UNL     1       0.058  -1.758  -0.014  1.00  0.00     0.019 C 
HETATM    8  C12 UNL     1      -1.349  -2.325   0.225  1.00  0.00     0.036 C 
HETATM    9  C13 UNL     1      -2.337  -1.240  -0.028  1.00  0.00    -0.075 A 
HETATM   10  C14 UNL     1      -2.114  -1.053  -1.365  1.00  0.00    -0.001 A 
HETATM   11  C15 UNL     1      -2.855   0.100  -1.477  1.00  0.00    -0.024 A 
HETATM   12  C16 UNL     1      -3.351   0.361  -0.260  1.00  0.00    -0.013 A 
HETATM   13  C17 UNL     1      -3.733   0.425   1.023  1.00  0.00     0.005 A 
HETATM   14  C18 UNL     1      -2.973  -0.718   1.049  1.00  0.00     0.025 A 
HETATM   15  H1  UNL     1      -4.860   2.100  -0.966  1.00  0.00     0.009 HD
ENDROOT
BRANCH   6  16
HETATM   16  C4  UNL     1       1.804  -0.172   0.477  1.00  0.00    -0.049 C 
HETATM   17  C5  UNL     1       2.772  -0.212   1.407  1.00  0.00     0.007 C 
HETATM   18  C6  UNL     1       4.166   0.175   1.227  1.00  0.00    -0.003 C 
HETATM   19  C7  UNL     1       4.857   0.180   0.100  1.00  0.00    -0.023 C 
HETATM   20  C8  UNL     1       4.426  -0.194  -1.272  1.00  0.00     0.054 C 
HETATM   21  C9  UNL     1       3.055   0.226  -1.597  1.00  0.00    -0.022 C 
HETATM   22  C10 UNL     1       1.919   0.262  -0.917  1.00  0.00     0.004 C 
ENDBRANCH   6  16
TORSDOF 1
