REMARK  6 active torsions:
REMARK  status: ('A' for Active; 'I' for Inactive)
REMARK    1  A    between atoms: C2_2  and  C3_3 
REMARK    2  A    between atoms: C2_2  and  C7_7 
REMARK    3  A    between atoms: C4_4  and  C5_5 
REMARK    4  A    between atoms: C8_8  and  S1_9 
REMARK    5  A    between atoms: S1_9  and  C9_10 
REMARK    6  A    between atoms: C10_12  and  C11_13 
ROOT
HETATM    1  C9  UNL     1      -0.059  -2.841   0.007  1.00  0.00     0.409 C 
HETATM    2  N1  UNL     1      -0.790  -1.595   0.058  1.00  0.00    -0.246 NA
HETATM    3  C10 UNL     1      -2.031  -1.761  -0.145  1.00  0.00     0.070 C 
HETATM    4  C19 UNL     1      -2.251  -3.235  -0.367  1.00  0.00     0.333 C 
HETATM    5  N2  UNL     1      -0.932  -3.769  -0.636  1.00  0.00     0.124 N 
HETATM    6  H24 UNL     1      -0.818  -4.756  -0.320  1.00  0.00     0.320 HD
ENDROOT
BRANCH   1   7
HETATM    7  S1  UNL     1       1.529  -2.658  -0.843  1.00  0.00    -0.084 SA
BRANCH   7   8
HETATM    8  C8  UNL     1       2.519  -1.571   0.213  1.00  0.00     0.045 C 
HETATM    9  C7  UNL     1       3.002  -0.331   0.268  1.00  0.00    -0.012 C 
BRANCH   9  10
HETATM   10  C2  UNL     1       3.824   0.183   1.397  1.00  0.00     0.027 C 
HETATM   11  C1  UNL     1       3.069   1.367   1.981  1.00  0.00     0.018 C 
BRANCH  10  12
HETATM   12  C3  UNL     1       5.166   0.614   0.968  1.00  0.00    -0.019 C 
HETATM   13  C4  UNL     1       5.952   0.708  -0.086  1.00  0.00    -0.007 C 
BRANCH  13  14
HETATM   14  C5  UNL     1       5.876   0.401  -1.503  1.00  0.00    -0.027 C 
HETATM   15  C6  UNL     1       6.736   0.534  -2.515  1.00  0.00     0.031 C 
ENDBRANCH  13  14
ENDBRANCH  10  12
ENDBRANCH   9  10
ENDBRANCH   7   8
ENDBRANCH   1   7
BRANCH   3  16
HETATM   16  C11 UNL     1      -3.075  -0.758  -0.170  1.00  0.00    -0.009 A 
HETATM   17  C12 UNL     1      -4.407  -1.038  -0.401  1.00  0.00     0.014 A 
HETATM   18  C13 UNL     1      -5.323   0.022  -0.401  1.00  0.00     0.008 A 
HETATM   19  C14 UNL     1      -4.934   1.325  -0.178  1.00  0.00    -0.056 A 
HETATM   20  C15 UNL     1      -5.942   2.415  -0.187  1.00  0.00     0.049 C 
HETATM   21  C16 UNL     1      -3.611   1.634   0.055  1.00  0.00    -0.055 A 
HETATM   22  C17 UNL     1      -3.141   3.022   0.301  1.00  0.00     0.049 C 
HETATM   23  C18 UNL     1      -2.741   0.563   0.047  1.00  0.00     0.020 A 
ENDBRANCH   3  16
TORSDOF 6
