REMARK  3 active torsions:
REMARK  status: ('A' for Active; 'I' for Inactive)
REMARK    1  A    between atoms: C3_4  and  C4_5 
REMARK    2  A    between atoms: N2_12  and  C10_13 
REMARK    3  A    between atoms: C11_15  and  C12_16 
ROOT
HETATM    1  N1  UNL     1      -1.743  -3.432  -2.723  1.00  0.00    -0.307 NA
HETATM    2  C1  UNL     1      -1.639  -2.621  -1.748  1.00  0.00     0.024 C 
HETATM    3  C2  UNL     1      -2.671  -1.544  -1.480  1.00  0.00     0.086 C 
HETATM    4  C3  UNL     1      -2.332  -1.261  -0.031  1.00  0.00     0.125 C 
HETATM    5  N2  UNL     1      -0.911  -1.086  -0.138  1.00  0.00    -0.345 N 
HETATM    6  C19 UNL     1      -0.629  -2.416  -0.638  1.00  0.00     0.179 C 
HETATM    7  H1  UNL     1      -1.114  -4.179  -2.985  1.00  0.00     0.186 HD
ENDROOT
BRANCH   5   8
HETATM    8  C10 UNL     1       0.023  -0.066   0.088  1.00  0.00     0.170 A 
HETATM    9  N3  UNL     1       1.312  -0.151  -0.055  1.00  0.00    -0.223 NA
HETATM   10  C11 UNL     1       2.038   0.905   0.190  1.00  0.00     0.076 A 
HETATM   11  C18 UNL     1       1.450   2.106   0.598  1.00  0.00     0.085 A 
HETATM   12  S1  UNL     1      -0.283   1.603   0.608  1.00  0.00    -0.062 SA
BRANCH  10  13
HETATM   13  C12 UNL     1       3.498   0.758   0.012  1.00  0.00    -0.007 A 
HETATM   14  C13 UNL     1       4.326   1.827   0.252  1.00  0.00     0.014 A 
HETATM   15  C14 UNL     1       5.694   1.826   0.126  1.00  0.00     0.001 A 
HETATM   16  C15 UNL     1       6.312   0.661  -0.275  1.00  0.00     0.000 A 
HETATM   17  C16 UNL     1       5.521  -0.436  -0.526  1.00  0.00     0.001 A 
HETATM   18  C17 UNL     1       4.154  -0.388  -0.386  1.00  0.00     0.014 A 
ENDBRANCH  10  13
ENDBRANCH   5   8
BRANCH   4  19
HETATM   19  C4  UNL     1      -3.077  -0.155   0.569  1.00  0.00    -0.035 A 
HETATM   20  C5  UNL     1      -2.697   0.310   1.810  1.00  0.00     0.012 A 
HETATM   21  C6  UNL     1      -3.434   1.378   2.331  1.00  0.00     0.043 A 
HETATM   22  C7  UNL     1      -4.509   1.966   1.655  1.00  0.00     0.116 A 
HETATM   23  F1  UNL     1      -5.195   2.998   2.195  1.00  0.00    -0.206 F 
HETATM   24  C8  UNL     1      -4.833   1.452   0.424  1.00  0.00     0.043 A 
HETATM   25  C9  UNL     1      -4.137   0.401  -0.134  1.00  0.00     0.012 A 
ENDBRANCH   4  19
TORSDOF 3
