REMARK  2 active torsions:
REMARK  status: ('A' for Active; 'I' for Inactive)
REMARK    1  A    between atoms: C4_5  and  N1_6 
REMARK    2  A    between atoms: N1_6  and  C5_7 
ROOT
HETATM    1  C5  UNL     1       1.096  -1.141   0.597  1.00  0.00     0.109 C 
HETATM    2  N2  UNL     1       1.168  -0.367  -0.486  1.00  0.00    -0.228 NA
HETATM    3  C6  UNL     1       0.034   0.081  -1.151  1.00  0.00     0.237 C 
HETATM    4  N3  UNL     1      -0.536   0.980  -1.879  1.00  0.00    -0.217 NA
HETATM    5  C7  UNL     1      -1.941   0.753  -2.235  1.00  0.00     0.181 C 
HETATM    6  C8  UNL     1      -2.796   1.777  -2.306  1.00  0.00     0.141 C 
HETATM    7  N4  UNL     1      -4.200   1.656  -1.878  1.00  0.00    -0.391 N 
HETATM    8  C9  UNL     1      -4.789   0.586  -0.993  1.00  0.00     0.155 C 
HETATM    9  C10 UNL     1      -3.561  -0.233  -0.616  1.00  0.00    -0.037 C 
HETATM   10  C11 UNL     1      -2.949   0.144   0.487  1.00  0.00     0.025 C 
HETATM   11  C12 UNL     1      -2.055   0.278   1.602  1.00  0.00     0.007 C 
HETATM   12 BR1  UNL     1      -2.325   1.601   2.997  1.00  0.00    -0.051 Br
HETATM   13  C13 UNL     1      -0.958  -0.491   1.792  1.00  0.00    -0.000 C 
HETATM   14  C14 UNL     1      -0.228  -1.589   1.177  1.00  0.00     0.107 C 
HETATM   15  C15 UNL     1      -3.185  -1.344  -1.576  1.00  0.00     0.213 C 
HETATM   16  O1  UNL     1      -2.260  -0.642  -2.472  1.00  0.00    -0.329 OA
HETATM   17  H6  UNL     1      -4.629   2.501  -2.347  1.00  0.00     0.159 HD
ENDROOT
BRANCH   1  18
HETATM   18  N1  UNL     1       2.379  -1.464   1.099  1.00  0.00    -0.344 N 
HETATM   19  H3  UNL     1       2.441  -2.434   1.487  1.00  0.00     0.167 HD
BRANCH  18  20
HETATM   20  C4  UNL     1       3.503  -0.603   1.113  1.00  0.00     0.035 A 
HETATM   21  C3  UNL     1       4.700  -1.110   1.606  1.00  0.00     0.032 A 
HETATM   22  C2  UNL     1       5.871  -0.410   1.693  1.00  0.00     0.046 A 
HETATM   23  C1  UNL     1       5.870   0.909   1.258  1.00  0.00     0.138 A 
HETATM   24  F1  UNL     1       6.992   1.632   1.325  1.00  0.00    -0.204 F 
HETATM   25  C17 UNL     1       4.708   1.471   0.757  1.00  0.00     0.074 A 
HETATM   26  C16 UNL     1       3.591   0.686   0.713  1.00  0.00     0.056 A 
HETATM   27 CL1  UNL     1       4.687   3.124   0.207  1.00  0.00    -0.081 Cl
ENDBRANCH  18  20
ENDBRANCH   1  18
TORSDOF 2
