REMARK  0 active torsions:
REMARK  status: ('A' for Active; 'I' for Inactive)
ROOT
HETATM    1  N1  UNL     1       1.002   0.242   2.687  1.00  0.00    -0.196 NA
HETATM    2  C1  UNL     1       0.444  -0.263   1.781  1.00  0.00     0.072 C 
HETATM    3  C2  UNL     1      -0.245  -0.905   0.653  1.00  0.00     0.172 C 
HETATM    4  C3  UNL     1      -1.635  -0.412   0.669  1.00  0.00    -0.030 A 
HETATM    5  C4  UNL     1      -2.027  -0.005   1.937  1.00  0.00     0.011 A 
HETATM    6  C5  UNL     1      -3.276   0.498   2.236  1.00  0.00     0.024 A 
HETATM    7  C6  UNL     1      -4.208   0.612   1.228  1.00  0.00     0.034 A 
HETATM    8 CL1  UNL     1      -5.792   1.245   1.583  1.00  0.00    -0.084 Cl
HETATM    9  C7  UNL     1      -3.875   0.223  -0.055  1.00  0.00     0.031 A 
HETATM   10  C8  UNL     1      -2.609  -0.278  -0.312  1.00  0.00    -0.044 A 
HETATM   11  C9  UNL     1      -2.488  -0.622  -1.738  1.00  0.00     0.085 C 
HETATM   12  C10 UNL     1      -1.237  -0.004  -2.231  1.00  0.00     0.090 C 
HETATM   13  N2  UNL     1      -0.112  -0.144  -1.697  1.00  0.00    -0.277 NA
HETATM   14  C11 UNL     1       0.504  -0.787  -0.608  1.00  0.00     0.152 A 
HETATM   15  S1  UNL     1       0.969  -2.438  -1.206  1.00  0.00    -0.101 SA
HETATM   16  C12 UNL     1       2.725  -2.496  -1.276  1.00  0.00     0.049 A 
HETATM   17  C13 UNL     1       3.512  -1.500  -0.946  1.00  0.00     0.019 A 
HETATM   18  C14 UNL     1       3.024  -0.224  -0.481  1.00  0.00    -0.026 A 
HETATM   19  C15 UNL     1       3.949   0.753  -0.162  1.00  0.00     0.012 A 
HETATM   20  C16 UNL     1       3.614   2.024   0.297  1.00  0.00     0.001 A 
HETATM   21  C17 UNL     1       2.280   2.276   0.424  1.00  0.00     0.001 A 
HETATM   22  C18 UNL     1       1.332   1.297   0.105  1.00  0.00     0.011 A 
HETATM   23  C19 UNL     1       1.717   0.052  -0.346  1.00  0.00    -0.006 A 
ENDROOT
TORSDOF 0
