REMARK  2 active torsions:
REMARK  status: ('A' for Active; 'I' for Inactive)
REMARK    1  A    between atoms: N2_11  and  C9_12 
REMARK    2  A    between atoms: C10_14  and  C11_15 
ROOT
HETATM    1  C1  UNL     1      -4.386   2.811   0.391  1.00  0.00     0.051 C 
HETATM    2  C2  UNL     1      -4.423   1.419  -0.183  1.00  0.00    -0.027 A 
HETATM    3  C3  UNL     1      -5.435   0.670  -0.599  1.00  0.00     0.019 A 
HETATM    4  C4  UNL     1      -4.571  -0.477  -0.974  1.00  0.00    -0.020 A 
HETATM    5  C5  UNL     1      -3.569   0.266  -0.562  1.00  0.00     0.084 A 
HETATM    6  O1  UNL     1      -2.186   0.089  -0.484  1.00  0.00    -0.323 OA
HETATM    7  C6  UNL     1      -1.494   0.019   0.746  1.00  0.00     0.261 C 
HETATM    8  C7  UNL     1      -1.984  -1.300   1.385  1.00  0.00     0.117 C 
HETATM    9  C8  UNL     1      -1.611  -2.140   0.182  1.00  0.00     0.059 C 
HETATM   10  N1  UNL     1      -0.375  -1.813   0.222  1.00  0.00    -0.172 NA
HETATM   11  N2  UNL     1      -0.155  -0.453   0.447  1.00  0.00    -0.215 N 
HETATM   12  C18 UNL     1      -2.480  -2.973  -0.639  1.00  0.00     0.025 C 
HETATM   13  C19 UNL     1      -3.634  -2.751  -1.245  1.00  0.00    -0.020 C 
HETATM   14  C20 UNL     1      -4.703  -1.823  -1.544  1.00  0.00     0.068 C 
ENDROOT
BRANCH  11  15
HETATM   15  C9  UNL     1       1.138   0.192   0.368  1.00  0.00     0.192 A 
HETATM   16  N3  UNL     1       2.255   0.024   0.162  1.00  0.00    -0.222 NA
HETATM   17  C10 UNL     1       3.214   0.929   0.185  1.00  0.00     0.076 A 
HETATM   18  C17 UNL     1       2.821   2.250   0.498  1.00  0.00     0.086 A 
HETATM   19  S1  UNL     1       1.052   2.054   0.737  1.00  0.00    -0.060 SA
BRANCH  17  20
HETATM   20  C11 UNL     1       4.614   0.618  -0.094  1.00  0.00    -0.007 A 
HETATM   21  C12 UNL     1       5.102  -0.628  -0.407  1.00  0.00     0.015 A 
HETATM   22  C13 UNL     1       6.423  -0.916  -0.669  1.00  0.00     0.024 A 
HETATM   23  C14 UNL     1       7.349   0.095  -0.620  1.00  0.00     0.034 A 
HETATM   24 CL1  UNL     1       9.013  -0.313  -0.958  1.00  0.00    -0.084 Cl
HETATM   25  C15 UNL     1       6.923   1.367  -0.312  1.00  0.00     0.024 A 
HETATM   26  C16 UNL     1       5.605   1.580  -0.065  1.00  0.00     0.015 A 
ENDBRANCH  17  20
ENDBRANCH  11  15
TORSDOF 2
