REMARK  4 active torsions:
REMARK  status: ('A' for Active; 'I' for Inactive)
REMARK    1  A    between atoms: C3_3  and  C5_5 
REMARK    2  A    between atoms: C5_5  and  O1_6 
REMARK    3  A    between atoms: C5_5  and  C6_7 
REMARK    4  A    between atoms: C18_21  and  O3_22 
ROOT
HETATM    1  C6  UNL     1      -2.527   0.035  -0.895  1.00  0.00     0.049 C 
HETATM    2  C7  UNL     1      -2.707   1.347  -0.235  1.00  0.00    -0.012 C 
HETATM    3  C8  UNL     1      -1.924   2.321   0.302  1.00  0.00    -0.066 C 
HETATM    4  C9  UNL     1      -2.465   3.555   0.906  1.00  0.00     0.048 C 
HETATM    5  C10 UNL     1      -0.511   2.606   0.441  1.00  0.00     0.002 C 
HETATM    6  C11 UNL     1       0.723   2.972   0.637  1.00  0.00    -0.026 C 
HETATM    7  C12 UNL     1       2.067   2.518   0.292  1.00  0.00     0.035 C 
HETATM    8  C13 UNL     1       2.983   2.072   1.373  1.00  0.00     0.009 C 
HETATM    9  C14 UNL     1       3.478   3.106   2.304  1.00  0.00     0.014 C 
HETATM   10  C15 UNL     1       4.021   1.237   0.691  1.00  0.00    -0.003 C 
HETATM   11  C16 UNL     1       4.081  -0.078   0.768  1.00  0.00     0.113 C 
HETATM   12  N1  UNL     1       4.679  -1.345   0.446  1.00  0.00    -0.266 N 
HETATM   13  C17 UNL     1       6.009  -1.244   0.979  1.00  0.00     0.185 C 
HETATM   14  O2  UNL     1       3.941  -2.308  -0.248  1.00  0.00    -0.210 OA
HETATM   15  C18 UNL     1       2.756  -2.841   0.251  1.00  0.00     0.215 C 
HETATM   16  C20 UNL     1       1.430  -2.834   0.393  1.00  0.00     0.031 C 
HETATM   17  C21 UNL     1       0.803  -3.921   1.213  1.00  0.00     0.056 C 
HETATM   18  C22 UNL     1       0.395  -1.988  -0.133  1.00  0.00     0.093 A 
HETATM   19  O4  UNL     1      -0.835  -1.818  -0.030  1.00  0.00    -0.334 OA
HETATM   20  C23 UNL     1       0.018  -0.896  -1.010  1.00  0.00     0.117 A 
HETATM   21  C24 UNL     1       1.191  -0.644  -1.873  1.00  0.00     0.055 C 
HETATM   22  C25 UNL     1      -1.104  -0.281  -1.148  1.00  0.00     0.046 C 
ENDROOT
BRANCH   1  23
HETATM   23  C5  UNL     1      -3.362  -0.088  -2.114  1.00  0.00     0.154 C 
BRANCH  23  24
HETATM   24  C3  UNL     1      -4.838   0.054  -1.887  1.00  0.00    -0.059 C 
HETATM   25  C2  UNL     1      -5.620  -1.070  -1.989  1.00  0.00    -0.026 C 
HETATM   26  C1  UNL     1      -7.081  -0.903  -1.741  1.00  0.00     0.036 C 
HETATM   27  C4  UNL     1      -5.697   1.221  -1.534  1.00  0.00     0.046 C 
ENDBRANCH  23  24
BRANCH  23  28
HETATM   28  O1  UNL     1      -2.942   0.842  -3.074  1.00  0.00    -0.391 OA
HETATM   29  H9  UNL     1      -3.678   1.168  -3.657  1.00  0.00     0.210 HD
ENDBRANCH  23  28
ENDBRANCH   1  23
BRANCH  15  30
HETATM   30  O3  UNL     1       3.459  -3.841   0.870  1.00  0.00    -0.334 OA
HETATM   31  C19 UNL     1       3.753  -3.868   2.251  1.00  0.00     0.212 C 
ENDBRANCH  15  30
TORSDOF 4
