REMARK  1 active torsions:
REMARK  status: ('A' for Active; 'I' for Inactive)
REMARK    1  A    between atoms: C4_4  and  C5_5 
ROOT
HETATM    1  C5  UNL     1       1.732   0.257   1.084  1.00  0.00     0.068 C 
HETATM    2  N1  UNL     1       0.811  -0.314   1.816  1.00  0.00    -0.176 NA
HETATM    3  N2  UNL     1      -0.445  -0.037   1.296  1.00  0.00    -0.273 N 
HETATM    4  C6  UNL     1      -1.579  -0.961   1.362  1.00  0.00     0.138 C 
HETATM    5  C7  UNL     1      -2.836  -1.050   0.846  1.00  0.00     0.033 C 
HETATM    6  C8  UNL     1      -3.215  -2.383   1.189  1.00  0.00     0.086 C 
HETATM    7  C9  UNL     1      -4.242  -3.004   0.330  1.00  0.00    -0.021 C 
HETATM    8  C10 UNL     1      -5.212  -2.473  -0.372  1.00  0.00    -0.002 C 
HETATM    9  C11 UNL     1      -5.646  -1.113  -0.577  1.00  0.00     0.017 C 
HETATM   10  C12 UNL     1      -4.976   0.013  -0.379  1.00  0.00     0.092 C 
HETATM   11  N3  UNL     1      -3.695  -0.045   0.081  1.00  0.00    -0.342 N 
HETATM   12  C13 UNL     1      -2.951   1.270  -0.273  1.00  0.00     0.097 A 
HETATM   13  C14 UNL     1      -2.502   1.717   0.937  1.00  0.00     0.048 A 
HETATM   14  C15 UNL     1      -1.477   1.718   0.004  1.00  0.00     0.055 A 
HETATM   15  C16 UNL     1      -0.960   1.524  -1.225  1.00  0.00     0.105 A 
HETATM   16  N4  UNL     1      -1.973   1.052  -2.037  1.00  0.00    -0.271 NA
HETATM   17  C17 UNL     1      -3.250   0.859  -1.503  1.00  0.00     0.038 A 
HETATM   18  C18 UNL     1      -4.080   0.349  -2.578  1.00  0.00     0.068 C 
HETATM   19  C19 UNL     1      -0.207   1.333   0.724  1.00  0.00     0.132 C 
HETATM   20  C20 UNL     1       0.985   0.984  -0.044  1.00  0.00     0.090 C 
ENDROOT
BRANCH   1  21
HETATM   21  C4  UNL     1       3.179   0.228   1.267  1.00  0.00     0.009 C 
HETATM   22  C3  UNL     1       4.061   0.930   0.342  1.00  0.00     0.022 C 
HETATM   23  C2  UNL     1       5.382   0.703   0.295  1.00  0.00    -0.048 C 
HETATM   24  C1  UNL     1       6.227   1.454  -0.672  1.00  0.00     0.049 C 
HETATM   25  C22 UNL     1       6.089  -0.264   1.155  1.00  0.00    -0.015 C 
HETATM   26  S1  UNL     1       5.125  -1.074   2.210  1.00  0.00    -0.092 SA
HETATM   27  C23 UNL     1       7.549  -0.455   1.040  1.00  0.00     0.057 C 
HETATM   28  C21 UNL     1       3.629  -0.449   2.285  1.00  0.00     0.035 C 
ENDBRANCH   1  21
TORSDOF 1
