REMARK  4 active torsions:
REMARK  status: ('A' for Active; 'I' for Inactive)
REMARK    1  A    between atoms: C2_2  and  C3_3 
REMARK    2  A    between atoms: C3_3  and  C4_4 
REMARK    3  A    between atoms: N2_9  and  C8_10 
REMARK    4  A    between atoms: C8_10  and  C9_11 
ROOT
HETATM    1  C4  UNL     1      -1.919  -0.893   0.533  1.00  0.00     0.091 C 
HETATM    2  C5  UNL     1      -1.951  -1.393   1.950  1.00  0.00     0.033 C 
HETATM    3  C6  UNL     1      -0.770  -0.547   2.531  1.00  0.00     0.082 C 
HETATM    4  C7  UNL     1      -0.031  -0.207   1.239  1.00  0.00     0.127 C 
HETATM    5  N1  UNL     1       0.487   0.109   0.152  1.00  0.00    -0.162 NA
HETATM    6  N2  UNL     1       1.795  -0.111  -0.201  1.00  0.00    -0.290 N 
HETATM    7  C15 UNL     1       1.878   0.502  -1.534  1.00  0.00     0.219 C 
HETATM    8  S1  UNL     1       1.617   2.265  -1.537  1.00  0.00    -0.140 SA
HETATM    9  C16 UNL     1       0.013   2.839  -1.059  1.00  0.00     0.117 C 
HETATM   10  C17 UNL     1      -1.170   2.644  -0.389  1.00  0.00     0.009 A 
HETATM   11  C18 UNL     1      -1.781   3.924  -0.744  1.00  0.00     0.039 A 
HETATM   12  C19 UNL     1      -3.105   4.024  -0.056  1.00  0.00    -0.026 A 
HETATM   13  C20 UNL     1      -3.728   3.175   0.714  1.00  0.00    -0.002 A 
HETATM   14  C21 UNL     1      -3.025   1.948   0.943  1.00  0.00     0.025 A 
HETATM   15  C22 UNL     1      -1.860   1.644   0.465  1.00  0.00     0.019 A 
HETATM   16  N3  UNL     1      -1.280   0.364   0.733  1.00  0.00    -0.332 N 
ENDROOT
BRANCH   6  17
HETATM   17  C8  UNL     1       2.827  -0.785   0.588  1.00  0.00     0.184 C 
BRANCH  17  18
HETATM   18  C9  UNL     1       4.123  -0.793  -0.161  1.00  0.00    -0.039 A 
HETATM   19  C10 UNL     1       4.542  -1.791  -1.018  1.00  0.00     0.009 A 
HETATM   20  C11 UNL     1       5.768  -1.665  -1.648  1.00  0.00     0.001 A 
HETATM   21  C12 UNL     1       6.577  -0.570  -1.439  1.00  0.00     0.000 A 
HETATM   22  C13 UNL     1       6.121   0.397  -0.580  1.00  0.00     0.001 A 
HETATM   23  C14 UNL     1       4.914   0.330   0.075  1.00  0.00     0.009 A 
ENDBRANCH  17  18
ENDBRANCH   6  17
BRANCH   1  24
HETATM   24  C3  UNL     1      -3.114  -1.075  -0.230  1.00  0.00     0.025 C 
BRANCH  24  25
HETATM   25  C2  UNL     1      -3.486  -2.513  -0.427  1.00  0.00    -0.002 C 
HETATM   26  C1  UNL     1      -3.794  -3.349   0.754  1.00  0.00     0.005 C 
ENDBRANCH  24  25
ENDBRANCH   1  24
TORSDOF 4
