REMARK  1 active torsions:
REMARK  status: ('A' for Active; 'I' for Inactive)
REMARK    1  A    between atoms: C16_17  and  N2_18 
ROOT
HETATM    1  C1  UNL     1       3.970  -0.529  -1.435  1.00  0.00     0.049 C 
HETATM    2  C2  UNL     1       2.974  -1.146  -0.518  1.00  0.00    -0.043 C 
HETATM    3  C3  UNL     1       2.496  -2.382  -0.560  1.00  0.00    -0.017 C 
HETATM    4  C4  UNL     1       1.182  -2.570  -0.471  1.00  0.00     0.040 C 
HETATM    5  C5  UNL     1       0.105  -1.858   0.273  1.00  0.00     0.037 C 
HETATM    6  N1  UNL     1       0.470  -1.188   1.321  1.00  0.00    -0.265 NA
HETATM    7  C6  UNL     1       1.601  -0.290   1.439  1.00  0.00     0.124 C 
HETATM    8  C7  UNL     1       2.549  -0.193   0.498  1.00  0.00    -0.034 C 
HETATM    9  C8  UNL     1       3.215   1.123   0.593  1.00  0.00     0.042 C 
HETATM   10  C9  UNL     1       2.271   2.270   0.657  1.00  0.00    -0.015 C 
HETATM   11  C10 UNL     1       0.954   1.854   0.585  1.00  0.00     0.044 C 
HETATM   12  C11 UNL     1      -0.323   2.666   0.615  1.00  0.00    -0.018 C 
HETATM   13  C12 UNL     1      -1.553   2.073   0.526  1.00  0.00    -0.082 C 
HETATM   14  C13 UNL     1      -2.585   3.228   0.601  1.00  0.00     0.043 C 
HETATM   15  C14 UNL     1      -1.485   0.567   0.360  1.00  0.00     0.054 C 
HETATM   16  C15 UNL     1      -2.546  -0.314   0.251  1.00  0.00     0.006 C 
HETATM   17  C16 UNL     1      -2.393  -1.770   0.086  1.00  0.00     0.113 C 
HETATM   18  C18 UNL     1      -1.083  -2.200  -0.516  1.00  0.00     0.086 C 
ENDROOT
BRANCH  17  19
HETATM   19  N2  UNL     1      -3.405  -2.353  -0.824  1.00  0.00    -0.272 N 
HETATM   20  C17 UNL     1      -4.759  -2.485  -0.940  1.00  0.00     0.293 A 
HETATM   21  N3  UNL     1      -3.941  -3.010  -1.898  1.00  0.00    -0.185 NA
ENDBRANCH  17  19
TORSDOF 1
