REMARK  2 active torsions:
REMARK  status: ('A' for Active; 'I' for Inactive)
REMARK    1  A    between atoms: C2_2  and  C3_3 
REMARK    2  A    between atoms: C8_9  and  S1_10 
ROOT
HETATM    1  C3  UNL     1      -3.199   0.559  -0.061  1.00  0.00    -0.061 A 
HETATM    2  C4  UNL     1      -2.244   0.364  -0.878  1.00  0.00     0.015 A 
HETATM    3  C5  UNL     1      -1.856   1.376  -2.025  1.00  0.00     0.022 A 
HETATM    4  C6  UNL     1      -2.391   0.745  -1.016  1.00  0.00     0.015 A 
HETATM    5  N1  UNL     1      -1.452  -0.091  -1.930  1.00  0.00     0.000 N 
HETATM    6  C7  UNL     1       0.039  -0.060  -2.044  1.00  0.00     0.084 C 
HETATM    7  C8  UNL     1       0.476  -0.544  -0.705  1.00  0.00     0.207 C 
HETATM    8  N2  UNL     1      -0.592  -1.193  -0.173  1.00  0.00     0.256 N 
HETATM    9  C14 UNL     1      -0.211  -1.640   1.158  1.00  0.00     0.430 A 
HETATM   10  N3  UNL     1      -1.463  -1.257   0.897  1.00  0.00     0.035 NA
HETATM   11  O1  UNL     1      -1.941  -0.839  -0.276  1.00  0.00     0.000 OA
HETATM   12  H5  UNL     1      -1.860  -0.858  -2.593  1.00  0.00     0.000 HD
ENDROOT
BRANCH   7  13
HETATM   13  S1  UNL     1       2.069  -0.368   0.031  1.00  0.00    -0.113 SA
HETATM   14  C9  UNL     1       2.946  -1.784   0.301  1.00  0.00     0.048 A 
HETATM   15  C10 UNL     1       4.259  -1.614   0.890  1.00  0.00     0.050 A 
HETATM   16  C11 UNL     1       4.801  -0.452   1.217  1.00  0.00     0.139 A 
HETATM   17  F1  UNL     1       6.041  -0.520   1.757  1.00  0.00    -0.204 F 
HETATM   18  C12 UNL     1       4.137   0.829   1.019  1.00  0.00     0.078 A 
HETATM   19 CL1  UNL     1       5.054   2.247   1.529  1.00  0.00    -0.081 Cl
HETATM   20  C13 UNL     1       2.932   1.108   0.512  1.00  0.00     0.072 A 
ENDBRANCH   7  13
BRANCH   1  21
HETATM   21  C2  UNL     1      -4.236   0.676   0.894  1.00  0.00    -0.022 C 
HETATM   22  C1  UNL     1      -5.082   1.730   0.983  1.00  0.00     0.031 C 
ENDBRANCH   1  21
TORSDOF 2
