REMARK  1 active torsions:
REMARK  status: ('A' for Active; 'I' for Inactive)
REMARK    1  A    between atoms: C10_16  and  C11_17 
ROOT
HETATM    1  C1  UNL     1       0.340   3.297  -1.087  1.00  0.00     0.074 C 
HETATM    2  C2  UNL     1      -0.942   2.612  -1.437  1.00  0.00     0.069 A 
HETATM    3  N1  UNL     1      -1.648   3.260  -2.332  1.00  0.00    -0.212 NA
HETATM    4  S1  UNL     1      -3.120   2.177  -2.496  1.00  0.00     0.032 SA
HETATM    5  C3  UNL     1      -2.396   1.040  -1.247  1.00  0.00     0.123 A 
HETATM    6  C4  UNL     1      -1.141   1.492  -0.779  1.00  0.00     0.097 A 
HETATM    7  N2  UNL     1      -0.461   0.670   0.206  1.00  0.00    -0.318 N 
HETATM    8  C5  UNL     1      -0.786   0.712   1.655  1.00  0.00     0.279 C 
HETATM    9  N3  UNL     1      -1.689  -0.428   1.941  1.00  0.00    -0.278 NA
HETATM   10  C6  UNL     1      -2.470  -1.207   1.213  1.00  0.00     0.162 C 
HETATM   11  C7  UNL     1      -2.628  -1.106  -0.274  1.00  0.00     0.141 C 
HETATM   12  N4  UNL     1      -1.997  -1.818  -1.210  1.00  0.00    -0.262 NA
HETATM   13  C8  UNL     1      -1.027  -2.804  -0.714  1.00  0.00     0.220 C 
HETATM   14  S2  UNL     1       0.592  -1.951  -0.388  1.00  0.00    -0.153 SA
HETATM   15  C9  UNL     1       1.967  -2.958   0.266  1.00  0.00     0.087 C 
HETATM   16  C10 UNL     1       0.593  -0.342   0.020  1.00  0.00     0.078 C 
HETATM   17  N6  UNL     1      -3.383  -0.124  -1.042  1.00  0.00    -0.331 N 
HETATM   18  H14 UNL     1      -4.271   0.088  -1.478  1.00  0.00     0.168 HD
ENDROOT
BRANCH  16  19
HETATM   19  C11 UNL     1       1.926   0.254   0.251  1.00  0.00     0.027 C 
HETATM   20  C12 UNL     1       2.471   1.392   0.655  1.00  0.00     0.008 C 
HETATM   21  C13 UNL     1       3.267   1.212   1.699  1.00  0.00     0.129 C 
HETATM   22  N5  UNL     1       4.042   0.231   1.003  1.00  0.00    -0.271 NA
HETATM   23  C14 UNL     1       3.269  -0.362   0.126  1.00  0.00     0.131 C 
ENDBRANCH  16  19
TORSDOF 1
