REMARK  3 active torsions:
REMARK  status: ('A' for Active; 'I' for Inactive)
REMARK    1  A    between atoms: C3_3  and  C5_5 
REMARK    2  A    between atoms: C5_5  and  O1_7 
REMARK    3  A    between atoms: C5_5  and  C7_8 
ROOT
HETATM    1  C7  UNL     1       1.236   0.233   0.274  1.00  0.00    -0.004 C 
HETATM    2  C8  UNL     1       1.239   1.352   0.941  1.00  0.00    -0.054 C 
HETATM    3  C9  UNL     1       2.556   1.615   1.592  1.00  0.00     0.048 C 
HETATM    4  C10 UNL     1       0.440   2.462   1.442  1.00  0.00     0.003 C 
HETATM    5  C11 UNL     1      -0.805   2.943   1.502  1.00  0.00    -0.026 C 
HETATM    6  C12 UNL     1      -1.853   2.195   0.897  1.00  0.00     0.032 C 
HETATM    7  C13 UNL     1      -3.130   1.710   1.459  1.00  0.00    -0.006 C 
HETATM    8  C14 UNL     1      -2.971   1.009   2.776  1.00  0.00     0.011 C 
HETATM    9  C15 UNL     1      -3.553   0.674   0.363  1.00  0.00     0.031 A 
HETATM   10  C16 UNL     1      -2.720   0.709  -0.546  1.00  0.00    -0.062 A 
HETATM   11  C17 UNL     1      -1.777   0.647  -1.731  1.00  0.00     0.200 C 
HETATM   12  O2  UNL     1      -0.470   0.654  -1.389  1.00  0.00    -0.374 OA
HETATM   13  C18 UNL     1       0.147  -0.277  -0.688  1.00  0.00     0.178 C 
HETATM   14  C19 UNL     1      -0.528  -1.380  -0.032  1.00  0.00     0.019 C 
HETATM   15  C20 UNL     1      -1.691  -2.075  -0.192  1.00  0.00    -0.017 C 
HETATM   16  C21 UNL     1      -1.687  -3.508   0.235  1.00  0.00     0.052 C 
HETATM   17  C22 UNL     1      -3.015  -1.715  -0.721  1.00  0.00     0.162 C 
HETATM   18  O3  UNL     1      -3.672  -2.677  -1.197  1.00  0.00    -0.292 OA
HETATM   19  C23 UNL     1      -3.734  -0.384  -0.801  1.00  0.00     0.078 A 
HETATM   20  C24 UNL     1      -4.236  -0.280  -2.247  1.00  0.00     0.022 C 
ENDROOT
BRANCH   1  21
HETATM   21  C5  UNL     1       2.440  -0.640   0.239  1.00  0.00     0.104 C 
HETATM   22  C6  UNL     1       2.930  -0.967   1.605  1.00  0.00     0.056 C 
BRANCH  21  23
HETATM   23  C3  UNL     1       3.440  -0.367  -0.808  1.00  0.00    -0.050 C 
HETATM   24  C2  UNL     1       4.745  -0.553  -0.571  1.00  0.00    -0.025 C 
HETATM   25  C1  UNL     1       5.859  -0.358  -1.525  1.00  0.00     0.036 C 
HETATM   26  C4  UNL     1       3.137   0.088  -2.206  1.00  0.00     0.046 C 
ENDBRANCH  21  23
BRANCH  21  27
HETATM   27  O1  UNL     1       1.945  -1.952  -0.227  1.00  0.00    -0.381 OA
HETATM   28  H11 UNL     1       2.303  -2.069  -1.099  1.00  0.00     0.211 HD
ENDBRANCH  21  27
ENDBRANCH   1  21
TORSDOF 3
