REMARK  7 active torsions:
REMARK  status: ('A' for Active; 'I' for Inactive)
REMARK    1  A    between atoms: C2_2  and  C3_3 
REMARK    2  A    between atoms: C2_2  and  C12_15 
REMARK    3  A    between atoms: C4_4  and  C5_5 
REMARK    4  A    between atoms: C10_10  and  O1_11 
REMARK    5  A    between atoms: O1_11  and  C11_12 
REMARK    6  A    between atoms: C12_15  and  C13_16 
REMARK    7  A    between atoms: C15_18  and  O4_20 
ROOT
HETATM    1  C3  UNL     1      -0.251   0.077  -0.220  1.00  0.00    -0.019 C 
HETATM    2  C4  UNL     1      -1.025  -0.910   0.202  1.00  0.00     0.033 C 
ENDROOT
BRANCH   1   3
HETATM    3  C2  UNL     1       1.190  -0.134  -0.446  1.00  0.00     0.008 C 
HETATM    4  C1  UNL     1       1.475   0.090  -1.900  1.00  0.00     0.014 C 
BRANCH   3   5
HETATM    5  C12 UNL     1       1.985   0.793   0.447  1.00  0.00     0.042 C 
BRANCH   5   6
HETATM    6  C13 UNL     1       3.451   0.613   0.266  1.00  0.00    -0.077 A 
HETATM    7  C14 UNL     1       4.131  -0.175  -0.498  1.00  0.00     0.013 A 
HETATM    8  C15 UNL     1       5.414   0.325  -0.021  1.00  0.00     0.076 A 
HETATM    9  C16 UNL     1       6.203  -0.773   0.664  1.00  0.00     0.050 C 
HETATM   10  C17 UNL     1       4.641   1.224   0.851  1.00  0.00     0.075 A 
BRANCH   8  11
HETATM   11  O4  UNL     1       6.162   1.056  -0.951  1.00  0.00    -0.386 OA
HETATM   12  H20 UNL     1       5.583   1.334  -1.730  1.00  0.00     0.211 HD
ENDBRANCH   8  11
ENDBRANCH   5   6
ENDBRANCH   3   5
ENDBRANCH   1   3
BRANCH   2  13
HETATM   13  C5  UNL     1      -2.455  -0.757   0.442  1.00  0.00     0.074 C 
HETATM   14  C6  UNL     1      -3.146  -1.804   0.863  1.00  0.00     0.011 C 
HETATM   15  C7  UNL     1      -4.596  -1.914   1.179  1.00  0.00     0.034 C 
HETATM   16  C8  UNL     1      -5.374  -1.500  -0.050  1.00  0.00     0.036 C 
HETATM   17  C9  UNL     1      -5.339  -0.026  -0.281  1.00  0.00     0.038 C 
HETATM   18  C10 UNL     1      -4.321   0.843  -0.172  1.00  0.00     0.189 C 
HETATM   19  O3  UNL     1      -3.006   0.509   0.205  1.00  0.00    -0.288 OA
BRANCH  18  20
HETATM   20  O1  UNL     1      -4.610   2.176  -0.460  1.00  0.00    -0.262 OA
BRANCH  20  21
HETATM   21  C11 UNL     1      -5.538   2.941   0.205  1.00  0.00     0.405 C 
HETATM   22  O2  UNL     1      -6.139   2.332   1.136  1.00  0.00    -0.276 OA
ENDBRANCH  20  21
ENDBRANCH  18  20
ENDBRANCH   2  13
TORSDOF 7
