REMARK  10 active torsions:
REMARK  status: ('A' for Active; 'I' for Inactive)
REMARK    1  A    between atoms: C3_3  and  C5_5 
REMARK    2  A    between atoms: C5_5  and  O1_7 
REMARK    3  A    between atoms: C5_5  and  C7_8 
REMARK    4  A    between atoms: C8_9  and  C10_11 
REMARK    5  A    between atoms: C10_11  and  C11_12 
REMARK    6  A    between atoms: C11_12  and  C12_13 
REMARK    7  A    between atoms: C12_13  and  C13_14 
REMARK    8  A    between atoms: C13_14  and  C15_16 
REMARK    9  A    between atoms: C15_16  and  C16_17 
REMARK   10  A    between atoms: C21_23  and  O3_24 
ROOT
HETATM    1  C12 UNL     1       1.301   0.543  -1.502  1.00  0.00     0.031 C 
ENDROOT
BRANCH   1   2
HETATM    2  C11 UNL     1      -0.144   0.876  -1.475  1.00  0.00    -0.026 C 
BRANCH   2   3
HETATM    3  C10 UNL     1      -1.412   0.829  -1.204  1.00  0.00     0.002 C 
BRANCH   3   4
HETATM    4  C8  UNL     1      -2.675   1.508  -1.463  1.00  0.00    -0.063 C 
HETATM    5  C7  UNL     1      -3.600   0.851  -0.808  1.00  0.00     0.021 C 
HETATM    6  C9  UNL     1      -2.488   2.675  -2.352  1.00  0.00     0.048 C 
BRANCH   5   7
HETATM    7  C5  UNL     1      -3.649  -0.342   0.075  1.00  0.00     0.095 C 
HETATM    8  C6  UNL     1      -2.956  -0.015   1.376  1.00  0.00     0.055 C 
BRANCH   7   9
HETATM    9  C3  UNL     1      -5.090  -0.642   0.274  1.00  0.00    -0.051 C 
HETATM   10  C2  UNL     1      -6.187  -0.091  -0.201  1.00  0.00    -0.025 C 
HETATM   11  C1  UNL     1      -7.455  -0.722   0.265  1.00  0.00     0.036 C 
HETATM   12  C4  UNL     1      -5.314  -1.776   1.173  1.00  0.00     0.046 C 
ENDBRANCH   7   9
BRANCH   7  13
HETATM   13  O1  UNL     1      -3.008  -1.379  -0.615  1.00  0.00    -0.382 OA
HETATM   14  H11 UNL     1      -3.327  -2.270  -0.285  1.00  0.00     0.211 HD
ENDBRANCH   7  13
ENDBRANCH   5   7
ENDBRANCH   3   4
ENDBRANCH   2   3
ENDBRANCH   1   2
BRANCH   1  15
HETATM   15  C13 UNL     1       2.123   1.695  -0.954  1.00  0.00    -0.009 C 
HETATM   16  C14 UNL     1       1.772   2.026   0.455  1.00  0.00     0.010 C 
BRANCH  15  17
HETATM   17  C15 UNL     1       3.565   1.463  -1.232  1.00  0.00     0.070 C 
BRANCH  17  18
HETATM   18  C16 UNL     1       4.135   0.236  -0.644  1.00  0.00     0.060 A 
HETATM   19  C17 UNL     1       4.076  -0.912  -1.438  1.00  0.00     0.088 A 
HETATM   20  C18 UNL     1       4.621  -2.054  -0.859  1.00  0.00     0.184 A 
HETATM   21  O2  UNL     1       4.588  -3.099  -1.533  1.00  0.00    -0.288 OA
HETATM   22  C19 UNL     1       5.175  -2.009   0.423  1.00  0.00     0.046 A 
HETATM   23  C20 UNL     1       5.715  -3.298   0.909  1.00  0.00     0.058 C 
HETATM   24  C21 UNL     1       5.179  -0.818   1.117  1.00  0.00     0.195 A 
HETATM   25  O4  UNL     1       4.661   0.282   0.576  1.00  0.00    -0.292 OA
BRANCH  24  26
HETATM   26  O3  UNL     1       5.748  -0.853   2.388  1.00  0.00    -0.335 OA
HETATM   27  C22 UNL     1       5.764   0.373   3.127  1.00  0.00     0.212 C 
ENDBRANCH  24  26
ENDBRANCH  17  18
ENDBRANCH  15  17
ENDBRANCH   1  15
TORSDOF 10
