REMARK  7 active torsions:
REMARK  status: ('A' for Active; 'I' for Inactive)
REMARK       I    between atoms: N1_2  and  C2_3 
REMARK    1  A    between atoms: C2_3  and  C3_5 
REMARK    2  A    between atoms: C5_8  and  C6_9 
REMARK    3  A    between atoms: C6_9  and  C7_10 
REMARK    4  A    between atoms: C7_10  and  C8_11 
REMARK    5  A    between atoms: C9_12  and  C10_13 
REMARK    6  A    between atoms: C10_13  and  C11_14 
REMARK    7  A    between atoms: C11_14  and  C12_16 
ROOT
HETATM    1  C7  UNL     1       0.488  -0.810  -1.425  1.00  0.00     0.031 C 
ENDROOT
BRANCH   1   2
HETATM    2  C6  UNL     1       1.383   0.353  -1.138  1.00  0.00     0.040 C 
BRANCH   2   3
HETATM    3  C5  UNL     1       2.393   0.168  -0.106  1.00  0.00    -0.058 A 
HETATM    4  C4  UNL     1       2.489  -0.119   1.341  1.00  0.00     0.184 A 
HETATM    5  N2  UNL     1       3.908  -0.097   1.601  1.00  0.00    -0.280 NA
HETATM    6  C3  UNL     1       4.628   0.138   0.598  1.00  0.00     0.119 A 
HETATM    7  C18 UNL     1       3.681   0.308  -0.490  1.00  0.00     0.041 A 
BRANCH   6   8
HETATM    8  C2  UNL     1       6.080   0.204   0.643  1.00  0.00     0.269 C 
HETATM    9  N1  UNL     1       6.748  -0.005   1.877  1.00  0.00    -0.360 N 
HETATM   10  C1  UNL     1       8.183   0.049   1.978  1.00  0.00     0.149 C 
HETATM   11  H4  UNL     1       6.194  -0.206   2.737  1.00  0.00     0.162 HD
HETATM   12  O1  UNL     1       6.732   0.444  -0.398  1.00  0.00    -0.266 OA
ENDBRANCH   6   8
ENDBRANCH   2   3
ENDBRANCH   1   2
BRANCH   1  13
HETATM   13  C8  UNL     1      -0.313  -1.174  -0.242  1.00  0.00    -0.030 C 
HETATM   14  C9  UNL     1      -1.673  -1.134  -0.261  1.00  0.00    -0.023 C 
BRANCH  14  15
HETATM   15  C10 UNL     1      -2.709  -0.768  -1.304  1.00  0.00     0.110 C 
BRANCH  15  16
HETATM   16  C11 UNL     1      -3.472   0.385  -0.732  1.00  0.00     0.163 C 
HETATM   17  O2  UNL     1      -2.628   1.273  -0.471  1.00  0.00    -0.292 OA
BRANCH  16  18
HETATM   18  C12 UNL     1      -4.908   0.415  -0.538  1.00  0.00     0.010 A 
HETATM   19  C13 UNL     1      -5.816  -0.571  -0.804  1.00  0.00     0.015 A 
HETATM   20  C14 UNL     1      -7.169  -0.396  -0.561  1.00  0.00     0.001 A 
HETATM   21  C15 UNL     1      -7.647   0.792  -0.036  1.00  0.00     0.000 A 
HETATM   22  C16 UNL     1      -6.738   1.773   0.227  1.00  0.00     0.001 A 
HETATM   23  C17 UNL     1      -5.399   1.602  -0.013  1.00  0.00     0.015 A 
ENDBRANCH  16  18
ENDBRANCH  15  16
ENDBRANCH  14  15
ENDBRANCH   1  13
TORSDOF 7
