REMARK  4 active torsions:
REMARK  status: ('A' for Active; 'I' for Inactive)
REMARK    1  A    between atoms: C5_6  and  C6_7 
REMARK    2  A    between atoms: C6_7  and  C7_9 
REMARK    3  A    between atoms: C17_21  and  C18_22 
REMARK       I    between atoms: C18_22  and  N4_24 
REMARK    4  A    between atoms: N4_24  and  C19_25 
ROOT
HETATM    1  C1  UNL     1      -0.618  -3.070  -0.484  1.00  0.00     0.021 C 
HETATM    2  C2  UNL     1      -0.151  -2.009   0.215  1.00  0.00    -0.039 C 
HETATM    3  C3  UNL     1       0.898  -2.368   1.198  1.00  0.00     0.160 C 
HETATM    4  N1  UNL     1       2.148  -1.803   0.906  1.00  0.00    -0.370 N 
HETATM    5  C4  UNL     1       3.323  -1.102   0.648  1.00  0.00     0.128 C 
HETATM    6  C5  UNL     1       4.200  -1.308  -0.293  1.00  0.00     0.105 C 
HETATM    7  N2  UNL     1       2.942  -0.279   1.756  1.00  0.00    -0.225 NA
HETATM    8  C12 UNL     1       2.327   0.847   1.437  1.00  0.00     0.234 C 
HETATM    9  N3  UNL     1       2.097   1.147   0.070  1.00  0.00    -0.253 NA
HETATM   10  C13 UNL     1       0.955   0.940  -0.426  1.00  0.00     0.130 C 
HETATM   11  C14 UNL     1      -0.425   0.514  -0.368  1.00  0.00    -0.008 A 
HETATM   12  C15 UNL     1      -1.287   1.552  -0.608  1.00  0.00     0.015 A 
HETATM   13  C16 UNL     1      -2.650   1.370  -0.588  1.00  0.00     0.018 A 
HETATM   14  C17 UNL     1      -3.124   0.112  -0.320  1.00  0.00     0.032 A 
HETATM   15  C22 UNL     1      -2.222  -0.909  -0.083  1.00  0.00     0.030 A 
HETATM   16  C23 UNL     1      -0.823  -0.764  -0.093  1.00  0.00    -0.016 A 
HETATM   17  H5  UNL     1       2.662  -2.700   0.705  1.00  0.00     0.161 HD
ENDROOT
BRANCH   6  18
HETATM   18  C6  UNL     1       5.340  -0.477  -0.375  1.00  0.00     0.186 C 
HETATM   19  O1  UNL     1       4.802   0.015   0.644  1.00  0.00    -0.287 OA
BRANCH  18  20
HETATM   20  C7  UNL     1       6.489   0.348  -0.473  1.00  0.00     0.025 A 
HETATM   21  C8  UNL     1       7.101  -0.136  -1.548  1.00  0.00    -0.011 A 
HETATM   22  C9  UNL     1       8.205   0.480  -1.871  1.00  0.00     0.013 A 
HETATM   23  C10 UNL     1       8.279   1.477  -0.816  1.00  0.00     0.002 A 
HETATM   24  C11 UNL     1       7.293   1.446   0.038  1.00  0.00     0.016 A 
ENDBRANCH  18  20
ENDBRANCH   6  18
BRANCH  14  25
HETATM   25  C18 UNL     1      -4.550  -0.171  -0.273  1.00  0.00     0.252 C 
HETATM   26  O2  UNL     1      -5.100  -1.302  -0.046  1.00  0.00    -0.268 OA
HETATM   27  N4  UNL     1      -5.543   0.820  -0.484  1.00  0.00    -0.352 N 
HETATM   28  H14 UNL     1      -5.297   1.807  -0.685  1.00  0.00     0.163 HD
BRANCH  27  29
HETATM   29  C19 UNL     1      -6.983   0.554  -0.440  1.00  0.00     0.084 A 
HETATM   30  C20 UNL     1      -7.934   1.444  -1.117  1.00  0.00     0.027 A 
HETATM   31  C21 UNL     1      -7.760   1.620   0.357  1.00  0.00     0.027 A 
ENDBRANCH  27  29
ENDBRANCH  14  25
TORSDOF 4
