REMARK  3 active torsions:
REMARK  status: ('A' for Active; 'I' for Inactive)
REMARK    1  A    between atoms: C5_5  and  C6_6 
REMARK    2  A    between atoms: C10_11  and  N2_12 
REMARK       I    between atoms: N2_12  and  C11_13 
REMARK    3  A    between atoms: C11_13  and  C12_15 
ROOT
HETATM    1  C6  UNL     1      -0.717   0.558  -0.351  1.00  0.00     0.135 C 
HETATM    2  N1  UNL     1      -0.584   1.874  -0.318  1.00  0.00    -0.233 NA
HETATM    3  C7  UNL     1       0.776   2.224  -0.583  1.00  0.00     0.065 A 
HETATM    4  C8  UNL     1       1.824   2.917  -0.998  1.00  0.00     0.032 A 
HETATM    5  C9  UNL     1       3.043   2.169  -0.712  1.00  0.00     0.029 A 
HETATM    6  C10 UNL     1       2.785   1.025  -0.124  1.00  0.00     0.041 A 
HETATM    7  C13 UNL     1       1.327   1.011   0.073  1.00  0.00     0.185 A 
HETATM    8  N3  UNL     1       0.594  -0.018  -0.624  1.00  0.00    -0.358 N 
HETATM    9  H12 UNL     1       0.588  -0.902  -1.179  1.00  0.00     0.162 HD
ENDROOT
BRANCH   1  10
HETATM   10  C5  UNL     1      -2.056  -0.063  -0.109  1.00  0.00     0.009 A 
HETATM   11  C4  UNL     1      -2.238  -1.290   0.493  1.00  0.00     0.016 A 
HETATM   12  C3  UNL     1      -3.502  -1.808   0.681  1.00  0.00     0.007 A 
HETATM   13  C2  UNL     1      -4.618  -1.108   0.270  1.00  0.00    -0.062 A 
HETATM   14  C1  UNL     1      -5.977  -1.686   0.483  1.00  0.00     0.048 C 
HETATM   15  C15 UNL     1      -4.443   0.120  -0.333  1.00  0.00     0.007 A 
HETATM   16  C14 UNL     1      -3.175   0.631  -0.518  1.00  0.00     0.016 A 
ENDBRANCH   1  10
BRANCH   6  17
HETATM   17  N2  UNL     1       3.663   0.004   0.315  1.00  0.00    -0.327 N 
HETATM   18  C11 UNL     1       5.073   0.026   0.196  1.00  0.00     0.235 C 
HETATM   19  O1  UNL     1       5.641   1.012  -0.338  1.00  0.00    -0.272 OA
HETATM   20  H8  UNL     1       3.312  -0.864   0.773  1.00  0.00     0.168 HD
BRANCH  18  21
HETATM   21  C12 UNL     1       5.958  -1.069   0.672  1.00  0.00     0.217 C 
HETATM   22 CL1  UNL     1       5.018  -2.391   1.401  1.00  0.00    -0.121 Cl
ENDBRANCH  18  21
ENDBRANCH   6  17
TORSDOF 3
