REMARK  8 active torsions:
REMARK  status: ('A' for Active; 'I' for Inactive)
REMARK    1  A    between atoms: O1_1  and  C1_2 
REMARK    2  A    between atoms: C5_8  and  C6_9 
REMARK    3  A    between atoms: C6_9  and  N3_10 
REMARK    4  A    between atoms: N3_10  and  C7_11 
REMARK    5  A    between atoms: C15_20  and  O2_21 
REMARK    6  A    between atoms: O2_21  and  C16_22 
REMARK    7  A    between atoms: C16_22  and  C17_23 
REMARK    8  A    between atoms: C17_23  and  C18_24 
ROOT
HETATM    1  C1  UNL     1      -1.548   2.329  -0.164  1.00  0.00     0.100 C 
HETATM    2  C2  UNL     1      -1.522   2.543  -1.527  1.00  0.00     0.058 C 
HETATM    3  C3  UNL     1      -1.397   1.461  -2.348  1.00  0.00     0.121 C 
HETATM    4  N1  UNL     1      -1.858   0.258  -2.002  1.00  0.00    -0.254 NA
HETATM    5  C4  UNL     1      -1.214  -0.877  -2.384  1.00  0.00     0.232 C 
HETATM    6  N2  UNL     1      -0.227  -1.382  -1.591  1.00  0.00    -0.245 NA
HETATM    7  C5  UNL     1       0.505  -0.462  -0.911  1.00  0.00     0.053 C 
HETATM    8  C13 UNL     1      -0.005  -0.390   0.348  1.00  0.00     0.032 C 
HETATM    9  C14 UNL     1      -1.054   0.147   1.007  1.00  0.00     0.041 C 
HETATM   10  C15 UNL     1      -1.832   1.176   0.537  1.00  0.00     0.101 C 
ENDROOT
BRANCH   7  11
HETATM   11  C6  UNL     1       1.576   0.151  -1.711  1.00  0.00     0.179 C 
BRANCH  11  12
HETATM   12  N3  UNL     1       2.837  -0.555  -1.648  1.00  0.00    -0.384 N 
HETATM   13  H7  UNL     1       3.116  -1.017  -2.563  1.00  0.00     0.160 HD
BRANCH  12  14
HETATM   14  C7  UNL     1       3.741  -0.723  -0.572  1.00  0.00     0.029 A 
HETATM   15  C8  UNL     1       4.905  -1.484  -0.721  1.00  0.00     0.029 A 
HETATM   16  C9  UNL     1       5.775  -1.622   0.335  1.00  0.00     0.004 A 
HETATM   17  C10 UNL     1       5.554  -1.035   1.559  1.00  0.00     0.024 A 
HETATM   18  C11 UNL     1       4.422  -0.280   1.743  1.00  0.00     0.036 A 
HETATM   19 CL1  UNL     1       4.113   0.481   3.290  1.00  0.00    -0.084 Cl
HETATM   20  C12 UNL     1       3.566  -0.157   0.671  1.00  0.00     0.052 A 
ENDBRANCH  12  14
ENDBRANCH  11  12
ENDBRANCH   7  11
BRANCH  10  21
HETATM   21  O2  UNL     1      -3.201   1.180   0.744  1.00  0.00    -0.348 OA
BRANCH  21  22
HETATM   22  C16 UNL     1      -3.928   0.199   1.412  1.00  0.00     0.178 C 
BRANCH  22  23
HETATM   23  C17 UNL     1      -3.821  -1.155   0.776  1.00  0.00     0.058 C 
BRANCH  23  24
HETATM   24  C18 UNL     1      -4.680  -2.079   1.650  1.00  0.00     0.224 C 
HETATM   25  F1  UNL     1      -4.179  -2.078   2.935  1.00  0.00    -0.255 F 
ENDBRANCH  23  24
ENDBRANCH  22  23
ENDBRANCH  21  22
ENDBRANCH  10  21
BRANCH   1  26
HETATM   26  O1  UNL     1      -1.285   3.258   0.836  1.00  0.00    -0.358 OA
HETATM   27  H1  UNL     1      -1.900   4.060   0.856  1.00  0.00     0.217 HD
ENDBRANCH   1  26
TORSDOF 8
