REMARK  9 active torsions:
REMARK  status: ('A' for Active; 'I' for Inactive)
REMARK    1  A    between atoms: O1_1  and  C1_2 
REMARK    2  A    between atoms: C2_4  and  C3_5 
REMARK    3  A    between atoms: C3_5  and  N1_6 
REMARK    4  A    between atoms: N1_6  and  C4_7 
REMARK    5  A    between atoms: C9_14  and  O2_15 
REMARK    6  A    between atoms: O2_15  and  C10_16 
REMARK    7  A    between atoms: C10_16  and  C11_17 
REMARK    8  A    between atoms: C11_17  and  C12_18 
REMARK    9  A    between atoms: C12_18  and  N4_19 
ROOT
HETATM    1  C4  UNL     1       4.196   0.053  -0.250  1.00  0.00     0.137 A 
HETATM    2  N2  UNL     1       5.531   0.029  -0.324  1.00  0.00    -0.224 NA
HETATM    3  C5  UNL     1       6.278  -1.067  -0.161  1.00  0.00     0.235 A 
HETATM    4  N3  UNL     1       5.701  -2.247   0.096  1.00  0.00    -0.241 NA
HETATM    5  C6  UNL     1       4.371  -2.343   0.192  1.00  0.00     0.074 A 
HETATM    6  C7  UNL     1       3.659  -1.167   0.012  1.00  0.00     0.041 A 
HETATM    7  C8  UNL     1       2.225  -0.934   0.049  1.00  0.00     0.052 C 
HETATM    8  C9  UNL     1       1.105  -1.466   0.549  1.00  0.00     0.071 C 
HETATM    9  C17 UNL     1       0.934  -2.684   1.373  1.00  0.00     0.239 C 
HETATM   10  O4  UNL     1       1.607  -3.813   0.870  1.00  0.00    -0.357 OA
HETATM   11  C18 UNL     1       2.879  -4.329   0.759  1.00  0.00     0.137 C 
HETATM   12  C19 UNL     1       4.038  -3.753   0.481  1.00  0.00     0.057 C 
ENDROOT
BRANCH   8  13
HETATM   13  O2  UNL     1      -0.089  -0.870   0.318  1.00  0.00    -0.353 OA
BRANCH  13  14
HETATM   14  C10 UNL     1      -1.275  -1.377  -0.176  1.00  0.00     0.177 C 
BRANCH  14  15
HETATM   15  C11 UNL     1      -2.442  -0.396  -0.014  1.00  0.00     0.046 C 
BRANCH  15  16
HETATM   16  C12 UNL     1      -3.659  -1.084  -0.591  1.00  0.00     0.119 C 
BRANCH  16  17
HETATM   17  N4  UNL     1      -4.862  -0.330  -0.528  1.00  0.00    -0.408 N 
HETATM   18  C13 UNL     1      -4.937   0.834  -1.345  1.00  0.00     0.143 C 
HETATM   19  C14 UNL     1      -6.400   1.295  -1.321  1.00  0.00     0.187 C 
HETATM   20  O3  UNL     1      -6.863   1.520  -0.045  1.00  0.00    -0.388 OA
HETATM   21  C15 UNL     1      -5.938   1.237   0.940  1.00  0.00     0.187 C 
HETATM   22  C16 UNL     1      -5.384  -0.171   0.811  1.00  0.00     0.143 C 
ENDBRANCH  16  17
ENDBRANCH  15  16
ENDBRANCH  14  15
ENDBRANCH  13  14
ENDBRANCH   8  13
BRANCH   1  23
HETATM   23  N1  UNL     1       3.482   1.261  -0.426  1.00  0.00    -0.370 N 
HETATM   24  H5  UNL     1       2.530   1.642  -0.421  1.00  0.00     0.161 HD
BRANCH  23  25
HETATM   25  C3  UNL     1       4.297   2.423  -0.700  1.00  0.00     0.152 C 
BRANCH  25  26
HETATM   26  C2  UNL     1       3.556   3.668  -0.941  1.00  0.00     0.042 C 
HETATM   27  C1  UNL     1       3.680   4.754  -0.211  1.00  0.00     0.134 C 
HETATM   28 CL1  UNL     1       4.791   4.737   1.137  1.00  0.00    -0.057 Cl
BRANCH  27  29
HETATM   29  O1  UNL     1       3.123   6.025  -0.213  1.00  0.00    -0.351 OA
HETATM   30  H1  UNL     1       2.475   6.279   0.527  1.00  0.00     0.218 HD
ENDBRANCH  27  29
ENDBRANCH  25  26
ENDBRANCH  23  25
ENDBRANCH   1  23
TORSDOF 9
