REMARK  8 active torsions:
REMARK  status: ('A' for Active; 'I' for Inactive)
REMARK    1  A    between atoms: O1_2  and  C2_3 
REMARK    2  A    between atoms: C6_9  and  N3_10 
REMARK    3  A    between atoms: N3_10  and  C7_11 
REMARK    4  A    between atoms: C15_21  and  O2_22 
REMARK    5  A    between atoms: O2_22  and  C16_23 
REMARK    6  A    between atoms: C16_23  and  C17_24 
REMARK    7  A    between atoms: C17_24  and  C18_25 
REMARK    8  A    between atoms: C18_25  and  N4_26 
ROOT
HETATM    1  C2  UNL     1      -0.170   1.101  -2.798  1.00  0.00     0.103 A 
HETATM    2  C3  UNL     1      -0.610   0.063  -3.589  1.00  0.00     0.072 A 
HETATM    3  C4  UNL     1      -1.227  -1.034  -2.982  1.00  0.00     0.075 A 
HETATM    4  N1  UNL     1      -1.692  -2.097  -3.642  1.00  0.00    -0.241 NA
HETATM    5  C5  UNL     1      -2.272  -3.099  -2.935  1.00  0.00     0.236 A 
HETATM    6  N2  UNL     1      -2.414  -3.098  -1.593  1.00  0.00    -0.224 NA
HETATM    7  C6  UNL     1      -1.951  -2.035  -0.903  1.00  0.00     0.142 A 
HETATM    8  C13 UNL     1      -1.363  -1.016  -1.612  1.00  0.00     0.042 A 
HETATM    9  C14 UNL     1      -0.913   0.038  -0.846  1.00  0.00     0.057 A 
HETATM   10  C15 UNL     1      -0.297   1.140  -1.413  1.00  0.00     0.103 A 
ENDROOT
BRANCH   7  11
HETATM   11  N3  UNL     1      -2.139  -2.112   0.496  1.00  0.00    -0.340 N 
HETATM   12  H6  UNL     1      -1.438  -2.535   1.111  1.00  0.00     0.167 HD
BRANCH  11  13
HETATM   13  C7  UNL     1      -3.334  -1.587   1.061  1.00  0.00     0.035 A 
HETATM   14  C8  UNL     1      -4.322  -0.993   0.306  1.00  0.00     0.032 A 
HETATM   15  C9  UNL     1      -5.497  -0.471   0.802  1.00  0.00     0.046 A 
HETATM   16  C10 UNL     1      -5.712  -0.542   2.162  1.00  0.00     0.138 A 
HETATM   17  F1  UNL     1      -6.856  -0.040   2.695  1.00  0.00    -0.204 F 
HETATM   18  C11 UNL     1      -4.737  -1.136   2.969  1.00  0.00     0.074 A 
HETATM   19 CL1  UNL     1      -4.962  -1.251   4.695  1.00  0.00    -0.081 Cl
HETATM   20  C12 UNL     1      -3.569  -1.650   2.426  1.00  0.00     0.056 A 
ENDBRANCH  11  13
ENDBRANCH   7  11
BRANCH  10  21
HETATM   21  O2  UNL     1       0.215   2.268  -0.869  1.00  0.00    -0.348 OA
BRANCH  21  22
HETATM   22  C16 UNL     1       0.300   2.688   0.443  1.00  0.00     0.177 C 
BRANCH  22  23
HETATM   23  C17 UNL     1       1.091   1.836   1.377  1.00  0.00     0.057 C 
BRANCH  23  24
HETATM   24  C18 UNL     1       2.544   1.702   0.933  1.00  0.00     0.274 C 
BRANCH  24  25
HETATM   25  N4  UNL     1       3.294   0.861   1.862  1.00  0.00     0.092 N 
HETATM   26  C19 UNL     1       2.832  -0.478   1.768  1.00  0.00     0.298 C 
HETATM   27  C20 UNL     1       3.842  -1.534   1.506  1.00  0.00     0.198 C 
HETATM   28  O3  UNL     1       5.159  -1.170   1.595  1.00  0.00    -0.388 OA
HETATM   29  C21 UNL     1       5.386   0.002   0.865  1.00  0.00     0.198 C 
HETATM   30  C22 UNL     1       4.675   1.095   1.610  1.00  0.00     0.298 C 
ENDBRANCH  24  25
ENDBRANCH  23  24
ENDBRANCH  22  23
ENDBRANCH  21  22
ENDBRANCH  10  21
BRANCH   1  31
HETATM   31  O1  UNL     1       0.418   2.112  -3.542  1.00  0.00    -0.353 OA
HETATM   32  C1  UNL     1       0.553   2.086  -4.928  1.00  0.00     0.210 C 
ENDBRANCH   1  31
TORSDOF 8
