REMARK  6 active torsions:
REMARK  status: ('A' for Active; 'I' for Inactive)
REMARK    1  A    between atoms: C4_6  and  C5_7 
REMARK    2  A    between atoms: C5_7  and  C6_8 
REMARK    3  A    between atoms: C6_8  and  O2_9 
REMARK    4  A    between atoms: O2_9  and  C7_10 
REMARK    5  A    between atoms: C10_13  and  N2_14 
REMARK    6  A    between atoms: N2_14  and  C11_15 
ROOT
HETATM    1  C7  UNL     1       0.080  -0.316   0.062  1.00  0.00     0.081 C 
HETATM    2  C8  UNL     1       0.871  -1.233   0.648  1.00  0.00     0.041 C 
HETATM    3  C9  UNL     1       2.243  -1.629   0.353  1.00  0.00     0.053 C 
HETATM    4  C10 UNL     1       3.111  -0.959  -0.392  1.00  0.00     0.127 C 
HETATM    5  N3  UNL     1       2.952   0.275  -1.081  1.00  0.00    -0.242 NA
HETATM    6  C17 UNL     1       1.863   0.931  -1.389  1.00  0.00     0.133 C 
HETATM    7  C18 UNL     1       0.502   0.510  -1.072  1.00  0.00     0.022 C 
HETATM    8  C19 UNL     1      -0.412   0.946  -1.930  1.00  0.00     0.071 C 
HETATM    9 BR1  UNL     1      -0.348   2.010  -3.500  1.00  0.00    -0.063 Br
ENDROOT
BRANCH   4  10
HETATM   10  N2  UNL     1       4.307  -1.711  -0.403  1.00  0.00    -0.341 N 
HETATM   11  H15 UNL     1       4.451  -2.616  -0.876  1.00  0.00     0.167 HD
BRANCH  10  12
HETATM   12  C11 UNL     1       5.085  -0.828   0.380  1.00  0.00     0.035 A 
HETATM   13  C12 UNL     1       5.110  -0.841   1.773  1.00  0.00     0.032 A 
HETATM   14  C13 UNL     1       5.897   0.047   2.500  1.00  0.00     0.046 A 
HETATM   15  C14 UNL     1       6.668   0.956   1.808  1.00  0.00     0.138 A 
HETATM   16  F1  UNL     1       7.421   1.808   2.546  1.00  0.00    -0.204 F 
HETATM   17  C15 UNL     1       6.670   0.999   0.427  1.00  0.00     0.074 A 
HETATM   18 CL1  UNL     1       7.669   2.171  -0.418  1.00  0.00    -0.081 Cl
HETATM   19  C16 UNL     1       5.876   0.103  -0.279  1.00  0.00     0.056 A 
ENDBRANCH  10  12
ENDBRANCH   4  10
BRANCH   1  20
HETATM   20  O2  UNL     1      -1.237  -0.048   0.468  1.00  0.00    -0.350 OA
BRANCH  20  21
HETATM   21  C6  UNL     1      -2.190  -1.073   0.146  1.00  0.00     0.177 C 
BRANCH  21  22
HETATM   22  C5  UNL     1      -3.520  -0.673   0.700  1.00  0.00     0.049 C 
BRANCH  22  23
HETATM   23  C4  UNL     1      -4.007   0.606   0.148  1.00  0.00     0.089 C 
HETATM   24  N1  UNL     1      -4.212   0.714  -1.244  1.00  0.00    -0.197 NA
HETATM   25  C1  UNL     1      -4.596  -0.453  -1.957  1.00  0.00     0.144 C 
HETATM   26  O1  UNL     1      -5.059   1.754  -1.428  1.00  0.00    -0.303 OA
HETATM   27  C2  UNL     1      -5.954   1.771  -0.366  1.00  0.00     0.195 C 
HETATM   28  C3  UNL     1      -5.429   0.830   0.677  1.00  0.00     0.050 C 
ENDBRANCH  22  23
ENDBRANCH  21  22
ENDBRANCH  20  21
ENDBRANCH   1  20
TORSDOF 6
