REMARK  4 active torsions:
REMARK  status: ('A' for Active; 'I' for Inactive)
REMARK    1  A    between atoms: C4_5  and  N1_6 
REMARK    2  A    between atoms: N1_6  and  C5_7 
REMARK    3  A    between atoms: C5_7  and  O1_8 
REMARK    4  A    between atoms: O1_8  and  C6_9 
ROOT
HETATM    1  C5  UNL     1      -0.804  -0.049  -0.988  1.00  0.00     0.171 C 
HETATM    2  C7  UNL     1      -0.842  -1.548  -1.003  1.00  0.00     0.094 C 
HETATM    3  C8  UNL     1      -1.011  -2.067   0.381  1.00  0.00    -0.019 C 
HETATM    4  C9  UNL     1      -1.743  -1.391   1.288  1.00  0.00     0.028 C 
HETATM    5  C10 UNL     1      -2.311  -0.117   0.778  1.00  0.00     0.070 A 
HETATM    6  N2  UNL     1      -3.318   0.205   1.663  1.00  0.00    -0.241 NA
HETATM    7  C11 UNL     1      -4.227   1.143   1.234  1.00  0.00     0.233 A 
HETATM    8  N3  UNL     1      -4.075   1.671   0.006  1.00  0.00    -0.253 NA
HETATM    9  C12 UNL     1      -3.080   1.338  -0.828  1.00  0.00     0.132 A 
HETATM   10  C13 UNL     1      -2.122   0.415  -0.481  1.00  0.00     0.043 A 
ENDROOT
BRANCH   1  11
HETATM   11  N1  UNL     1       0.231   0.222   0.080  1.00  0.00    -0.354 N 
HETATM   12  H3  UNL     1      -0.195   0.750   0.894  1.00  0.00     0.163 HD
BRANCH  11  13
HETATM   13  C4  UNL     1       1.605  -0.073   0.210  1.00  0.00     0.032 A 
HETATM   14  C3  UNL     1       2.261   0.281   1.379  1.00  0.00     0.032 A 
HETATM   15  C2  UNL     1       3.598   0.012   1.522  1.00  0.00     0.046 A 
HETATM   16  C1  UNL     1       4.312  -0.607   0.525  1.00  0.00     0.138 A 
HETATM   17  F1  UNL     1       5.626  -0.836   0.749  1.00  0.00    -0.204 F 
HETATM   18  C15 UNL     1       3.724  -0.984  -0.657  1.00  0.00     0.074 A 
HETATM   19  C14 UNL     1       2.382  -0.694  -0.759  1.00  0.00     0.056 A 
HETATM   20 CL2  UNL     1       4.619  -1.772  -1.934  1.00  0.00    -0.081 Cl
ENDBRANCH  11  13
ENDBRANCH   1  11
BRANCH   1  21
HETATM   21  O1  UNL     1      -0.401   0.518  -2.134  1.00  0.00    -0.342 OA
BRANCH  21  22
HETATM   22  C6  UNL     1      -0.155   1.829  -2.198  1.00  0.00     0.285 C 
HETATM   23 CL1  UNL     1       1.101   2.464  -1.094  1.00  0.00    -0.102 Cl
ENDBRANCH  21  22
ENDBRANCH   1  21
TORSDOF 4
