REMARK  4 active torsions:
REMARK  status: ('A' for Active; 'I' for Inactive)
REMARK    1  A    between atoms: C1_2  and  C2_3 
REMARK       I    between atoms: C1_2  and  N1_12 
REMARK    2  A    between atoms: C3_4  and  C4_5 
REMARK    3  A    between atoms: N1_12  and  C10_13 
REMARK    4  A    between atoms: C15_20  and  N4_21 
ROOT
HETATM    1  C10 UNL     1      -0.454   1.447   1.258  1.00  0.00     0.036 A 
HETATM    2  C11 UNL     1      -0.523   2.724   1.822  1.00  0.00     0.032 A 
HETATM    3  C12 UNL     1      -1.719   3.449   1.823  1.00  0.00     0.035 A 
HETATM    4  C13 UNL     1      -2.878   2.941   1.272  1.00  0.00     0.072 A 
HETATM    5  N2  UNL     1      -4.054   3.553   1.219  1.00  0.00    -0.241 NA
HETATM    6  C14 UNL     1      -5.141   2.968   0.645  1.00  0.00     0.236 A 
HETATM    7  N3  UNL     1      -5.015   1.717   0.110  1.00  0.00    -0.223 NA
HETATM    8  C15 UNL     1      -3.823   1.049   0.142  1.00  0.00     0.144 A 
HETATM    9  C21 UNL     1      -2.752   1.679   0.732  1.00  0.00     0.041 A 
HETATM   10  C22 UNL     1      -1.612   0.942   0.709  1.00  0.00     0.047 A 
ENDROOT
BRANCH   1  11
HETATM   11  N1  UNL     1       0.765   0.737   1.270  1.00  0.00    -0.324 N 
HETATM   12  C1  UNL     1       1.543   1.004   0.111  1.00  0.00     0.245 C 
HETATM   13  O1  UNL     1       1.001   1.808  -0.689  1.00  0.00    -0.268 OA
HETATM   14  H7  UNL     1       1.135   0.080   1.991  1.00  0.00     0.169 HD
BRANCH  12  15
HETATM   15  C2  UNL     1       2.847   0.415  -0.154  1.00  0.00     0.075 C 
HETATM   16  C3  UNL     1       3.486  -0.436   0.630  1.00  0.00     0.017 C 
BRANCH  16  17
HETATM   17  C4  UNL     1       4.789  -1.034   0.381  1.00  0.00    -0.036 A 
HETATM   18  C5  UNL     1       5.345  -1.911   1.285  1.00  0.00     0.013 A 
HETATM   19  C6  UNL     1       6.581  -2.471   1.036  1.00  0.00     0.024 A 
HETATM   20  C7  UNL     1       7.293  -2.185  -0.094  1.00  0.00     0.034 A 
HETATM   21 CL1  UNL     1       8.859  -2.899  -0.402  1.00  0.00    -0.084 Cl
HETATM   22  C8  UNL     1       6.758  -1.306  -1.021  1.00  0.00     0.024 A 
HETATM   23  C9  UNL     1       5.527  -0.763  -0.750  1.00  0.00     0.013 A 
ENDBRANCH  16  17
ENDBRANCH  12  15
ENDBRANCH   1  11
BRANCH   8  24
HETATM   24  N4  UNL     1      -3.962  -0.237  -0.446  1.00  0.00    -0.336 N 
HETATM   25  C16 UNL     1      -4.099  -0.052  -1.863  1.00  0.00     0.112 A 
HETATM   26  C17 UNL     1      -4.231  -1.039  -2.765  1.00  0.00     0.026 A 
HETATM   27 BR1  UNL     1      -4.415  -0.854  -4.649  1.00  0.00    -0.050 Br
HETATM   28  C18 UNL     1      -4.248  -2.441  -2.296  1.00  0.00     0.018 A 
HETATM   29  C19 UNL     1      -4.126  -2.538  -0.982  1.00  0.00    -0.005 A 
HETATM   30  C20 UNL     1      -3.977  -1.569   0.125  1.00  0.00     0.157 A 
ENDBRANCH   8  24
TORSDOF 4
