REMARK  8 active torsions:
REMARK  status: ('A' for Active; 'I' for Inactive)
REMARK    1  A    between atoms: O1_2  and  C2_3 
REMARK    2  A    between atoms: C6_9  and  N3_10 
REMARK    3  A    between atoms: N3_10  and  C7_11 
REMARK    4  A    between atoms: C7_11  and  C8_12 
REMARK    5  A    between atoms: C9_13  and  C11_15 
REMARK    6  A    between atoms: C15_21  and  C16_22 
REMARK    7  A    between atoms: C16_22  and  C17_23 
REMARK    8  A    between atoms: C17_23  and  N4_24 
ROOT
HETATM    1  C2  UNL     1      -1.204  -1.042   1.245  1.00  0.00     0.077 C 
HETATM    2  C3  UNL     1       0.033  -1.245   1.707  1.00  0.00     0.067 C 
HETATM    3  C4  UNL     1       1.254  -0.800   1.041  1.00  0.00     0.074 A 
HETATM    4  N1  UNL     1       2.216  -1.630   1.453  1.00  0.00    -0.241 NA
HETATM    5  C5  UNL     1       3.475  -1.468   0.993  1.00  0.00     0.235 A 
HETATM    6  N2  UNL     1       3.776  -0.496   0.134  1.00  0.00    -0.224 NA
HETATM    7  C6  UNL     1       2.908   0.391  -0.350  1.00  0.00     0.137 A 
HETATM    8  C12 UNL     1       1.642   0.183   0.151  1.00  0.00     0.040 A 
HETATM    9  C13 UNL     1       0.823   1.248  -0.454  1.00  0.00     0.041 C 
HETATM   10  C14 UNL     1      -0.470   1.355  -0.771  1.00  0.00     0.137 C 
HETATM   11  O2  UNL     1      -1.531   0.479  -0.638  1.00  0.00    -0.351 OA
HETATM   12  C15 UNL     1      -2.042  -0.483   0.201  1.00  0.00     0.185 C 
ENDROOT
BRANCH   7  13
HETATM   13  N3  UNL     1       3.266   1.392  -1.283  1.00  0.00    -0.371 N 
HETATM   14  H6  UNL     1       2.828   2.141  -1.820  1.00  0.00     0.161 HD
BRANCH  13  15
HETATM   15  C7  UNL     1       4.664   1.401  -1.641  1.00  0.00     0.149 C 
BRANCH  15  16
HETATM   16  C8  UNL     1       5.561   1.651  -0.476  1.00  0.00    -0.003 C 
HETATM   17  C9  UNL     1       6.545   0.973   0.100  1.00  0.00    -0.058 C 
HETATM   18  C10 UNL     1       7.011  -0.356  -0.371  1.00  0.00     0.045 C 
BRANCH  17  19
HETATM   19  C11 UNL     1       7.181   1.624   1.272  1.00  0.00     0.256 C 
HETATM   20  F1  UNL     1       6.619   2.838   1.551  1.00  0.00    -0.251 F 
ENDBRANCH  17  19
ENDBRANCH  15  16
ENDBRANCH  13  15
ENDBRANCH   7  13
BRANCH   1  21
HETATM   21  O1  UNL     1      -2.049  -1.632   2.196  1.00  0.00    -0.357 OA
HETATM   22  C1  UNL     1      -2.005  -3.004   2.434  1.00  0.00     0.209 C 
ENDBRANCH   1  21
BRANCH  12  23
HETATM   23  C16 UNL     1      -2.723  -1.579  -0.641  1.00  0.00     0.058 C 
BRANCH  23  24
HETATM   24  C17 UNL     1      -3.547  -0.793  -1.672  1.00  0.00     0.120 C 
BRANCH  24  25
HETATM   25  N4  UNL     1      -4.464   0.003  -0.920  1.00  0.00    -0.408 N 
HETATM   26  C18 UNL     1      -5.484  -0.658  -0.230  1.00  0.00     0.143 C 
HETATM   27  C19 UNL     1      -6.765   0.086  -0.042  1.00  0.00     0.187 C 
HETATM   28  O3  UNL     1      -6.681   1.442  -0.282  1.00  0.00    -0.388 OA
HETATM   29  C20 UNL     1      -5.967   1.784  -1.419  1.00  0.00     0.187 C 
HETATM   30  C21 UNL     1      -4.538   1.375  -1.192  1.00  0.00     0.143 C 
ENDBRANCH  24  25
ENDBRANCH  23  24
ENDBRANCH  12  23
TORSDOF 8
