REMARK  6 active torsions:
REMARK  status: ('A' for Active; 'I' for Inactive)
REMARK    1  A    between atoms: O1_2  and  C2_3 
REMARK    2  A    between atoms: C6_9  and  N3_10 
REMARK    3  A    between atoms: N3_10  and  P1_11 
REMARK    4  A    between atoms: C14_21  and  O2_22 
REMARK    5  A    between atoms: O2_22  and  C15_23 
REMARK    6  A    between atoms: N4_26  and  O3_27 
ROOT
HETATM    1  C2  UNL     1       1.680   2.331  -0.662  1.00  0.00     0.103 A 
HETATM    2  C3  UNL     1       0.586   3.162  -0.547  1.00  0.00     0.072 A 
HETATM    3  C4  UNL     1      -0.636   2.692  -0.096  1.00  0.00     0.075 A 
HETATM    4  N1  UNL     1      -1.751   3.429   0.046  1.00  0.00    -0.241 NA
HETATM    5  C5  UNL     1      -2.897   2.870   0.495  1.00  0.00     0.236 A 
HETATM    6  N2  UNL     1      -2.933   1.564   0.806  1.00  0.00    -0.222 NA
HETATM    7  C6  UNL     1      -1.854   0.741   0.693  1.00  0.00     0.162 A 
HETATM    8  C12 UNL     1      -0.690   1.356   0.225  1.00  0.00     0.043 A 
HETATM    9  C13 UNL     1       0.398   0.527   0.112  1.00  0.00     0.057 A 
HETATM   10  C14 UNL     1       1.616   0.989  -0.335  1.00  0.00     0.103 A 
ENDROOT
BRANCH   7  11
HETATM   11  N3  UNL     1      -1.895  -0.633   1.020  1.00  0.00    -0.246 NA
BRANCH  11  12
HETATM   12  P1  UNL     1      -3.063  -1.628   0.662  1.00  0.00    -0.012 P 
HETATM   13  C7  UNL     1      -4.269  -1.741   1.972  1.00  0.00     0.048 A 
HETATM   14  C8  UNL     1      -5.573  -1.515   1.982  1.00  0.00     0.074 A 
HETATM   15 CL1  UNL     1      -6.615  -1.678   3.376  1.00  0.00    -0.081 Cl
HETATM   16  C9  UNL     1      -6.120  -1.101   0.705  1.00  0.00     0.134 A 
HETATM   17  F1  UNL     1      -7.450  -0.847   0.620  1.00  0.00    -0.205 F 
HETATM   18  C10 UNL     1      -5.410  -0.950  -0.402  1.00  0.00     0.023 A 
HETATM   19  C11 UNL     1      -3.988  -1.100  -0.803  1.00  0.00     0.084 A 
HETATM   20  H6  UNL     1      -2.472  -2.897   0.468  1.00  0.00     0.081 HD
ENDBRANCH  11  12
ENDBRANCH   7  11
BRANCH  10  21
HETATM   21  O2  UNL     1       2.804   0.303  -0.510  1.00  0.00    -0.342 OA
BRANCH  21  22
HETATM   22  C15 UNL     1       2.990  -1.068  -0.247  1.00  0.00     0.145 C 
HETATM   23  C16 UNL     1       3.566  -1.770  -1.483  1.00  0.00     0.050 C 
HETATM   24  C17 UNL     1       4.188  -2.993  -0.821  1.00  0.00     0.123 C 
HETATM   25  N4  UNL     1       4.785  -2.507   0.394  1.00  0.00    -0.197 NA
HETATM   26  C18 UNL     1       4.169  -1.257   0.716  1.00  0.00     0.153 C 
BRANCH  25  27
HETATM   27  O3  UNL     1       4.738  -3.417   1.375  1.00  0.00    -0.313 OA
HETATM   28  H17 UNL     1       5.227  -3.023   2.155  1.00  0.00     0.237 HD
ENDBRANCH  25  27
ENDBRANCH  21  22
ENDBRANCH  10  21
BRANCH   1  29
HETATM   29  O1  UNL     1       2.830   2.932  -1.122  1.00  0.00    -0.353 OA
HETATM   30  C1  UNL     1       2.867   4.297  -1.446  1.00  0.00     0.210 C 
ENDBRANCH   1  29
TORSDOF 6
