REMARK  2 active torsions:
REMARK  status: ('A' for Active; 'I' for Inactive)
REMARK    1  A    between atoms: O1_2  and  C2_3 
REMARK    2  A    between atoms: C14_18  and  C15_19 
ROOT
HETATM    1  C2  UNL     1       4.724   0.190   0.379  1.00  0.00     0.071 C 
HETATM    2  C3  UNL     1       3.700   1.045   0.558  1.00  0.00     0.066 C 
HETATM    3  C4  UNL     1       2.377   1.732   0.525  1.00  0.00     0.071 A 
HETATM    4  N1  UNL     1       2.451   3.026   0.220  1.00  0.00    -0.241 NA
HETATM    5  C5  UNL     1       1.364   3.799   0.224  1.00  0.00     0.235 A 
HETATM    6  N2  UNL     1       0.181   3.194   0.558  1.00  0.00    -0.224 NA
HETATM    7  C6  UNL     1       0.175   1.884   0.855  1.00  0.00     0.137 A 
HETATM    8  C7  UNL     1       1.231   1.022   0.871  1.00  0.00     0.021 A 
HETATM    9  C8  UNL     1       0.991  -0.431   1.179  1.00  0.00     0.029 C 
HETATM   10  C9  UNL     1      -0.154  -0.974   0.409  1.00  0.00     0.036 C 
HETATM   11  C10 UNL     1      -0.446  -2.409   0.711  1.00  0.00     0.168 C 
HETATM   12  O2  UNL     1      -1.393  -2.982  -0.019  1.00  0.00    -0.391 OA
HETATM   13  C11 UNL     1      -2.692  -2.756  -0.079  1.00  0.00     0.168 C 
HETATM   14  C12 UNL     1      -3.156  -1.362  -0.313  1.00  0.00     0.031 C 
HETATM   15  C13 UNL     1      -4.622  -1.360  -0.828  1.00  0.00     0.040 C 
HETATM   16  C14 UNL     1      -5.017   0.071  -0.882  1.00  0.00    -0.032 C 
HETATM   17  C16 UNL     1      -4.592   1.307  -0.561  1.00  0.00     0.008 C 
HETATM   18  C17 UNL     1      -3.558   2.141   0.022  1.00  0.00     0.017 C 
HETATM   19  C18 UNL     1      -2.415   2.151   0.597  1.00  0.00     0.090 C 
HETATM   20  N3  UNL     1      -1.198   1.790   1.181  1.00  0.00    -0.350 N 
HETATM   21  C19 UNL     1       2.254  -1.213   0.788  1.00  0.00     0.036 C 
HETATM   22  C20 UNL     1       2.536  -1.016  -0.652  1.00  0.00     0.168 C 
HETATM   23  O3  UNL     1       3.742  -1.478  -1.060  1.00  0.00    -0.385 OA
HETATM   24  C21 UNL     1       4.850  -1.062  -0.367  1.00  0.00     0.232 C 
HETATM   25  H21 UNL     1      -1.060   1.332   2.110  1.00  0.00     0.166 HD
ENDROOT
BRANCH  16  26
HETATM   26  C15 UNL     1      -6.343  -0.118  -1.529  1.00  0.00     0.295 C 
HETATM   27  F1  UNL     1      -6.150  -0.797  -2.725  1.00  0.00    -0.228 F 
HETATM   28 CL1  UNL     1      -7.361  -1.062  -0.405  1.00  0.00    -0.085 Cl
ENDBRANCH  16  26
BRANCH   1  29
HETATM   29  O1  UNL     1       6.040   0.304   0.916  1.00  0.00    -0.358 OA
HETATM   30  C1  UNL     1       6.906   1.155   0.193  1.00  0.00     0.209 C 
ENDBRANCH   1  29
TORSDOF 2
