REMARK  3 active torsions:
REMARK  status: ('A' for Active; 'I' for Inactive)
REMARK    1  A    between atoms: C1_2  and  C2_3 
REMARK       I    between atoms: C1_2  and  N1_12 
REMARK    2  A    between atoms: C3_4  and  C4_5 
REMARK    3  A    between atoms: N1_12  and  C10_13 
ROOT
HETATM    1  O1  UNL     1       0.279   0.931   2.310  1.00  0.00    -0.268 OA
HETATM    2  C1  UNL     1      -0.173   0.511   1.237  1.00  0.00     0.245 C 
HETATM    3  N1  UNL     1       0.747   0.122   0.238  1.00  0.00    -0.324 N 
HETATM    4  H7  UNL     1       0.258  -0.219  -0.630  1.00  0.00     0.169 HD
ENDROOT
BRANCH   3   5
HETATM    5  C10 UNL     1       2.159   0.130   0.255  1.00  0.00     0.035 A 
HETATM    6  C11 UNL     1       2.974   0.526   1.264  1.00  0.00     0.032 A 
HETATM    7  C12 UNL     1       4.353   0.514   1.227  1.00  0.00     0.035 A 
HETATM    8  C13 UNL     1       4.981   0.074   0.100  1.00  0.00     0.070 A 
HETATM    9  N2  UNL     1       6.316   0.026  -0.029  1.00  0.00    -0.241 NA
HETATM   10  C16 UNL     1       4.205  -0.336  -0.946  1.00  0.00     0.012 A 
HETATM   11  C14 UNL     1       6.860  -0.414  -1.156  1.00  0.00     0.233 A 
HETATM   12  N3  UNL     1       6.127  -0.827  -2.210  1.00  0.00    -0.253 NA
HETATM   13  C15 UNL     1       4.797  -0.789  -2.107  1.00  0.00     0.132 A 
HETATM   14  C17 UNL     1       2.830  -0.307  -0.867  1.00  0.00     0.044 A 
ENDBRANCH   3   5
BRANCH   2  15
HETATM   15  C2  UNL     1      -1.619   0.446   1.076  1.00  0.00     0.075 C 
HETATM   16  C3  UNL     1      -2.428   0.065   0.104  1.00  0.00     0.017 C 
BRANCH  16  17
HETATM   17  C4  UNL     1      -3.880   0.014  -0.019  1.00  0.00    -0.036 A 
HETATM   18  C5  UNL     1      -4.661   0.426   1.038  1.00  0.00     0.013 A 
HETATM   19  C6  UNL     1      -6.034   0.377   0.917  1.00  0.00     0.024 A 
HETATM   20  C7  UNL     1      -6.549  -0.090  -0.274  1.00  0.00     0.034 A 
HETATM   21 CL1  UNL     1      -8.310  -0.153  -0.429  1.00  0.00    -0.084 Cl
HETATM   22  C8  UNL     1      -5.743  -0.495  -1.313  1.00  0.00     0.024 A 
HETATM   23  C9  UNL     1      -4.369  -0.455  -1.218  1.00  0.00     0.013 A 
ENDBRANCH  16  17
ENDBRANCH   2  15
TORSDOF 3
