REMARK  3 active torsions:
REMARK  status: ('A' for Active; 'I' for Inactive)
REMARK    1  A    between atoms: C1_2  and  C2_3 
REMARK       I    between atoms: C1_2  and  N1_12 
REMARK    2  A    between atoms: C3_4  and  C4_5 
REMARK    3  A    between atoms: N1_12  and  C10_13 
ROOT
HETATM    1  C10 UNL     1      -0.906   0.862   1.481  1.00  0.00     0.015 C 
HETATM    2  C11 UNL     1      -1.697   1.878   1.617  1.00  0.00     0.026 C 
HETATM    3  C12 UNL     1      -2.864   2.656   2.065  1.00  0.00     0.141 C 
HETATM    4  C13 UNL     1      -3.822   2.501   0.853  1.00  0.00     0.110 C 
HETATM    5  C14 UNL     1      -3.957   1.017   0.843  1.00  0.00     0.108 C 
HETATM    6  N2  UNL     1      -4.689   0.559   1.757  1.00  0.00    -0.229 NA
HETATM    7  C15 UNL     1      -4.497   1.162   3.073  1.00  0.00     0.229 C 
HETATM    8  N3  UNL     1      -3.602   2.091   3.165  1.00  0.00    -0.273 NA
HETATM    9  N4  UNL     1      -3.460  -0.031   0.024  1.00  0.00    -0.344 N 
HETATM   10  C16 UNL     1      -2.686  -1.177   0.270  1.00  0.00     0.041 A 
HETATM   11  C17 UNL     1      -3.065  -2.161  -0.650  1.00  0.00     0.049 A 
HETATM   12  C18 UNL     1      -2.469  -3.431  -0.672  1.00  0.00     0.013 A 
HETATM   13 BR1  UNL     1      -2.900  -4.826  -1.862  1.00  0.00    -0.051 Br
HETATM   14  C19 UNL     1      -1.482  -3.678   0.261  1.00  0.00     0.020 A 
HETATM   15  C20 UNL     1      -1.119  -2.698   1.162  1.00  0.00     0.011 A 
HETATM   16  C21 UNL     1      -1.701  -1.450   1.187  1.00  0.00    -0.026 A 
HETATM   17  C22 UNL     1      -1.322  -0.378   2.166  1.00  0.00     0.097 C 
HETATM   18  H13 UNL     1      -3.898   0.378  -0.811  1.00  0.00     0.167 HD
ENDROOT
BRANCH   1  19
HETATM   19  N1  UNL     1       0.347   0.691   0.772  1.00  0.00    -0.327 N 
HETATM   20  C1  UNL     1       1.561   0.355   1.399  1.00  0.00     0.245 C 
HETATM   21  O1  UNL     1       1.718   0.159   2.627  1.00  0.00    -0.268 OA
HETATM   22  H7  UNL     1       0.176   0.850  -0.242  1.00  0.00     0.169 HD
BRANCH  20  23
HETATM   23  C2  UNL     1       2.736   0.222   0.559  1.00  0.00     0.075 C 
HETATM   24  C3  UNL     1       2.954   0.352  -0.737  1.00  0.00     0.017 C 
BRANCH  24  25
HETATM   25  C4  UNL     1       4.119   0.223  -1.594  1.00  0.00    -0.036 A 
HETATM   26  C5  UNL     1       3.947   0.446  -2.939  1.00  0.00     0.013 A 
HETATM   27  C6  UNL     1       5.047   0.322  -3.743  1.00  0.00     0.024 A 
HETATM   28  C7  UNL     1       6.266  -0.014  -3.196  1.00  0.00     0.034 A 
HETATM   29 CL1  UNL     1       7.684  -0.177  -4.211  1.00  0.00    -0.084 Cl
HETATM   30  C8  UNL     1       6.400  -0.227  -1.860  1.00  0.00     0.024 A 
HETATM   31  C9  UNL     1       5.321  -0.114  -1.011  1.00  0.00     0.013 A 
ENDBRANCH  24  25
ENDBRANCH  20  23
ENDBRANCH   1  19
TORSDOF 3
