REMARK  3 active torsions:
REMARK  status: ('A' for Active; 'I' for Inactive)
REMARK    1  A    between atoms: C6_8  and  N3_9 
REMARK       I    between atoms: N3_9  and  C7_10 
REMARK    2  A    between atoms: C7_10  and  C8_12 
REMARK    3  A    between atoms: C9_13  and  C10_14 
ROOT
HETATM    1  N3  UNL     1      -0.941  -0.855   0.968  1.00  0.00    -0.324 N 
HETATM    2  C7  UNL     1       0.093  -0.049   0.420  1.00  0.00     0.245 C 
HETATM    3  O1  UNL     1      -0.222   1.065  -0.085  1.00  0.00    -0.268 OA
HETATM    4  H5  UNL     1      -0.682  -1.777   1.386  1.00  0.00     0.169 HD
ENDROOT
BRANCH   1   5
HETATM    5  C6  UNL     1      -2.241  -0.255   0.862  1.00  0.00     0.035 A 
HETATM    6  C5  UNL     1      -2.732   0.571   1.876  1.00  0.00     0.032 A 
HETATM    7  C4  UNL     1      -3.979   1.096   1.686  1.00  0.00     0.035 A 
HETATM    8  C3  UNL     1      -4.717   0.818   0.536  1.00  0.00     0.069 A 
HETATM    9  N2  UNL     1      -6.022   1.293   0.206  1.00  0.00    -0.258 NA
HETATM   10  C17 UNL     1      -4.213  -0.002  -0.456  1.00  0.00     0.024 A 
HETATM   11  C2  UNL     1      -6.350   0.804  -0.948  1.00  0.00     0.149 A 
HETATM   12  C1  UNL     1      -5.271  -0.036  -1.463  1.00  0.00     0.078 A 
HETATM   13  N1  UNL     1      -5.174  -0.711  -2.564  1.00  0.00    -0.298 NA
HETATM   14  H1  UNL     1      -6.007  -0.650  -3.202  1.00  0.00     0.187 HD
HETATM   15  C16 UNL     1      -2.955  -0.543  -0.283  1.00  0.00     0.045 A 
ENDBRANCH   1   5
BRANCH   2  16
HETATM   16  C8  UNL     1       1.516  -0.448   0.409  1.00  0.00     0.075 C 
HETATM   17  C9  UNL     1       2.443   0.336  -0.113  1.00  0.00     0.017 C 
BRANCH  17  18
HETATM   18  C10 UNL     1       3.853  -0.021  -0.142  1.00  0.00    -0.036 A 
HETATM   19  C11 UNL     1       4.349  -1.199   0.367  1.00  0.00     0.011 A 
HETATM   20  C12 UNL     1       5.705  -1.516   0.326  1.00  0.00     0.001 A 
HETATM   21  C13 UNL     1       6.594  -0.629  -0.242  1.00  0.00     0.000 A 
HETATM   22  C14 UNL     1       6.127   0.558  -0.760  1.00  0.00     0.001 A 
HETATM   23  C15 UNL     1       4.777   0.835  -0.700  1.00  0.00     0.011 A 
ENDBRANCH  17  18
ENDBRANCH   2  16
TORSDOF 3
