REMARK  2 active torsions:
REMARK  status: ('A' for Active; 'I' for Inactive)
REMARK    1  A    between atoms: C2_2  and  N1_3 
REMARK    2  A    between atoms: N1_3  and  C3_4 
ROOT
HETATM    1  C3  UNL     1      -0.771   0.097  -0.627  1.00  0.00     0.108 A 
HETATM    2  C4  UNL     1      -1.443   0.846  -1.612  1.00  0.00     0.194 A 
HETATM    3  N2  UNL     1      -1.147   0.939  -2.909  1.00  0.00    -0.216 NA
HETATM    4  C5  UNL     1      -0.079   0.254  -3.356  1.00  0.00     0.236 A 
HETATM    5  N3  UNL     1       0.622  -0.471  -2.472  1.00  0.00    -0.242 NA
HETATM    6  C6  UNL     1       0.296  -0.539  -1.182  1.00  0.00     0.084 A 
HETATM    7  C7  UNL     1       1.309  -1.071  -0.224  1.00  0.00     0.061 A 
HETATM    8  C8  UNL     1       0.936  -2.155   0.596  1.00  0.00    -0.005 A 
HETATM    9  C9  UNL     1       1.634  -3.312   0.755  1.00  0.00    -0.003 A 
HETATM   10  C10 UNL     1       2.905  -3.520   0.029  1.00  0.00    -0.004 A 
HETATM   11  C11 UNL     1       3.291  -2.546  -0.760  1.00  0.00    -0.025 A 
HETATM   12  C12 UNL     1       2.598  -1.288  -1.000  1.00  0.00     0.052 A 
HETATM   13  C13 UNL     1       1.606   0.215   0.589  1.00  0.00     0.007 C 
HETATM   14 BR1  UNL     1       3.095   0.146   1.767  1.00  0.00    -0.054 Br
HETATM   15  C14 UNL     1       1.126   1.478   0.765  1.00  0.00     0.014 C 
HETATM   16  C15 UNL     1       0.086   2.394   0.346  1.00  0.00     0.057 C 
HETATM   17  C16 UNL     1      -0.935   3.199  -0.103  1.00  0.00     0.066 C 
HETATM   18 CL1  UNL     1      -0.892   4.873   0.546  1.00  0.00    -0.118 Cl
HETATM   19  C17 UNL     1      -2.296   2.949  -0.842  1.00  0.00     0.202 C 
HETATM   20  O1  UNL     1      -2.459   1.511  -1.015  1.00  0.00    -0.331 OA
ENDROOT
BRANCH   1  21
HETATM   21  N1  UNL     1      -1.231  -0.116   0.697  1.00  0.00    -0.385 N 
HETATM   22  H6  UNL     1      -0.677  -0.583   1.409  1.00  0.00     0.159 HD
BRANCH  21  23
HETATM   23  C2  UNL     1      -2.442   0.243   1.383  1.00  0.00     0.115 C 
HETATM   24  C1  UNL     1      -2.506  -0.229   2.819  1.00  0.00     0.026 C 
ENDBRANCH  21  23
ENDBRANCH   1  21
TORSDOF 2
