REMARK  5 active torsions:
REMARK  status: ('A' for Active; 'I' for Inactive)
REMARK    1  A    between atoms: C7_8  and  C8_9 
REMARK    2  A    between atoms: C8_9  and  C9_11 
REMARK    3  A    between atoms: C10_12  and  C11_13 
REMARK    4  A    between atoms: C17_20  and  N2_21 
REMARK    5  A    between atoms: N2_21  and  C18_22 
ROOT
HETATM    1  C1  UNL     1      -0.660  -2.604   2.679  1.00  0.00     0.019 C 
HETATM    2  C2  UNL     1      -0.904  -1.414   1.761  1.00  0.00     0.068 C 
HETATM    3  C3  UNL     1      -2.149  -1.587   0.933  1.00  0.00     0.128 C 
HETATM    4  N1  UNL     1      -2.561  -2.890   0.726  1.00  0.00    -0.270 NA
HETATM    5  C4  UNL     1      -2.158  -2.952  -0.795  1.00  0.00     0.193 C 
HETATM    6  C5  UNL     1      -1.585  -1.479  -0.874  1.00  0.00     0.005 C 
HETATM    7  C6  UNL     1      -0.159  -1.402  -0.693  1.00  0.00    -0.001 C 
HETATM    8  C7  UNL     1       0.288  -1.371   0.803  1.00  0.00     0.094 C 
HETATM    9  C17 UNL     1      -2.557  -0.276  -0.956  1.00  0.00     0.137 C 
HETATM   10  N3  UNL     1      -2.083  -0.245   0.286  1.00  0.00    -0.215 NA
ENDROOT
BRANCH   8  11
HETATM   11  C8  UNL     1       1.028  -0.120   1.028  1.00  0.00     0.157 C 
HETATM   12  O1  UNL     1       0.352   0.623   1.821  1.00  0.00    -0.293 OA
BRANCH  11  13
HETATM   13  C9  UNL     1       2.293   0.376   0.547  1.00  0.00     0.052 C 
HETATM   14  C10 UNL     1       3.279   0.010  -0.214  1.00  0.00     0.015 C 
BRANCH  14  15
HETATM   15  C11 UNL     1       4.535   0.603  -0.643  1.00  0.00    -0.036 A 
HETATM   16  C12 UNL     1       4.836   1.848  -0.182  1.00  0.00     0.013 A 
HETATM   17  C13 UNL     1       6.021   2.456  -0.562  1.00  0.00     0.024 A 
HETATM   18  C14 UNL     1       6.854   1.741  -1.412  1.00  0.00     0.034 A 
HETATM   19 CL1  UNL     1       8.374   2.434  -1.943  1.00  0.00    -0.084 Cl
HETATM   20  C15 UNL     1       6.502   0.483  -1.850  1.00  0.00     0.024 A 
HETATM   21  C16 UNL     1       5.326  -0.131  -1.478  1.00  0.00     0.013 A 
ENDBRANCH  14  15
ENDBRANCH  11  13
ENDBRANCH   8  11
BRANCH   9  22
HETATM   22  N2  UNL     1      -3.442   0.581  -1.645  1.00  0.00    -0.342 N 
HETATM   23  H15 UNL     1      -3.228   0.369  -2.652  1.00  0.00     0.167 HD
BRANCH  22  24
HETATM   24  C18 UNL     1      -4.261   1.398  -0.801  1.00  0.00     0.031 A 
HETATM   25  C19 UNL     1      -4.250   2.714  -0.659  1.00  0.00     0.033 A 
HETATM   26 BR1  UNL     1      -3.116   3.959  -1.552  1.00  0.00    -0.049 Br
HETATM   27  C20 UNL     1      -5.289   2.978   0.323  1.00  0.00     0.017 A 
HETATM   28  C21 UNL     1      -5.885   1.877   0.742  1.00  0.00    -0.019 A 
HETATM   29  C22 UNL     1      -5.270   0.723   0.045  1.00  0.00     0.085 A 
ENDBRANCH  22  24
ENDBRANCH   9  22
TORSDOF 5
