REMARK  5 active torsions:
REMARK  status: ('A' for Active; 'I' for Inactive)
REMARK    1  A    between atoms: C3_5  and  C4_6 
REMARK    2  A    between atoms: C4_6  and  C5_7 
REMARK    3  A    between atoms: C5_7  and  C6_8 
REMARK    4  A    between atoms: C6_8  and  N2_9 
REMARK    5  A    between atoms: N2_9  and  C7_10 
ROOT
HETATM    1  N2  UNL     1       0.169   0.634  -0.962  1.00  0.00    -0.355 N 
HETATM    2  H8  UNL     1       0.544   1.147  -1.801  1.00  0.00     0.166 HD
ENDROOT
BRANCH   1   3
HETATM    3  C6  UNL     1       1.078   1.304  -0.052  1.00  0.00     0.063 C 
BRANCH   3   4
HETATM    4  C5  UNL     1       2.218   0.385   0.076  1.00  0.00     0.012 C 
BRANCH   4   5
HETATM    5  C4  UNL     1       3.372   1.009   1.104  1.00  0.00     0.044 C 
BRANCH   5   6
HETATM    6  C3  UNL     1       4.303  -0.135   0.769  1.00  0.00     0.233 A 
HETATM    7  C2  UNL     1       4.056  -1.265  -0.157  1.00  0.00     0.066 A 
HETATM    8  C1  UNL     1       4.659  -0.480   0.636  1.00  0.00     0.286 A 
HETATM    9 BR1  UNL     1       3.055  -2.845   0.325  1.00  0.00    -0.086 Br
HETATM   10  N1  UNL     1       5.532   0.841   0.470  1.00  0.00    -0.061 N 
HETATM   11  H1  UNL     1       5.317   1.654  -0.221  1.00  0.00     0.278 HD
HETATM   12  H2  UNL     1       6.377   0.903   1.136  1.00  0.00     0.278 HD
ENDBRANCH   5   6
ENDBRANCH   4   5
ENDBRANCH   3   4
ENDBRANCH   1   3
BRANCH   1  13
HETATM   13  C7  UNL     1      -0.793  -0.308  -0.705  1.00  0.00     0.126 C 
HETATM   14  C8  UNL     1      -1.716  -1.200  -0.461  1.00  0.00     0.044 C 
HETATM   15  C9  UNL     1      -2.676  -2.022  -0.125  1.00  0.00     0.117 A 
HETATM   16  C10 UNL     1      -3.792  -1.327  -0.439  1.00  0.00    -0.003 A 
HETATM   17 BR2  UNL     1      -4.049  -2.648  -1.845  1.00  0.00    -0.117 Br
HETATM   18  C11 UNL     1      -4.763  -0.420  -0.419  1.00  0.00     0.017 C 
HETATM   19  C12 UNL     1      -5.067   0.099   0.848  1.00  0.00     0.020 C 
HETATM   20  C13 UNL     1      -4.227   1.046   1.222  1.00  0.00     0.118 C 
HETATM   21  N3  UNL     1      -3.482   1.788   0.475  1.00  0.00    -0.254 NA
HETATM   22  C14 UNL     1      -2.273   1.316   0.046  1.00  0.00     0.234 C 
HETATM   23  N4  UNL     1      -1.801   0.621  -1.003  1.00  0.00    -0.225 NA
ENDBRANCH   1  13
TORSDOF 5
