REMARK  3 active torsions:
REMARK  status: ('A' for Active; 'I' for Inactive)
REMARK    1  A    between atoms: C1_2  and  C2_3 
REMARK       I    between atoms: C1_2  and  N1_12 
REMARK    2  A    between atoms: C3_4  and  C4_5 
REMARK    3  A    between atoms: N1_12  and  C10_13 
ROOT
HETATM    1  C10 UNL     1      -0.508  -0.703   0.398  1.00  0.00     0.031 C 
HETATM    2  C11 UNL     1      -0.962  -1.946   0.634  1.00  0.00     0.015 C 
HETATM    3  C12 UNL     1      -2.387  -1.822   0.385  1.00  0.00     0.080 C 
HETATM    4  C13 UNL     1      -3.593  -2.348   0.313  1.00  0.00     0.090 A 
HETATM    5  N2  UNL     1      -4.462  -3.509   0.423  1.00  0.00    -0.242 NA
HETATM    6  C14 UNL     1      -5.673  -3.152   0.274  1.00  0.00     0.235 A 
HETATM    7  N3  UNL     1      -5.632  -1.764   0.067  1.00  0.00    -0.222 NA
HETATM    8  C15 UNL     1      -4.482  -1.276   0.084  1.00  0.00     0.157 A 
HETATM    9  N4  UNL     1      -4.607   0.143  -0.106  1.00  0.00    -0.327 N 
HETATM   10  C16 UNL     1      -5.505   1.058   0.574  1.00  0.00     0.113 C 
HETATM   11  C17 UNL     1      -5.788   2.236   0.014  1.00  0.00     0.026 C 
HETATM   12 BR1  UNL     1      -6.979   3.358   0.949  1.00  0.00    -0.050 Br
HETATM   13  C18 UNL     1      -5.125   2.737  -1.179  1.00  0.00     0.019 C 
HETATM   14  C19 UNL     1      -4.187   1.944  -1.667  1.00  0.00     0.004 C 
HETATM   15  C20 UNL     1      -3.731   0.599  -1.110  1.00  0.00     0.137 C 
HETATM   16  C21 UNL     1      -2.311   0.732  -0.657  1.00  0.00     0.005 C 
HETATM   17  C22 UNL     1      -1.070   0.528  -0.165  1.00  0.00     0.027 C 
ENDROOT
BRANCH   1  18
HETATM   18  N1  UNL     1       0.923  -0.537   0.594  1.00  0.00    -0.324 N 
HETATM   19  C1  UNL     1       1.713  -0.111  -0.532  1.00  0.00     0.245 C 
HETATM   20  O1  UNL     1       1.009   0.060  -1.562  1.00  0.00    -0.268 OA
HETATM   21  H7  UNL     1       1.396  -0.712   1.508  1.00  0.00     0.169 HD
BRANCH  19  22
HETATM   22  C2  UNL     1       3.137   0.094  -0.483  1.00  0.00     0.075 C 
HETATM   23  C3  UNL     1       3.916  -0.072   0.571  1.00  0.00     0.017 C 
BRANCH  23  24
HETATM   24  C4  UNL     1       5.356   0.142   0.595  1.00  0.00    -0.036 A 
HETATM   25  C5  UNL     1       6.088   0.551  -0.498  1.00  0.00     0.013 A 
HETATM   26  C6  UNL     1       7.452   0.747  -0.450  1.00  0.00     0.024 A 
HETATM   27  C7  UNL     1       8.127   0.524   0.756  1.00  0.00     0.034 A 
HETATM   28 CL1  UNL     1       9.863   0.785   0.775  1.00  0.00    -0.084 Cl
HETATM   29  C8  UNL     1       7.403   0.118   1.845  1.00  0.00     0.024 A 
HETATM   30  C9  UNL     1       6.053  -0.068   1.765  1.00  0.00     0.013 A 
ENDBRANCH  23  24
ENDBRANCH  19  22
ENDBRANCH   1  18
TORSDOF 3
