REMARK  7 active torsions:
REMARK  status: ('A' for Active; 'I' for Inactive)
REMARK    1  A    between atoms: C3_3  and  C4_4 
REMARK    2  A    between atoms: C4_4  and  N1_5 
REMARK    3  A    between atoms: N1_5  and  C5_6 
REMARK    4  A    between atoms: C7_8  and  C8_9 
REMARK    5  A    between atoms: C11_12  and  N2_13 
REMARK    6  A    between atoms: N2_13  and  C12_14 
REMARK    7  A    between atoms: C16_18  and  O1_19 
ROOT
HETATM    1  C8  UNL     1      -0.744   0.007  -0.007  1.00  0.00     0.029 C 
HETATM    2  C9  UNL     1       0.596   0.155  -0.059  1.00  0.00     0.043 A 
HETATM    3  C10 UNL     1       1.417  -0.992  -0.473  1.00  0.00     0.137 A 
HETATM    4  C11 UNL     1       2.844  -0.588  -0.431  1.00  0.00     0.111 A 
HETATM    5  N3  UNL     1       3.287   0.579  -0.101  1.00  0.00    -0.228 NA
HETATM    6  C18 UNL     1       2.377   1.629   0.276  1.00  0.00     0.235 A 
HETATM    7  N4  UNL     1       1.103   1.435   0.296  1.00  0.00    -0.246 NA
ENDROOT
BRANCH   1   8
HETATM    8  C7  UNL     1      -1.631   1.088   0.394  1.00  0.00     0.026 C 
HETATM    9  C5  UNL     1      -2.936   0.890   0.431  1.00  0.00     0.001 C 
HETATM   10  C6  UNL     1      -3.962   1.882   0.802  1.00  0.00     0.068 C 
BRANCH   9  11
HETATM   11  N1  UNL     1      -3.514  -0.358   0.088  1.00  0.00    -0.390 N 
HETATM   12  H8  UNL     1      -2.953  -1.149   0.527  1.00  0.00     0.159 HD
BRANCH  11  13
HETATM   13  C4  UNL     1      -4.657  -0.796  -0.686  1.00  0.00     0.146 C 
BRANCH  13  14
HETATM   14  C3  UNL     1      -5.906  -0.411   0.040  1.00  0.00    -0.012 C 
HETATM   15  C2  UNL     1      -6.878   0.359  -0.379  1.00  0.00    -0.033 C 
HETATM   16  C1  UNL     1      -8.205   0.970  -0.031  1.00  0.00     0.036 C 
ENDBRANCH  13  14
ENDBRANCH  11  13
ENDBRANCH   9  11
ENDBRANCH   1   8
BRANCH   4  17
HETATM   17  N2  UNL     1       3.743  -1.660  -0.781  1.00  0.00    -0.344 N 
HETATM   18  H16 UNL     1       3.428  -2.657  -0.918  1.00  0.00     0.167 HD
BRANCH  17  19
HETATM   19  C12 UNL     1       5.129  -1.293  -0.944  1.00  0.00     0.036 A 
HETATM   20  C13 UNL     1       5.712  -1.325  -2.187  1.00  0.00     0.029 A 
HETATM   21  C14 UNL     1       7.057  -0.935  -2.207  1.00  0.00     0.005 A 
HETATM   22  C15 UNL     1       7.734  -0.551  -1.071  1.00  0.00     0.038 A 
HETATM   23  C16 UNL     1       7.118  -0.529   0.165  1.00  0.00     0.086 A 
HETATM   24  C17 UNL     1       5.776  -0.911   0.230  1.00  0.00     0.067 A 
BRANCH  23  25
HETATM   25  O1  UNL     1       7.670  -0.166   1.383  1.00  0.00    -0.271 OA
HETATM   26 BR1  UNL     1       6.750   0.998   2.517  1.00  0.00     0.105 Br
ENDBRANCH  23  25
ENDBRANCH  17  19
ENDBRANCH   4  17
TORSDOF 7
