REMARK  6 active torsions:
REMARK  status: ('A' for Active; 'I' for Inactive)
REMARK    1  A    between atoms: O1_2  and  C2_3 
REMARK    2  A    between atoms: C5_6  and  C6_7 
REMARK    3  A    between atoms: C9_12  and  C10_13 
REMARK    4  A    between atoms: C11_14  and  C12_15 
REMARK    5  A    between atoms: C12_15  and  N2_16 
REMARK    6  A    between atoms: N2_16  and  C13_17 
ROOT
HETATM    1  C6  UNL     1      -1.699  -0.462  -1.897  1.00  0.00    -0.009 C 
HETATM    2  C7  UNL     1      -1.029  -0.930  -2.932  1.00  0.00     0.087 C 
HETATM    3  C8  UNL     1       0.213  -1.682  -3.070  1.00  0.00     0.246 C 
HETATM    4  O2  UNL     1       0.390  -2.264  -4.172  1.00  0.00    -0.268 OA
HETATM    5  N1  UNL     1       1.241  -1.824  -2.088  1.00  0.00    -0.323 N 
HETATM    6  C9  UNL     1       1.042  -1.689  -0.689  1.00  0.00     0.045 C 
HETATM    7  C19 UNL     1       0.022  -1.212   0.002  1.00  0.00     0.003 A 
HETATM    8  C20 UNL     1      -1.061  -0.703   0.820  1.00  0.00     0.028 A 
HETATM    9  C21 UNL     1      -1.235  -0.648  -0.513  1.00  0.00    -0.011 A 
HETATM   10  H7  UNL     1       2.205  -2.046  -2.476  1.00  0.00     0.169 HD
ENDROOT
BRANCH   6  11
HETATM   11  C10 UNL     1       2.186  -2.166   0.074  1.00  0.00     0.028 C 
HETATM   12  C11 UNL     1       2.233  -2.137   1.392  1.00  0.00    -0.005 C 
BRANCH  12  13
HETATM   13  C12 UNL     1       3.161  -2.507   2.484  1.00  0.00     0.147 C 
BRANCH  13  14
HETATM   14  N2  UNL     1       3.489  -1.341   3.276  1.00  0.00    -0.386 N 
HETATM   15  H12 UNL     1       3.177  -1.367   4.281  1.00  0.00     0.160 HD
BRANCH  14  16
HETATM   16  C13 UNL     1       4.178  -0.187   2.840  1.00  0.00     0.029 A 
HETATM   17  C14 UNL     1       4.679   0.022   1.576  1.00  0.00     0.029 A 
HETATM   18  C15 UNL     1       5.343   1.142   1.143  1.00  0.00     0.004 A 
HETATM   19  C16 UNL     1       5.524   2.152   2.065  1.00  0.00     0.019 A 
HETATM   20  C17 UNL     1       5.051   2.014   3.344  1.00  0.00     0.013 A 
HETATM   21 BR1  UNL     1       5.294   3.405   4.633  1.00  0.00    -0.051 Br
HETATM   22  C18 UNL     1       4.400   0.868   3.698  1.00  0.00     0.048 A 
ENDBRANCH  14  16
ENDBRANCH  13  14
ENDBRANCH  12  13
ENDBRANCH   6  11
BRANCH   1  23
HETATM   23  C5  UNL     1      -2.946   0.275  -2.030  1.00  0.00    -0.025 A 
HETATM   24  C4  UNL     1      -3.587   0.731  -0.889  1.00  0.00     0.015 A 
HETATM   25  C3  UNL     1      -4.759   1.433  -0.913  1.00  0.00     0.037 A 
HETATM   26  C2  UNL     1      -5.380   1.731  -2.108  1.00  0.00     0.068 A 
HETATM   27  C23 UNL     1      -4.770   1.293  -3.257  1.00  0.00     0.037 A 
HETATM   28  C22 UNL     1      -3.592   0.591  -3.179  1.00  0.00     0.015 A 
BRANCH  26  29
HETATM   29  O1  UNL     1      -6.569   2.437  -2.210  1.00  0.00    -0.356 OA
HETATM   30  C1  UNL     1      -7.166   2.871  -0.995  1.00  0.00     0.210 C 
ENDBRANCH  26  29
ENDBRANCH   1  23
TORSDOF 6
