REMARK  5 active torsions:
REMARK  status: ('A' for Active; 'I' for Inactive)
REMARK    1  A    between atoms: O1_2  and  C2_3 
REMARK    2  A    between atoms: C6_7  and  N1_8 
REMARK    3  A    between atoms: C7_9  and  C8_10 
REMARK    4  A    between atoms: C9_11  and  C10_12 
REMARK       I    between atoms: C10_12  and  N2_14 
REMARK    5  A    between atoms: C16_22  and  C17_23 
ROOT
HETATM    1  C10 UNL     1      -0.952   0.358   0.744  1.00  0.00     0.341 C 
HETATM    2  O2  UNL     1      -0.770  -0.771   0.174  1.00  0.00    -0.261 OA
HETATM    3  N2  UNL     1      -0.145   0.418   1.901  1.00  0.00     0.016 N 
HETATM    4  C11 UNL     1       0.645  -0.824   2.088  1.00  0.00     0.208 A 
HETATM    5  C12 UNL     1      -0.155  -0.811   3.043  1.00  0.00     0.245 A 
HETATM    6  C13 UNL     1       0.257  -2.117   3.735  1.00  0.00     0.108 C 
HETATM    7  C14 UNL     1       1.141  -3.202   3.622  1.00  0.00     0.096 C 
HETATM    8  N3  UNL     1       2.226  -3.873   2.863  1.00  0.00    -0.282 NA
HETATM    9  C15 UNL     1       3.064  -2.986   2.352  1.00  0.00     0.226 C 
HETATM   10  N4  UNL     1       3.503  -1.678   2.130  1.00  0.00    -0.246 NA
HETATM   11  C16 UNL     1       2.924  -0.775   1.499  1.00  0.00     0.048 C 
HETATM   12  C23 UNL     1       1.598  -0.775   0.899  1.00  0.00     0.105 C 
HETATM   13  H11 UNL     1      -0.449   1.429   2.193  1.00  0.00     0.292 HD
ENDROOT
BRANCH   1  14
HETATM   14  C9  UNL     1      -1.942   1.001  -0.154  1.00  0.00     0.083 C 
HETATM   15  C8  UNL     1      -2.254   0.213  -1.139  1.00  0.00     0.021 C 
BRANCH  15  16
HETATM   16  C7  UNL     1      -3.210   0.661  -2.133  1.00  0.00     0.018 A 
HETATM   17  C2  UNL     1      -3.564  -0.236  -3.143  1.00  0.00     0.080 A 
HETATM   18  C3  UNL     1      -4.461   0.176  -4.041  1.00  0.00     0.038 A 
HETATM   19  C4  UNL     1      -5.126   1.367  -4.167  1.00  0.00     0.005 A 
HETATM   20  C5  UNL     1      -4.729   2.224  -3.135  1.00  0.00     0.024 A 
HETATM   21  C6  UNL     1      -3.804   1.927  -2.127  1.00  0.00     0.019 A 
BRANCH  17  22
HETATM   22  O1  UNL     1      -2.976  -1.501  -3.178  1.00  0.00    -0.355 OA
HETATM   23  C1  UNL     1      -3.377  -2.375  -4.239  1.00  0.00     0.210 C 
ENDBRANCH  17  22
BRANCH  21  24
HETATM   24  N1  UNL     1      -3.433   2.870  -1.130  1.00  0.00    -0.302 NA
HETATM   25  H7  UNL     1      -2.899   3.515  -1.794  1.00  0.00     0.124 HD
HETATM   26  H8  UNL     1      -2.895   3.568  -1.656  1.00  0.00     0.124 HD
ENDBRANCH  21  24
ENDBRANCH  15  16
ENDBRANCH   1  14
BRANCH  11  27
HETATM   27  C17 UNL     1       4.165  -0.081   1.938  1.00  0.00    -0.010 A 
HETATM   28  C18 UNL     1       3.618   1.098   1.177  1.00  0.00     0.013 A 
HETATM   29  C19 UNL     1       4.220   2.383   1.029  1.00  0.00     0.002 A 
HETATM   30  C20 UNL     1       5.460   2.635   1.636  1.00  0.00     0.019 A 
HETATM   31  C21 UNL     1       5.950   1.572   2.320  1.00  0.00     0.011 A 
HETATM   32 BR1  UNL     1       7.577   1.407   3.323  1.00  0.00    -0.051 Br
HETATM   33  C22 UNL     1       5.220   0.435   2.340  1.00  0.00     0.032 A 
ENDBRANCH  11  27
TORSDOF 5
