REMARK  4 active torsions:
REMARK  status: ('A' for Active; 'I' for Inactive)
REMARK    1  A    between atoms: C3_3  and  C4_4 
REMARK    2  A    between atoms: N4_18  and  C14_19 
REMARK    3  A    between atoms: C18_23  and  O2_24 
REMARK    4  A    between atoms: O2_24  and  C19_25 
ROOT
HETATM    1  C4  UNL     1      -1.827  -1.462  -0.035  1.00  0.00     0.015 C 
HETATM    2  C5  UNL     1      -3.121  -1.242   0.073  1.00  0.00     0.089 C 
HETATM    3  C6  UNL     1      -3.748   0.106   0.046  1.00  0.00     0.246 C 
HETATM    4  O1  UNL     1      -4.762   0.775   0.063  1.00  0.00    -0.268 OA
HETATM    5  N1  UNL     1      -3.074   1.350  -0.023  1.00  0.00    -0.328 N 
HETATM    6  C7  UNL     1      -2.382   2.628  -0.095  1.00  0.00     0.012 C 
HETATM    7  C8  UNL     1      -3.214   3.588  -0.375  1.00  0.00    -0.006 C 
HETATM    8  C9  UNL     1      -2.904   5.014  -0.532  1.00  0.00     0.038 C 
HETATM    9  C10 UNL     1      -0.910   2.689   0.183  1.00  0.00     0.106 C 
HETATM   10  C11 UNL     1      -0.008   1.878  -0.548  1.00  0.00     0.221 C 
HETATM   11  N2  UNL     1      -0.206   1.674  -2.016  1.00  0.00    -0.256 NA
HETATM   12  C12 UNL     1       0.103   0.366  -2.285  1.00  0.00     0.231 C 
HETATM   13  N3  UNL     1      -0.150  -0.781  -1.425  1.00  0.00    -0.224 NA
HETATM   14  C13 UNL     1      -0.733  -0.553  -0.263  1.00  0.00     0.143 C 
HETATM   15  N4  UNL     1       0.233   0.451  -0.177  1.00  0.00    -0.307 N 
HETATM   16  H7  UNL     1      -2.162   0.968  -0.062  1.00  0.00     0.169 HD
ENDROOT
BRANCH  15  17
HETATM   17  C14 UNL     1       1.586   0.198   0.150  1.00  0.00     0.041 A 
HETATM   18  C15 UNL     1       1.957   0.976   1.213  1.00  0.00     0.030 A 
HETATM   19  C16 UNL     1       3.288   0.780   1.587  1.00  0.00     0.005 A 
HETATM   20  C17 UNL     1       4.189  -0.077   1.010  1.00  0.00     0.037 A 
HETATM   21  C18 UNL     1       3.761  -0.833  -0.051  1.00  0.00     0.071 A 
HETATM   22  C20 UNL     1       2.434  -0.674  -0.467  1.00  0.00     0.066 A 
BRANCH  21  23
HETATM   23  O2  UNL     1       4.569  -1.735  -0.723  1.00  0.00    -0.341 OA
BRANCH  23  24
HETATM   24  C19 UNL     1       5.896  -1.955  -0.383  1.00  0.00     0.260 C 
HETATM   25 BR1  UNL     1       6.974  -0.368  -0.532  1.00  0.00    -0.067 Br
ENDBRANCH  23  24
ENDBRANCH  21  23
ENDBRANCH  15  17
BRANCH   1  26
HETATM   26  C3  UNL     1      -1.489  -2.865   0.030  1.00  0.00     0.011 C 
HETATM   27  C2  UNL     1      -2.033  -4.025   0.161  1.00  0.00    -0.030 C 
HETATM   28  C1  UNL     1      -1.737  -5.477   0.234  1.00  0.00     0.036 C 
ENDBRANCH   1  26
TORSDOF 4
