REMARK  3 active torsions:
REMARK  status: ('A' for Active; 'I' for Inactive)
REMARK    1  A    between atoms: C5_6  and  N1_7 
REMARK    2  A    between atoms: N1_7  and  C6_8 
REMARK    3  A    between atoms: C13_18  and  C14_19 
ROOT
HETATM    1  C6  UNL     1      -0.643  -0.907   0.412  1.00  0.00     0.175 A 
HETATM    2  N2  UNL     1       0.279  -1.059   1.378  1.00  0.00    -0.221 NA
HETATM    3  C7  UNL     1       1.162  -0.028   1.529  1.00  0.00     0.382 A 
HETATM    4  N3  UNL     1       1.138   1.062   0.815  1.00  0.00     0.216 N 
HETATM    5  C8  UNL     1       0.413   1.542  -0.162  1.00  0.00     0.509 A 
HETATM    6  C9  UNL     1      -0.076   0.313   0.166  1.00  0.00     0.445 A 
HETATM    7  N4  UNL     1       0.079   0.464  -1.313  1.00  0.00     0.015 N 
HETATM    8  C10 UNL     1       1.484   0.065  -1.641  1.00  0.00     0.246 C 
HETATM    9  C11 UNL     1       2.588   0.870  -1.108  1.00  0.00     0.066 C 
HETATM   10  C12 UNL     1       2.940   0.925   0.321  1.00  0.00    -0.053 C 
HETATM   11  C13 UNL     1       4.163   0.751   0.823  1.00  0.00    -0.009 C 
HETATM   12  O1  UNL     1       1.976   1.181   1.494  1.00  0.00     0.000 OA
HETATM   13  H6  UNL     1      -0.466   0.735  -2.194  1.00  0.00     0.286 HD
ENDROOT
BRANCH   1  14
HETATM   14  N1  UNL     1      -1.735  -1.399  -0.297  1.00  0.00    -0.341 N 
HETATM   15  H4  UNL     1      -1.686  -1.984  -1.159  1.00  0.00     0.167 HD
BRANCH  14  16
HETATM   16  C5  UNL     1      -3.027  -1.058   0.223  1.00  0.00     0.034 A 
HETATM   17  C4  UNL     1      -3.121  -0.271   1.362  1.00  0.00     0.029 A 
HETATM   18  C3  UNL     1      -4.360   0.085   1.900  1.00  0.00     0.004 A 
HETATM   19  C2  UNL     1      -5.485  -0.377   1.255  1.00  0.00     0.019 A 
HETATM   20  C1  UNL     1      -5.417  -1.160   0.122  1.00  0.00     0.013 A 
HETATM   21 BR1  UNL     1      -6.992  -1.783  -0.749  1.00  0.00    -0.051 Br
HETATM   22  C15 UNL     1      -4.184  -1.497  -0.388  1.00  0.00     0.048 A 
ENDBRANCH  14  16
ENDBRANCH   1  14
BRANCH  11  23
HETATM   23  C14 UNL     1       5.498   0.473   0.288  1.00  0.00     0.107 C 
HETATM   24  I1  UNL     1       6.254  -1.356   1.089  1.00  0.00    -0.086 I 
ENDBRANCH  11  23
TORSDOF 3
