REMARK  7 active torsions:
REMARK  status: ('A' for Active; 'I' for Inactive)
REMARK    1  A    between atoms: C3_3  and  N1_4 
REMARK    2  A    between atoms: C11_15  and  C12_16 
REMARK    3  A    between atoms: C13_17  and  N3_18 
REMARK    4  A    between atoms: N3_18  and  C14_19 
REMARK    5  A    between atoms: C14_19  and  C15_20 
REMARK    6  A    between atoms: C16_21  and  C17_22 
REMARK    7  A    between atoms: C19_24  and  O2_25 
ROOT
HETATM    1  C1  UNL     1      -3.547  -0.385   1.933  1.00  0.00     0.047 C 
HETATM    2  C2  UNL     1      -3.251  -0.610   0.688  1.00  0.00    -0.016 C 
HETATM    3  C3  UNL     1      -4.311  -0.509  -0.303  1.00  0.00     0.080 C 
HETATM    4  C9  UNL     1      -4.026  -1.003  -1.497  1.00  0.00     0.115 C 
HETATM    5  N2  UNL     1      -2.818  -1.020  -1.911  1.00  0.00    -0.255 NA
HETATM    6  C10 UNL     1      -1.718  -1.139  -0.998  1.00  0.00     0.129 C 
HETATM    7  C11 UNL     1      -1.885  -0.944   0.298  1.00  0.00    -0.009 C 
ENDROOT
BRANCH   7   8
HETATM    8  C12 UNL     1      -0.841  -1.029   1.304  1.00  0.00     0.030 C 
HETATM    9  C13 UNL     1       0.422  -1.311   1.059  1.00  0.00     0.084 C 
BRANCH   9  10
HETATM   10  N3  UNL     1       1.295  -1.613   0.007  1.00  0.00    -0.395 N 
HETATM   11  H9  UNL     1       1.533  -2.589  -0.315  1.00  0.00     0.159 HD
BRANCH  10  12
HETATM   12  C14 UNL     1       1.817  -0.363  -0.568  1.00  0.00     0.146 C 
BRANCH  12  13
HETATM   13  C15 UNL     1       2.756  -0.599  -1.680  1.00  0.00    -0.007 C 
HETATM   14  C16 UNL     1       4.033  -0.343  -2.017  1.00  0.00     0.005 C 
BRANCH  14  15
HETATM   15  C17 UNL     1       4.779   0.395  -1.013  1.00  0.00    -0.045 C 
HETATM   16  C18 UNL     1       5.141   1.060   0.106  1.00  0.00     0.020 C 
HETATM   17  C19 UNL     1       6.557   1.343  -0.211  1.00  0.00     0.097 A 
HETATM   18  C21 UNL     1       7.188   1.866  -1.307  1.00  0.00     0.051 A 
HETATM   19  C22 UNL     1       5.955   1.159  -1.542  1.00  0.00     0.045 A 
BRANCH  17  20
HETATM   20  O2  UNL     1       7.286   0.197   0.389  1.00  0.00    -0.379 OA
HETATM   21  C20 UNL     1       8.627   0.436   0.112  1.00  0.00     0.203 C 
ENDBRANCH  17  20
ENDBRANCH  14  15
ENDBRANCH  12  13
ENDBRANCH  10  12
ENDBRANCH   9  10
ENDBRANCH   7   8
BRANCH   3  22
HETATM   22  N1  UNL     1      -5.572   0.084   0.002  1.00  0.00    -0.286 N 
HETATM   23  C4  UNL     1      -5.562   1.258   0.694  1.00  0.00     0.101 A 
HETATM   24  C5  UNL     1      -6.768   1.820   0.984  1.00  0.00     0.019 A 
HETATM   25  C6  UNL     1      -7.984   1.258   0.611  1.00  0.00     0.026 A 
HETATM   26  C7  UNL     1      -7.889   0.069  -0.087  1.00  0.00     0.079 A 
HETATM   27 BR1  UNL     1      -9.549  -0.717  -0.609  1.00  0.00    -0.045 Br
HETATM   28  C8  UNL     1      -6.705  -0.556  -0.415  1.00  0.00     0.269 A 
HETATM   29  O1  UNL     1      -6.633  -1.627  -1.043  1.00  0.00    -0.266 OA
ENDBRANCH   3  22
TORSDOF 7
