REMARK  8 active torsions:
REMARK  status: ('A' for Active; 'I' for Inactive)
REMARK    1  A    between atoms: C2_2  and  C3_3 
REMARK    2  A    between atoms: C3_3  and  C4_4 
REMARK    3  A    between atoms: C3_3  and  N2_14 
REMARK    4  A    between atoms: C4_4  and  C5_5 
REMARK       I    between atoms: N2_14  and  C13_15 
REMARK    5  A    between atoms: C13_15  and  C14_17 
REMARK    6  A    between atoms: C14_17  and  C15_18 
REMARK    7  A    between atoms: C15_18  and  C16_19 
REMARK    8  A    between atoms: C20_23  and  O2_24 
ROOT
HETATM    1  N2  UNL     1      -0.551   0.383   1.875  1.00  0.00    -0.317 N 
HETATM    2  C13 UNL     1       0.115   0.148   0.694  1.00  0.00     0.246 C 
HETATM    3  O1  UNL     1      -0.220  -0.148  -0.456  1.00  0.00    -0.268 OA
HETATM    4  H11 UNL     1       0.282   0.576   2.440  1.00  0.00     0.170 HD
ENDROOT
BRANCH   1   5
HETATM    5  C3  UNL     1      -1.882   0.363   2.188  1.00  0.00     0.077 C 
BRANCH   5   6
HETATM    6  C2  UNL     1      -1.838   0.677   3.465  1.00  0.00    -0.126 C 
HETATM    7  C1  UNL     1      -2.040   1.084   4.711  1.00  0.00     0.099 C 
ENDBRANCH   5   6
BRANCH   5   8
HETATM    8  C4  UNL     1      -3.063   0.087   1.468  1.00  0.00     0.046 C 
BRANCH   8   9
HETATM    9  C5  UNL     1      -3.867  -0.237   0.472  1.00  0.00    -0.043 C 
HETATM   10  C6  UNL     1      -3.317  -0.564  -0.862  1.00  0.00     0.061 C 
HETATM   11  C7  UNL     1      -4.250  -1.193  -1.826  1.00  0.00     0.153 C 
HETATM   12  N1  UNL     1      -5.268  -0.361  -2.382  1.00  0.00    -0.300 NA
HETATM   13  C8  UNL     1      -6.263   0.138  -1.681  1.00  0.00     0.122 C 
HETATM   14  C9  UNL     1      -6.488  -0.076  -0.232  1.00  0.00    -0.008 A 
HETATM   15  C10 UNL     1      -7.334  -0.215   0.806  1.00  0.00     0.014 A 
HETATM   16  C12 UNL     1      -5.333  -0.240   0.688  1.00  0.00    -0.018 A 
HETATM   17  C11 UNL     1      -6.213  -0.373   1.696  1.00  0.00     0.014 A 
ENDBRANCH   8   9
ENDBRANCH   5   8
ENDBRANCH   1   5
BRANCH   2  18
HETATM   18  C14 UNL     1       1.372   0.083   0.059  1.00  0.00     0.075 C 
BRANCH  18  19
HETATM   19  C15 UNL     1       2.476   0.008  -0.579  1.00  0.00     0.017 C 
BRANCH  19  20
HETATM   20  C16 UNL     1       3.906   0.123  -0.506  1.00  0.00    -0.033 A 
HETATM   21  C17 UNL     1       4.514   0.444   0.669  1.00  0.00     0.011 A 
HETATM   22  C18 UNL     1       5.890   0.530   0.632  1.00  0.00     0.004 A 
HETATM   23  C19 UNL     1       6.584   0.294  -0.558  1.00  0.00     0.037 A 
HETATM   24  C20 UNL     1       5.869  -0.030  -1.716  1.00  0.00     0.069 A 
HETATM   25  C22 UNL     1       4.475  -0.128  -1.726  1.00  0.00     0.048 A 
BRANCH  24  26
HETATM   26  O2  UNL     1       6.592  -0.259  -2.887  1.00  0.00    -0.356 OA
HETATM   27  C21 UNL     1       8.002  -0.150  -2.837  1.00  0.00     0.210 C 
ENDBRANCH  24  26
ENDBRANCH  19  20
ENDBRANCH  18  19
ENDBRANCH   2  18
TORSDOF 8
