REMARK  7 active torsions:
REMARK  status: ('A' for Active; 'I' for Inactive)
REMARK    1  A    between atoms: O1_1  and  C1_2 
REMARK    2  A    between atoms: C1_2  and  O2_3 
REMARK    3  A    between atoms: C1_2  and  C2_4 
REMARK    4  A    between atoms: C2_4  and  C3_5 
REMARK    5  A    between atoms: C4_6  and  C5_7 
REMARK    6  A    between atoms: C5_7  and  C6_8 
REMARK    7  A    between atoms: N3_14  and  C10_15 
ROOT
HETATM    1  C6  UNL     1       0.801   0.845  -0.062  1.00  0.00    -0.057 A 
HETATM    2  C7  UNL     1      -0.312   1.329  -0.573  1.00  0.00     0.010 A 
HETATM    3  C8  UNL     1      -1.792   1.056  -0.578  1.00  0.00     0.160 A 
HETATM    4  N1  UNL     1      -2.265   0.838  -1.918  1.00  0.00    -0.272 NA
HETATM    5  C9  UNL     1      -2.505  -0.298  -2.411  1.00  0.00     0.217 C 
HETATM    6  N2  UNL     1      -2.327  -1.498  -1.667  1.00  0.00    -0.295 N 
HETATM    7  N3  UNL     1      -2.705  -1.242  -0.370  1.00  0.00    -0.304 N 
HETATM    8  C15 UNL     1      -2.067  -0.145   0.267  1.00  0.00     0.154 A 
HETATM    9  C16 UNL     1      -0.771  -0.645   0.815  1.00  0.00     0.003 A 
HETATM   10  C17 UNL     1       0.515  -0.342   0.771  1.00  0.00     0.005 A 
HETATM   11  H13 UNL     1      -1.956  -2.303  -2.257  1.00  0.00     0.187 HD
ENDROOT
BRANCH   1  12
HETATM   12  C5  UNL     1       2.209   1.289  -0.193  1.00  0.00     0.065 C 
BRANCH  12  13
HETATM   13  C4  UNL     1       3.072   0.238  -0.788  1.00  0.00    -0.026 C 
HETATM   14  C3  UNL     1       4.131  -0.382  -0.334  1.00  0.00    -0.026 C 
BRANCH  14  15
HETATM   15  C2  UNL     1       4.735  -0.137   0.986  1.00  0.00     0.087 C 
BRANCH  15  16
HETATM   16  C1  UNL     1       6.183   0.336   0.840  1.00  0.00     0.257 C 
BRANCH  16  17
HETATM   17  O1  UNL     1       6.666   0.540   2.117  1.00  0.00    -0.371 OA
HETATM   18  H1  UNL     1       7.237  -0.238   2.349  1.00  0.00     0.212 HD
ENDBRANCH  16  17
BRANCH  16  19
HETATM   19  O2  UNL     1       6.243   1.469   0.049  1.00  0.00    -0.371 OA
HETATM   20  H3  UNL     1       5.916   2.285   0.459  1.00  0.00     0.212 HD
ENDBRANCH  16  19
ENDBRANCH  15  16
ENDBRANCH  14  15
ENDBRANCH  12  13
ENDBRANCH   1  12
BRANCH   7  21
HETATM   21  C10 UNL     1      -4.112  -1.355  -0.198  1.00  0.00     0.150 A 
HETATM   22  C11 UNL     1      -4.519  -1.497   1.218  1.00  0.00     0.005 A 
HETATM   23  C12 UNL     1      -5.436  -0.567   1.478  1.00  0.00     0.017 A 
HETATM   24  C13 UNL     1      -5.702   0.239   0.298  1.00  0.00     0.009 A 
HETATM   25 BR1  UNL     1      -6.972   1.667   0.333  1.00  0.00    -0.051 Br
HETATM   26  C14 UNL     1      -4.918  -0.232  -0.682  1.00  0.00     0.022 A 
ENDBRANCH   7  21
TORSDOF 7
