REMARK  1 active torsions:
REMARK  status: ('A' for Active; 'I' for Inactive)
REMARK    1  A    between atoms: C3_3  and  C4_4 
ROOT
HETATM    1  C4  UNL     1       3.175   0.028  -0.170  1.00  0.00     0.072 A 
HETATM    2  N1  UNL     1       4.395  -0.196  -0.655  1.00  0.00    -0.241 NA
HETATM    3  C5  UNL     1       4.844  -1.284  -1.274  1.00  0.00     0.234 A 
HETATM    4  N2  UNL     1       3.939  -2.261  -1.416  1.00  0.00    -0.241 NA
HETATM    5  C6  UNL     1       2.693  -2.108  -0.955  1.00  0.00     0.073 A 
HETATM    6  C7  UNL     1       1.771  -3.115  -1.088  1.00  0.00     0.035 A 
HETATM    7  C8  UNL     1       0.484  -2.979  -0.607  1.00  0.00     0.034 A 
HETATM    8  C9  UNL     1       0.115  -1.811   0.019  1.00  0.00     0.055 A 
HETATM    9  C10 UNL     1       0.995  -0.731   0.198  1.00  0.00     0.070 A 
HETATM   10  C11 UNL     1       2.251  -0.969  -0.315  1.00  0.00     0.050 A 
HETATM   11  N3  UNL     1       0.629   0.480   0.836  1.00  0.00    -0.383 N 
HETATM   12  C12 UNL     1      -0.172   1.652   0.723  1.00  0.00     0.158 C 
HETATM   13  C13 UNL     1      -1.618   1.546   0.779  1.00  0.00    -0.040 A 
HETATM   14  C14 UNL     1      -2.310   1.760   1.955  1.00  0.00     0.009 A 
HETATM   15  C15 UNL     1      -3.668   1.664   2.150  1.00  0.00     0.001 A 
HETATM   16  C16 UNL     1      -4.480   1.311   1.066  1.00  0.00     0.011 A 
HETATM   17  C17 UNL     1      -3.851   1.074  -0.168  1.00  0.00    -0.036 A 
HETATM   18  C18 UNL     1      -2.488   1.209  -0.226  1.00  0.00     0.020 A 
HETATM   19  C19 UNL     1      -4.491   0.600  -1.401  1.00  0.00     0.009 C 
HETATM   20  C20 UNL     1      -4.282  -0.733  -1.453  1.00  0.00    -0.004 C 
HETATM   21  C21 UNL     1      -3.524  -1.333  -0.342  1.00  0.00     0.122 C 
HETATM   22 CL1  UNL     1      -4.418  -2.886   0.008  1.00  0.00    -0.119 Cl
HETATM   23  C22 UNL     1      -2.131  -1.655  -0.777  1.00  0.00     0.144 C 
HETATM   24  N4  UNL     1      -1.282  -1.893   0.408  1.00  0.00    -0.386 N 
HETATM   25  H9  UNL     1       1.251   0.235   1.673  1.00  0.00     0.160 HD
HETATM   26  H21 UNL     1      -0.972  -2.092   1.366  1.00  0.00     0.159 HD
ENDROOT
BRANCH   1  27
HETATM   27  C3  UNL     1       3.017   1.312   0.444  1.00  0.00     0.028 C 
HETATM   28  C2  UNL     1       3.980   2.209   0.542  1.00  0.00    -0.029 C 
HETATM   29  C1  UNL     1       5.351   2.020   0.035  1.00  0.00     0.036 C 
ENDBRANCH   1  27
TORSDOF 1
