REMARK  8 active torsions:
REMARK  status: ('A' for Active; 'I' for Inactive)
REMARK    1  A    between atoms: C2_2  and  C3_3 
REMARK    2  A    between atoms: C4_4  and  N1_5 
REMARK    3  A    between atoms: N1_5  and  C5_6 
REMARK    4  A    between atoms: C12_16  and  C13_17 
REMARK    5  A    between atoms: C13_17  and  C14_18 
REMARK    6  A    between atoms: N4_19  and  C15_20 
REMARK    7  A    between atoms: C15_20  and  C17_22 
REMARK    8  A    between atoms: C17_22  and  C18_23 
ROOT
HETATM    1  C3  UNL     1      -2.427   0.438  -1.180  1.00  0.00     0.031 A 
HETATM    2  C4  UNL     1      -3.780   0.663  -1.484  1.00  0.00     0.141 A 
HETATM    3  N2  UNL     1      -4.257   1.907  -1.613  1.00  0.00    -0.224 NA
HETATM    4  C11 UNL     1      -3.530   2.999  -1.474  1.00  0.00     0.235 A 
HETATM    5  N3  UNL     1      -2.273   2.779  -1.192  1.00  0.00    -0.245 NA
HETATM    6  C12 UNL     1      -1.641   1.585  -1.029  1.00  0.00     0.059 A 
ENDROOT
BRANCH   6   7
HETATM    7  C13 UNL     1      -0.441   1.098  -0.748  1.00  0.00     0.094 C 
BRANCH   7   8
HETATM    8  C14 UNL     1       0.957   1.397  -0.440  1.00  0.00     0.096 C 
HETATM    9  N4  UNL     1       1.575   0.320  -0.276  1.00  0.00    -0.300 NA
BRANCH   9  10
HETATM   10  C15 UNL     1       2.923   0.000   0.035  1.00  0.00     0.107 C 
HETATM   11  C16 UNL     1       3.388  -1.061  -0.938  1.00  0.00     0.034 C 
BRANCH  10  12
HETATM   12  C17 UNL     1       3.863   1.192   0.065  1.00  0.00     0.065 C 
BRANCH  12  13
HETATM   13  C18 UNL     1       5.256   0.770   0.398  1.00  0.00    -0.056 A 
HETATM   14  C19 UNL     1       6.224   0.402  -0.520  1.00  0.00     0.008 A 
HETATM   15  C20 UNL     1       7.480   0.031  -0.086  1.00  0.00     0.019 A 
HETATM   16  C21 UNL     1       7.828   0.009   1.254  1.00  0.00     0.011 A 
HETATM   17 BR1  UNL     1       9.593  -0.519   1.776  1.00  0.00    -0.051 Br
HETATM   18  C22 UNL     1       6.859   0.377   2.172  1.00  0.00     0.019 A 
HETATM   19  C23 UNL     1       5.595   0.751   1.752  1.00  0.00     0.008 A 
ENDBRANCH  12  13
ENDBRANCH  10  12
ENDBRANCH   9  10
ENDBRANCH   7   8
ENDBRANCH   6   7
BRANCH   1  20
HETATM   20  C2  UNL     1      -2.238  -0.852  -1.118  1.00  0.00    -0.014 C 
HETATM   21  C1  UNL     1      -0.983  -1.572  -0.828  1.00  0.00     0.037 C 
ENDBRANCH   1  20
BRANCH   2  22
HETATM   22  N1  UNL     1      -4.797  -0.311  -1.688  1.00  0.00    -0.340 N 
HETATM   23  H5  UNL     1      -4.977  -0.685  -2.633  1.00  0.00     0.167 HD
BRANCH  22  24
HETATM   24  C5  UNL     1      -5.553  -0.749  -0.547  1.00  0.00     0.035 A 
HETATM   25  C6  UNL     1      -5.238  -0.189   0.674  1.00  0.00     0.029 A 
HETATM   26  C7  UNL     1      -5.977  -0.620   1.777  1.00  0.00     0.004 A 
HETATM   27  C8  UNL     1      -6.983  -1.574   1.626  1.00  0.00     0.024 A 
HETATM   28  C9  UNL     1      -7.238  -2.086   0.379  1.00  0.00     0.036 A 
HETATM   29 CL1  UNL     1      -8.498  -3.291   0.148  1.00  0.00    -0.084 Cl
HETATM   30  C10 UNL     1      -6.538  -1.697  -0.753  1.00  0.00     0.053 A 
ENDBRANCH  22  24
ENDBRANCH   2  22
TORSDOF 8
