REMARK  5 active torsions:
REMARK  status: ('A' for Active; 'I' for Inactive)
REMARK    1  A    between atoms: C1_2  and  C2_3 
REMARK       I    between atoms: C1_2  and  N1_12 
REMARK    2  A    between atoms: C3_4  and  C4_5 
REMARK    3  A    between atoms: N1_12  and  C10_13 
REMARK    4  A    between atoms: C15_20  and  N4_21 
REMARK    5  A    between atoms: N4_21  and  C16_22 
ROOT
HETATM    1  C10 UNL     1      -0.152   0.151  -1.977  1.00  0.00     0.029 A 
HETATM    2  C11 UNL     1       0.517   0.149  -3.121  1.00  0.00     0.028 A 
HETATM    3  C12 UNL     1      -0.360  -0.055  -4.267  1.00  0.00     0.030 A 
HETATM    4  C13 UNL     1      -1.583  -0.173  -3.773  1.00  0.00     0.053 A 
HETATM    5  N2  UNL     1      -2.887  -0.391  -4.306  1.00  0.00    -0.245 NA
HETATM    6  C14 UNL     1      -3.827  -0.852  -3.510  1.00  0.00     0.235 C 
HETATM    7  N3  UNL     1      -3.534  -1.087  -2.166  1.00  0.00    -0.227 NA
HETATM    8  C15 UNL     1      -2.429  -0.876  -1.539  1.00  0.00     0.121 C 
HETATM    9  C22 UNL     1      -1.538  -0.031  -2.324  1.00  0.00     0.157 A 
ENDROOT
BRANCH   1  10
HETATM   10  N1  UNL     1       0.436   0.326  -0.708  1.00  0.00    -0.326 N 
HETATM   11  C1  UNL     1       1.784   0.454  -0.316  1.00  0.00     0.245 C 
HETATM   12  O1  UNL     1       2.388   0.374  -1.397  1.00  0.00    -0.268 OA
HETATM   13  H7  UNL     1      -0.291   0.387   0.075  1.00  0.00     0.169 HD
BRANCH  11  14
HETATM   14  C2  UNL     1       2.174   0.631   1.075  1.00  0.00     0.075 C 
HETATM   15  C3  UNL     1       3.268   0.771   1.730  1.00  0.00     0.017 C 
BRANCH  15  16
HETATM   16  C4  UNL     1       4.701   0.837   1.517  1.00  0.00    -0.036 A 
HETATM   17  C5  UNL     1       5.357   0.735   0.310  1.00  0.00     0.012 A 
HETATM   18  C6  UNL     1       6.703   0.799   0.104  1.00  0.00     0.020 A 
HETATM   19  C7  UNL     1       7.489   0.982   1.205  1.00  0.00     0.011 A 
HETATM   20 BR1  UNL     1       9.386   1.087   1.053  1.00  0.00    -0.051 Br
HETATM   21  C8  UNL     1       6.948   1.097   2.461  1.00  0.00     0.020 A 
HETATM   22  C9  UNL     1       5.585   1.019   2.558  1.00  0.00     0.012 A 
ENDBRANCH  15  16
ENDBRANCH  11  14
ENDBRANCH   1  10
BRANCH   8  23
HETATM   23  N4  UNL     1      -2.300  -1.212  -0.173  1.00  0.00    -0.347 N 
HETATM   24  H11 UNL     1      -1.356  -1.639   0.040  1.00  0.00     0.167 HD
BRANCH  23  25
HETATM   25  C16 UNL     1      -3.359  -0.991   0.750  1.00  0.00     0.012 A 
HETATM   26  C17 UNL     1      -2.910  -0.817   1.965  1.00  0.00     0.025 A 
HETATM   27  C18 UNL     1      -3.834  -0.573   3.092  1.00  0.00    -0.001 A 
HETATM   28  C19 UNL     1      -5.119  -0.550   2.759  1.00  0.00    -0.006 A 
HETATM   29  C20 UNL     1      -5.732  -0.735   1.439  1.00  0.00     0.110 A 
HETATM   30 CL1  UNL     1      -6.716   0.706   1.083  1.00  0.00    -0.120 Cl
HETATM   31  C21 UNL     1      -4.774  -0.964   0.315  1.00  0.00     0.081 A 
ENDBRANCH  23  25
ENDBRANCH   8  23
TORSDOF 5
