REMARK  2 active torsions:
REMARK  status: ('A' for Active; 'I' for Inactive)
REMARK    1  A    between atoms: C1_2  and  C2_3 
REMARK    2  A    between atoms: C13_14  and  C15_16 
ROOT
HETATM    1  C2  UNL     1       2.043   1.023   0.591  1.00  0.00     0.079 C 
HETATM    2  C3  UNL     1       0.988   0.944   1.638  1.00  0.00    -0.003 C 
HETATM    3  C4  UNL     1      -0.276   0.494   1.449  1.00  0.00     0.010 C 
HETATM    4  C5  UNL     1      -1.022  -0.449   0.557  1.00  0.00    -0.018 A 
HETATM    5  C6  UNL     1      -2.341  -0.201   0.735  1.00  0.00    -0.043 A 
HETATM    6  C7  UNL     1      -3.235  -1.082   0.168  1.00  0.00     0.009 A 
HETATM    7  C8  UNL     1      -2.754  -2.176  -0.564  1.00  0.00     0.013 A 
HETATM    8  C9  UNL     1      -1.395  -2.446  -0.772  1.00  0.00    -0.024 A 
HETATM    9  C10 UNL     1      -1.103  -3.516  -1.579  1.00  0.00     0.012 A 
HETATM   10  C11 UNL     1       0.237  -3.695  -1.842  1.00  0.00     0.002 A 
HETATM   11  C12 UNL     1       1.202  -2.857  -1.331  1.00  0.00     0.013 A 
HETATM   12  C13 UNL     1       0.808  -1.825  -0.540  1.00  0.00    -0.012 A 
HETATM   13  C14 UNL     1      -0.551  -1.544  -0.190  1.00  0.00    -0.004 A 
HETATM   14  C15 UNL     1       2.007  -0.949  -0.239  1.00  0.00    -0.002 C 
HETATM   15  C16 UNL     1       3.194  -1.000   0.261  1.00  0.00    -0.011 C 
HETATM   16  C17 UNL     1       3.319   0.324   0.903  1.00  0.00     0.055 C 
HETATM   17  C18 UNL     1       1.607   0.431  -0.668  1.00  0.00     0.066 C 
HETATM   18  N1  UNL     1       0.989   0.989  -1.622  1.00  0.00    -0.244 NA
HETATM   19  C19 UNL     1       0.568   2.319  -1.678  1.00  0.00     0.232 C 
HETATM   20  N2  UNL     1      -0.374   2.994  -1.103  1.00  0.00    -0.254 NA
HETATM   21  C20 UNL     1      -1.313   2.522  -0.181  1.00  0.00     0.114 C 
HETATM   22  C21 UNL     1      -2.229   2.207   0.723  1.00  0.00    -0.003 C 
HETATM   23  C22 UNL     1      -2.894   1.021   1.356  1.00  0.00     0.068 C 
ENDROOT
BRANCH   1  24
HETATM   24  C1  UNL     1       2.399   2.482   0.397  1.00  0.00     0.251 C 
HETATM   25  O1  UNL     1       1.999   3.502   0.911  1.00  0.00    -0.305 OA
ENDBRANCH   1  24
TORSDOF 2
