REMARK  4 active torsions:
REMARK  status: ('A' for Active; 'I' for Inactive)
REMARK    1  A    between atoms: C1_2  and  C2_3 
REMARK       I    between atoms: C2_3  and  N1_5 
REMARK    2  A    between atoms: N1_5  and  C3_6 
REMARK    3  A    between atoms: C8_13  and  N4_14 
REMARK    4  A    between atoms: N4_14  and  C9_15 
ROOT
HETATM    1  C3  UNL     1      -2.492  -0.189  -0.408  1.00  0.00     0.036 A 
HETATM    2  C4  UNL     1      -3.267  -1.285  -0.081  1.00  0.00     0.032 A 
HETATM    3  C5  UNL     1      -2.701  -2.531   0.100  1.00  0.00     0.035 A 
HETATM    4  C6  UNL     1      -1.330  -2.680  -0.051  1.00  0.00     0.072 A 
HETATM    5  N2  UNL     1      -0.698  -3.834   0.098  1.00  0.00    -0.241 NA
HETATM    6  C7  UNL     1       0.635  -3.950  -0.058  1.00  0.00     0.236 A 
HETATM    7  N3  UNL     1       1.339  -2.853  -0.378  1.00  0.00    -0.224 NA
HETATM    8  C8  UNL     1       0.781  -1.626  -0.551  1.00  0.00     0.142 A 
HETATM    9  C15 UNL     1      -0.583  -1.554  -0.381  1.00  0.00     0.041 A 
HETATM   10  C16 UNL     1      -1.125  -0.301  -0.566  1.00  0.00     0.047 A 
ENDROOT
BRANCH   8  11
HETATM   11  N4  UNL     1       1.680  -0.614  -0.889  1.00  0.00    -0.340 N 
HETATM   12  H6  UNL     1       1.477  -0.666  -1.930  1.00  0.00     0.167 HD
BRANCH  11  13
HETATM   13  C9  UNL     1       2.613   0.294  -0.333  1.00  0.00     0.035 A 
HETATM   14  C10 UNL     1       2.879   0.290   1.016  1.00  0.00     0.029 A 
HETATM   15  C11 UNL     1       3.808   1.199   1.479  1.00  0.00     0.004 A 
HETATM   16  C12 UNL     1       4.432   2.064   0.617  1.00  0.00     0.019 A 
HETATM   17  C13 UNL     1       4.138   2.040  -0.735  1.00  0.00     0.013 A 
HETATM   18 BR1  UNL     1       4.982   3.231  -1.997  1.00  0.00    -0.051 Br
HETATM   19  C14 UNL     1       3.218   1.147  -1.229  1.00  0.00     0.048 A 
ENDBRANCH  11  13
ENDBRANCH   8  11
BRANCH   1  20
HETATM   20  N1  UNL     1      -3.252   0.993  -0.552  1.00  0.00    -0.321 N 
HETATM   21  C2  UNL     1      -3.602   1.993   0.412  1.00  0.00     0.283 C 
HETATM   22  O2  UNL     1      -3.197   1.854   1.596  1.00  0.00    -0.265 OA
HETATM   23  H2  UNL     1      -3.544   1.022  -1.562  1.00  0.00     0.169 HD
BRANCH  21  24
HETATM   24  C1  UNL     1      -4.421   3.128  -0.045  1.00  0.00     0.332 C 
HETATM   25  O1  UNL     1      -4.803   3.211  -1.252  1.00  0.00    -0.297 OA
ENDBRANCH  21  24
ENDBRANCH   1  20
TORSDOF 4
