REMARK  6 active torsions:
REMARK  status: ('A' for Active; 'I' for Inactive)
REMARK    1  A    between atoms: P1_2  and  N1_3 
REMARK    2  A    between atoms: N2_5  and  C3_6 
REMARK    3  A    between atoms: C3_6  and  N3_7 
REMARK    4  A    between atoms: N3_7  and  C4_8 
REMARK    5  A    between atoms: C11_16  and  C12_17 
REMARK    6  A    between atoms: C12_17  and  N4_18 
ROOT
HETATM    1  C1  UNL     1      -3.615  -1.531  -1.147  1.00  0.00    -0.023 C 
HETATM    2  P1  UNL     1      -2.237  -2.054  -0.503  1.00  0.00     0.038 P 
HETATM    3  C3  UNL     1      -0.302  -1.218   0.304  1.00  0.00     0.139 A 
HETATM    4  C10 UNL     1      -1.670  -2.253  -0.244  1.00  0.00     0.082 A 
HETATM    5  C11 UNL     1      -1.749  -0.668  -0.502  1.00  0.00     0.206 A 
ENDROOT
BRANCH   3   6
HETATM    6  N2  UNL     1       0.687  -2.171   0.758  1.00  0.00    -0.152 NA
HETATM    7  C2  UNL     1      -0.035  -3.631   0.544  1.00  0.00     0.196 A 
HETATM    8  N1  UNL     1      -0.070  -2.955   0.496  1.00  0.00    -0.271 N 
ENDBRANCH   3   6
BRANCH   3   9
HETATM    9  N3  UNL     1       0.638   0.035   0.688  1.00  0.00    -0.364 N 
HETATM   10  H3  UNL     1      -0.048   0.688   1.127  1.00  0.00     0.162 HD
BRANCH   9  11
HETATM   11  C4  UNL     1       1.975   0.073   0.461  1.00  0.00     0.031 A 
HETATM   12  C5  UNL     1       2.504   0.699  -0.551  1.00  0.00     0.029 A 
HETATM   13  C6  UNL     1       3.857   0.655  -0.578  1.00  0.00     0.004 A 
HETATM   14  C7  UNL     1       4.663   0.058   0.321  1.00  0.00     0.024 A 
HETATM   15  C8  UNL     1       4.200  -0.662   1.483  1.00  0.00     0.036 A 
HETATM   16 CL1  UNL     1       5.062  -1.454   2.629  1.00  0.00    -0.084 Cl
HETATM   17  C9  UNL     1       2.770  -0.518   1.342  1.00  0.00     0.053 A 
ENDBRANCH   9  11
ENDBRANCH   3   9
BRANCH   5  18
HETATM   18  C12 UNL     1      -2.006   0.827  -0.821  1.00  0.00     0.153 C 
HETATM   19  C13 UNL     1      -1.332   2.038  -0.847  1.00  0.00     0.021 C 
HETATM   20  C14 UNL     1      -2.299   3.066  -1.293  1.00  0.00     0.012 C 
BRANCH  18  21
HETATM   21  N4  UNL     1      -3.495   0.985  -1.153  1.00  0.00     0.084 NA
HETATM   22  H9  UNL     1      -3.677   1.037  -0.116  1.00  0.00     0.313 HD
HETATM   23  H10 UNL     1      -3.970   1.053  -0.215  1.00  0.00     0.313 HD
ENDBRANCH  18  21
ENDBRANCH   5  18
TORSDOF 6
