REMARK  5 active torsions:
REMARK  status: ('A' for Active; 'I' for Inactive)
REMARK    1  A    between atoms: N1_2  and  C2_3 
REMARK    2  A    between atoms: C4_5  and  O1_6 
REMARK    3  A    between atoms: O1_6  and  C5_7 
REMARK    4  A    between atoms: C5_7  and  C6_8 
REMARK    5  A    between atoms: C6_8  and  O2_9 
ROOT
HETATM    1  C2  UNL     1      -1.727   1.201  -0.251  1.00  0.00     0.081 C 
HETATM    2  C3  UNL     1      -0.500   1.185  -0.774  1.00  0.00     0.067 C 
HETATM    3  C4  UNL     1       0.504   0.137  -0.360  1.00  0.00     0.201 C 
HETATM    4  C8  UNL     1       0.135  -0.170   1.078  1.00  0.00     0.339 C 
HETATM    5  N2  UNL     1      -1.177  -0.785   1.075  1.00  0.00     0.112 N 
HETATM    6  C9  UNL     1      -2.155  -0.082   0.314  1.00  0.00     0.243 A 
HETATM    7  C10 UNL     1      -3.362   0.107   1.186  1.00  0.00     0.026 A 
HETATM    8  C11 UNL     1      -4.351  -0.586   0.693  1.00  0.00    -0.000 A 
HETATM    9  C12 UNL     1      -3.963  -1.299  -0.518  1.00  0.00     0.006 A 
HETATM   10  C13 UNL     1      -2.690  -1.008  -0.741  1.00  0.00    -0.027 A 
HETATM   11  C14 UNL     1      -2.036  -1.625  -1.947  1.00  0.00     0.084 C 
HETATM   12  C15 UNL     1      -0.555  -1.652  -1.788  1.00  0.00     0.091 C 
HETATM   13  N3  UNL     1       0.379  -1.047  -1.146  1.00  0.00    -0.261 NA
HETATM   14  H13 UNL     1      -1.063  -1.799   0.787  1.00  0.00     0.318 HD
ENDROOT
BRANCH   3  15
HETATM   15  O1  UNL     1       1.747   0.713  -0.420  1.00  0.00    -0.352 OA
BRANCH  15  16
HETATM   16  C5  UNL     1       2.803  -0.105  -0.071  1.00  0.00     0.197 C 
BRANCH  16  17
HETATM   17  C6  UNL     1       4.073   0.747  -0.214  1.00  0.00     0.193 C 
BRANCH  17  18
HETATM   18  O2  UNL     1       5.212   0.045   0.107  1.00  0.00    -0.394 OA
HETATM   19  C7  UNL     1       5.246  -0.439   1.397  1.00  0.00     0.201 C 
ENDBRANCH  17  18
ENDBRANCH  16  17
ENDBRANCH  15  16
ENDBRANCH   3  15
BRANCH   1  20
HETATM   20  N1  UNL     1      -2.604   2.325  -0.207  1.00  0.00    -0.273 NA
HETATM   21  C1  UNL     1      -2.135   3.496   0.083  1.00  0.00     0.149 C 
ENDBRANCH   1  20
TORSDOF 5
