REMARK  5 active torsions:
REMARK  status: ('A' for Active; 'I' for Inactive)
REMARK    1  A    between atoms: O1_2  and  C2_3 
REMARK    2  A    between atoms: C2_3  and  C3_4 
REMARK    3  A    between atoms: C3_4  and  O2_5 
REMARK    4  A    between atoms: O2_5  and  C4_6 
REMARK    5  A    between atoms: C13_19  and  N3_20 
ROOT
HETATM    1  C4  UNL     1       1.275  -2.007   0.180  1.00  0.00     0.102 A 
HETATM    2  C5  UNL     1       1.830  -0.818  -0.227  1.00  0.00     0.040 A 
HETATM    3  C6  UNL     1       1.018   0.243  -0.577  1.00  0.00     0.018 A 
HETATM    4  C7  UNL     1      -0.319   0.027  -0.494  1.00  0.00     0.013 A 
HETATM    5  C8  UNL     1      -0.930  -1.139  -0.106  1.00  0.00     0.055 A 
HETATM    6  C9  UNL     1      -0.122  -2.193   0.249  1.00  0.00     0.103 A 
HETATM    7  O3  UNL     1      -0.474  -3.431   0.677  1.00  0.00    -0.346 OA
HETATM    8  C10 UNL     1      -1.640  -3.801   1.315  1.00  0.00     0.204 C 
HETATM    9  C11 UNL     1      -1.829  -2.990   2.593  1.00  0.00     0.230 C 
HETATM   10  O4  UNL     1      -1.957  -1.686   2.504  1.00  0.00    -0.253 OA
HETATM   11  N1  UNL     1      -2.082  -0.442   2.451  1.00  0.00    -0.127 NA
HETATM   12  C12 UNL     1      -2.211   0.370   1.446  1.00  0.00     0.264 C 
HETATM   13  N2  UNL     1      -2.355   1.211   0.228  1.00  0.00    -0.222 NA
HETATM   14  C13 UNL     1      -1.366   0.941  -0.632  1.00  0.00     0.138 C 
ENDROOT
BRANCH  14  15
HETATM   15  N3  UNL     1      -1.324   1.753  -1.825  1.00  0.00    -0.358 N 
HETATM   16  C14 UNL     1      -2.327   1.198  -2.739  1.00  0.00     0.152 C 
HETATM   17  C15 UNL     1      -3.632   1.770  -2.210  1.00  0.00    -0.007 C 
HETATM   18  C16 UNL     1      -3.760   3.106  -2.037  1.00  0.00    -0.002 C 
HETATM   19  C17 UNL     1      -2.849   4.222  -2.263  1.00  0.00     0.004 C 
HETATM   20  C18 UNL     1      -1.517   4.107  -2.344  1.00  0.00    -0.066 C 
HETATM   21  C19 UNL     1      -0.798   5.402  -2.586  1.00  0.00     0.045 C 
HETATM   22  C20 UNL     1      -0.562   2.942  -2.241  1.00  0.00     0.158 C 
ENDBRANCH  14  15
BRANCH   1  23
HETATM   23  O2  UNL     1       2.106  -3.037   0.530  1.00  0.00    -0.346 OA
BRANCH  23  24
HETATM   24  C3  UNL     1       3.438  -3.257   0.582  1.00  0.00     0.201 C 
BRANCH  24  25
HETATM   25  C2  UNL     1       4.134  -2.371   1.581  1.00  0.00     0.193 C 
BRANCH  25  26
HETATM   26  O1  UNL     1       5.516  -2.621   1.609  1.00  0.00    -0.394 OA
HETATM   27  C1  UNL     1       6.031  -1.731   2.580  1.00  0.00     0.201 C 
ENDBRANCH  25  26
ENDBRANCH  24  25
ENDBRANCH  23  24
ENDBRANCH   1  23
TORSDOF 5
