REMARK  4 active torsions:
REMARK  status: ('A' for Active; 'I' for Inactive)
REMARK    1  A    between atoms: C13_16  and  O1_17 
REMARK    2  A    between atoms: O1_17  and  C14_18 
REMARK    3  A    between atoms: C14_18  and  C15_19 
REMARK    4  A    between atoms: C15_19  and  O2_20 
ROOT
HETATM    1  C1  UNL     1      -1.159  -4.601  -1.140  1.00  0.00     0.012 C 
HETATM    2  C2  UNL     1      -1.399  -3.391  -1.219  1.00  0.00    -0.109 C 
HETATM    3  C3  UNL     1      -1.666  -1.939  -1.330  1.00  0.00     0.039 C 
HETATM    4  C4  UNL     1      -2.707  -2.021  -0.412  1.00  0.00     0.091 C 
HETATM    5  C5  UNL     1      -3.598  -1.000   0.146  1.00  0.00    -0.018 C 
HETATM    6  C6  UNL     1      -4.085   0.243   0.338  1.00  0.00     0.021 C 
HETATM    7  C7  UNL     1      -3.744   1.556  -0.132  1.00  0.00     0.011 C 
HETATM    8  C8  UNL     1      -4.355   2.678   0.141  1.00  0.00     0.063 C 
HETATM    9  N1  UNL     1      -2.760   2.242  -0.883  1.00  0.00    -0.344 N 
HETATM   10  C9  UNL     1      -1.637   2.486   0.007  1.00  0.00     0.141 A 
HETATM   11  N2  UNL     1      -1.678   3.468   0.909  1.00  0.00    -0.224 NA
HETATM   12  C10 UNL     1      -0.637   3.668   1.774  1.00  0.00     0.236 A 
HETATM   13  N3  UNL     1       0.475   2.886   1.757  1.00  0.00    -0.241 NA
HETATM   14  C11 UNL     1       0.544   1.891   0.860  1.00  0.00     0.075 A 
HETATM   15  C12 UNL     1       1.626   1.046   0.776  1.00  0.00     0.072 A 
HETATM   16  C13 UNL     1       1.812  -0.006  -0.086  1.00  0.00     0.104 A 
HETATM   17  C17 UNL     1       0.751  -0.232  -0.994  1.00  0.00     0.103 A 
HETATM   18  C18 UNL     1      -0.325   0.672  -0.852  1.00  0.00     0.057 A 
HETATM   19  C19 UNL     1      -0.514   1.718   0.007  1.00  0.00     0.042 A 
HETATM   20  O3  UNL     1       0.553  -1.186  -2.020  1.00  0.00    -0.347 OA
HETATM   21  C20 UNL     1      -0.779  -1.385  -2.411  1.00  0.00     0.194 C 
HETATM   22  H7  UNL     1      -2.310   2.694  -1.672  1.00  0.00     0.167 HD
ENDROOT
BRANCH  16  23
HETATM   23  O1  UNL     1       2.660  -0.940  -0.402  1.00  0.00    -0.346 OA
BRANCH  23  24
HETATM   24  C14 UNL     1       3.856  -1.439  -0.075  1.00  0.00     0.201 C 
BRANCH  24  25
HETATM   25  C15 UNL     1       4.022  -1.968   1.326  1.00  0.00     0.193 C 
BRANCH  25  26
HETATM   26  O2  UNL     1       3.842  -1.033   2.310  1.00  0.00    -0.394 OA
HETATM   27  C16 UNL     1       4.812  -0.052   2.245  1.00  0.00     0.201 C 
ENDBRANCH  25  26
ENDBRANCH  24  25
ENDBRANCH  23  24
ENDBRANCH  16  23
TORSDOF 4
