REMARK  0 active torsions:
REMARK  status: ('A' for Active; 'I' for Inactive)
ROOT
HETATM    1 BR1  UNL     1      -2.461   0.214   2.640  1.00  0.00    -0.049 Br
HETATM    2  C1  UNL     1      -2.016  -0.485   0.951  1.00  0.00     0.039 A 
HETATM    3  C2  UNL     1      -1.554  -1.772   0.843  1.00  0.00     0.051 A 
HETATM    4  C3  UNL     1      -1.235  -2.261  -0.405  1.00  0.00     0.035 A 
HETATM    5  C4  UNL     1      -1.365  -1.503  -1.549  1.00  0.00     0.032 A 
HETATM    6  C5  UNL     1      -1.825  -0.211  -1.464  1.00  0.00     0.033 A 
HETATM    7  C6  UNL     1      -2.145   0.279  -0.196  1.00  0.00     0.046 A 
HETATM    8  N1  UNL     1      -2.598   1.628  -0.074  1.00  0.00    -0.384 N 
HETATM    9  C7  UNL     1      -3.465   2.782  -0.005  1.00  0.00     0.164 C 
HETATM   10  P1  UNL     1      -2.403   4.302   0.253  1.00  0.00    -0.028 P 
HETATM   11  C8  UNL     1      -0.713   3.898   0.474  1.00  0.00    -0.077 C 
HETATM   12  C9  UNL     1       0.416   3.609   0.614  1.00  0.00    -0.095 C 
HETATM   13  C10 UNL     1       1.740   3.246   0.789  1.00  0.00     0.116 C 
HETATM   14  C11 UNL     1       2.347   2.147   0.411  1.00  0.00     0.014 C 
HETATM   15  C12 UNL     1       2.787   0.831  -0.118  1.00  0.00    -0.000 C 
HETATM   16  C13 UNL     1       3.886   0.124  -0.170  1.00  0.00     0.140 C 
HETATM   17  O1  UNL     1       3.470  -1.013  -0.840  1.00  0.00    -0.304 OA
HETATM   18  C14 UNL     1       2.693  -1.982  -0.224  1.00  0.00     0.173 A 
HETATM   19  C15 UNL     1       1.472  -2.181  -0.814  1.00  0.00     0.108 A 
HETATM   20  C16 UNL     1       0.616  -3.132  -0.268  1.00  0.00     0.133 A 
HETATM   21  N2  UNL     1       1.051  -3.806   0.822  1.00  0.00    -0.224 NA
HETATM   22  C17 UNL     1       2.255  -3.597   1.387  1.00  0.00     0.238 A 
HETATM   23  N3  UNL     1       3.069  -2.678   0.851  1.00  0.00    -0.217 NA
HETATM   24  N4  UNL     1      -0.703  -3.589  -0.599  1.00  0.00    -0.341 N 
HETATM   25  H4  UNL     1      -1.558   1.863   0.029  1.00  0.00     0.160 HD
HETATM   26  H7  UNL     1      -2.649   5.293  -0.779  1.00  0.00     0.072 HD
HETATM   27  H14 UNL     1      -0.881  -4.579  -0.844  1.00  0.00     0.167 HD
ENDROOT
TORSDOF 0
