REMARK  4 active torsions:
REMARK  status: ('A' for Active; 'I' for Inactive)
REMARK    1  A    between atoms: N1_1  and  C1_2 
REMARK    2  A    between atoms: C2_3  and  C3_4 
REMARK    3  A    between atoms: C7_11  and  C8_12 
REMARK    4  A    between atoms: C9_13  and  C10_14 
ROOT
HETATM    1  C3  UNL     1      -3.475   0.127   0.171  1.00  0.00     0.006 C 
HETATM    2  C4  UNL     1      -2.332  -0.582   0.185  1.00  0.00    -0.060 C 
HETATM    3  C5  UNL     1      -2.378  -2.045  -0.072  1.00  0.00     0.156 C 
HETATM    4  N2  UNL     1      -2.049  -2.309  -1.484  1.00  0.00    -0.363 N 
HETATM    5  C6  UNL     1      -0.980  -1.563  -2.106  1.00  0.00     0.168 C 
HETATM    6  S1  UNL     1      -0.812  -1.907  -3.714  1.00  0.00    -0.041 SA
HETATM    7  N3  UNL     1      -0.051  -0.589  -1.580  1.00  0.00    -0.359 N 
HETATM    8  C7  UNL     1       0.086  -0.453  -0.126  1.00  0.00     0.111 C 
HETATM    9  C16 UNL     1      -1.108   0.204   0.463  1.00  0.00     0.065 C 
HETATM   10  H8  UNL     1      -2.527  -3.007  -2.109  1.00  0.00     0.162 HD
HETATM   11  H9  UNL     1       0.484  -0.021  -2.286  1.00  0.00     0.162 HD
ENDROOT
BRANCH   8  12
HETATM   12  C8  UNL     1       1.349   0.263   0.135  1.00  0.00    -0.001 C 
HETATM   13  C9  UNL     1       2.525  -0.343   0.141  1.00  0.00     0.011 C 
BRANCH  13  14
HETATM   14  C10 UNL     1       3.780   0.349   0.397  1.00  0.00    -0.015 A 
HETATM   15  C11 UNL     1       3.843   1.701   0.656  1.00  0.00     0.013 A 
HETATM   16  C12 UNL     1       5.036   2.351   0.897  1.00  0.00     0.001 A 
HETATM   17  C13 UNL     1       6.235   1.633   0.884  1.00  0.00     0.002 A 
HETATM   18  C14 UNL     1       6.168   0.274   0.623  1.00  0.00     0.024 A 
HETATM   19  C15 UNL     1       4.968  -0.348   0.386  1.00  0.00     0.044 A 
HETATM   20 CL1  UNL     1       4.943  -2.070   0.062  1.00  0.00    -0.083 Cl
ENDBRANCH  13  14
ENDBRANCH   8  12
BRANCH   1  21
HETATM   21  C2  UNL     1      -4.767  -0.478  -0.087  1.00  0.00     0.017 C 
HETATM   22  C1  UNL     1      -5.850   0.256  -0.089  1.00  0.00     0.080 C 
BRANCH  22  23
HETATM   23  N1  UNL     1      -5.673   1.660   0.174  1.00  0.00    -0.408 N 
HETATM   24  H1  UNL     1      -5.326   2.224   0.968  1.00  0.00     0.155 HD
HETATM   25  H2  UNL     1      -5.907   2.407  -0.507  1.00  0.00     0.155 HD
ENDBRANCH  22  23
ENDBRANCH   1  21
TORSDOF 4
