REMARK  5 active torsions:
REMARK  status: ('A' for Active; 'I' for Inactive)
REMARK    1  A    between atoms: O1_2  and  C2_3 
REMARK    2  A    between atoms: C6_7  and  C7_8 
REMARK    3  A    between atoms: C8_9  and  C9_10 
REMARK       I    between atoms: C9_10  and  N1_12 
REMARK    4  A    between atoms: N1_12  and  C10_13 
REMARK    5  A    between atoms: C15_20  and  N4_21 
ROOT
HETATM    1  C10 UNL     1      -1.111  -1.577   1.064  1.00  0.00     0.036 A 
HETATM    2  C11 UNL     1      -1.262  -2.826   1.668  1.00  0.00     0.032 A 
HETATM    3  C12 UNL     1      -2.421  -3.564   1.553  1.00  0.00     0.035 A 
HETATM    4  C13 UNL     1      -3.498  -3.083   0.821  1.00  0.00     0.072 A 
HETATM    5  N2  UNL     1      -4.653  -3.754   0.665  1.00  0.00    -0.241 NA
HETATM    6  C14 UNL     1      -5.630  -3.173  -0.083  1.00  0.00     0.236 A 
HETATM    7  N3  UNL     1      -5.464  -1.950  -0.666  1.00  0.00    -0.223 NA
HETATM    8  C15 UNL     1      -4.299  -1.251  -0.519  1.00  0.00     0.144 A 
HETATM    9  C21 UNL     1      -3.313  -1.846   0.239  1.00  0.00     0.041 A 
HETATM   10  C22 UNL     1      -2.170  -1.082   0.332  1.00  0.00     0.047 A 
ENDROOT
BRANCH   1  11
HETATM   11  N1  UNL     1       0.110  -0.865   1.220  1.00  0.00    -0.324 N 
HETATM   12  C9  UNL     1       0.500   0.072   2.216  1.00  0.00     0.245 C 
HETATM   13  O2  UNL     1      -0.382   0.275   3.056  1.00  0.00    -0.268 OA
HETATM   14  H9  UNL     1       0.729  -1.157   0.431  1.00  0.00     0.169 HD
BRANCH  12  15
HETATM   15  C8  UNL     1       1.803   0.686   2.189  1.00  0.00     0.075 C 
HETATM   16  C7  UNL     1       2.772   0.516   1.336  1.00  0.00     0.017 C 
BRANCH  16  17
HETATM   17  C6  UNL     1       4.074   1.155   1.345  1.00  0.00    -0.033 A 
HETATM   18  C5  UNL     1       4.450   2.062   2.307  1.00  0.00     0.011 A 
HETATM   19  C4  UNL     1       5.709   2.665   2.295  1.00  0.00     0.004 A 
HETATM   20  C3  UNL     1       6.594   2.344   1.296  1.00  0.00     0.037 A 
HETATM   21  C2  UNL     1       6.234   1.428   0.311  1.00  0.00     0.069 A 
HETATM   22  C23 UNL     1       4.982   0.854   0.357  1.00  0.00     0.048 A 
BRANCH  21  23
HETATM   23  O1  UNL     1       7.113   1.091  -0.706  1.00  0.00    -0.356 OA
HETATM   24  C1  UNL     1       6.836   0.179  -1.739  1.00  0.00     0.210 C 
ENDBRANCH  21  23
ENDBRANCH  16  17
ENDBRANCH  12  15
ENDBRANCH   1  11
BRANCH   8  25
HETATM   25  N4  UNL     1      -4.353  -0.008  -1.179  1.00  0.00    -0.336 N 
HETATM   26  C16 UNL     1      -4.352  -0.232  -2.584  1.00  0.00     0.116 A 
HETATM   27  C17 UNL     1      -4.371   0.730  -3.523  1.00  0.00     0.049 A 
HETATM   28 CL1  UNL     1      -4.370   0.506  -5.259  1.00  0.00    -0.083 Cl
HETATM   29  C18 UNL     1      -4.406   2.146  -3.100  1.00  0.00     0.023 A 
HETATM   30  C19 UNL     1      -4.415   2.283  -1.785  1.00  0.00    -0.005 A 
HETATM   31  C20 UNL     1      -4.399   1.338  -0.647  1.00  0.00     0.157 A 
ENDBRANCH   8  25
TORSDOF 5
