REMARK  2 active torsions:
REMARK  status: ('A' for Active; 'I' for Inactive)
REMARK    1  A    between atoms: C8_11  and  C9_12 
REMARK    2  A    between atoms: C10_13  and  C11_14 
ROOT
HETATM    1  C1  UNL     1      -1.169  -1.952  -0.780  1.00  0.00     0.161 C 
HETATM    2  N1  UNL     1       0.131  -1.445  -0.482  1.00  0.00    -0.331 N 
HETATM    3  S1  UNL     1       1.400  -2.470  -0.931  1.00  0.00     0.065 SA
HETATM    4  N2  UNL     1       1.548  -2.798  -2.624  1.00  0.00    -0.323 N 
HETATM    5  C2  UNL     1       1.672  -3.061  -3.991  1.00  0.00     0.097 C 
HETATM    6  C3  UNL     1       1.259  -2.210  -4.880  1.00  0.00     0.014 C 
HETATM    7  C4  UNL     1       0.635  -0.917  -5.017  1.00  0.00     0.010 C 
HETATM    8  C5  UNL     1       0.272  -0.152  -3.957  1.00  0.00     0.021 C 
HETATM    9  C6  UNL     1      -0.098   0.632  -2.712  1.00  0.00    -0.024 C 
HETATM   10  C7  UNL     1      -0.187   0.828  -1.406  1.00  0.00    -0.001 C 
HETATM   11  C8  UNL     1       0.248  -0.074  -0.315  1.00  0.00     0.137 C 
HETATM   12  H4  UNL     1       2.460  -2.253  -2.564  1.00  0.00     0.175 HD
ENDROOT
BRANCH  11  13
HETATM   13  C9  UNL     1      -0.469   0.409   0.932  1.00  0.00     0.001 C 
HETATM   14  C10 UNL     1      -0.014   1.168   1.911  1.00  0.00     0.008 C 
BRANCH  14  15
HETATM   15  C11 UNL     1      -0.926   1.500   3.029  1.00  0.00     0.175 A 
HETATM   16  C12 UNL     1      -0.499   0.749   4.222  1.00  0.00     0.009 A 
HETATM   17  C13 UNL     1      -0.199   1.281   5.401  1.00  0.00     0.002 A 
HETATM   18  C14 UNL     1      -0.303   2.738   5.519  1.00  0.00     0.049 A 
HETATM   19  C15 UNL     1      -0.679   3.443   4.479  1.00  0.00     0.139 A 
HETATM   20 CL1  UNL     1      -0.846   5.201   4.482  1.00  0.00    -0.057 Cl
HETATM   21  O1  UNL     1      -0.994   2.908   3.244  1.00  0.00    -0.327 OA
ENDBRANCH  14  15
ENDBRANCH  11  13
TORSDOF 2
