REMARK  5 active torsions:
REMARK  status: ('A' for Active; 'I' for Inactive)
REMARK    1  A    between atoms: O1_2  and  C2_3 
REMARK    2  A    between atoms: C6_7  and  C7_8 
REMARK    3  A    between atoms: C8_9  and  C9_10 
REMARK       I    between atoms: C9_10  and  N1_12 
REMARK    4  A    between atoms: N1_12  and  C10_13 
REMARK    5  A    between atoms: C15_20  and  N4_21 
ROOT
HETATM    1  C10 UNL     1      -1.301   1.151  -1.593  1.00  0.00     0.036 A 
HETATM    2  C11 UNL     1      -1.361   1.884  -2.754  1.00  0.00     0.032 A 
HETATM    3  C12 UNL     1      -2.540   2.380  -3.245  1.00  0.00     0.035 A 
HETATM    4  C13 UNL     1      -3.736   2.169  -2.595  1.00  0.00     0.072 A 
HETATM    5  N2  UNL     1      -4.911   2.657  -3.055  1.00  0.00    -0.241 NA
HETATM    6  C14 UNL     1      -6.025   2.423  -2.376  1.00  0.00     0.236 A 
HETATM    7  N3  UNL     1      -6.041   1.711  -1.231  1.00  0.00    -0.223 NA
HETATM    8  C15 UNL     1      -4.919   1.193  -0.709  1.00  0.00     0.147 A 
HETATM    9  C21 UNL     1      -3.744   1.429  -1.408  1.00  0.00     0.041 A 
HETATM   10  C22 UNL     1      -2.509   0.958  -0.973  1.00  0.00     0.047 A 
ENDROOT
BRANCH   1  11
HETATM   11  N1  UNL     1      -0.064   0.658  -1.102  1.00  0.00    -0.324 N 
HETATM   12  C9  UNL     1       0.324  -0.090   0.039  1.00  0.00     0.245 C 
HETATM   13  O2  UNL     1      -0.644  -0.388   0.780  1.00  0.00    -0.268 OA
HETATM   14  H9  UNL     1       0.773   0.899  -1.723  1.00  0.00     0.169 HD
BRANCH  12  15
HETATM   15  C8  UNL     1       1.716  -0.438   0.263  1.00  0.00     0.075 C 
HETATM   16  C7  UNL     1       2.826  -0.203  -0.414  1.00  0.00     0.017 C 
BRANCH  16  17
HETATM   17  C6  UNL     1       4.125  -0.653   0.004  1.00  0.00    -0.033 A 
HETATM   18  C5  UNL     1       4.368  -1.354   1.162  1.00  0.00     0.011 A 
HETATM   19  C4  UNL     1       5.634  -1.789   1.561  1.00  0.00     0.004 A 
HETATM   20  C3  UNL     1       6.713  -1.505   0.754  1.00  0.00     0.037 A 
HETATM   21  C2  UNL     1       6.470  -0.806  -0.399  1.00  0.00     0.069 A 
HETATM   22  C23 UNL     1       5.217  -0.365  -0.813  1.00  0.00     0.048 A 
BRANCH  21  23
HETATM   23  O1  UNL     1       7.457  -0.443  -1.318  1.00  0.00    -0.356 OA
HETATM   24  C1  UNL     1       8.790  -0.809  -1.053  1.00  0.00     0.210 C 
ENDBRANCH  21  23
ENDBRANCH  16  17
ENDBRANCH  12  15
ENDBRANCH   1  11
BRANCH   8  25
HETATM   25  N4  UNL     1      -4.842   0.435   0.479  1.00  0.00    -0.316 N 
HETATM   26  C16 UNL     1      -5.226  -0.914   0.180  1.00  0.00     0.094 A 
HETATM   27  C17 UNL     1      -5.251  -1.877   1.083  1.00  0.00    -0.004 A 
HETATM   28  C18 UNL     1      -4.880  -1.643   2.498  1.00  0.00     0.081 A 
HETATM   29  C19 UNL     1      -4.499  -0.238   2.728  1.00  0.00     0.031 A 
HETATM   30 CL1  UNL     1      -4.024   0.247   4.339  1.00  0.00    -0.087 Cl
HETATM   31  C20 UNL     1      -4.473   0.723   1.834  1.00  0.00     0.117 A 
ENDBRANCH   8  25
TORSDOF 5
