REMARK  5 active torsions:
REMARK  status: ('A' for Active; 'I' for Inactive)
REMARK    1  A    between atoms: N1_1  and  C1_2 
REMARK    2  A    between atoms: C1_2  and  N2_4 
REMARK    3  A    between atoms: C2_5  and  C3_6 
REMARK    4  A    between atoms: C2_5  and  C11_15 
REMARK    5  A    between atoms: C4_7  and  C5_8 
ROOT
HETATM    1  N2  UNL     1      -2.155   1.694  -0.447  1.00  0.00    -0.224 NA
HETATM    2  C2  UNL     1      -1.331   0.685  -0.132  1.00  0.00     0.053 C 
ENDROOT
BRANCH   2   3
HETATM    3  C3  UNL     1       0.097   0.260   0.032  1.00  0.00     0.086 C 
HETATM    4  C4  UNL     1       1.169   1.081  -0.173  1.00  0.00     0.017 C 
BRANCH   4   5
HETATM    5  C5  UNL     1       2.397   0.294   0.090  1.00  0.00    -0.040 A 
HETATM    6  C6  UNL     1       2.421  -1.033   0.473  1.00  0.00     0.008 A 
HETATM    7  C7  UNL     1       3.530  -1.794   0.724  1.00  0.00     0.001 A 
HETATM    8  C8  UNL     1       4.762  -1.220   0.595  1.00  0.00     0.001 A 
HETATM    9  C9  UNL     1       4.855   0.097   0.218  1.00  0.00     0.019 A 
HETATM   10  C10 UNL     1       3.687   0.784  -0.014  1.00  0.00     0.017 A 
HETATM   11 BR1  UNL     1       3.900   2.615  -0.536  1.00  0.00    -0.051 Br
ENDBRANCH   4   5
ENDBRANCH   2   3
BRANCH   2  12
HETATM   12  C11 UNL     1      -2.190  -0.483   0.180  1.00  0.00    -0.011 A 
HETATM   13  C12 UNL     1      -1.783  -1.751   0.557  1.00  0.00     0.013 A 
HETATM   14  C13 UNL     1      -2.548  -2.847   0.851  1.00  0.00     0.001 A 
HETATM   15  C14 UNL     1      -3.900  -2.691   0.767  1.00  0.00     0.000 A 
HETATM   16  C15 UNL     1      -4.449  -1.487   0.404  1.00  0.00     0.001 A 
HETATM   17  C16 UNL     1      -3.585  -0.460   0.133  1.00  0.00     0.013 A 
ENDBRANCH   2  12
BRANCH   1  18
HETATM   18  C1  UNL     1      -1.594   2.954  -0.794  1.00  0.00     0.191 C 
HETATM   19  S1  UNL     1      -2.877   3.410  -1.702  1.00  0.00    -0.039 SA
BRANCH  18  20
HETATM   20  N1  UNL     1      -0.568   3.963  -0.768  1.00  0.00    -0.375 N 
HETATM   21  H1  UNL     1       0.047   3.937  -1.616  1.00  0.00     0.158 HD
HETATM   22  H2  UNL     1      -0.927   4.283   0.146  1.00  0.00     0.158 HD
ENDBRANCH  18  20
ENDBRANCH   1  18
TORSDOF 5
