REMARK  2 active torsions:
REMARK  status: ('A' for Active; 'I' for Inactive)
REMARK    1  A    between atoms: C6_7  and  N1_8 
REMARK    2  A    between atoms: N1_8  and  C7_9 
ROOT
HETATM    1  C7  UNL     1      -0.948  -1.236  -0.125  1.00  0.00     0.160 A 
HETATM    2  N2  UNL     1      -1.326  -2.440   0.392  1.00  0.00    -0.222 NA
HETATM    3  C8  UNL     1      -0.388  -3.153   1.070  1.00  0.00     0.238 A 
HETATM    4  N3  UNL     1       0.896  -2.735   1.258  1.00  0.00    -0.215 NA
HETATM    5  C9  UNL     1       1.314  -1.536   0.757  1.00  0.00     0.202 A 
HETATM    6  C10 UNL     1       0.351  -0.798   0.058  1.00  0.00     0.129 A 
HETATM    7  N4  UNL     1       0.561   0.495  -0.544  1.00  0.00    -0.379 N 
HETATM    8  C11 UNL     1       1.482   1.484  -0.008  1.00  0.00     0.161 C 
HETATM    9  C12 UNL     1       2.869   1.016  -0.069  1.00  0.00    -0.005 A 
HETATM   10  C13 UNL     1       3.691   1.950  -0.669  1.00  0.00     0.035 A 
HETATM   11  C14 UNL     1       5.023   1.680  -0.818  1.00  0.00     0.034 A 
HETATM   12 CL1  UNL     1       5.996   2.923  -1.584  1.00  0.00    -0.084 Cl
HETATM   13  C15 UNL     1       5.520   0.479  -0.364  1.00  0.00     0.026 A 
HETATM   14  C16 UNL     1       4.712  -0.466   0.239  1.00  0.00     0.039 A 
HETATM   15  C17 UNL     1       3.345  -0.196   0.395  1.00  0.00     0.086 A 
HETATM   16  O1  UNL     1       2.650  -1.245   1.027  1.00  0.00    -0.289 OA
HETATM   17  H7  UNL     1      -0.061   0.573  -1.406  1.00  0.00     0.160 HD
ENDROOT
BRANCH   1  18
HETATM   18  N1  UNL     1      -1.913  -0.494  -0.852  1.00  0.00    -0.337 N 
HETATM   19  H5  UNL     1      -1.724  -0.496  -1.879  1.00  0.00     0.167 HD
BRANCH  18  20
HETATM   20  C6  UNL     1      -3.047   0.218  -0.415  1.00  0.00     0.057 A 
HETATM   21  C2  UNL     1      -4.338  -0.419  -0.168  1.00  0.00    -0.030 A 
HETATM   22  C1  UNL     1      -4.524  -1.720  -0.336  1.00  0.00     0.045 C 
HETATM   23  C3  UNL     1      -5.368   0.509   0.279  1.00  0.00     0.011 A 
HETATM   24  C4  UNL     1      -4.708   1.664   0.297  1.00  0.00     0.022 A 
HETATM   25  C5  UNL     1      -3.322   1.475  -0.121  1.00  0.00     0.038 A 
HETATM   26 BR1  UNL     1      -1.978   2.852  -0.259  1.00  0.00    -0.049 Br
ENDBRANCH  18  20
ENDBRANCH   1  18
TORSDOF 2
