REMARK  4 active torsions:
REMARK  status: ('A' for Active; 'I' for Inactive)
REMARK    1  A    between atoms: B1_1  and  C1_2 
REMARK    2  A    between atoms: C1_2  and  C2_3 
REMARK    3  A    between atoms: C1_2  and  C3_5 
REMARK    4  A    between atoms: C6_8  and  C7_9 
ROOT
HETATM    1  C3  UNL     1      -3.197  -0.053  -0.458  1.00  0.00    -0.057 A 
HETATM    2  C4  UNL     1      -2.317  -1.080  -0.809  1.00  0.00     0.008 A 
HETATM    3  C5  UNL     1      -0.942  -0.830  -0.807  1.00  0.00     0.012 A 
HETATM    4  C6  UNL     1      -0.467   0.417  -0.461  1.00  0.00    -0.035 A 
HETATM    5  C16 UNL     1      -1.339   1.425  -0.116  1.00  0.00     0.012 A 
HETATM    6  C17 UNL     1      -2.724   1.197  -0.111  1.00  0.00     0.008 A 
ENDROOT
BRANCH   4   7
HETATM    7  C7  UNL     1       0.969   0.644  -0.445  1.00  0.00     0.025 C 
HETATM    8  C8  UNL     1       1.861  -0.166   0.053  1.00  0.00    -0.005 A 
HETATM    9  C9  UNL     1       1.786  -1.457   0.711  1.00  0.00     0.129 A 
HETATM   10  C15 UNL     1       3.298   0.086   0.058  1.00  0.00     0.004 A 
HETATM   11  N1  UNL     1       2.946  -1.900   1.048  1.00  0.00    -0.259 NA
HETATM   12  C10 UNL     1       3.967  -0.959   0.660  1.00  0.00     0.067 A 
HETATM   13  C11 UNL     1       5.338  -0.985   0.800  1.00  0.00     0.032 A 
HETATM   14  C12 UNL     1       6.068   0.101   0.309  1.00  0.00     0.002 A 
HETATM   15  C13 UNL     1       5.472   1.172  -0.298  1.00  0.00     0.001 A 
HETATM   16  C14 UNL     1       4.098   1.134  -0.407  1.00  0.00     0.014 A 
ENDBRANCH   4   7
BRANCH   1  17
HETATM   17  C1  UNL     1      -4.659  -0.388  -0.487  1.00  0.00     0.028 C 
BRANCH  17  18
HETATM   18  B1  UNL     1      -5.544   0.766  -1.053  1.00  0.00     0.153 B 
HETATM   19  H1  UNL     1      -5.627   0.956  -2.227  1.00  0.00    -0.031 HD
HETATM   20  H2  UNL     1      -5.880   1.682  -0.373  1.00  0.00    -0.031 HD
ENDBRANCH  17  18
BRANCH  17  21
HETATM   21  C2  UNL     1      -5.110  -0.865   0.870  1.00  0.00     0.229 C 
HETATM   22  O1  UNL     1      -5.954  -0.414   1.630  1.00  0.00    -0.307 OA
ENDBRANCH  17  21
ENDBRANCH   1  17
TORSDOF 4
