REMARK  4 active torsions:
REMARK  status: ('A' for Active; 'I' for Inactive)
REMARK    1  A    between atoms: N2_2  and  C1_3 
REMARK    2  A    between atoms: C6_8  and  C7_9 
REMARK    3  A    between atoms: C8_10  and  C9_11 
REMARK    4  A    between atoms: C12_14  and  C13_15 
ROOT
HETATM    1  C9  UNL     1       0.909   0.766  -0.937  1.00  0.00    -0.036 A 
HETATM    2  C10 UNL     1       0.349   0.761   0.320  1.00  0.00     0.012 A 
HETATM    3  C11 UNL     1      -1.000   1.008   0.458  1.00  0.00     0.010 A 
HETATM    4  C12 UNL     1      -1.791   1.259  -0.658  1.00  0.00    -0.035 A 
HETATM    5  C18 UNL     1      -1.181   1.253  -1.911  1.00  0.00     0.010 A 
HETATM    6  C19 UNL     1       0.177   1.008  -2.076  1.00  0.00     0.012 A 
ENDROOT
BRANCH   1   7
HETATM    7  C8  UNL     1       2.338   0.504  -1.071  1.00  0.00     0.008 C 
HETATM    8  C7  UNL     1       3.137   0.260  -0.062  1.00  0.00    -0.011 C 
BRANCH   8   9
HETATM    9  C6  UNL     1       4.611  -0.014  -0.153  1.00  0.00     0.085 C 
HETATM   10  C1  UNL     1       4.789  -1.384   0.434  1.00  0.00     0.067 C 
HETATM   11  C2  UNL     1       5.528  -1.684   1.498  1.00  0.00     0.031 C 
HETATM   12  C3  UNL     1       6.237  -0.596   2.167  1.00  0.00     0.014 C 
HETATM   13  C4  UNL     1       6.380   0.493   1.435  1.00  0.00    -0.029 C 
HETATM   14  C5  UNL     1       5.338   0.926   0.747  1.00  0.00     0.000 C 
BRANCH  10  15
HETATM   15  N2  UNL     1       4.022  -2.280  -0.361  1.00  0.00    -0.162 NA
HETATM   16  N1  UNL     1       3.470  -3.304   0.141  1.00  0.00    -0.203 NA
HETATM   17  H1  UNL     1       3.521  -3.576   1.129  1.00  0.00     0.212 HD
ENDBRANCH  10  15
ENDBRANCH   8   9
ENDBRANCH   1   7
BRANCH   4  18
HETATM   18  C13 UNL     1      -3.241   1.534  -0.622  1.00  0.00     0.119 C 
HETATM   19  C14 UNL     1      -3.878   1.125   0.691  1.00  0.00     0.060 C 
HETATM   20  C15 UNL     1      -3.608  -0.333   0.887  1.00  0.00     0.272 C 
HETATM   21  N3  UNL     1      -4.757  -1.169   0.663  1.00  0.00     0.092 N 
HETATM   22  C16 UNL     1      -5.581  -0.788  -0.439  1.00  0.00     0.371 C 
HETATM   23  H15 UNL     1      -4.444  -2.160   0.562  1.00  0.00     0.316 HD
HETATM   24  C17 UNL     1      -4.822  -0.370  -1.653  1.00  0.00     0.246 C 
HETATM   25  O1  UNL     1      -4.831  -0.919  -2.784  1.00  0.00    -0.272 OA
HETATM   26  N4  UNL     1      -3.947   0.775  -1.653  1.00  0.00    -0.351 N 
HETATM   27  H18 UNL     1      -3.751   1.182  -2.600  1.00  0.00     0.163 HD
ENDBRANCH   4  18
TORSDOF 4
