REMARK  3 active torsions:
REMARK  status: ('A' for Active; 'I' for Inactive)
REMARK    1  A    between atoms: C3_3  and  C4_4 
REMARK    2  A    between atoms: C8_8  and  O1_9 
REMARK    3  A    between atoms: O1_9  and  C9_10 
ROOT
HETATM    1  C9  UNL     1      -1.738  -0.584  -0.602  1.00  0.00     0.191 C 
HETATM    2  C10 UNL     1      -2.901  -1.192  -1.024  1.00  0.00     0.060 C 
HETATM    3  C11 UNL     1      -3.850  -0.426  -1.681  1.00  0.00     0.004 C 
HETATM    4  C12 UNL     1      -4.684   0.569  -1.196  1.00  0.00     0.002 C 
HETATM    5  C13 UNL     1      -5.505   0.258  -0.116  1.00  0.00     0.019 C 
HETATM    6  C14 UNL     1      -4.742  -0.221   0.925  1.00  0.00     0.118 C 
HETATM    7  N1  UNL     1      -4.043   0.688   1.647  1.00  0.00    -0.252 NA
HETATM    8  C15 UNL     1      -2.914   1.240   1.167  1.00  0.00     0.256 C 
HETATM    9  N2  UNL     1      -2.133   1.602   0.141  1.00  0.00    -0.141 NA
HETATM   10  N3  UNL     1      -1.574   0.752  -0.692  1.00  0.00    -0.123 NA
ENDROOT
BRANCH   1  11
HETATM   11  O1  UNL     1      -0.729  -1.397  -0.078  1.00  0.00    -0.291 OA
BRANCH  11  12
HETATM   12  C8  UNL     1       0.473  -0.897   0.373  1.00  0.00     0.078 A 
HETATM   13  C7  UNL     1       0.634  -0.511   1.684  1.00  0.00     0.037 A 
HETATM   14  C6  UNL     1       1.842  -0.013   2.122  1.00  0.00     0.004 A 
HETATM   15  C5  UNL     1       2.845   0.069   1.183  1.00  0.00     0.011 A 
HETATM   16  C4  UNL     1       2.773  -0.293  -0.144  1.00  0.00    -0.034 A 
HETATM   17  C16 UNL     1       1.532  -0.780  -0.495  1.00  0.00     0.048 A 
BRANCH  16  18
HETATM   18  C3  UNL     1       3.829  -0.207  -1.129  1.00  0.00     0.007 C 
HETATM   19  C2  UNL     1       5.072   0.209  -1.055  1.00  0.00    -0.030 C 
HETATM   20  C1  UNL     1       6.154   0.763  -0.239  1.00  0.00     0.036 C 
ENDBRANCH  16  18
ENDBRANCH  11  12
ENDBRANCH   1  11
TORSDOF 3
