REMARK  4 active torsions:
REMARK  status: ('A' for Active; 'I' for Inactive)
REMARK    1  A    between atoms: C2_2  and  C3_3 
REMARK    2  A    between atoms: C3_3  and  N1_4 
REMARK    3  A    between atoms: C3_3  and  N2_5 
REMARK    4  A    between atoms: N2_5  and  C4_6 
ROOT
HETATM    1  C4  UNL     1       1.058   0.330   0.065  1.00  0.00     0.259 C 
HETATM    2  C5  UNL     1       0.229   0.176  -1.142  1.00  0.00     0.046 C 
HETATM    3  C6  UNL     1      -0.817   1.248  -1.347  1.00  0.00     0.001 C 
HETATM    4  C7  UNL     1      -2.028   1.830  -1.412  1.00  0.00     0.020 C 
HETATM    5  C8  UNL     1      -3.468   1.510  -1.199  1.00  0.00    -0.021 C 
HETATM    6  C9  UNL     1      -4.485   0.694  -0.831  1.00  0.00    -0.002 C 
HETATM    7  C10 UNL     1      -4.256  -0.640  -0.312  1.00  0.00     0.024 C 
HETATM    8  C11 UNL     1      -3.071  -1.179  -0.086  1.00  0.00     0.142 C 
HETATM    9  O1  UNL     1      -1.738  -1.536   0.073  1.00  0.00    -0.322 OA
HETATM   10  C12 UNL     1      -0.953  -0.867   1.072  1.00  0.00     0.083 A 
HETATM   11  C13 UNL     1      -1.651  -1.172   2.255  1.00  0.00     0.038 A 
HETATM   12  C14 UNL     1      -1.304  -0.756   3.539  1.00  0.00     0.003 A 
HETATM   13  C15 UNL     1      -0.178   0.027   3.694  1.00  0.00     0.001 A 
HETATM   14  C16 UNL     1       0.520   0.337   2.549  1.00  0.00     0.012 A 
HETATM   15  C17 UNL     1       0.186  -0.067   1.291  1.00  0.00     0.009 A 
ENDROOT
BRANCH   1  16
HETATM   16  N2  UNL     1       2.118  -0.617   0.142  1.00  0.00     0.118 N 
HETATM   17  H7  UNL     1       2.607  -0.474   1.057  1.00  0.00     0.319 HD
BRANCH  16  18
HETATM   18  C3  UNL     1       3.096  -0.638  -0.876  1.00  0.00     0.336 C 
BRANCH  18  19
HETATM   19  C2  UNL     1       3.800   0.665  -1.075  1.00  0.00     0.019 C 
HETATM   20  C1  UNL     1       5.022   0.781  -1.597  1.00  0.00     0.011 C 
ENDBRANCH  18  19
BRANCH  18  21
HETATM   21  N1  UNL     1       2.740  -1.198  -2.135  1.00  0.00    -0.400 N 
HETATM   22  H5  UNL     1       3.023  -0.678  -2.973  1.00  0.00     0.152 HD
HETATM   23  H6  UNL     1       2.741  -2.224  -2.189  1.00  0.00     0.152 HD
ENDBRANCH  18  21
ENDBRANCH  16  18
ENDBRANCH   1  16
TORSDOF 4
