REMARK  8 active torsions:
REMARK  status: ('A' for Active; 'I' for Inactive)
REMARK    1  A    between atoms: O1_2  and  C2_3 
REMARK    2  A    between atoms: C7_8  and  C8_9 
REMARK    3  A    between atoms: C8_9  and  C9_10 
REMARK    4  A    between atoms: C9_10  and  C10_11 
REMARK    5  A    between atoms: C10_11  and  C12_17 
REMARK    6  A    between atoms: N1_12  and  N2_13 
REMARK    7  A    between atoms: N2_13  and  C11_14 
REMARK    8  A    between atoms: C11_14  and  N3_15 
ROOT
HETATM    1  C10 UNL     1      -1.196   0.891  -0.809  1.00  0.00     0.087 C 
HETATM    2  N1  UNL     1      -1.418  -0.123  -0.146  1.00  0.00    -0.172 NA
ENDROOT
BRANCH   1   3
HETATM    3  C9  UNL     1       0.227   0.841  -0.648  1.00  0.00     0.035 C 
BRANCH   3   4
HETATM    4  C8  UNL     1       1.391   0.460  -0.286  1.00  0.00     0.016 C 
BRANCH   4   5
HETATM    5  C7  UNL     1       1.907  -0.646   0.509  1.00  0.00    -0.003 A 
HETATM    6  C2  UNL     1       3.289  -0.773   0.694  1.00  0.00     0.078 A 
HETATM    7  C3  UNL     1       3.883  -1.760   1.416  1.00  0.00     0.037 A 
HETATM    8  C4  UNL     1       3.128  -2.726   2.030  1.00  0.00     0.003 A 
HETATM    9  C5  UNL     1       1.762  -2.665   1.891  1.00  0.00     0.001 A 
HETATM   10  C6  UNL     1       1.235  -1.642   1.148  1.00  0.00     0.014 A 
BRANCH   6  11
HETATM   11  O1  UNL     1       4.088   0.180   0.092  1.00  0.00    -0.355 OA
HETATM   12  C1  UNL     1       5.469   0.129   0.222  1.00  0.00     0.210 C 
ENDBRANCH   6  11
ENDBRANCH   4   5
ENDBRANCH   3   4
ENDBRANCH   1   3
BRANCH   1  13
HETATM   13  C12 UNL     1      -2.017   1.842  -1.511  1.00  0.00    -0.008 C 
HETATM   14  C13 UNL     1      -1.509   2.910  -2.204  1.00  0.00    -0.002 C 
HETATM   15  C14 UNL     1      -2.154   3.887  -2.900  1.00  0.00    -0.081 C 
HETATM   16  B1  UNL     1      -3.886   3.449  -3.283  1.00  0.00     0.197 B 
HETATM   17  C15 UNL     1      -4.375   2.277  -1.933  1.00  0.00    -0.081 C 
HETATM   18  C16 UNL     1      -3.328   1.606  -1.423  1.00  0.00    -0.002 C 
ENDBRANCH   1  13
BRANCH   2  19
HETATM   19  N2  UNL     1      -2.499  -0.842   0.240  1.00  0.00    -0.253 N 
HETATM   20  H10 UNL     1      -1.939  -0.591   1.108  1.00  0.00     0.191 HD
BRANCH  19  21
HETATM   21  C11 UNL     1      -3.641  -1.592   0.556  1.00  0.00     0.185 C 
HETATM   22  S1  UNL     1      -4.776  -2.180  -0.458  1.00  0.00    -0.040 SA
BRANCH  21  23
HETATM   23  N3  UNL     1      -4.040  -1.992   1.852  1.00  0.00    -0.375 N 
HETATM   24  H11 UNL     1      -4.362  -2.261   2.796  1.00  0.00     0.158 HD
HETATM   25  H12 UNL     1      -3.909  -2.551   2.735  1.00  0.00     0.158 HD
ENDBRANCH  21  23
ENDBRANCH  19  21
ENDBRANCH   2  19
TORSDOF 8
