REMARK  3 active torsions:
REMARK  status: ('A' for Active; 'I' for Inactive)
REMARK    1  A    between atoms: C1_2  and  N1_3 
REMARK    2  A    between atoms: N1_3  and  N2_4 
REMARK    3  A    between atoms: N2_4  and  C2_5 
ROOT
HETATM    1  C2  UNL     1       2.297  -0.242  -0.881  1.00  0.00     0.063 A 
HETATM    2  C3  UNL     1       2.634   1.044  -1.425  1.00  0.00     0.026 A 
HETATM    3  C4  UNL     1       1.949   2.161  -1.558  1.00  0.00    -0.015 A 
HETATM    4  C5  UNL     1       0.820   3.050  -1.462  1.00  0.00     0.042 A 
HETATM    5  C6  UNL     1      -0.392   3.444  -1.172  1.00  0.00    -0.015 A 
HETATM    6  C7  UNL     1      -1.739   3.326  -0.666  1.00  0.00     0.021 A 
HETATM    7  C8  UNL     1      -2.218   2.224  -0.133  1.00  0.00     0.142 A 
HETATM    8  O1  UNL     1      -1.517   1.062   0.009  1.00  0.00    -0.322 OA
HETATM    9  C9  UNL     1      -2.002  -0.094   0.562  1.00  0.00     0.084 A 
HETATM   10  C10 UNL     1      -3.304  -0.098   1.015  1.00  0.00     0.038 A 
HETATM   11  C11 UNL     1      -3.736  -1.288   1.560  1.00  0.00     0.003 A 
HETATM   12  C12 UNL     1      -2.997  -2.445   1.688  1.00  0.00     0.001 A 
HETATM   13  C13 UNL     1      -1.699  -2.421   1.230  1.00  0.00     0.014 A 
HETATM   14  C14 UNL     1      -1.263  -1.243   0.687  1.00  0.00    -0.005 A 
HETATM   15  C15 UNL     1       0.094  -1.309   0.238  1.00  0.00    -0.001 A 
HETATM   16  C16 UNL     1       1.233  -0.977  -0.267  1.00  0.00     0.076 A 
ENDROOT
BRANCH   1  17
HETATM   17  N2  UNL     1       3.232  -1.070  -0.930  1.00  0.00    -0.178 NA
BRANCH  17  18
HETATM   18  N1  UNL     1       3.395  -2.360  -0.558  1.00  0.00    -0.279 N 
HETATM   19  H2  UNL     1       3.088  -3.297  -0.892  1.00  0.00     0.189 HD
BRANCH  18  20
HETATM   20  C1  UNL     1       4.217  -2.403   0.609  1.00  0.00     0.190 C 
HETATM   21  S1  UNL     1       3.652  -2.430   2.153  1.00  0.00    -0.073 SA
ENDBRANCH  18  20
ENDBRANCH  17  18
ENDBRANCH   1  17
TORSDOF 3
