REMARK  6 active torsions:
REMARK  status: ('A' for Active; 'I' for Inactive)
REMARK    1  A    between atoms: O1_2  and  C2_3 
REMARK    2  A    between atoms: C8_9  and  C9_10 
REMARK    3  A    between atoms: C9_10  and  C11_16 
REMARK    4  A    between atoms: N1_11  and  N2_12 
REMARK    5  A    between atoms: N2_12  and  C10_13 
REMARK    6  A    between atoms: C10_13  and  N3_14 
ROOT
HETATM    1  C9  UNL     1       0.928   0.214  -0.484  1.00  0.00     0.087 C 
HETATM    2  N1  UNL     1       1.413   1.321  -0.723  1.00  0.00    -0.172 NA
ENDROOT
BRANCH   1   3
HETATM    3  C8  UNL     1      -0.520   0.256  -0.324  1.00  0.00     0.044 C 
HETATM    4  C7  UNL     1      -1.726  -0.221  -0.106  1.00  0.00    -0.019 A 
HETATM    5  C2  UNL     1      -2.921   0.649  -0.112  1.00  0.00     0.074 A 
HETATM    6  C6  UNL     1      -2.040  -1.636   0.164  1.00  0.00     0.068 A 
HETATM    7  C3  UNL     1      -4.156   0.286   0.090  1.00  0.00     0.037 A 
HETATM    8  C4  UNL     1      -4.501  -1.095   0.358  1.00  0.00    -0.001 A 
HETATM    9  C5  UNL     1      -3.466  -1.902   0.372  1.00  0.00    -0.022 A 
BRANCH   5  10
HETATM   10  O1  UNL     1      -2.794   2.033  -0.356  1.00  0.00    -0.355 OA
HETATM   11  C1  UNL     1      -3.249   2.535  -1.619  1.00  0.00     0.210 C 
ENDBRANCH   5  10
ENDBRANCH   1   3
BRANCH   1  12
HETATM   12  C11 UNL     1       1.808  -0.937  -0.395  1.00  0.00    -0.006 A 
HETATM   13  C12 UNL     1       1.561  -2.268  -0.147  1.00  0.00     0.014 A 
HETATM   14  C13 UNL     1       2.456  -3.304  -0.078  1.00  0.00     0.001 A 
HETATM   15  C14 UNL     1       3.782  -3.001  -0.279  1.00  0.00     0.000 A 
HETATM   16  C15 UNL     1       4.143  -1.697  -0.536  1.00  0.00     0.001 A 
HETATM   17  C16 UNL     1       3.153  -0.761  -0.577  1.00  0.00     0.014 A 
ENDBRANCH   1  12
BRANCH   2  18
HETATM   18  N2  UNL     1       2.425   2.109  -0.969  1.00  0.00    -0.253 N 
HETATM   19  H10 UNL     1       3.033   2.343  -1.796  1.00  0.00     0.191 HD
BRANCH  18  20
HETATM   20  C10 UNL     1       2.866   2.890   0.160  1.00  0.00     0.185 C 
HETATM   21  S1  UNL     1       3.965   4.004   0.623  1.00  0.00    -0.040 SA
BRANCH  20  22
HETATM   22  N3  UNL     1       2.233   2.799   1.452  1.00  0.00    -0.375 N 
HETATM   23  H11 UNL     1       2.382   2.425   2.407  1.00  0.00     0.158 HD
HETATM   24  H12 UNL     1       1.292   3.278   1.416  1.00  0.00     0.158 HD
ENDBRANCH  20  22
ENDBRANCH  18  20
ENDBRANCH   2  18
TORSDOF 6
