REMARK  6 active torsions:
REMARK  status: ('A' for Active; 'I' for Inactive)
REMARK    1  A    between atoms: N1_1  and  C1_2 
REMARK    2  A    between atoms: C1_2  and  N2_4 
REMARK    3  A    between atoms: N2_4  and  C2_5 
REMARK    4  A    between atoms: C7_11  and  C8_12 
REMARK    5  A    between atoms: C9_13  and  N3_14 
REMARK    6  A    between atoms: N3_14  and  C10_15 
ROOT
HETATM    1  C2  UNL     1      -2.797   0.745   0.696  1.00  0.00     0.047 A 
HETATM    2  C3  UNL     1      -3.673   1.798   0.687  1.00  0.00     0.072 A 
HETATM    3  C4  UNL     1      -3.418   3.009   0.091  1.00  0.00     0.118 A 
HETATM    4  F1  UNL     1      -4.360   3.968   0.150  1.00  0.00    -0.206 F 
HETATM    5  C5  UNL     1      -2.177   3.130  -0.532  1.00  0.00     0.043 A 
HETATM    6  C6  UNL     1      -1.269   2.077  -0.537  1.00  0.00     0.017 A 
HETATM    7  C7  UNL     1      -1.572   0.856   0.086  1.00  0.00    -0.008 A 
ENDROOT
BRANCH   7   8
HETATM    8  C8  UNL     1      -0.437  -0.029  -0.080  1.00  0.00     0.030 C 
HETATM    9  C9  UNL     1       0.752  -0.009  -0.640  1.00  0.00     0.089 C 
BRANCH   9  10
HETATM   10  N3  UNL     1       1.555  -1.204  -0.530  1.00  0.00    -0.366 N 
HETATM   11  H9  UNL     1       1.116  -2.123  -0.651  1.00  0.00     0.165 HD
BRANCH  10  12
HETATM   12  C10 UNL     1       2.929  -0.982  -0.248  1.00  0.00     0.031 A 
HETATM   13  C11 UNL     1       3.409   0.303  -0.080  1.00  0.00     0.029 A 
HETATM   14  C12 UNL     1       4.728   0.617   0.191  1.00  0.00     0.002 A 
HETATM   15  C13 UNL     1       5.648  -0.430   0.304  1.00  0.00     0.000 A 
HETATM   16  C14 UNL     1       5.209  -1.728   0.145  1.00  0.00     0.002 A 
HETATM   17  C15 UNL     1       3.885  -1.974  -0.123  1.00  0.00     0.029 A 
ENDBRANCH  10  12
ENDBRANCH   9  10
ENDBRANCH   7   8
BRANCH   1  18
HETATM   18  N2  UNL     1      -2.969  -0.533   1.284  1.00  0.00    -0.333 N 
HETATM   19  H3  UNL     1      -2.763  -1.085   2.131  1.00  0.00     0.168 HD
BRANCH  18  20
HETATM   20  C1  UNL     1      -3.684  -1.264   0.302  1.00  0.00     0.170 C 
HETATM   21  S1  UNL     1      -4.281  -0.978  -1.189  1.00  0.00    -0.041 SA
BRANCH  20  22
HETATM   22  N1  UNL     1      -4.172  -2.594   0.248  1.00  0.00    -0.376 N 
HETATM   23  H1  UNL     1      -5.099  -2.926   0.640  1.00  0.00     0.158 HD
HETATM   24  H2  UNL     1      -3.983  -3.547  -0.061  1.00  0.00     0.158 HD
ENDBRANCH  20  22
ENDBRANCH  18  20
ENDBRANCH   1  18
TORSDOF 6
