REMARK  5 active torsions:
REMARK  status: ('A' for Active; 'I' for Inactive)
REMARK    1  A    between atoms: C1_2  and  N1_3 
REMARK    2  A    between atoms: N1_3  and  N2_4 
REMARK    3  A    between atoms: C2_5  and  C3_6 
REMARK    4  A    between atoms: C2_5  and  C11_15 
REMARK    5  A    between atoms: C4_7  and  C5_8 
ROOT
HETATM    1  N2  UNL     1      -1.355   1.641   0.016  1.00  0.00    -0.174 NA
HETATM    2  C2  UNL     1      -1.138   0.428  -0.058  1.00  0.00     0.087 C 
ENDROOT
BRANCH   2   3
HETATM    3  C3  UNL     1       0.291   0.545  -0.172  1.00  0.00     0.035 C 
HETATM    4  C4  UNL     1       1.463  -0.001  -0.294  1.00  0.00     0.014 C 
BRANCH   4   5
HETATM    5  C5  UNL     1       2.903   0.055  -0.411  1.00  0.00    -0.036 A 
HETATM    6  C6  UNL     1       3.389   1.345  -0.392  1.00  0.00     0.013 A 
HETATM    7  C7  UNL     1       4.753   1.520  -0.497  1.00  0.00     0.024 A 
HETATM    8  C8  UNL     1       5.503   0.375  -0.612  1.00  0.00     0.034 A 
HETATM    9 CL1  UNL     1       7.236   0.584  -0.746  1.00  0.00    -0.084 Cl
HETATM   10  C9  UNL     1       4.968  -0.891  -0.626  1.00  0.00     0.024 A 
HETATM   11  C10 UNL     1       3.618  -1.105  -0.524  1.00  0.00     0.013 A 
ENDBRANCH   4   5
ENDBRANCH   2   3
BRANCH   2  12
HETATM   12  C11 UNL     1      -1.956  -0.760  -0.045  1.00  0.00    -0.006 A 
HETATM   13  C12 UNL     1      -1.653  -2.093  -0.132  1.00  0.00     0.014 A 
HETATM   14  C13 UNL     1      -2.564  -3.108  -0.104  1.00  0.00     0.001 A 
HETATM   15  C14 UNL     1      -3.894  -2.789   0.021  1.00  0.00     0.000 A 
HETATM   16  C15 UNL     1      -4.286  -1.472   0.115  1.00  0.00     0.001 A 
HETATM   17  C16 UNL     1      -3.295  -0.529   0.076  1.00  0.00     0.014 A 
ENDBRANCH   2  12
BRANCH   1  18
HETATM   18  N1  UNL     1      -2.427   2.408   0.140  1.00  0.00    -0.278 N 
HETATM   19  H2  UNL     1      -2.324   2.607  -0.895  1.00  0.00     0.189 HD
BRANCH  18  20
HETATM   20  C1  UNL     1      -3.576   3.228   0.274  1.00  0.00     0.190 C 
HETATM   21  S1  UNL     1      -3.317   4.836   0.490  1.00  0.00    -0.073 SA
ENDBRANCH  18  20
ENDBRANCH   1  18
TORSDOF 5
