REMARK  6 active torsions:
REMARK  status: ('A' for Active; 'I' for Inactive)
REMARK    1  A    between atoms: C2_2  and  S1_3 
REMARK    2  A    between atoms: C2_2  and  N1_4 
REMARK    3  A    between atoms: N1_4  and  N2_5 
REMARK    4  A    between atoms: N2_5  and  C3_6 
REMARK    5  A    between atoms: N2_5  and  C11_15 
REMARK    6  A    between atoms: C4_7  and  C5_8 
ROOT
HETATM    1  N2  UNL     1      -1.134   0.374   0.359  1.00  0.00    -0.267 N 
ENDROOT
BRANCH   1   2
HETATM    2  N1  UNL     1      -1.738   1.625   0.539  1.00  0.00    -0.292 N 
HETATM    3  H4  UNL     1      -2.263   1.652   1.445  1.00  0.00     0.188 HD
BRANCH   2   4
HETATM    4  C2  UNL     1      -1.835   2.856  -0.153  1.00  0.00     0.060 C 
HETATM    5  C1  UNL     1      -0.960   3.580  -0.838  1.00  0.00     0.072 C 
BRANCH   4   6
HETATM    6  S1  UNL     1      -3.386   3.749  -0.214  1.00  0.00    -0.128 SA
HETATM    7  H3  UNL     1      -3.251   5.038   0.337  1.00  0.00     0.108 HD
ENDBRANCH   4   6
ENDBRANCH   2   4
ENDBRANCH   1   2
BRANCH   1   8
HETATM    8  C3  UNL     1       0.279   0.222   0.376  1.00  0.00     0.117 C 
HETATM    9  C4  UNL     1       1.191  -0.392  -0.321  1.00  0.00     0.030 C 
BRANCH   9  10
HETATM   10  C5  UNL     1       2.636  -0.430  -0.141  1.00  0.00    -0.035 A 
HETATM   11  C6  UNL     1       3.198   0.265   0.903  1.00  0.00     0.013 A 
HETATM   12  C7  UNL     1       4.572   0.208   1.045  1.00  0.00     0.024 A 
HETATM   13  C8  UNL     1       5.300  -0.527   0.153  1.00  0.00     0.034 A 
HETATM   14 CL1  UNL     1       7.040  -0.615   0.309  1.00  0.00    -0.084 Cl
HETATM   15  C9  UNL     1       4.696  -1.221  -0.897  1.00  0.00     0.024 A 
HETATM   16  C10 UNL     1       3.327  -1.182  -1.062  1.00  0.00     0.013 A 
ENDBRANCH   9  10
ENDBRANCH   1   8
BRANCH   1  17
HETATM   17  C11 UNL     1      -2.127  -0.659   0.171  1.00  0.00     0.056 A 
HETATM   18  C12 UNL     1      -2.723  -1.016  -1.016  1.00  0.00     0.031 A 
HETATM   19  C13 UNL     1      -3.645  -2.038  -0.961  1.00  0.00     0.002 A 
HETATM   20  C14 UNL     1      -3.944  -2.663   0.236  1.00  0.00     0.000 A 
HETATM   21  C15 UNL     1      -3.349  -2.305   1.412  1.00  0.00     0.002 A 
HETATM   22  C16 UNL     1      -2.419  -1.278   1.377  1.00  0.00     0.031 A 
ENDBRANCH   1  17
TORSDOF 6
