REMARK  6 active torsions:
REMARK  status: ('A' for Active; 'I' for Inactive)
REMARK    1  A    between atoms: C5_5  and  C6_6 
REMARK    2  A    between atoms: C7_7  and  C8_8 
REMARK    3  A    between atoms: C8_8  and  C10_14 
REMARK    4  A    between atoms: N1_9  and  N2_10 
REMARK    5  A    between atoms: N2_10  and  C9_11 
REMARK    6  A    between atoms: C9_11  and  N3_12 
ROOT
HETATM    1  C8  UNL     1      -1.013  -0.488  -0.405  1.00  0.00     0.087 C 
HETATM    2  N1  UNL     1      -1.216   0.610  -1.010  1.00  0.00    -0.172 NA
ENDROOT
BRANCH   1   3
HETATM    3  C7  UNL     1       0.420  -0.395  -0.149  1.00  0.00     0.035 C 
HETATM    4  C6  UNL     1       1.057   0.687  -0.568  1.00  0.00     0.017 C 
BRANCH   4   5
HETATM    5  C5  UNL     1       2.500   0.856  -0.350  1.00  0.00     0.003 A 
HETATM    6  C4  UNL     1       3.347  -0.125   0.332  1.00  0.00     0.015 A 
HETATM    7  C3  UNL     1       4.609   0.267   0.399  1.00  0.00     0.014 A 
HETATM    8  C2  UNL     1       4.633   1.574  -0.266  1.00  0.00    -0.006 A 
HETATM    9  C1  UNL     1       5.700   2.333  -0.429  1.00  0.00     0.026 C 
HETATM   10  C16 UNL     1       3.280   1.867  -0.702  1.00  0.00     0.136 A 
HETATM   11  F1  UNL     1       2.825   2.971  -1.364  1.00  0.00    -0.204 F 
ENDBRANCH   4   5
ENDBRANCH   1   3
BRANCH   1  12
HETATM   12  C10 UNL     1      -1.798  -1.641   0.020  1.00  0.00    -0.006 A 
HETATM   13  C11 UNL     1      -1.241  -2.705   0.683  1.00  0.00     0.014 A 
HETATM   14  C12 UNL     1      -2.108  -3.707   1.012  1.00  0.00     0.001 A 
HETATM   15  C13 UNL     1      -3.450  -3.739   0.744  1.00  0.00     0.000 A 
HETATM   16  C14 UNL     1      -3.979  -2.640   0.070  1.00  0.00     0.001 A 
HETATM   17  C15 UNL     1      -3.134  -1.589  -0.289  1.00  0.00     0.014 A 
ENDBRANCH   1  12
BRANCH   2  18
HETATM   18  N2  UNL     1      -2.405   1.097  -1.511  1.00  0.00    -0.253 N 
HETATM   19  H7  UNL     1      -3.221   1.108  -2.160  1.00  0.00     0.191 HD
BRANCH  18  20
HETATM   20  C9  UNL     1      -2.750   2.243  -0.710  1.00  0.00     0.185 C 
HETATM   21  S1  UNL     1      -3.956   3.351  -0.640  1.00  0.00    -0.040 SA
BRANCH  20  22
HETATM   22  N3  UNL     1      -2.101   2.858   0.394  1.00  0.00    -0.375 N 
HETATM   23  H8  UNL     1      -1.387   3.639   0.457  1.00  0.00     0.158 HD
HETATM   24  H9  UNL     1      -2.193   2.661   1.432  1.00  0.00     0.158 HD
ENDBRANCH  20  22
ENDBRANCH  18  20
ENDBRANCH   2  18
TORSDOF 6
