REMARK  4 active torsions:
REMARK  status: ('A' for Active; 'I' for Inactive)
REMARK    1  A    between atoms: N1_1  and  C1_2 
REMARK    2  A    between atoms: C8_10  and  C9_11 
REMARK    3  A    between atoms: C9_11  and  C10_12 
REMARK    4  A    between atoms: C11_13  and  C12_14 
ROOT
HETATM    1  C1  UNL     1      -3.292  -0.813   0.149  1.00  0.00     0.045 C 
HETATM    2  S1  UNL     1      -4.161  -0.075   1.360  1.00  0.00    -0.110 SA
HETATM    3  C2  UNL     1      -3.247   1.048   2.140  1.00  0.00     0.078 C 
HETATM    4  C3  UNL     1      -2.688   2.171   1.347  1.00  0.00     0.097 C 
HETATM    5  C4  UNL     1      -2.202   1.882   0.079  1.00  0.00    -0.169 C 
HETATM    6  C5  UNL     1      -1.806   1.621  -0.981  1.00  0.00     0.039 A 
HETATM    7  C6  UNL     1      -1.350   1.296  -2.269  1.00  0.00     0.020 A 
HETATM    8  C7  UNL     1      -1.623   0.144  -1.649  1.00  0.00     0.024 A 
HETATM    9  C8  UNL     1      -2.078  -0.293  -0.366  1.00  0.00     0.051 C 
ENDROOT
BRANCH   9  10
HETATM   10  C9  UNL     1      -0.930  -0.518   0.654  1.00  0.00     0.038 C 
BRANCH  10  11
HETATM   11  C10 UNL     1       0.383  -0.046   0.216  1.00  0.00    -0.025 C 
HETATM   12  C11 UNL     1       1.439  -0.869   0.059  1.00  0.00     0.007 C 
BRANCH  12  13
HETATM   13  C12 UNL     1       2.803  -0.583  -0.364  1.00  0.00    -0.036 A 
HETATM   14  C13 UNL     1       3.218   0.679  -0.684  1.00  0.00     0.012 A 
HETATM   15  C14 UNL     1       4.515   0.986  -1.091  1.00  0.00     0.020 A 
HETATM   16  C15 UNL     1       5.411  -0.060  -1.168  1.00  0.00     0.011 A 
HETATM   17 BR1  UNL     1       7.202   0.306  -1.721  1.00  0.00    -0.051 Br
HETATM   18  C16 UNL     1       4.994  -1.326  -0.846  1.00  0.00     0.020 A 
HETATM   19  C17 UNL     1       3.711  -1.612  -0.446  1.00  0.00     0.012 A 
ENDBRANCH  12  13
ENDBRANCH  10  11
ENDBRANCH   9  10
BRANCH   1  20
HETATM   20  N1  UNL     1      -4.250  -1.871   0.064  1.00  0.00    -0.397 N 
HETATM   21  H1  UNL     1      -4.285  -2.783   0.567  1.00  0.00     0.156 HD
HETATM   22  H2  UNL     1      -5.112  -1.943  -0.522  1.00  0.00     0.156 HD
ENDBRANCH   1  20
TORSDOF 4
