REMARK  0 active torsions:
REMARK  status: ('A' for Active; 'I' for Inactive)
ROOT
HETATM    1  F1  UNL     1       5.938  -1.211  -1.058  1.00  0.00    -0.206 F 
HETATM    2  C1  UNL     1       4.830  -0.487  -0.767  1.00  0.00     0.118 A 
HETATM    3  C2  UNL     1       4.974   0.877  -0.758  1.00  0.00     0.043 A 
HETATM    4  C3  UNL     1       3.847   1.614  -0.461  1.00  0.00     0.017 A 
HETATM    5  C4  UNL     1       2.695   0.905  -0.203  1.00  0.00    -0.008 A 
HETATM    6  C5  UNL     1       2.563  -0.434  -0.214  1.00  0.00     0.056 A 
HETATM    7  C6  UNL     1       3.670  -1.186  -0.507  1.00  0.00     0.073 A 
HETATM    8  N1  UNL     1       1.362  -1.120   0.060  1.00  0.00    -0.320 N 
HETATM    9  N2  UNL     1       0.462  -1.251   1.124  1.00  0.00    -0.231 NA
HETATM   10  C7  UNL     1       0.022  -2.624   1.290  1.00  0.00     0.189 C 
HETATM   11  S1  UNL     1      -0.782  -3.082  -0.266  1.00  0.00    -0.119 SA
HETATM   12  C8  UNL     1      -2.289  -2.148  -0.546  1.00  0.00     0.085 C 
HETATM   13  S2  UNL     1      -3.071  -1.041  -1.438  1.00  0.00    -0.164 SA
HETATM   14  C9  UNL     1      -4.717  -0.783  -0.827  1.00  0.00     0.039 C 
HETATM   15  C10 UNL     1      -4.821  -0.208   0.358  1.00  0.00     0.006 C 
HETATM   16  C11 UNL     1      -3.838   0.828   0.746  1.00  0.00    -0.008 C 
HETATM   17  C12 UNL     1      -2.851   1.202  -0.057  1.00  0.00    -0.113 C 
HETATM   18  B1  UNL     1      -2.185   2.868   0.360  1.00  0.00     0.206 B 
HETATM   19  C13 UNL     1      -0.574   3.046   0.774  1.00  0.00    -0.081 C 
HETATM   20  C14 UNL     1       0.545   2.128   0.901  1.00  0.00    -0.015 C 
HETATM   21  C15 UNL     1       1.515   1.691   0.119  1.00  0.00     0.012 C 
HETATM   22  C16 UNL     1      -2.216   0.514  -1.209  1.00  0.00     0.094 C 
HETATM   23  H4  UNL     1       1.103  -1.675  -0.792  1.00  0.00     0.181 HD
HETATM   24  H5  UNL     1      -0.336  -0.611   1.052  1.00  0.00     0.147 HD
ENDROOT
TORSDOF 0
