REMARK  3 active torsions:
REMARK  status: ('A' for Active; 'I' for Inactive)
REMARK    1  A    between atoms: O1_2  and  C2_3 
REMARK    2  A    between atoms: N1_16  and  C15_17 
REMARK    3  A    between atoms: C15_17  and  N2_18 
ROOT
HETATM    1  C2  UNL     1       1.592   0.160   0.419  1.00  0.00     0.073 C 
HETATM    2  C3  UNL     1       1.650   1.231   1.215  1.00  0.00     0.020 C 
HETATM    3  C4  UNL     1       0.264   1.736   1.287  1.00  0.00     0.044 C 
HETATM    4  C5  UNL     1      -0.424   2.717   1.901  1.00  0.00    -0.017 C 
HETATM    5  C6  UNL     1      -1.785   2.591   1.455  1.00  0.00    -0.001 C 
HETATM    6  C7  UNL     1      -2.514   1.904   0.649  1.00  0.00     0.029 C 
HETATM    7  C8  UNL     1      -2.165   0.841  -0.280  1.00  0.00     0.064 C 
HETATM    8  C9  UNL     1      -1.043   0.750  -1.069  1.00  0.00     0.075 C 
HETATM    9  C10 UNL     1       0.003   0.812  -1.954  1.00  0.00    -0.018 C 
HETATM   10  C11 UNL     1       0.600  -0.445  -2.175  1.00  0.00    -0.020 C 
HETATM   11  C12 UNL     1       1.044  -1.610  -1.510  1.00  0.00     0.057 C 
HETATM   12  C13 UNL     1       0.782  -0.787  -0.391  1.00  0.00     0.001 C 
HETATM   13  C14 UNL     1      -0.527  -1.001   0.140  1.00  0.00     0.132 C 
HETATM   14  N1  UNL     1      -1.773  -1.454  -0.221  1.00  0.00    -0.218 N 
HETATM   15  N3  UNL     1      -2.449  -0.425  -0.780  1.00  0.00    -0.170 NA
ENDROOT
BRANCH  14  16
HETATM   16  C15 UNL     1      -2.281  -2.770  -0.044  1.00  0.00     0.192 C 
HETATM   17  S1  UNL     1      -3.352  -2.563   1.177  1.00  0.00    -0.039 SA
BRANCH  16  18
HETATM   18  N2  UNL     1      -1.823  -3.871  -0.856  1.00  0.00    -0.375 N 
HETATM   19  H14 UNL     1      -0.796  -3.979  -0.668  1.00  0.00     0.158 HD
HETATM   20  H15 UNL     1      -2.658  -4.241  -1.397  1.00  0.00     0.158 HD
ENDBRANCH  16  18
ENDBRANCH  14  16
BRANCH   1  21
HETATM   21  O1  UNL     1       2.766  -0.531   0.135  1.00  0.00    -0.356 OA
HETATM   22  C1  UNL     1       4.063  -0.082   0.350  1.00  0.00     0.210 C 
ENDBRANCH   1  21
TORSDOF 3
