REMARK  6 active torsions:
REMARK  status: ('A' for Active; 'I' for Inactive)
REMARK    1  A    between atoms: N1_1  and  C1_2 
REMARK    2  A    between atoms: C1_2  and  N2_4 
REMARK    3  A    between atoms: N2_4  and  N3_5 
REMARK    4  A    between atoms: C2_6  and  C3_7 
REMARK    5  A    between atoms: C2_6  and  C10_16 
REMARK    6  A    between atoms: C4_8  and  C5_9 
ROOT
HETATM    1  N3  UNL     1      -1.715  -1.224   0.364  1.00  0.00    -0.172 NA
HETATM    2  C2  UNL     1      -1.077  -0.312  -0.224  1.00  0.00     0.087 C 
ENDROOT
BRANCH   2   3
HETATM    3  C3  UNL     1       0.351  -0.080  -0.320  1.00  0.00     0.035 C 
HETATM    4  C4  UNL     1       1.313  -0.793   0.203  1.00  0.00     0.012 C 
BRANCH   4   5
HETATM    5  C5  UNL     1       2.733  -0.526   0.083  1.00  0.00    -0.049 A 
HETATM    6  C6  UNL     1       3.266   0.531  -0.610  1.00  0.00    -0.048 A 
HETATM    7  B1  UNL     1       4.989   0.825  -0.822  1.00  0.00     0.317 B 
HETATM    8  C7  UNL     1       5.871  -0.612   0.266  1.00  0.00    -0.054 A 
HETATM    9 BR1  UNL     1       7.389   0.332  -0.300  1.00  0.00    -0.191 Br
HETATM   10  C8  UNL     1       4.906  -1.419   0.773  1.00  0.00     0.003 A 
HETATM   11  C9  UNL     1       3.557  -1.412   0.715  1.00  0.00     0.010 A 
ENDBRANCH   4   5
ENDBRANCH   2   3
BRANCH   2  12
HETATM   12  C10 UNL     1      -1.993   0.607  -0.885  1.00  0.00    -0.006 A 
HETATM   13  C11 UNL     1      -3.364   0.436  -0.827  1.00  0.00     0.014 A 
HETATM   14  C12 UNL     1      -4.288   1.288  -1.444  1.00  0.00     0.001 A 
HETATM   15  C13 UNL     1      -3.818   2.377  -2.161  1.00  0.00     0.000 A 
HETATM   16  C14 UNL     1      -2.465   2.578  -2.238  1.00  0.00     0.001 A 
HETATM   17  C15 UNL     1      -1.618   1.698  -1.607  1.00  0.00     0.014 A 
ENDBRANCH   2  12
BRANCH   1  18
HETATM   18  N2  UNL     1      -1.244  -2.293   1.106  1.00  0.00    -0.258 N 
HETATM   19  H3  UNL     1      -0.819  -3.238   1.211  1.00  0.00     0.191 HD
BRANCH  18  20
HETATM   20  C1  UNL     1      -1.494  -1.788   2.430  1.00  0.00     0.164 C 
HETATM   21  S1  UNL     1      -1.201  -2.481   3.901  1.00  0.00    -0.046 SA
BRANCH  20  22
HETATM   22  N1  UNL     1      -2.066  -0.544   2.885  1.00  0.00    -0.278 NA
HETATM   23  H1  UNL     1      -2.194   0.476   2.705  1.00  0.00     0.126 HD
HETATM   24  H2  UNL     1      -1.927   0.326   2.328  1.00  0.00     0.126 HD
ENDBRANCH  20  22
ENDBRANCH  18  20
ENDBRANCH   1  18
TORSDOF 6
