REMARK  6 active torsions:
REMARK  status: ('A' for Active; 'I' for Inactive)
REMARK    1  A    between atoms: O1_2  and  C2_3 
REMARK    2  A    between atoms: C11_12  and  C12_13 
REMARK    3  A    between atoms: C13_14  and  C14_15 
REMARK    4  A    between atoms: N1_16  and  N2_17 
REMARK    5  A    between atoms: N2_17  and  C15_18 
REMARK    6  A    between atoms: C15_18  and  N3_19 
ROOT
HETATM    1  C2  UNL     1      -2.742  -1.489  -0.526  1.00  0.00     0.064 C 
HETATM    2  C3  UNL     1      -3.467  -0.413  -0.784  1.00  0.00     0.014 C 
HETATM    3  C4  UNL     1      -3.410   0.910  -0.168  1.00  0.00     0.069 C 
HETATM    4  C5  UNL     1      -2.111   1.543  -0.068  1.00  0.00    -0.047 A 
HETATM    5  C6  UNL     1      -2.226   2.793  -0.687  1.00  0.00     0.008 A 
HETATM    6  C7  UNL     1      -1.224   3.734  -0.820  1.00  0.00     0.001 A 
HETATM    7  C8  UNL     1      -0.001   3.388  -0.286  1.00  0.00     0.001 A 
HETATM    8  C9  UNL     1       0.162   2.168   0.333  1.00  0.00     0.009 A 
HETATM    9  C10 UNL     1      -0.876   1.235   0.452  1.00  0.00    -0.040 A 
HETATM   10  C11 UNL     1      -0.224   0.133   1.165  1.00  0.00     0.064 C 
HETATM   11  C16 UNL     1      -0.750  -1.207   0.936  1.00  0.00    -0.011 C 
HETATM   12  C17 UNL     1      -1.674  -1.940   0.333  1.00  0.00     0.033 C 
ENDROOT
BRANCH  10  13
HETATM   13  C12 UNL     1       1.207   0.105   0.689  1.00  0.00    -0.012 C 
HETATM   14  C13 UNL     1       1.489  -0.050  -0.607  1.00  0.00     0.018 C 
BRANCH  14  15
HETATM   15  C14 UNL     1       2.882  -0.078  -1.081  1.00  0.00     0.138 C 
HETATM   16  N1  UNL     1       3.547   0.073   0.026  1.00  0.00    -0.185 NA
BRANCH  16  17
HETATM   17  N2  UNL     1       4.937   0.111   0.094  1.00  0.00    -0.254 N 
HETATM   18  H15 UNL     1       4.675   1.071   0.364  1.00  0.00     0.191 HD
BRANCH  17  19
HETATM   19  C15 UNL     1       6.227  -0.482  -0.028  1.00  0.00     0.185 C 
HETATM   20  S1  UNL     1       7.445   0.550   0.323  1.00  0.00    -0.040 SA
BRANCH  19  21
HETATM   21  N3  UNL     1       5.944  -1.828  -0.433  1.00  0.00    -0.375 N 
HETATM   22  H16 UNL     1       5.826  -2.005  -1.459  1.00  0.00     0.158 HD
HETATM   23  H17 UNL     1       5.890  -2.480   0.389  1.00  0.00     0.158 HD
ENDBRANCH  19  21
ENDBRANCH  17  19
ENDBRANCH  16  17
ENDBRANCH  14  15
ENDBRANCH  10  13
BRANCH   1  24
HETATM   24  O1  UNL     1      -3.189  -2.503  -1.395  1.00  0.00    -0.356 OA
HETATM   25  C1  UNL     1      -4.137  -3.438  -0.869  1.00  0.00     0.210 C 
ENDBRANCH   1  24
TORSDOF 6
