REMARK  7 active torsions:
REMARK  status: ('A' for Active; 'I' for Inactive)
REMARK    1  A    between atoms: O1_2  and  C2_3 
REMARK    2  A    between atoms: C5_6  and  C6_7 
REMARK    3  A    between atoms: C7_8  and  C8_9 
REMARK    4  A    between atoms: C8_9  and  C10_15 
REMARK    5  A    between atoms: N1_10  and  N2_11 
REMARK    6  A    between atoms: N2_11  and  C9_12 
REMARK    7  A    between atoms: C9_12  and  N3_13 
ROOT
HETATM    1  C8  UNL     1      -2.022  -0.449  -0.587  1.00  0.00     0.087 C 
HETATM    2  N1  UNL     1      -2.611   0.696  -0.885  1.00  0.00    -0.172 NA
ENDROOT
BRANCH   1   3
HETATM    3  C7  UNL     1      -0.628  -0.209  -0.350  1.00  0.00     0.035 C 
HETATM    4  C6  UNL     1       0.520  -0.737  -0.039  1.00  0.00     0.014 C 
BRANCH   4   5
HETATM    5  C5  UNL     1       1.898  -0.355   0.172  1.00  0.00    -0.036 A 
HETATM    6  C4  UNL     1       2.815  -1.313   0.505  1.00  0.00     0.014 A 
HETATM    7  C3  UNL     1       4.093  -0.837   0.682  1.00  0.00     0.037 A 
HETATM    8  C2  UNL     1       4.418   0.494   0.535  1.00  0.00     0.068 A 
HETATM    9  C17 UNL     1       3.463   1.431   0.197  1.00  0.00     0.037 A 
HETATM   10  C16 UNL     1       2.175   0.986   0.014  1.00  0.00     0.014 A 
BRANCH   8  11
HETATM   11  O1  UNL     1       5.744   0.846   0.741  1.00  0.00    -0.356 OA
HETATM   12  C1  UNL     1       6.145   2.214   0.603  1.00  0.00     0.210 C 
ENDBRANCH   8  11
ENDBRANCH   4   5
ENDBRANCH   1   3
BRANCH   1  13
HETATM   13  C10 UNL     1      -2.851  -1.637  -0.562  1.00  0.00    -0.006 A 
HETATM   14  C11 UNL     1      -2.521  -2.932  -0.291  1.00  0.00     0.014 A 
HETATM   15  C12 UNL     1      -3.360  -4.017  -0.285  1.00  0.00     0.001 A 
HETATM   16  C13 UNL     1      -4.677  -3.763  -0.585  1.00  0.00     0.000 A 
HETATM   17  C14 UNL     1      -5.114  -2.499  -0.872  1.00  0.00     0.001 A 
HETATM   18  C15 UNL     1      -4.191  -1.489  -0.850  1.00  0.00     0.014 A 
ENDBRANCH   1  13
BRANCH   2  19
HETATM   19  N2  UNL     1      -1.805   1.832  -0.907  1.00  0.00    -0.253 N 
HETATM   20  H8  UNL     1      -1.030   2.449  -1.290  1.00  0.00     0.191 HD
BRANCH  19  21
HETATM   21  C9  UNL     1      -2.308   2.573   0.212  1.00  0.00     0.185 C 
HETATM   22  S1  UNL     1      -3.472   2.396   1.359  1.00  0.00    -0.040 SA
BRANCH  21  23
HETATM   23  N3  UNL     1      -1.958   3.844   0.796  1.00  0.00    -0.375 N 
HETATM   24  H9  UNL     1      -1.274   4.131   1.550  1.00  0.00     0.158 HD
HETATM   25  H10 UNL     1      -2.288   4.834   0.630  1.00  0.00     0.158 HD
ENDBRANCH  21  23
ENDBRANCH  19  21
ENDBRANCH   2  19
TORSDOF 7
