REMARK  9 active torsions:
REMARK  status: ('A' for Active; 'I' for Inactive)
REMARK    1  A    between atoms: O1_2  and  C2_3 
REMARK    2  A    between atoms: C2_3  and  C4_5 
REMARK    3  A    between atoms: C4_5  and  C5_6 
REMARK    4  A    between atoms: C5_6  and  C6_7 
REMARK    5  A    between atoms: C7_8  and  C8_9 
REMARK    6  A    between atoms: C9_10  and  N1_11 
REMARK    7  A    between atoms: C10_12  and  N2_13 
REMARK    8  A    between atoms: S1_14  and  C11_15 
REMARK    9  A    between atoms: C11_15  and  C12_16 
ROOT
HETATM    1  N1  UNL     1       1.794  -0.586   0.255  1.00  0.00     0.021 N 
HETATM    2  C10 UNL     1       2.525  -1.447   1.056  1.00  0.00     0.322 A 
HETATM    3  S1  UNL     1       2.747  -2.220  -0.454  1.00  0.00    -0.034 SA
HETATM    4  H14 UNL     1       1.757  -0.226   1.256  1.00  0.00     0.303 HD
ENDROOT
BRANCH   1   5
HETATM    5  C9  UNL     1       1.170   0.016  -0.869  1.00  0.00     0.216 C 
HETATM    6  C8  UNL     1      -0.144   0.107  -0.760  1.00  0.00     0.026 C 
BRANCH   6   7
HETATM    7  C7  UNL     1      -0.919   0.688  -1.808  1.00  0.00     0.001 C 
HETATM    8  C6  UNL     1      -2.217   0.883  -1.923  1.00  0.00    -0.000 C 
BRANCH   8   9
HETATM    9  C5  UNL     1      -3.110   0.471  -0.849  1.00  0.00    -0.002 C 
BRANCH   9  10
HETATM   10  C4  UNL     1      -4.425   0.686  -0.998  1.00  0.00     0.004 C 
BRANCH  10  11
HETATM   11  C2  UNL     1      -5.358   0.149   0.348  1.00  0.00     0.139 C 
HETATM   12  C3  UNL     1      -6.722  -0.106  -0.698  1.00  0.00     0.044 C 
BRANCH  11  13
HETATM   13  O1  UNL     1      -5.740   1.372   0.668  1.00  0.00    -0.387 OA
HETATM   14  C1  UNL     1      -6.782   1.485   1.587  1.00  0.00     0.202 C 
ENDBRANCH  11  13
ENDBRANCH  10  11
ENDBRANCH   9  10
ENDBRANCH   8   9
ENDBRANCH   6   7
ENDBRANCH   1   5
BRANCH   2  15
HETATM   15  N2  UNL     1       3.308  -2.443   1.656  1.00  0.00    -0.386 N 
HETATM   16  H15 UNL     1       2.491  -2.471   2.294  1.00  0.00     0.153 HD
HETATM   17  H16 UNL     1       4.183  -2.928   1.590  1.00  0.00     0.153 HD
ENDBRANCH   2  15
BRANCH   3  18
HETATM   18  C11 UNL     1       4.226  -1.646  -1.064  1.00  0.00     0.249 C 
BRANCH  18  19
HETATM   19  C12 UNL     1       4.935  -0.628  -0.280  1.00  0.00    -0.042 A 
HETATM   20  C13 UNL     1       4.618   0.714  -0.221  1.00  0.00     0.008 A 
HETATM   21  C14 UNL     1       5.414   1.500   0.553  1.00  0.00     0.001 A 
HETATM   22  C15 UNL     1       6.469   0.949   1.225  1.00  0.00     0.000 A 
HETATM   23  C16 UNL     1       6.841  -0.368   1.212  1.00  0.00     0.001 A 
HETATM   24  C17 UNL     1       6.016  -1.143   0.420  1.00  0.00     0.008 A 
ENDBRANCH  18  19
ENDBRANCH   3  18
TORSDOF 9
