REMARK  7 active torsions:
REMARK  status: ('A' for Active; 'I' for Inactive)
REMARK    1  A    between atoms: O1_2  and  C2_3 
REMARK    2  A    between atoms: C5_6  and  C6_7 
REMARK    3  A    between atoms: C6_7  and  C7_8 
REMARK    4  A    between atoms: C8_9  and  C9_10 
REMARK    5  A    between atoms: N1_16  and  N2_17 
REMARK    6  A    between atoms: N2_17  and  C15_18 
REMARK    7  A    between atoms: C15_18  and  N3_19 
ROOT
HETATM    1  C6  UNL     1      -0.448  -0.757   0.336  1.00  0.00     0.087 C 
HETATM    2  N1  UNL     1      -0.265  -1.987   0.625  1.00  0.00    -0.172 NA
ENDROOT
BRANCH   1   3
HETATM    3  C5  UNL     1      -1.460   0.190  -0.101  1.00  0.00    -0.006 A 
HETATM    4  C4  UNL     1      -1.290   1.535  -0.325  1.00  0.00     0.016 A 
HETATM    5  C3  UNL     1      -2.369   2.245  -0.731  1.00  0.00     0.037 A 
HETATM    6  C2  UNL     1      -3.625   1.730  -0.937  1.00  0.00     0.068 A 
HETATM    7  C17 UNL     1      -3.781   0.384  -0.708  1.00  0.00     0.037 A 
HETATM    8  C16 UNL     1      -2.704  -0.360  -0.297  1.00  0.00     0.016 A 
BRANCH   6   9
HETATM    9  O1  UNL     1      -4.699   2.501  -1.353  1.00  0.00    -0.356 OA
HETATM   10  C1  UNL     1      -4.561   3.883  -1.593  1.00  0.00     0.210 C 
ENDBRANCH   6   9
ENDBRANCH   1   3
BRANCH   1  11
HETATM   11  C7  UNL     1       0.893  -0.232   0.559  1.00  0.00     0.035 C 
HETATM   12  C8  UNL     1       2.055  -0.729   0.942  1.00  0.00     0.014 C 
BRANCH  12  13
HETATM   13  C9  UNL     1       3.389  -0.205   1.164  1.00  0.00    -0.036 A 
HETATM   14  C10 UNL     1       4.349  -1.103   1.578  1.00  0.00     0.011 A 
HETATM   15  C11 UNL     1       5.599  -0.559   1.774  1.00  0.00     0.001 A 
HETATM   16  C12 UNL     1       5.848   0.774   1.570  1.00  0.00     0.000 A 
HETATM   17  C13 UNL     1       4.883   1.648   1.160  1.00  0.00     0.001 A 
HETATM   18  C14 UNL     1       3.618   1.139   0.952  1.00  0.00     0.011 A 
ENDBRANCH  12  13
ENDBRANCH   1  11
BRANCH   2  19
HETATM   19  N2  UNL     1      -1.286  -2.899   0.556  1.00  0.00    -0.253 N 
HETATM   20  H13 UNL     1      -2.136  -3.388   0.915  1.00  0.00     0.191 HD
BRANCH  19  21
HETATM   21  C15 UNL     1      -1.017  -3.503  -0.718  1.00  0.00     0.185 C 
HETATM   22  S1  UNL     1       0.063  -3.387  -1.942  1.00  0.00    -0.040 SA
BRANCH  21  23
HETATM   23  N3  UNL     1      -1.688  -4.550  -1.449  1.00  0.00    -0.375 N 
HETATM   24  H14 UNL     1      -2.459  -4.599  -2.153  1.00  0.00     0.158 HD
HETATM   25  H15 UNL     1      -1.604  -5.599  -1.498  1.00  0.00     0.158 HD
ENDBRANCH  21  23
ENDBRANCH  19  21
ENDBRANCH   2  19
TORSDOF 7
