REMARK  3 active torsions:
REMARK  status: ('A' for Active; 'I' for Inactive)
REMARK    1  A    between atoms: O1_2  and  C2_3 
REMARK    2  A    between atoms: C4_6  and  C5_7 
REMARK    3  A    between atoms: C6_8  and  C7_9 
ROOT
HETATM    1  C2  UNL     1      -2.663  -0.892  -0.294  1.00  0.00     0.078 C 
HETATM    2  C3  UNL     1      -1.362  -1.280  -0.004  1.00  0.00     0.198 C 
HETATM    3  N1  UNL     1      -0.330  -0.470  -0.745  1.00  0.00    -0.268 NA
HETATM    4  C4  UNL     1       0.814   0.117  -1.524  1.00  0.00     0.106 C 
HETATM    5  N2  UNL     1       0.394   0.406  -2.835  1.00  0.00    -0.209 NA
HETATM    6  C12 UNL     1      -1.038  -0.007  -2.858  1.00  0.00     0.195 C 
HETATM    7  S1  UNL     1      -2.023  -1.110  -3.446  1.00  0.00    -0.039 SA
HETATM    8  N3  UNL     1      -1.626   1.099  -2.138  1.00  0.00    -0.362 N 
HETATM    9  C13 UNL     1      -2.867   1.038  -1.596  1.00  0.00     0.149 C 
HETATM   10  C14 UNL     1      -4.215   0.884  -1.581  1.00  0.00    -0.009 C 
HETATM   11  C15 UNL     1      -3.966  -0.231  -0.796  1.00  0.00     0.004 C 
HETATM   12  H5  UNL     1       0.272  -1.361  -0.970  1.00  0.00     0.129 HD
HETATM   13  H13 UNL     1      -1.034   1.913  -2.102  1.00  0.00     0.162 HD
ENDROOT
BRANCH   4  14
HETATM   14  C5  UNL     1       2.091   0.305  -0.859  1.00  0.00     0.045 C 
HETATM   15  C6  UNL     1       2.097  -0.080   0.388  1.00  0.00     0.011 C 
BRANCH  15  16
HETATM   16  C7  UNL     1       3.398   0.125   1.013  1.00  0.00    -0.055 A 
HETATM   17  C8  UNL     1       4.495   0.630   0.473  1.00  0.00     0.007 A 
HETATM   18  C9  UNL     1       5.620   0.679   1.426  1.00  0.00    -0.003 A 
HETATM   19  C10 UNL     1       5.123   0.178   2.545  1.00  0.00    -0.022 A 
HETATM   20  C11 UNL     1       3.697  -0.223   2.425  1.00  0.00     0.065 A 
ENDBRANCH  15  16
ENDBRANCH   4  14
BRANCH   1  21
HETATM   21  O1  UNL     1      -2.896  -1.964   0.612  1.00  0.00    -0.385 OA
HETATM   22  C1  UNL     1      -3.459  -1.596   1.849  1.00  0.00     0.202 C 
ENDBRANCH   1  21
TORSDOF 3
