REMARK  8 active torsions:
REMARK  status: ('A' for Active; 'I' for Inactive)
REMARK    1  A    between atoms: O1_2  and  C2_3 
REMARK    2  A    between atoms: C5_6  and  C6_7 
REMARK    3  A    between atoms: C6_7  and  N1_8 
REMARK    4  A    between atoms: C6_7  and  C7_9 
REMARK    5  A    between atoms: C12_14  and  N2_15 
REMARK    6  A    between atoms: N2_15  and  P1_16 
REMARK    7  A    between atoms: P1_16  and  N3_17 
REMARK    8  A    between atoms: N3_17  and  C13_18 
ROOT
HETATM    1  C7  UNL     1      -0.965  -0.893   0.573  1.00  0.00     0.008 A 
HETATM    2  C8  UNL     1      -0.224  -2.048   0.649  1.00  0.00     0.012 A 
HETATM    3  C9  UNL     1      -0.816  -3.282   0.359  1.00  0.00     0.001 A 
HETATM    4  C10 UNL     1      -2.151  -3.307  -0.002  1.00  0.00     0.002 A 
HETATM    5  C11 UNL     1      -2.905  -2.146  -0.080  1.00  0.00     0.032 A 
HETATM    6  C12 UNL     1      -2.317  -0.922   0.207  1.00  0.00     0.067 A 
ENDROOT
BRANCH   1   7
HETATM    7  C6  UNL     1      -0.260   0.367   0.882  1.00  0.00     0.286 C 
BRANCH   7   8
HETATM    8  C5  UNL     1       1.089   0.448   0.253  1.00  0.00    -0.021 A 
HETATM    9  C4  UNL     1       1.334   0.688  -1.080  1.00  0.00     0.012 A 
HETATM   10  C3  UNL     1       2.624   0.751  -1.560  1.00  0.00     0.037 A 
HETATM   11  C2  UNL     1       3.721   0.576  -0.717  1.00  0.00     0.068 A 
HETATM   12  C15 UNL     1       3.504   0.332   0.631  1.00  0.00     0.037 A 
HETATM   13  C14 UNL     1       2.201   0.276   1.071  1.00  0.00     0.012 A 
BRANCH  11  14
HETATM   14  O1  UNL     1       5.049   0.620  -1.093  1.00  0.00    -0.356 OA
HETATM   15  C1  UNL     1       6.144   0.438  -0.210  1.00  0.00     0.210 C 
ENDBRANCH  11  14
ENDBRANCH   7   8
BRANCH   7  16
HETATM   16  N1  UNL     1      -1.016   1.523   0.389  1.00  0.00     0.091 N 
HETATM   17  H7  UNL     1      -1.135   1.395  -0.652  1.00  0.00     0.314 HD
HETATM   18  H8  UNL     1      -0.343   2.344   0.482  1.00  0.00     0.314 HD
ENDBRANCH   7  16
ENDBRANCH   1   7
BRANCH   6  19
HETATM   19  N2  UNL     1      -3.051   0.287   0.146  1.00  0.00    -0.231 NA
BRANCH  19  20
HETATM   20  P1  UNL     1      -4.579   0.302  -0.347  1.00  0.00     0.185 P 
BRANCH  20  21
HETATM   21  N3  UNL     1      -5.550   1.826  -0.438  1.00  0.00    -0.341 N 
HETATM   22  H13 UNL     1      -5.716   2.091  -1.414  1.00  0.00     0.166 HD
BRANCH  21  23
HETATM   23  C13 UNL     1      -5.807   2.222   0.918  1.00  0.00     0.171 C 
HETATM   24  S1  UNL     1      -5.391   3.532   1.808  1.00  0.00    -0.074 SA
ENDBRANCH  21  23
ENDBRANCH  20  21
ENDBRANCH  19  20
ENDBRANCH   6  19
TORSDOF 8
