REMARK  4 active torsions:
REMARK  status: ('A' for Active; 'I' for Inactive)
REMARK    1  A    between atoms: N1_1  and  C1_2 
REMARK    2  A    between atoms: C6_9  and  C7_10 
REMARK    3  A    between atoms: C8_11  and  C9_12 
REMARK    4  A    between atoms: C9_12  and  C10_14 
ROOT
HETATM    1  C1  UNL     1      -3.362  -1.802  -0.182  1.00  0.00     0.137 C 
HETATM    2  S1  UNL     1      -4.219  -1.337  -1.573  1.00  0.00    -0.071 SA
HETATM    3  C2  UNL     1      -5.316  -0.127  -1.221  1.00  0.00     0.055 C 
HETATM    4  C3  UNL     1      -4.289   0.885  -1.226  1.00  0.00     0.045 C 
HETATM    5  C4  UNL     1      -3.024   0.794  -1.566  1.00  0.00     0.100 C 
HETATM    6  F1  UNL     1      -2.338  -0.255  -2.023  1.00  0.00    -0.210 F 
HETATM    7  C5  UNL     1      -1.847   1.745  -1.439  1.00  0.00     0.131 C 
HETATM    8  C6  UNL     1      -1.009   1.079  -0.335  1.00  0.00     0.060 C 
HETATM    9  N2  UNL     1      -1.231  -0.035   0.271  1.00  0.00    -0.177 NA
HETATM   10  N3  UNL     1      -2.257  -0.940   0.111  1.00  0.00    -0.261 N 
HETATM   11  H14 UNL     1      -1.744  -1.204   0.977  1.00  0.00     0.191 HD
ENDROOT
BRANCH   8  12
HETATM   12  C7  UNL     1       0.231   1.540   0.269  1.00  0.00     0.027 C 
HETATM   13  C8  UNL     1       0.745   0.767   1.185  1.00  0.00    -0.004 C 
BRANCH  13  14
HETATM   14  C9  UNL     1       2.008   1.229   1.804  1.00  0.00     0.113 C 
HETATM   15 BR1  UNL     1       2.010   0.685   3.659  1.00  0.00    -0.082 Br
BRANCH  14  16
HETATM   16  C10 UNL     1       3.120   0.554   1.053  1.00  0.00    -0.040 A 
HETATM   17  C11 UNL     1       2.956  -0.828   1.101  1.00  0.00     0.010 A 
HETATM   18  C12 UNL     1       3.888  -1.652   0.460  1.00  0.00     0.024 A 
HETATM   19  C13 UNL     1       4.943  -1.049  -0.200  1.00  0.00     0.034 A 
HETATM   20 CL1  UNL     1       6.139  -2.026  -1.019  1.00  0.00    -0.084 Cl
HETATM   21  C14 UNL     1       5.089   0.318  -0.238  1.00  0.00     0.024 A 
HETATM   22  C15 UNL     1       4.173   1.135   0.392  1.00  0.00     0.010 A 
ENDBRANCH  14  16
ENDBRANCH  13  14
ENDBRANCH   8  12
BRANCH   1  23
HETATM   23  N1  UNL     1      -3.675  -2.913   0.646  1.00  0.00    -0.281 NA
HETATM   24  H1  UNL     1      -3.156  -3.458  -0.072  1.00  0.00     0.126 HD
HETATM   25  H2  UNL     1      -3.188  -3.627   0.028  1.00  0.00     0.126 HD
ENDBRANCH   1  23
TORSDOF 4
