REMARK  7 active torsions:
REMARK  status: ('A' for Active; 'I' for Inactive)
REMARK    1  A    between atoms: O1_2  and  C2_3 
REMARK    2  A    between atoms: C5_6  and  C6_7 
REMARK    3  A    between atoms: C9_10  and  C10_11 
REMARK    4  A    between atoms: C11_12  and  C12_13 
REMARK    5  A    between atoms: C13_14  and  N1_15 
REMARK    6  A    between atoms: N1_15  and  C14_16 
REMARK    7  A    between atoms: C14_16  and  N2_17 
ROOT
HETATM    1  C6  UNL     1      -1.066   0.753   1.221  1.00  0.00     0.064 A 
HETATM    2  C7  UNL     1      -0.291   1.692   0.385  1.00  0.00    -0.013 A 
HETATM    3  C8  UNL     1       0.855   1.119   0.057  1.00  0.00     0.008 A 
HETATM    4  C9  UNL     1       0.941  -0.218   0.631  1.00  0.00    -0.039 A 
HETATM    5  C15 UNL     1      -0.187  -0.430   1.313  1.00  0.00    -0.002 A 
ENDROOT
BRANCH   4   6
HETATM    6  C10 UNL     1       2.127  -0.996   0.377  1.00  0.00     0.011 C 
HETATM    7  C11 UNL     1       3.235  -0.785  -0.294  1.00  0.00     0.002 C 
BRANCH   7   8
HETATM    8  C12 UNL     1       3.613   0.381  -1.029  1.00  0.00     0.017 C 
HETATM    9  C13 UNL     1       4.761   0.442  -1.650  1.00  0.00     0.090 C 
BRANCH   9  10
HETATM   10  N1  UNL     1       5.365  -0.823  -1.377  1.00  0.00    -0.344 N 
HETATM   11  H13 UNL     1       5.129  -1.675  -1.941  1.00  0.00     0.167 HD
BRANCH  10  12
HETATM   12  C14 UNL     1       6.319  -0.996  -0.327  1.00  0.00     0.169 C 
HETATM   13  S1  UNL     1       7.008  -2.420  -0.010  1.00  0.00    -0.041 SA
BRANCH  12  14
HETATM   14  N2  UNL     1       6.606   0.191   0.410  1.00  0.00    -0.376 N 
HETATM   15  H14 UNL     1       7.030   1.112   0.673  1.00  0.00     0.158 HD
HETATM   16  H15 UNL     1       6.057   0.247   1.317  1.00  0.00     0.158 HD
ENDBRANCH  12  14
ENDBRANCH  10  12
ENDBRANCH   9  10
ENDBRANCH   7   8
ENDBRANCH   4   6
BRANCH   1  17
HETATM   17  C5  UNL     1      -2.375   0.437   0.595  1.00  0.00    -0.047 A 
HETATM   18  C4  UNL     1      -3.526   0.639   1.341  1.00  0.00     0.011 A 
HETATM   19  C3  UNL     1      -4.744   0.345   0.760  1.00  0.00     0.037 A 
HETATM   20  C2  UNL     1      -4.783  -0.136  -0.532  1.00  0.00     0.068 A 
HETATM   21  C17 UNL     1      -3.612  -0.334  -1.270  1.00  0.00     0.037 A 
HETATM   22  C16 UNL     1      -2.370  -0.042  -0.698  1.00  0.00     0.011 A 
BRANCH  20  23
HETATM   23  O1  UNL     1      -5.924  -0.475  -1.248  1.00  0.00    -0.356 OA
HETATM   24  C1  UNL     1      -7.233  -0.363  -0.718  1.00  0.00     0.210 C 
ENDBRANCH  20  23
ENDBRANCH   1  17
TORSDOF 7
