REMARK  6 active torsions:
REMARK  status: ('A' for Active; 'I' for Inactive)
REMARK    1  A    between atoms: N1_1  and  C1_2 
REMARK    2  A    between atoms: C1_2  and  N2_4 
REMARK    3  A    between atoms: N2_4  and  C2_5 
REMARK    4  A    between atoms: C2_5  and  C3_6 
REMARK    5  A    between atoms: C2_5  and  C11_15 
REMARK    6  A    between atoms: C4_7  and  C5_8 
ROOT
HETATM    1  C2  UNL     1      -1.408   0.820   0.260  1.00  0.00     0.140 C 
ENDROOT
BRANCH   1   2
HETATM    2  N2  UNL     1      -1.585   1.580  -0.974  1.00  0.00    -0.355 N 
HETATM    3  H3  UNL     1      -2.216   1.290  -1.732  1.00  0.00     0.163 HD
BRANCH   2   4
HETATM    4  C1  UNL     1      -0.845   2.778  -1.132  1.00  0.00     0.166 C 
HETATM    5  S1  UNL     1      -0.972   3.695  -2.470  1.00  0.00    -0.041 SA
BRANCH   4   6
HETATM    6  N1  UNL     1       0.038   3.239  -0.138  1.00  0.00    -0.376 N 
HETATM    7  H1  UNL     1      -0.724   3.729   0.368  1.00  0.00     0.158 HD
HETATM    8  H2  UNL     1       0.694   3.574   0.589  1.00  0.00     0.158 HD
ENDBRANCH   4   6
ENDBRANCH   2   4
ENDBRANCH   1   2
BRANCH   1   9
HETATM    9  C3  UNL     1       0.000   0.384   0.442  1.00  0.00     0.004 C 
HETATM   10  C4  UNL     1       1.019   0.390  -0.401  1.00  0.00     0.010 C 
BRANCH  10  11
HETATM   11  C5  UNL     1       2.388  -0.052  -0.168  1.00  0.00    -0.036 A 
HETATM   12  C6  UNL     1       2.731  -0.553   1.069  1.00  0.00     0.014 A 
HETATM   13  C7  UNL     1       4.029  -0.971   1.287  1.00  0.00     0.043 A 
HETATM   14  C8  UNL     1       4.947  -0.876   0.257  1.00  0.00     0.116 A 
HETATM   15  F1  UNL     1       6.210  -1.297   0.511  1.00  0.00    -0.206 F 
HETATM   16  C9  UNL     1       4.559  -0.363  -0.984  1.00  0.00     0.043 A 
HETATM   17  C10 UNL     1       3.261   0.065  -1.229  1.00  0.00     0.014 A 
ENDBRANCH  10  11
ENDBRANCH   1   9
BRANCH   1  18
HETATM   18  C11 UNL     1      -2.264  -0.381   0.283  1.00  0.00    -0.032 A 
HETATM   19  C12 UNL     1      -3.576  -0.212  -0.120  1.00  0.00     0.009 A 
HETATM   20  C13 UNL     1      -4.442  -1.297  -0.125  1.00  0.00     0.001 A 
HETATM   21  C14 UNL     1      -4.005  -2.535   0.268  1.00  0.00     0.000 A 
HETATM   22  C15 UNL     1      -2.700  -2.679   0.664  1.00  0.00     0.001 A 
HETATM   23  C16 UNL     1      -1.807  -1.627   0.683  1.00  0.00     0.009 A 
ENDBRANCH   1  18
TORSDOF 6
