REMARK  6 active torsions:
REMARK  status: ('A' for Active; 'I' for Inactive)
REMARK    1  A    between atoms: N1_1  and  C1_2 
REMARK    2  A    between atoms: C1_2  and  N2_4 
REMARK    3  A    between atoms: N2_4  and  N3_5 
REMARK    4  A    between atoms: C2_6  and  C3_7 
REMARK    5  A    between atoms: C2_6  and  C11_15 
REMARK    6  A    between atoms: C4_8  and  C5_9 
ROOT
HETATM    1  N3  UNL     1      -2.353   0.436  -0.363  1.00  0.00    -0.172 NA
HETATM    2  C2  UNL     1      -1.587  -0.606  -0.175  1.00  0.00     0.087 C 
ENDROOT
BRANCH   2   3
HETATM    3  C3  UNL     1      -0.255  -0.128   0.023  1.00  0.00     0.035 C 
HETATM    4  C4  UNL     1       0.991  -0.460   0.252  1.00  0.00     0.014 C 
BRANCH   4   5
HETATM    5  C5  UNL     1       2.281   0.159   0.435  1.00  0.00    -0.036 A 
HETATM    6  C6  UNL     1       3.394  -0.608   0.665  1.00  0.00     0.011 A 
HETATM    7  C7  UNL     1       4.557   0.100   0.822  1.00  0.00     0.001 A 
HETATM    8  C8  UNL     1       4.613   1.472   0.756  1.00  0.00     0.000 A 
HETATM    9  C9  UNL     1       3.479   2.220   0.523  1.00  0.00     0.001 A 
HETATM   10  C10 UNL     1       2.284   1.540   0.359  1.00  0.00     0.011 A 
ENDBRANCH   4   5
ENDBRANCH   2   3
BRANCH   2  11
HETATM   11  C11 UNL     1      -2.218  -1.912  -0.204  1.00  0.00    -0.008 C 
HETATM   12  C12 UNL     1      -1.574  -3.104  -0.032  1.00  0.00    -0.002 C 
HETATM   13  C13 UNL     1      -1.942  -4.407  -0.013  1.00  0.00    -0.081 C 
HETATM   14  B1  UNL     1      -3.816  -4.420   0.495  1.00  0.00     0.197 B 
HETATM   15  C14 UNL     1      -4.471  -2.990  -0.495  1.00  0.00    -0.081 C 
HETATM   16  C15 UNL     1      -3.556  -1.974  -0.412  1.00  0.00    -0.002 C 
ENDBRANCH   2  11
BRANCH   1  17
HETATM   17  N2  UNL     1      -1.889   1.728  -0.357  1.00  0.00    -0.253 N 
HETATM   18  H3  UNL     1      -2.187   2.003   0.618  1.00  0.00     0.191 HD
BRANCH  17  19
HETATM   19  C1  UNL     1      -1.222   2.818  -1.027  1.00  0.00     0.185 C 
HETATM   20  S1  UNL     1      -0.632   2.736  -2.549  1.00  0.00    -0.040 SA
BRANCH  19  21
HETATM   21  N1  UNL     1      -0.970   4.114  -0.497  1.00  0.00    -0.375 N 
HETATM   22  H1  UNL     1      -0.129   4.413   0.044  1.00  0.00     0.158 HD
HETATM   23  H2  UNL     1      -1.837   4.646  -0.796  1.00  0.00     0.158 HD
ENDBRANCH  19  21
ENDBRANCH  17  19
ENDBRANCH   1  17
TORSDOF 6
