REMARK  4 active torsions:
REMARK  status: ('A' for Active; 'I' for Inactive)
REMARK    1  A    between atoms: C2_2  and  C3_3 
REMARK    2  A    between atoms: C4_4  and  C5_5 
REMARK    3  A    between atoms: C8_8  and  C9_9 
REMARK    4  A    between atoms: C15_17  and  N1_18 
ROOT
HETATM    1  C5  UNL     1       2.068   0.016   0.380  1.00  0.00    -0.033 C 
HETATM    2  C6  UNL     1       1.011   0.673   0.886  1.00  0.00    -0.014 C 
HETATM    3  C7  UNL     1      -0.401   0.253   1.079  1.00  0.00     0.044 C 
HETATM    4  C8  UNL     1      -1.169  -0.006  -0.175  1.00  0.00     0.079 C 
HETATM    5  C15 UNL     1      -0.923  -1.430  -0.629  1.00  0.00     0.053 C 
HETATM    6  S1  UNL     1       0.609  -2.064  -0.735  1.00  0.00    -0.088 SA
HETATM    7  C16 UNL     1       2.002  -1.380  -0.126  1.00  0.00     0.062 C 
ENDROOT
BRANCH   4   8
HETATM    8  C9  UNL     1      -2.591   0.303  -0.093  1.00  0.00    -0.046 A 
HETATM    9  C10 UNL     1      -3.320   1.193  -0.854  1.00  0.00     0.010 A 
HETATM   10  C11 UNL     1      -4.687   1.344  -0.614  1.00  0.00     0.026 A 
HETATM   11  C12 UNL     1      -5.307   0.608   0.375  1.00  0.00     0.055 A 
HETATM   12 CL1  UNL     1      -7.015   0.795   0.675  1.00  0.00    -0.083 Cl
HETATM   13  C13 UNL     1      -4.606  -0.290   1.153  1.00  0.00     0.056 A 
HETATM   14 CL2  UNL     1      -5.424  -1.203   2.397  1.00  0.00    -0.083 Cl
HETATM   15  C14 UNL     1      -3.240  -0.431   0.905  1.00  0.00     0.033 A 
ENDBRANCH   4   8
BRANCH   5  16
HETATM   16  N1  UNL     1      -1.933  -2.362  -1.005  1.00  0.00    -0.396 N 
HETATM   17  H13 UNL     1      -2.714  -2.430  -1.712  1.00  0.00     0.156 HD
HETATM   18  H14 UNL     1      -1.938  -3.251  -0.445  1.00  0.00     0.156 HD
ENDBRANCH   5  16
BRANCH   1  19
HETATM   19  C4  UNL     1       3.351   0.719   0.326  1.00  0.00     0.011 C 
HETATM   20  C3  UNL     1       4.473   0.249  -0.127  1.00  0.00     0.000 C 
BRANCH  20  21
HETATM   21  C2  UNL     1       5.709   1.056  -0.130  1.00  0.00    -0.010 C 
HETATM   22  C1  UNL     1       6.840   0.581  -0.587  1.00  0.00     0.011 C 
ENDBRANCH  20  21
ENDBRANCH   1  19
TORSDOF 4
