REMARK  4 active torsions:
REMARK  status: ('A' for Active; 'I' for Inactive)
REMARK    1  A    between atoms: N1_1  and  C1_2 
REMARK    2  A    between atoms: C1_2  and  N2_4 
REMARK    3  A    between atoms: N2_4  and  N3_5 
REMARK    4  A    between atoms: C9_14  and  C10_15 
ROOT
HETATM    1  N3  UNL     1       2.568  -0.036  -0.038  1.00  0.00    -0.177 NA
HETATM    2  C2  UNL     1       1.581   0.779  -0.040  1.00  0.00     0.060 A 
HETATM    3  C3  UNL     1       2.143   2.156  -0.314  1.00  0.00     0.029 A 
HETATM    4  C4  UNL     1       1.617   3.360  -0.427  1.00  0.00     0.003 A 
HETATM    5  C5  UNL     1       0.306   4.047  -0.367  1.00  0.00     0.015 A 
HETATM    6  C6  UNL     1      -1.019   4.020  -0.199  1.00  0.00    -0.011 A 
HETATM    7 BR1  UNL     1      -2.141   5.539  -0.284  1.00  0.00    -0.056 Br
HETATM    8  C7  UNL     1      -1.735   2.729   0.080  1.00  0.00     0.017 A 
HETATM    9  C8  UNL     1      -1.950   1.417   0.300  1.00  0.00     0.039 A 
HETATM   10  C9  UNL     1      -0.898   0.320   0.332  1.00  0.00    -0.009 A 
HETATM   11  C16 UNL     1       0.414  -0.102   0.233  1.00  0.00     0.100 A 
ENDROOT
BRANCH   1  12
HETATM   12  N2  UNL     1       2.655  -1.376   0.153  1.00  0.00    -0.253 N 
HETATM   13  H3  UNL     1       2.340  -1.965   0.953  1.00  0.00     0.191 HD
BRANCH  12  14
HETATM   14  C1  UNL     1       3.254  -2.179  -0.848  1.00  0.00     0.185 C 
HETATM   15  S1  UNL     1       3.460  -3.806  -0.819  1.00  0.00    -0.040 SA
BRANCH  14  16
HETATM   16  N1  UNL     1       3.831  -1.881  -2.115  1.00  0.00    -0.375 N 
HETATM   17  H1  UNL     1       4.880  -1.890  -2.276  1.00  0.00     0.158 HD
HETATM   18  H2  UNL     1       3.662  -1.617  -3.108  1.00  0.00     0.158 HD
ENDBRANCH  14  16
ENDBRANCH  12  14
ENDBRANCH   1  12
BRANCH  10  19
HETATM   19  C10 UNL     1      -1.648  -0.919   0.596  1.00  0.00    -0.052 A 
HETATM   20  C11 UNL     1      -1.036  -2.161   0.685  1.00  0.00     0.010 A 
HETATM   21  C12 UNL     1      -1.685  -3.374   0.933  1.00  0.00     0.043 A 
HETATM   22  C13 UNL     1      -3.045  -3.360   1.107  1.00  0.00     0.116 A 
HETATM   23  F1  UNL     1      -3.720  -4.502   1.349  1.00  0.00    -0.206 F 
HETATM   24  C14 UNL     1      -3.752  -2.187   1.039  1.00  0.00     0.043 A 
HETATM   25  C15 UNL     1      -3.011  -1.058   0.791  1.00  0.00     0.010 A 
ENDBRANCH  10  19
TORSDOF 4
