REMARK  7 active torsions:
REMARK  status: ('A' for Active; 'I' for Inactive)
REMARK    1  A    between atoms: C2_2  and  C3_3 
REMARK    2  A    between atoms: C6_6  and  C7_7 
REMARK    3  A    between atoms: C7_7  and  C8_8 
REMARK    4  A    between atoms: C8_8  and  C9_9 
REMARK    5  A    between atoms: N1_16  and  N2_17 
REMARK    6  A    between atoms: N2_17  and  C15_18 
REMARK    7  A    between atoms: C15_18  and  N3_19 
ROOT
HETATM    1  C7  UNL     1       0.543   0.752  -0.893  1.00  0.00     0.074 C 
HETATM    2  N1  UNL     1       0.564   1.884  -1.406  1.00  0.00    -0.176 NA
ENDROOT
BRANCH   1   3
HETATM    3  C6  UNL     1      -0.643   0.129  -0.323  1.00  0.00    -0.009 A 
HETATM    4  C5  UNL     1      -1.853   0.783  -0.328  1.00  0.00     0.014 A 
HETATM    5  C4  UNL     1      -3.072   0.366   0.159  1.00  0.00     0.008 A 
HETATM    6  C3  UNL     1      -3.098  -0.884   0.737  1.00  0.00    -0.059 A 
HETATM    7  C17 UNL     1      -1.943  -1.634   0.800  1.00  0.00     0.008 A 
HETATM    8  C16 UNL     1      -0.791  -1.099   0.275  1.00  0.00     0.014 A 
BRANCH   6   9
HETATM    9  C2  UNL     1      -4.377  -1.398   1.283  1.00  0.00     0.034 C 
HETATM   10  C1  UNL     1      -4.478  -0.978   2.740  1.00  0.00     0.010 C 
ENDBRANCH   6   9
ENDBRANCH   1   3
BRANCH   1  11
HETATM   11  C8  UNL     1       1.689  -0.166  -0.768  1.00  0.00     0.085 C 
BRANCH  11  12
HETATM   12  C9  UNL     1       2.852  -0.766  -0.788  1.00  0.00    -0.044 A 
HETATM   13  C10 UNL     1       2.678  -2.094  -0.158  1.00  0.00     0.064 A 
HETATM   14  C11 UNL     1       3.928  -2.845  -0.126  1.00  0.00    -0.022 A 
HETATM   15  C12 UNL     1       5.138  -2.567  -0.543  1.00  0.00    -0.002 A 
HETATM   16  C13 UNL     1       5.235  -1.255  -1.151  1.00  0.00     0.024 A 
HETATM   17  C14 UNL     1       4.201  -0.463  -1.252  1.00  0.00     0.037 A 
HETATM   18 CL1  UNL     1       4.339   1.133  -1.996  1.00  0.00    -0.084 Cl
ENDBRANCH  11  12
ENDBRANCH   1  11
BRANCH   2  19
HETATM   19  N2  UNL     1      -0.207   2.897  -1.673  1.00  0.00    -0.253 N 
HETATM   20  H14 UNL     1      -0.940   3.243  -2.344  1.00  0.00     0.191 HD
BRANCH  19  21
HETATM   21  C15 UNL     1       0.030   3.919  -0.710  1.00  0.00     0.185 C 
HETATM   22  S1  UNL     1       1.035   4.014   0.571  1.00  0.00    -0.040 SA
BRANCH  21  23
HETATM   23  N3  UNL     1      -0.569   5.219  -0.579  1.00  0.00    -0.375 N 
HETATM   24  H15 UNL     1      -1.444   5.209   0.020  1.00  0.00     0.158 HD
HETATM   25  H16 UNL     1      -0.450   6.199  -0.870  1.00  0.00     0.158 HD
ENDBRANCH  21  23
ENDBRANCH  19  21
ENDBRANCH   2  19
TORSDOF 7
