REMARK  5 active torsions:
REMARK  status: ('A' for Active; 'I' for Inactive)
REMARK    1  A    between atoms: N1_1  and  C1_2 
REMARK    2  A    between atoms: C1_2  and  N2_4 
REMARK    3  A    between atoms: N2_4  and  N3_5 
REMARK    4  A    between atoms: N3_5  and  C2_6 
REMARK    5  A    between atoms: C5_9  and  C6_10 
ROOT
HETATM    1  C2  UNL     1       2.745  -0.422  -0.341  1.00  0.00     0.049 C 
HETATM    2  C3  UNL     1       1.524   0.082  -0.333  1.00  0.00     0.042 C 
HETATM    3  C4  UNL     1       0.242  -0.631  -0.136  1.00  0.00    -0.033 C 
HETATM    4  C5  UNL     1      -0.801   0.060   0.286  1.00  0.00     0.023 C 
HETATM    5  C16 UNL     1       0.090  -2.061  -0.399  1.00  0.00     0.011 C 
HETATM    6  C17 UNL     1       1.042  -3.009  -0.415  1.00  0.00     0.001 C 
HETATM    7  C18 UNL     1       2.480  -2.924  -0.186  1.00  0.00     0.002 C 
HETATM    8  C19 UNL     1       3.177  -1.802  -0.160  1.00  0.00     0.031 C 
ENDROOT
BRANCH   4   9
HETATM    9  C6  UNL     1      -2.174  -0.245   0.593  1.00  0.00    -0.024 A 
HETATM   10  C7  UNL     1      -2.449  -1.412   1.275  1.00  0.00     0.012 A 
HETATM   11  C8  UNL     1      -3.766  -1.766   1.595  1.00  0.00     0.002 A 
HETATM   12  C9  UNL     1      -4.762  -0.888   1.192  1.00  0.00     0.012 A 
HETATM   13  C10 UNL     1      -4.514   0.284   0.509  1.00  0.00    -0.025 A 
HETATM   14  C11 UNL     1      -5.562   1.122   0.130  1.00  0.00     0.012 A 
HETATM   15  C15 UNL     1      -3.203   0.594   0.214  1.00  0.00    -0.016 A 
HETATM   16  C12 UNL     1      -5.330   2.297  -0.556  1.00  0.00     0.001 A 
HETATM   17  C13 UNL     1      -4.026   2.587  -0.839  1.00  0.00     0.001 A 
HETATM   18  C14 UNL     1      -2.961   1.759  -0.468  1.00  0.00     0.013 A 
ENDBRANCH   4   9
BRANCH   1  19
HETATM   19  N3  UNL     1       3.735   0.577  -0.561  1.00  0.00    -0.299 N 
HETATM   20  H4  UNL     1       3.605   0.842  -1.562  1.00  0.00     0.187 HD
BRANCH  19  21
HETATM   21  N2  UNL     1       4.752   1.275   0.068  1.00  0.00    -0.276 N 
HETATM   22  H3  UNL     1       4.244   2.104   0.427  1.00  0.00     0.189 HD
BRANCH  21  23
HETATM   23  C1  UNL     1       6.139   1.018   0.234  1.00  0.00     0.184 C 
HETATM   24  S1  UNL     1       6.774  -0.343  -0.399  1.00  0.00    -0.040 SA
BRANCH  23  25
HETATM   25  N1  UNL     1       6.858   2.004   0.960  1.00  0.00    -0.375 N 
HETATM   26  H1  UNL     1       7.319   2.514   1.741  1.00  0.00     0.158 HD
HETATM   27  H2  UNL     1       7.178   2.800   0.359  1.00  0.00     0.158 HD
ENDBRANCH  23  25
ENDBRANCH  21  23
ENDBRANCH  19  21
ENDBRANCH   1  19
TORSDOF 5
