REMARK  3 active torsions:
REMARK  status: ('A' for Active; 'I' for Inactive)
REMARK    1  A    between atoms: N1_1  and  C1_2 
REMARK    2  A    between atoms: C1_2  and  N2_4 
REMARK    3  A    between atoms: N2_4  and  N3_5 
ROOT
HETATM    1  N3  UNL     1       3.226   0.231   1.135  1.00  0.00    -0.181 NA
HETATM    2  C2  UNL     1       2.123   0.296   0.528  1.00  0.00     0.045 C 
HETATM    3  C3  UNL     1       0.763  -0.171   0.309  1.00  0.00     0.079 C 
HETATM    4  C4  UNL     1      -0.421  -0.742   0.275  1.00  0.00    -0.054 A 
HETATM    5  C5  UNL     1      -0.437  -1.813   1.298  1.00  0.00     0.063 A 
HETATM    6  C6  UNL     1      -1.648  -2.619   1.346  1.00  0.00    -0.021 A 
HETATM    7  C7  UNL     1      -2.604  -2.321   0.519  1.00  0.00     0.008 A 
HETATM    8  C8  UNL     1      -2.497  -1.228  -0.437  1.00  0.00    -0.025 A 
HETATM    9  C9  UNL     1      -3.705  -1.205  -1.131  1.00  0.00     0.012 A 
HETATM   10  C10 UNL     1      -3.923  -0.268  -2.110  1.00  0.00     0.001 A 
HETATM   11  C11 UNL     1      -2.873   0.599  -2.319  1.00  0.00     0.008 A 
HETATM   12  C12 UNL     1      -1.671   0.566  -1.619  1.00  0.00    -0.043 A 
HETATM   13  C13 UNL     1      -1.452  -0.367  -0.645  1.00  0.00    -0.016 A 
HETATM   14  C14 UNL     1      -0.910   1.718  -2.185  1.00  0.00     0.066 C 
HETATM   15  C15 UNL     1      -1.591   2.945  -1.627  1.00  0.00    -0.022 C 
HETATM   16  C16 UNL     1      -0.976   3.569  -0.664  1.00  0.00    -0.004 C 
HETATM   17  C17 UNL     1       0.287   3.315   0.004  1.00  0.00    -0.004 C 
HETATM   18  C18 UNL     1       1.312   2.481  -0.043  1.00  0.00    -0.021 C 
HETATM   19  C19 UNL     1       2.162   1.375  -0.489  1.00  0.00     0.084 C 
ENDROOT
BRANCH   1  20
HETATM   20  N2  UNL     1       3.402  -0.725   2.140  1.00  0.00    -0.254 N 
HETATM   21  H3  UNL     1       3.067  -0.699   3.126  1.00  0.00     0.191 HD
BRANCH  20  22
HETATM   22  C1  UNL     1       4.132  -1.893   1.782  1.00  0.00     0.185 C 
HETATM   23  S1  UNL     1       4.751  -2.146   0.291  1.00  0.00    -0.040 SA
BRANCH  22  24
HETATM   24  N1  UNL     1       4.408  -2.970   2.674  1.00  0.00    -0.375 N 
HETATM   25  H1  UNL     1       5.053  -3.420   3.385  1.00  0.00     0.158 HD
HETATM   26  H2  UNL     1       3.543  -3.479   2.460  1.00  0.00     0.158 HD
ENDBRANCH  22  24
ENDBRANCH  20  22
ENDBRANCH   1  20
TORSDOF 3
