REMARK  1 active torsions:
REMARK  status: ('A' for Active; 'I' for Inactive)
REMARK    1  A    between atoms: C14_16  and  C15_17 
ROOT
HETATM    1  C1  UNL     1       0.174   1.364  -0.241  1.00  0.00     0.031 C 
HETATM    2  C2  UNL     1      -0.912   2.055  -0.799  1.00  0.00    -0.004 C 
HETATM    3  C3  UNL     1      -1.886   1.005  -1.403  1.00  0.00     0.039 A 
HETATM    4  C4  UNL     1      -1.634   1.111  -2.735  1.00  0.00    -0.007 A 
HETATM    5  C5  UNL     1      -1.722  -0.227  -3.188  1.00  0.00    -0.005 A 
HETATM    6  C6  UNL     1      -2.003  -1.152  -2.205  1.00  0.00    -0.006 A 
HETATM    7  C7  UNL     1      -2.172  -0.686  -0.940  1.00  0.00     0.046 A 
HETATM    8  C8  UNL     1      -2.312  -1.380   0.213  1.00  0.00    -0.043 A 
HETATM    9  C9  UNL     1      -2.454  -1.403   1.557  1.00  0.00     0.006 A 
HETATM   10  C10 UNL     1      -2.446  -0.064   2.014  1.00  0.00     0.001 A 
HETATM   11  C11 UNL     1      -2.286   0.920   1.030  1.00  0.00     0.006 A 
HETATM   12  C12 UNL     1      -2.173   0.468  -0.218  1.00  0.00    -0.044 A 
HETATM   13  C13 UNL     1      -1.507  -2.650  -0.128  1.00  0.00     0.177 C 
HETATM   14  N1  UNL     1      -0.178  -2.033  -0.615  1.00  0.00    -0.309 N 
HETATM   15  N2  UNL     1      -0.021  -0.618  -0.459  1.00  0.00    -0.179 NA
HETATM   16  C14 UNL     1       0.868   0.019   0.062  1.00  0.00     0.086 C 
HETATM   17  H11 UNL     1       0.393  -2.845  -0.995  1.00  0.00     0.182 HD
ENDROOT
BRANCH  16  18
HETATM   18  C15 UNL     1       1.983   0.688   0.693  1.00  0.00    -0.006 A 
HETATM   19  C16 UNL     1       2.554   1.799   1.186  1.00  0.00     0.014 A 
HETATM   20  C17 UNL     1       3.812   1.857   1.661  1.00  0.00     0.001 A 
HETATM   21  C18 UNL     1       4.631   0.770   1.684  1.00  0.00     0.000 A 
HETATM   22  C19 UNL     1       4.162  -0.458   1.200  1.00  0.00     0.001 A 
HETATM   23  C20 UNL     1       2.848  -0.458   0.718  1.00  0.00     0.014 A 
ENDBRANCH  16  18
TORSDOF 1
