REMARK  6 active torsions:
REMARK  status: ('A' for Active; 'I' for Inactive)
REMARK    1  A    between atoms: C2_2  and  C3_3 
REMARK    2  A    between atoms: C4_4  and  C5_5 
REMARK    3  A    between atoms: C6_7  and  C7_8 
REMARK    4  A    between atoms: C7_8  and  C8_9 
REMARK    5  A    between atoms: C8_9  and  C9_10 
REMARK    6  A    between atoms: C20_21  and  C21_22 
ROOT
HETATM    1  C7  UNL     1       0.224  -0.632  -1.058  1.00  0.00     0.008 C 
ENDROOT
BRANCH   1   2
HETATM    2  C6  UNL     1      -1.012  -1.110  -1.445  1.00  0.00     0.226 A 
HETATM    3  N1  UNL     1      -2.211  -0.318  -1.014  1.00  0.00    -0.010 N 
HETATM    4  C5  UNL     1      -3.310  -0.164  -0.161  1.00  0.00     0.229 A 
HETATM    5  C21 UNL     1      -2.622  -0.973  -0.129  1.00  0.00     0.247 A 
HETATM    6  C20 UNL     1      -2.074  -1.599  -0.119  1.00  0.00     0.204 A 
HETATM    7  C19 UNL     1      -1.269  -2.487  -0.129  1.00  0.00     0.083 A 
BRANCH   4   8
HETATM    8  C4  UNL     1      -3.831   1.087  -0.698  1.00  0.00     0.014 C 
HETATM    9  C3  UNL     1      -4.899   1.293   0.086  1.00  0.00    -0.028 C 
BRANCH   9  10
HETATM   10  C2  UNL     1      -5.348   0.410   1.192  1.00  0.00     0.022 C 
HETATM   11  C1  UNL     1      -6.736  -0.105   0.954  1.00  0.00     0.009 C 
ENDBRANCH   9  10
ENDBRANCH   4   8
ENDBRANCH   1   2
BRANCH   1  12
HETATM   12  C8  UNL     1       1.260   0.013  -0.668  1.00  0.00     0.010 C 
BRANCH  12  13
HETATM   13  C9  UNL     1       2.367   0.786  -0.229  1.00  0.00    -0.025 A 
HETATM   14  C10 UNL     1       2.277   2.137   0.115  1.00  0.00     0.012 A 
HETATM   15  C11 UNL     1       3.345   2.872   0.535  1.00  0.00     0.002 A 
HETATM   16  C12 UNL     1       4.496   2.135   0.576  1.00  0.00     0.012 A 
HETATM   17  C13 UNL     1       4.693   0.809   0.260  1.00  0.00    -0.025 A 
HETATM   18  C14 UNL     1       5.970   0.257   0.377  1.00  0.00     0.012 A 
HETATM   19  C18 UNL     1       3.575   0.125  -0.156  1.00  0.00    -0.016 A 
HETATM   20  C15 UNL     1       6.140  -1.072   0.055  1.00  0.00     0.001 A 
HETATM   21  C16 UNL     1       5.058  -1.806  -0.367  1.00  0.00     0.001 A 
HETATM   22  C17 UNL     1       3.829  -1.195  -0.458  1.00  0.00     0.013 A 
ENDBRANCH  12  13
ENDBRANCH   1  12
TORSDOF 6
