REMARK  0 active torsions:
REMARK  status: ('A' for Active; 'I' for Inactive)
ROOT
HETATM    1  S1  UNL     1       1.776   1.631   3.552  1.00  0.00    -0.065 SA
HETATM    2  C1  UNL     1       1.637   1.678   1.921  1.00  0.00     0.081 C 
HETATM    3  C2  UNL     1       0.652   2.490   1.217  1.00  0.00     0.096 C 
HETATM    4  C3  UNL     1       0.025   1.809   0.063  1.00  0.00    -0.024 C 
HETATM    5  C4  UNL     1      -1.145   1.399  -0.391  1.00  0.00    -0.026 C 
HETATM    6  C5  UNL     1      -2.529   1.432   0.098  1.00  0.00     0.066 C 
HETATM    7  C6  UNL     1      -3.080   0.087   0.277  1.00  0.00    -0.044 A 
HETATM    8  C7  UNL     1      -4.438   0.024   0.426  1.00  0.00     0.008 A 
HETATM    9  C8  UNL     1      -5.042  -1.195   0.610  1.00  0.00     0.001 A 
HETATM   10  C9  UNL     1      -4.429  -2.416   0.667  1.00  0.00     0.001 A 
HETATM   11  C10 UNL     1      -3.040  -2.308   0.510  1.00  0.00     0.012 A 
HETATM   12  C11 UNL     1      -2.399  -1.099   0.322  1.00  0.00    -0.030 A 
HETATM   13  C12 UNL     1      -0.970  -1.335   0.173  1.00  0.00     0.008 C 
HETATM   14  C13 UNL     1       0.127  -1.502  -0.536  1.00  0.00    -0.021 C 
HETATM   15  C14 UNL     1       1.521  -1.744  -0.105  1.00  0.00     0.068 C 
HETATM   16  C15 UNL     1       2.491  -0.738  -0.591  1.00  0.00    -0.028 A 
HETATM   17  C16 UNL     1       2.948  -1.049  -1.857  1.00  0.00     0.010 A 
HETATM   18  C17 UNL     1       3.873  -0.282  -2.531  1.00  0.00     0.001 A 
HETATM   19  C18 UNL     1       4.416   0.862  -1.989  1.00  0.00     0.002 A 
HETATM   20  C19 UNL     1       3.928   1.144  -0.706  1.00  0.00     0.030 A 
HETATM   21  C20 UNL     1       3.004   0.402  -0.002  1.00  0.00     0.039 A 
HETATM   22  N1  UNL     1       2.590   0.834   1.296  1.00  0.00    -0.350 N 
HETATM   23  H19 UNL     1       3.348   0.254   1.698  1.00  0.00     0.166 HD
ENDROOT
TORSDOF 0
