REMARK  5 active torsions:
REMARK  status: ('A' for Active; 'I' for Inactive)
REMARK    1  A    between atoms: N1_1  and  C1_2 
REMARK    2  A    between atoms: C1_2  and  N2_4 
REMARK    3  A    between atoms: C2_5  and  C3_6 
REMARK    4  A    between atoms: C2_5  and  C15_18 
REMARK    5  A    between atoms: C4_7  and  C5_8 
ROOT
HETATM    1  N2  UNL     1      -2.620  -2.109  -0.259  1.00  0.00    -0.221 NA
HETATM    2  C2  UNL     1      -2.136  -0.881  -0.284  1.00  0.00     0.070 C 
ENDROOT
BRANCH   2   3
HETATM    3  C3  UNL     1      -0.711  -0.921  -0.130  1.00  0.00     0.033 C 
HETATM    4  C4  UNL     1       0.411  -0.263  -0.052  1.00  0.00     0.014 C 
BRANCH   4   5
HETATM    5  C5  UNL     1       1.829  -0.478   0.112  1.00  0.00    -0.025 A 
HETATM    6  C6  UNL     1       2.268  -1.773   0.239  1.00  0.00     0.012 A 
HETATM    7  C7  UNL     1       3.615  -2.017   0.397  1.00  0.00     0.002 A 
HETATM    8  C8  UNL     1       4.446  -0.921   0.417  1.00  0.00     0.012 A 
HETATM    9  C9  UNL     1       3.959   0.357   0.286  1.00  0.00    -0.025 A 
HETATM   10  C10 UNL     1       4.873   1.393   0.319  1.00  0.00     0.012 A 
HETATM   11  C14 UNL     1       2.625   0.633   0.127  1.00  0.00    -0.016 A 
HETATM   12  C11 UNL     1       4.516   2.720   0.199  1.00  0.00     0.001 A 
HETATM   13  C12 UNL     1       3.167   2.977   0.039  1.00  0.00     0.001 A 
HETATM   14  C13 UNL     1       2.260   1.940   0.008  1.00  0.00     0.013 A 
ENDBRANCH   4   5
ENDBRANCH   2   3
BRANCH   2  15
HETATM   15  C15 UNL     1      -3.091   0.192  -0.452  1.00  0.00    -0.007 A 
HETATM   16  C16 UNL     1      -2.886   1.550  -0.515  1.00  0.00     0.014 A 
HETATM   17  C17 UNL     1      -3.844   2.522  -0.677  1.00  0.00     0.001 A 
HETATM   18  C18 UNL     1      -5.143   2.077  -0.787  1.00  0.00     0.000 A 
HETATM   19  C19 UNL     1      -5.465   0.739  -0.738  1.00  0.00     0.001 A 
HETATM   20  C20 UNL     1      -4.422  -0.141  -0.573  1.00  0.00     0.014 A 
ENDBRANCH   2  15
BRANCH   1  21
HETATM   21  C1  UNL     1      -1.716  -3.190  -0.096  1.00  0.00     0.192 C 
HETATM   22  S1  UNL     1      -0.814  -4.187  -1.018  1.00  0.00    -0.039 SA
BRANCH  21  23
HETATM   23  N1  UNL     1      -1.584  -3.453   1.314  1.00  0.00    -0.375 N 
HETATM   24  H1  UNL     1      -1.882  -4.322   1.843  1.00  0.00     0.158 HD
HETATM   25  H2  UNL     1      -1.200  -2.917   2.123  1.00  0.00     0.158 HD
ENDBRANCH  21  23
ENDBRANCH   1  21
TORSDOF 5
