REMARK  5 active torsions:
REMARK  status: ('A' for Active; 'I' for Inactive)
REMARK    1  A    between atoms: C2_3  and  N1_4 
REMARK    2  A    between atoms: N2_5  and  C3_6 
REMARK    3  A    between atoms: C3_6  and  C4_7 
REMARK    4  A    between atoms: C4_7  and  C5_8 
REMARK    5  A    between atoms: C16_19  and  N3_20 
ROOT
HETATM    1  C3  UNL     1      -1.137  -0.447   0.233  1.00  0.00     0.200 A 
HETATM    2  C12 UNL     1      -2.480  -0.448   0.980  1.00  0.00     0.016 A 
HETATM    3  C13 UNL     1      -3.647  -0.999   0.895  1.00  0.00    -0.002 A 
HETATM    4  C14 UNL     1      -3.778  -1.907  -0.235  1.00  0.00    -0.002 A 
HETATM    5  C15 UNL     1      -2.661  -1.974  -0.931  1.00  0.00     0.011 A 
HETATM    6  C16 UNL     1      -1.281  -1.377  -0.886  1.00  0.00     0.282 A 
ENDROOT
BRANCH   1   7
HETATM    7  N2  UNL     1      -0.978   0.952  -0.189  1.00  0.00     0.028 N 
HETATM    8  C2  UNL     1      -0.987   2.242  -0.728  1.00  0.00     0.248 A 
HETATM    9  S1  UNL     1      -2.233   1.528  -1.636  1.00  0.00    -0.034 SA
HETATM   10  C1  UNL     1      -3.697   2.004  -1.011  1.00  0.00     0.245 C 
HETATM   11  H5  UNL     1      -0.282   1.576   0.221  1.00  0.00     0.303 HD
BRANCH   8  12
HETATM   12  N1  UNL     1      -1.107   3.486  -1.353  1.00  0.00    -0.373 N 
HETATM   13  H3  UNL     1      -1.761   4.127  -0.870  1.00  0.00     0.158 HD
HETATM   14  H4  UNL     1      -0.499   3.569  -2.223  1.00  0.00     0.158 HD
ENDBRANCH   8  12
ENDBRANCH   1   7
BRANCH   1  15
HETATM   15  C4  UNL     1      -0.131  -0.675   1.293  1.00  0.00     0.086 C 
BRANCH  15  16
HETATM   16  C5  UNL     1       1.291  -0.467   1.027  1.00  0.00    -0.055 A 
HETATM   17  C6  UNL     1       1.848   0.793   1.310  1.00  0.00     0.007 A 
HETATM   18  C7  UNL     1       3.171   1.133   1.114  1.00  0.00     0.007 A 
HETATM   19  C8  UNL     1       4.058   0.201   0.606  1.00  0.00    -0.062 A 
HETATM   20  C9  UNL     1       5.490   0.487   0.367  1.00  0.00     0.048 C 
HETATM   21  C10 UNL     1       3.577  -1.057   0.309  1.00  0.00     0.007 A 
HETATM   22  C11 UNL     1       2.248  -1.319   0.530  1.00  0.00     0.007 A 
ENDBRANCH  15  16
ENDBRANCH   1  15
BRANCH   6  23
HETATM   23  N3  UNL     1      -0.404  -2.506  -0.757  1.00  0.00     0.089 N 
HETATM   24  H20 UNL     1       0.371  -2.474  -1.488  1.00  0.00     0.313 HD
HETATM   25  H21 UNL     1      -0.849  -3.436  -0.922  1.00  0.00     0.313 HD
ENDBRANCH   6  23
TORSDOF 5
