REMARK  1 active torsions:
REMARK  status: ('A' for Active; 'I' for Inactive)
REMARK    1  A    between atoms: C8_11  and  S2_12 
ROOT
HETATM    1  C1  UNL     1      -5.116   0.697  -0.042  1.00  0.00     0.010 C 
HETATM    2  C2  UNL     1      -4.445  -0.418   0.062  1.00  0.00     0.023 A 
HETATM    3  C3  UNL     1      -3.569  -1.570   0.073  1.00  0.00    -0.070 A 
HETATM    4  C4  UNL     1      -3.212  -2.761   0.378  1.00  0.00     0.005 C 
HETATM    5  C5  UNL     1      -1.974  -3.262  -0.131  1.00  0.00     0.026 C 
HETATM    6  C6  UNL     1      -0.830  -3.343  -0.789  1.00  0.00     0.218 C 
HETATM    7  N1  UNL     1      -0.644  -2.101  -1.527  1.00  0.00     0.059 N 
HETATM    8  C7  UNL     1      -0.202  -0.750  -1.493  1.00  0.00     0.485 A 
HETATM    9  S1  UNL     1       0.831  -1.914  -0.773  1.00  0.00     0.140 SA
HETATM   10  N2  UNL     1       0.214   0.574  -1.507  1.00  0.00     0.155 N 
HETATM   11  C8  UNL     1       0.787   1.618  -0.740  1.00  0.00     0.284 C 
HETATM   12  C14 UNL     1      -0.006   1.913   0.586  1.00  0.00     0.047 C 
HETATM   13  C15 UNL     1      -0.219   0.572   1.274  1.00  0.00     0.008 C 
HETATM   14  C16 UNL     1      -1.485  -0.093   0.800  1.00  0.00    -0.001 C 
HETATM   15  C17 UNL     1      -2.719  -0.322   0.238  1.00  0.00     0.027 A 
HETATM   16  H7  UNL     1      -1.039  -2.408  -2.479  1.00  0.00     0.305 HD
HETATM   17  H8  UNL     1       0.372   0.199  -0.600  1.00  0.00     0.322 HD
ENDROOT
BRANCH  11  18
HETATM   18  S2  UNL     1       2.551   1.512  -0.558  1.00  0.00    -0.140 SA
HETATM   19  C9  UNL     1       3.592   2.696  -1.125  1.00  0.00     0.040 A 
HETATM   20  C10 UNL     1       4.994   2.470  -0.906  1.00  0.00     0.006 A 
HETATM   21  C11 UNL     1       5.513   1.432  -0.311  1.00  0.00     0.001 A 
HETATM   22  C12 UNL     1       4.793   0.298   0.250  1.00  0.00     0.006 A 
HETATM   23  C13 UNL     1       3.459   0.174   0.225  1.00  0.00     0.040 A 
ENDBRANCH  11  18
TORSDOF 1
