REMARK  6 active torsions:
REMARK  status: ('A' for Active; 'I' for Inactive)
REMARK    1  A    between atoms: C3_3  and  N1_5 
REMARK    2  A    between atoms: N1_5  and  C4_6 
REMARK    3  A    between atoms: C12_15  and  N3_16 
REMARK    4  A    between atoms: C12_15  and  N4_17 
REMARK    5  A    between atoms: N4_17  and  C13_18 
REMARK    6  A    between atoms: C14_19  and  C15_21 
ROOT
HETATM    1  C4  UNL     1       3.600   0.253  -1.653  1.00  0.00     0.034 A 
HETATM    2  C5  UNL     1       3.686  -0.902  -0.877  1.00  0.00     0.032 A 
HETATM    3  C6  UNL     1       2.753  -1.030   0.124  1.00  0.00     0.040 A 
HETATM    4  C7  UNL     1       1.795  -0.072   0.342  1.00  0.00     0.086 A 
HETATM    5  C8  UNL     1       1.679   1.086  -0.409  1.00  0.00    -0.004 A 
HETATM    6  C9  UNL     1       2.620   1.223  -1.422  1.00  0.00     0.041 A 
HETATM    7  C10 UNL     1       0.719   2.189  -0.308  1.00  0.00     0.161 C 
HETATM    8  N2  UNL     1      -0.682   1.705  -0.172  1.00  0.00    -0.379 N 
HETATM    9  C11 UNL     1      -1.362   0.546   0.410  1.00  0.00     0.120 C 
HETATM   10  C12 UNL     1      -2.638   0.100   0.131  1.00  0.00     0.109 C 
HETATM   11  C17 UNL     1      -0.463  -0.173   1.380  1.00  0.00     0.195 C 
HETATM   12  N5  UNL     1      -1.159  -0.674   2.375  1.00  0.00    -0.269 NA
HETATM   13  C18 UNL     1      -0.440  -1.397   3.390  1.00  0.00     0.180 C 
HETATM   14  O2  UNL     1       0.940  -0.399   1.416  1.00  0.00    -0.290 OA
HETATM   15  H10 UNL     1      -1.386   2.373  -0.604  1.00  0.00     0.160 HD
ENDROOT
BRANCH  10  16
HETATM   16  N3  UNL     1      -2.797   1.103  -0.741  1.00  0.00    -0.287 NA
HETATM   17  H11 UNL     1      -3.808   1.351  -1.046  1.00  0.00     0.125 HD
HETATM   18  H12 UNL     1      -3.552   1.573  -1.222  1.00  0.00     0.125 HD
ENDBRANCH  10  16
BRANCH  10  19
HETATM   19  N4  UNL     1      -2.793  -1.079   0.960  1.00  0.00    -0.354 N 
HETATM   20  H13 UNL     1      -2.149  -1.904   0.747  1.00  0.00     0.166 HD
BRANCH  19  21
HETATM   21  C13 UNL     1      -3.841  -0.867   1.908  1.00  0.00     0.111 C 
HETATM   22  C14 UNL     1      -5.127  -0.895   1.550  1.00  0.00     0.060 C 
HETATM   23 CL1  UNL     1      -6.555  -0.652   2.580  1.00  0.00    -0.085 Cl
BRANCH  22  24
HETATM   24  C15 UNL     1      -5.702  -1.133   0.213  1.00  0.00     0.212 C 
HETATM   25  C16 UNL     1      -6.643  -2.337   0.326  1.00  0.00     0.051 C 
HETATM   26  F1  UNL     1      -4.731  -1.470  -0.714  1.00  0.00    -0.244 F 
ENDBRANCH  22  24
ENDBRANCH  19  21
ENDBRANCH  10  19
BRANCH   1  27
HETATM   27  N1  UNL     1       4.454   0.582  -2.740  1.00  0.00    -0.337 N 
HETATM   28  H4  UNL     1       4.616   0.514  -3.767  1.00  0.00     0.168 HD
BRANCH  27  29
HETATM   29  C3  UNL     1       5.612   1.326  -2.288  1.00  0.00     0.141 A 
HETATM   30  C2  UNL     1       6.797   1.923  -2.903  1.00  0.00     0.056 A 
HETATM   31  C1  UNL     1       7.234   2.358  -1.728  1.00  0.00     0.209 A 
HETATM   32  O1  UNL     1       6.045   1.748  -1.184  1.00  0.00    -0.332 OA
ENDBRANCH  27  29
ENDBRANCH   1  27
TORSDOF 6
