REMARK  5 active torsions:
REMARK  status: ('A' for Active; 'I' for Inactive)
REMARK    1  A    between atoms: C2_2  and  C3_3 
REMARK    2  A    between atoms: C6_6  and  C7_7 
REMARK    3  A    between atoms: C15_16  and  N2_17 
REMARK    4  A    between atoms: N2_17  and  C16_18 
REMARK    5  A    between atoms: C16_18  and  N3_19 
ROOT
HETATM    1  C3  UNL     1       1.412   0.812  -1.915  1.00  0.00     0.005 C 
HETATM    2  C4  UNL     1       1.040   0.240  -0.779  1.00  0.00    -0.031 C 
HETATM    3  C5  UNL     1      -0.305   0.593  -0.323  1.00  0.00     0.100 C 
HETATM    4  C6  UNL     1      -1.012  -0.451   0.421  1.00  0.00     0.043 C 
HETATM    5  N1  UNL     1      -0.626  -1.558   0.906  1.00  0.00    -0.289 NA
HETATM    6  C13 UNL     1       0.553  -2.337   1.005  1.00  0.00     0.178 C 
HETATM    7  C14 UNL     1       1.803  -1.714   0.564  1.00  0.00     0.019 C 
HETATM    8  C15 UNL     1       2.035  -0.641  -0.179  1.00  0.00     0.019 C 
ENDROOT
BRANCH   8   9
HETATM    9  N2  UNL     1       3.399  -0.288  -0.435  1.00  0.00    -0.236 NA
HETATM   10  H15 UNL     1       4.375   0.015  -0.482  1.00  0.00     0.136 HD
BRANCH   9  11
HETATM   11  C16 UNL     1       3.680   0.290   0.856  1.00  0.00     0.148 C 
HETATM   12  S1  UNL     1       4.377   1.005   2.145  1.00  0.00    -0.047 SA
BRANCH  11  13
HETATM   13  N3  UNL     1       2.522   0.228   1.702  1.00  0.00    -0.381 N 
HETATM   14  H16 UNL     1       1.608   0.547   2.127  1.00  0.00     0.158 HD
HETATM   15  H17 UNL     1       1.794  -0.082   2.411  1.00  0.00     0.158 HD
ENDBRANCH  11  13
ENDBRANCH   9  11
ENDBRANCH   8   9
BRANCH   1  16
HETATM   16  C2  UNL     1       2.672   0.670  -2.625  1.00  0.00    -0.026 C 
HETATM   17  C1  UNL     1       3.070   1.227  -3.757  1.00  0.00     0.031 C 
ENDBRANCH   1  16
BRANCH   4  18
HETATM   18  C7  UNL     1      -2.425  -0.169   0.650  1.00  0.00    -0.012 A 
HETATM   19  C8  UNL     1      -3.042   0.981   0.204  1.00  0.00     0.013 A 
HETATM   20  C9  UNL     1      -4.374   1.285   0.400  1.00  0.00     0.001 A 
HETATM   21  C10 UNL     1      -5.163   0.386   1.089  1.00  0.00     0.000 A 
HETATM   22  C11 UNL     1      -4.605  -0.784   1.562  1.00  0.00     0.001 A 
HETATM   23  C12 UNL     1      -3.267  -1.029   1.333  1.00  0.00     0.013 A 
ENDBRANCH   4  18
TORSDOF 5
