REMARK  11 active torsions:
REMARK  status: ('A' for Active; 'I' for Inactive)
REMARK    1  A    between atoms: O1_2  and  C2_3 
REMARK    2  A    between atoms: C2_3  and  C3_4 
REMARK    3  A    between atoms: C3_4  and  O2_5 
REMARK    4  A    between atoms: O2_5  and  C4_6 
REMARK    5  A    between atoms: C6_8  and  N1_9 
REMARK    6  A    between atoms: N1_9  and  C7_10 
REMARK    7  A    between atoms: C7_10  and  C8_11 
REMARK    8  A    between atoms: C8_11  and  C9_12 
REMARK    9  A    between atoms: C9_12  and  C11_14 
REMARK   10  A    between atoms: C11_14  and  C12_15 
REMARK   11  A    between atoms: C12_15  and  C13_16 
ROOT
HETATM    1  C4  UNL     1      -1.882   1.897   0.275  1.00  0.00     0.180 C 
HETATM    2  C5  UNL     1      -1.352   2.149  -0.899  1.00  0.00     0.092 A 
HETATM    3  C6  UNL     1      -0.593   1.105  -1.378  1.00  0.00     0.145 A 
HETATM    4  N2  UNL     1       0.012   1.208  -2.543  1.00  0.00    -0.223 NA
HETATM    5  C14 UNL     1      -0.083   2.308  -3.296  1.00  0.00     0.236 A 
HETATM    6  N3  UNL     1      -0.821   3.310  -2.821  1.00  0.00    -0.240 NA
HETATM    7  C15 UNL     1      -1.465   3.291  -1.657  1.00  0.00     0.087 A 
HETATM    8  C16 UNL     1      -2.101   4.425  -1.473  1.00  0.00     0.008 C 
HETATM    9  C17 UNL     1      -3.006   4.583  -0.552  1.00  0.00     0.034 C 
HETATM   10  C18 UNL     1      -3.225   3.905   0.744  1.00  0.00     0.120 C 
HETATM   11  N4  UNL     1      -2.728   2.738   1.085  1.00  0.00    -0.236 NA
ENDROOT
BRANCH   3  12
HETATM   12  N1  UNL     1      -0.487  -0.094  -0.612  1.00  0.00    -0.350 N 
HETATM   13  H8  UNL     1      -0.536  -0.882   0.048  1.00  0.00     0.166 HD
BRANCH  12  14
HETATM   14  C7  UNL     1       0.442  -1.073  -1.180  1.00  0.00     0.090 C 
BRANCH  14  15
HETATM   15  C8  UNL     1       1.731  -1.314  -0.867  1.00  0.00     0.023 C 
BRANCH  15  16
HETATM   16  C9  UNL     1       2.633  -2.285  -1.439  1.00  0.00    -0.064 C 
HETATM   17  C10 UNL     1       1.988  -3.088  -2.508  1.00  0.00     0.048 C 
BRANCH  16  18
HETATM   18  C11 UNL     1       3.824  -2.334  -0.979  1.00  0.00    -0.012 C 
BRANCH  18  19
HETATM   19  C12 UNL     1       5.174  -2.476  -0.542  1.00  0.00     0.119 C 
BRANCH  19  20
HETATM   20  C13 UNL     1       4.972  -1.476   0.358  1.00  0.00     0.365 C 
HETATM   21  F1  UNL     1       4.365  -0.495   1.068  1.00  0.00    -0.461 F 
ENDBRANCH  19  20
ENDBRANCH  18  19
ENDBRANCH  16  18
ENDBRANCH  15  16
ENDBRANCH  14  15
ENDBRANCH  12  14
ENDBRANCH   3  12
BRANCH   1  22
HETATM   22  O2  UNL     1      -1.675   0.708   0.920  1.00  0.00    -0.332 OA
BRANCH  22  23
HETATM   23  C3  UNL     1      -1.370   0.690   2.320  1.00  0.00     0.203 C 
BRANCH  23  24
HETATM   24  C2  UNL     1      -1.386  -0.718   2.864  1.00  0.00     0.193 C 
BRANCH  24  25
HETATM   25  O1  UNL     1      -2.602  -1.339   2.716  1.00  0.00    -0.394 OA
HETATM   26  C1  UNL     1      -2.684  -2.626   3.184  1.00  0.00     0.201 C 
ENDBRANCH  24  25
ENDBRANCH  23  24
ENDBRANCH  22  23
ENDBRANCH   1  22
TORSDOF 11
