REMARK  5 active torsions:
REMARK  status: ('A' for Active; 'I' for Inactive)
REMARK    1  A    between atoms: C1_2  and  C2_3 
REMARK    2  A    between atoms: C1_2  and  C11_16 
REMARK    3  A    between atoms: C3_4  and  C4_5 
REMARK    4  A    between atoms: C9_11  and  N2_12 
REMARK    5  A    between atoms: N2_12  and  C10_13 
ROOT
HETATM    1  C4  UNL     1      -1.585  -1.351  -0.834  1.00  0.00     0.029 A 
HETATM    2  C5  UNL     1      -2.286  -2.149  -1.728  1.00  0.00     0.128 A 
HETATM    3  F1  UNL     1      -1.647  -2.669  -2.800  1.00  0.00    -0.205 F 
HETATM    4  C6  UNL     1      -3.621  -2.436  -1.562  1.00  0.00     0.043 A 
HETATM    5  C7  UNL     1      -4.363  -1.964  -0.512  1.00  0.00     0.005 A 
HETATM    6  C8  UNL     1      -3.694  -1.175   0.383  1.00  0.00     0.030 A 
HETATM    7  C9  UNL     1      -2.359  -0.901   0.198  1.00  0.00     0.047 A 
ENDROOT
BRANCH   1   8
HETATM    8  C3  UNL     1      -0.179  -1.130  -1.136  1.00  0.00     0.019 C 
HETATM    9  C2  UNL     1       0.336  -0.350  -0.219  1.00  0.00     0.033 C 
BRANCH   9  10
HETATM   10  C1  UNL     1       1.775  -0.057  -0.432  1.00  0.00     0.058 C 
HETATM   11  N1  UNL     1       1.823  -0.746  -1.498  1.00  0.00    -0.300 NA
HETATM   12  H1  UNL     1       2.602  -0.922  -2.121  1.00  0.00     0.187 HD
BRANCH  10  13
HETATM   13  C11 UNL     1       3.001   0.599  -0.005  1.00  0.00    -0.008 A 
HETATM   14  C12 UNL     1       4.140   0.481  -0.735  1.00  0.00     0.014 A 
HETATM   15  C13 UNL     1       5.162   1.182  -0.143  1.00  0.00     0.001 A 
HETATM   16  C14 UNL     1       5.102   1.911   1.014  1.00  0.00     0.000 A 
HETATM   17  C15 UNL     1       3.912   1.984   1.700  1.00  0.00     0.001 A 
HETATM   18  C16 UNL     1       2.839   1.306   1.166  1.00  0.00     0.014 A 
ENDBRANCH  10  13
ENDBRANCH   9  10
ENDBRANCH   1   8
BRANCH   7  19
HETATM   19  N2  UNL     1      -1.750  -0.117   1.197  1.00  0.00    -0.328 N 
HETATM   20  H7  UNL     1      -1.169   0.307   1.927  1.00  0.00     0.168 HD
BRANCH  19  21
HETATM   21  C10 UNL     1      -2.449   1.073   1.518  1.00  0.00     0.282 A 
HETATM   22  N3  UNL     1      -3.673   1.510   0.918  1.00  0.00     0.037 N 
HETATM   23  H8  UNL     1      -4.061   1.379  -0.048  1.00  0.00     0.302 HD
HETATM   24  H9  UNL     1      -4.377   1.610   0.143  1.00  0.00     0.302 HD
HETATM   25  S1  UNL     1      -2.796   2.491   2.258  1.00  0.00     0.141 SA
ENDBRANCH  19  21
ENDBRANCH   7  19
TORSDOF 5
