REMARK  4 active torsions:
REMARK  status: ('A' for Active; 'I' for Inactive)
REMARK    1  A    between atoms: C6_7  and  C7_8 
REMARK    2  A    between atoms: C7_8  and  C8_9 
REMARK    3  A    between atoms: C8_9  and  C9_10 
REMARK    4  A    between atoms: C10_13  and  S1_14 
ROOT
HETATM    1  C9  UNL     1      -0.553  -0.489   0.156  1.00  0.00     0.041 A 
HETATM    2  N1  UNL     1      -1.506   0.250   0.417  1.00  0.00    -0.289 N 
HETATM    3  N2  UNL     1      -2.794  -0.042   0.640  1.00  0.00    -0.316 N 
HETATM    4  C10 UNL     1      -3.813   0.469   1.512  1.00  0.00     0.180 C 
HETATM    5  C11 UNL     1      -3.901   1.925   1.486  1.00  0.00     0.010 C 
HETATM    6  C12 UNL     1      -3.460   3.178   1.259  1.00  0.00    -0.001 C 
HETATM    7  C13 UNL     1      -2.273   3.855   0.764  1.00  0.00    -0.004 C 
HETATM    8  C14 UNL     1      -1.090   3.341   0.314  1.00  0.00    -0.019 C 
HETATM    9  C15 UNL     1      -0.095   2.296  -0.047  1.00  0.00     0.049 C 
HETATM   10  C16 UNL     1      -0.107   0.934  -0.025  1.00  0.00     0.163 A 
HETATM   11  H7  UNL     1      -3.072  -0.836   0.001  1.00  0.00     0.182 HD
ENDROOT
BRANCH   1  12
HETATM   12  C8  UNL     1       0.468  -1.437  -0.137  1.00  0.00     0.072 C 
BRANCH  12  13
HETATM   13  C7  UNL     1       1.223  -2.457  -0.388  1.00  0.00    -0.001 C 
BRANCH  13  14
HETATM   14  C6  UNL     1       2.624  -2.163  -0.618  1.00  0.00    -0.001 A 
HETATM   15  C1  UNL     1       3.453  -3.209  -0.954  1.00  0.00     0.126 A 
HETATM   16  F1  UNL     1       2.864  -4.442  -1.058  1.00  0.00    -0.205 F 
HETATM   17  C2  UNL     1       4.800  -3.095  -1.189  1.00  0.00     0.043 A 
HETATM   18  C3  UNL     1       5.414  -1.846  -1.091  1.00  0.00     0.003 A 
HETATM   19  C4  UNL     1       4.634  -0.775  -0.760  1.00  0.00     0.001 A 
HETATM   20  C5  UNL     1       3.303  -0.977  -0.543  1.00  0.00     0.014 A 
ENDBRANCH  13  14
ENDBRANCH  12  13
ENDBRANCH   1  12
BRANCH   4  21
HETATM   21  S1  UNL     1      -5.409  -0.343   1.194  1.00  0.00    -0.152 SA
HETATM   22  H9  UNL     1      -5.269  -1.334   0.208  1.00  0.00     0.104 HD
ENDBRANCH   4  21
TORSDOF 4
