REMARK  7 active torsions:
REMARK  status: ('A' for Active; 'I' for Inactive)
REMARK    1  A    between atoms: C2_2  and  C3_3 
REMARK    2  A    between atoms: C3_3  and  C4_4 
REMARK    3  A    between atoms: C10_10  and  N1_11 
REMARK    4  A    between atoms: N1_11  and  P1_12 
REMARK    5  A    between atoms: P1_12  and  N2_13 
REMARK    6  A    between atoms: N2_13  and  C11_14 
REMARK    7  A    between atoms: C11_14  and  N3_15 
ROOT
HETATM    1  C4  UNL     1      -2.965   0.898   0.822  1.00  0.00    -0.038 C 
HETATM    2  C5  UNL     1      -1.580   1.143   0.370  1.00  0.00     0.009 C 
HETATM    3  C6  UNL     1      -0.821   0.774  -0.680  1.00  0.00     0.009 C 
HETATM    4  C7  UNL     1       0.425   0.828  -1.338  1.00  0.00    -0.044 A 
HETATM    5  C8  UNL     1       0.962   1.734  -2.126  1.00  0.00     0.010 A 
HETATM    6  C9  UNL     1       2.260   1.141  -2.468  1.00  0.00     0.029 A 
HETATM    7  C10 UNL     1       2.490  -0.042  -1.919  1.00  0.00     0.049 A 
HETATM    8  C12 UNL     1       1.340  -0.330  -1.073  1.00  0.00     0.028 A 
HETATM    9  C13 UNL     1       1.800  -0.109   0.401  1.00  0.00     0.027 C 
HETATM   10  C14 UNL     1       0.750  -1.666  -1.148  1.00  0.00    -0.004 C 
HETATM   11  C15 UNL     1       0.318  -3.013  -1.106  1.00  0.00     0.031 C 
HETATM   12  C16 UNL     1      -0.885  -3.232  -1.912  1.00  0.00    -0.014 A 
HETATM   13  C17 UNL     1      -1.577  -2.552  -0.846  1.00  0.00     0.046 A 
HETATM   14  C18 UNL     1      -2.108  -1.901   0.261  1.00  0.00     0.033 A 
HETATM   15  C19 UNL     1      -3.302  -1.878  -0.447  1.00  0.00     0.044 A 
HETATM   16  C20 UNL     1      -3.436  -2.415  -1.683  1.00  0.00     0.011 A 
HETATM   17  C21 UNL     1      -2.222  -2.957  -2.118  1.00  0.00     0.026 A 
HETATM   18  O1  UNL     1      -4.142  -1.222   0.391  1.00  0.00    -0.351 OA
HETATM   19  C22 UNL     1      -4.212   0.191   0.475  1.00  0.00     0.213 C 
ENDROOT
BRANCH   7  20
HETATM   20  N1  UNL     1       3.641  -0.781  -2.111  1.00  0.00    -0.235 NA
BRANCH  20  21
HETATM   21  P1  UNL     1       5.061  -0.634  -1.438  1.00  0.00     0.186 P 
BRANCH  21  22
HETATM   22  N2  UNL     1       5.504   0.607  -0.194  1.00  0.00    -0.318 N 
HETATM   23  H9  UNL     1       5.559   1.615  -0.529  1.00  0.00     0.169 HD
BRANCH  22  24
HETATM   24  C11 UNL     1       5.816   0.540   1.205  1.00  0.00     0.170 C 
HETATM   25  S1  UNL     1       5.712  -1.047   1.586  1.00  0.00    -0.041 SA
BRANCH  24  26
HETATM   26  N3  UNL     1       6.175   1.264   2.383  1.00  0.00    -0.376 N 
HETATM   27  H10 UNL     1       7.203   1.116   2.617  1.00  0.00     0.158 HD
HETATM   28  H11 UNL     1       5.474   1.831   2.889  1.00  0.00     0.158 HD
ENDBRANCH  24  26
ENDBRANCH  22  24
ENDBRANCH  21  22
ENDBRANCH  20  21
ENDBRANCH   7  20
BRANCH   1  29
HETATM   29  C3  UNL     1      -2.978   1.637   1.956  1.00  0.00    -0.017 C 
BRANCH  29  30
HETATM   30  C2  UNL     1      -2.870   2.485   3.186  1.00  0.00    -0.005 C 
HETATM   31  C1  UNL     1      -3.188   3.123   4.344  1.00  0.00     0.037 C 
ENDBRANCH  29  30
ENDBRANCH   1  29
TORSDOF 7
