REMARK  6 active torsions:
REMARK  status: ('A' for Active; 'I' for Inactive)
REMARK    1  A    between atoms: O1_1  and  N1_2 
REMARK    2  A    between atoms: C1_3  and  C2_4 
REMARK    3  A    between atoms: C1_3  and  C12_15 
REMARK    4  A    between atoms: C2_4  and  C3_5 
REMARK    5  A    between atoms: C6_8  and  O2_9 
REMARK    6  A    between atoms: O2_9  and  C7_10 
ROOT
HETATM    1  C2  UNL     1      -0.944  -0.866   0.415  1.00  0.00     0.101 C 
ENDROOT
BRANCH   1   2
HETATM    2  C1  UNL     1      -1.771   0.192  -0.225  1.00  0.00     0.076 C 
HETATM    3  N1  UNL     1      -1.078   1.068  -0.853  1.00  0.00    -0.140 NA
BRANCH   3   4
HETATM    4  O1  UNL     1      -1.483   2.145  -1.536  1.00  0.00    -0.266 OA
HETATM    5  H1  UNL     1      -1.313   3.115  -1.374  1.00  0.00     0.247 HD
ENDBRANCH   3   4
BRANCH   2   6
HETATM    6  C12 UNL     1      -3.215   0.117  -0.072  1.00  0.00    -0.009 A 
HETATM    7  C13 UNL     1      -4.097   1.026  -0.609  1.00  0.00     0.013 A 
HETATM    8  C14 UNL     1      -5.467   0.959  -0.467  1.00  0.00     0.001 A 
HETATM    9  C15 UNL     1      -6.022  -0.076   0.256  1.00  0.00     0.000 A 
HETATM   10  C16 UNL     1      -5.158  -1.001   0.805  1.00  0.00     0.001 A 
HETATM   11  C17 UNL     1      -3.792  -0.906   0.645  1.00  0.00     0.013 A 
ENDBRANCH   2   6
ENDBRANCH   1   2
BRANCH   1  12
HETATM   12  C3  UNL     1       0.498  -0.720   0.215  1.00  0.00    -0.052 A 
HETATM   13  C4  UNL     1       1.086  -1.319  -0.883  1.00  0.00     0.010 A 
HETATM   14  C5  UNL     1       2.453  -1.228  -1.147  1.00  0.00     0.038 A 
HETATM   15  C6  UNL     1       3.256  -0.513  -0.277  1.00  0.00     0.075 A 
HETATM   16  C10 UNL     1       2.681   0.085   0.817  1.00  0.00     0.038 A 
HETATM   17  C11 UNL     1       1.331  -0.013   1.062  1.00  0.00     0.010 A 
BRANCH  15  18
HETATM   18  O2  UNL     1       4.585  -0.511  -0.667  1.00  0.00    -0.315 OA
BRANCH  18  19
HETATM   19  C7  UNL     1       5.543   0.153   0.077  1.00  0.00     0.053 A 
HETATM   20  C8  UNL     1       5.952   1.091   1.086  1.00  0.00     0.013 A 
HETATM   21  C9  UNL     1       6.963   0.347   0.344  1.00  0.00     0.094 A 
ENDBRANCH  18  19
ENDBRANCH  15  18
ENDBRANCH   1  12
TORSDOF 6
