REMARK  5 active torsions:
REMARK  status: ('A' for Active; 'I' for Inactive)
REMARK    1  A    between atoms: C2_2  and  N1_4 
REMARK    2  A    between atoms: N1_4  and  N2_5 
REMARK    3  A    between atoms: C3_6  and  C4_7 
REMARK    4  A    between atoms: C3_6  and  C12_16 
REMARK    5  A    between atoms: C5_8  and  C6_9 
ROOT
HETATM    1  N2  UNL     1      -1.637  -0.838   0.907  1.00  0.00    -0.174 NA
HETATM    2  C3  UNL     1      -0.971   0.169   0.536  1.00  0.00     0.083 C 
ENDROOT
BRANCH   2   3
HETATM    3  C4  UNL     1       0.383  -0.284   0.352  1.00  0.00     0.035 C 
HETATM    4  C5  UNL     1       1.588   0.052   0.021  1.00  0.00     0.017 C 
BRANCH   4   5
HETATM    5  C6  UNL     1       2.960  -0.396  -0.167  1.00  0.00     0.003 A 
HETATM    6  C7  UNL     1       3.171  -1.729   0.091  1.00  0.00     0.014 A 
HETATM    7  C8  UNL     1       4.433  -2.223  -0.064  1.00  0.00     0.001 A 
HETATM    8  C9  UNL     1       5.410  -1.343  -0.470  1.00  0.00     0.003 A 
HETATM    9  C10 UNL     1       5.146  -0.013  -0.717  1.00  0.00     0.043 A 
HETATM   10  C11 UNL     1       3.888   0.527  -0.573  1.00  0.00     0.126 A 
HETATM   11  F1  UNL     1       3.574   1.819  -0.800  1.00  0.00    -0.205 F 
ENDBRANCH   4   5
ENDBRANCH   2   3
BRANCH   2  12
HETATM   12  C12 UNL     1      -1.565   1.484   0.369  1.00  0.00    -0.024 A 
HETATM   13  C13 UNL     1      -1.071   2.644  -0.008  1.00  0.00     0.009 A 
HETATM   14  C14 UNL     1      -2.027   3.739  -0.043  1.00  0.00    -0.003 A 
HETATM   15  C15 UNL     1      -3.159   3.181   0.342  1.00  0.00    -0.022 A 
HETATM   16  C16 UNL     1      -3.001   1.752   0.637  1.00  0.00     0.068 A 
ENDBRANCH   2  12
BRANCH   1  17
HETATM   17  N1  UNL     1      -2.973  -0.938   1.212  1.00  0.00    -0.271 N 
HETATM   18  H4  UNL     1      -3.807  -0.734   1.797  1.00  0.00     0.190 HD
BRANCH  17  19
HETATM   19  C2  UNL     1      -3.581  -1.773   0.202  1.00  0.00     0.090 C 
HETATM   20  C1  UNL     1      -2.724  -2.332  -0.901  1.00  0.00     0.083 C 
HETATM   21  S1  UNL     1      -5.102  -2.329  -0.095  1.00  0.00    -0.064 SA
ENDBRANCH  17  19
ENDBRANCH   1  17
TORSDOF 5
