REMARK  5 active torsions:
REMARK  status: ('A' for Active; 'I' for Inactive)
REMARK    1  A    between atoms: C7_7  and  C8_8 
REMARK    2  A    between atoms: C8_8  and  N1_9 
REMARK    3  A    between atoms: C8_8  and  C10_13 
REMARK    4  A    between atoms: N1_9  and  C9_10 
REMARK    5  A    between atoms: C9_10  and  N2_11 
ROOT
HETATM    1  C8  UNL     1      -1.355  -0.454  -0.904  1.00  0.00     0.140 C 
ENDROOT
BRANCH   1   2
HETATM    2  C7  UNL     1       0.086  -0.483  -0.791  1.00  0.00     0.017 C 
HETATM    3  C6  UNL     1       1.086   0.202  -0.321  1.00  0.00    -0.009 A 
HETATM    4  C5  UNL     1       0.973   1.475   0.376  1.00  0.00     0.013 A 
HETATM    5  C16 UNL     1       2.460  -0.270  -0.457  1.00  0.00     0.064 A 
HETATM    6  C4  UNL     1       1.969   2.194   0.867  1.00  0.00     0.002 A 
HETATM    7  C3  UNL     1       3.329   1.697   0.715  1.00  0.00     0.009 A 
HETATM    8  C2  UNL     1       3.525   0.551   0.097  1.00  0.00    -0.033 A 
HETATM    9  C1  UNL     1       4.892  -0.004  -0.086  1.00  0.00     0.050 C 
HETATM   10  N3  UNL     1       2.693  -1.406  -1.067  1.00  0.00    -0.299 NA
HETATM   11  H17 UNL     1       3.675  -1.721  -1.152  1.00  0.00     0.187 HD
ENDBRANCH   1   2
BRANCH   1  12
HETATM   12  N1  UNL     1      -1.954  -1.727  -0.463  1.00  0.00    -0.360 N 
HETATM   13  H9  UNL     1      -2.637  -1.949   0.298  1.00  0.00     0.162 HD
BRANCH  12  14
HETATM   14  C9  UNL     1      -1.653  -2.977  -1.079  1.00  0.00     0.144 C 
HETATM   15  S1  UNL     1      -0.727  -3.559  -2.293  1.00  0.00    -0.048 SA
BRANCH  14  16
HETATM   16  N2  UNL     1      -2.080  -4.302  -0.850  1.00  0.00    -0.279 NA
HETATM   17  H10 UNL     1      -1.796  -5.046  -0.157  1.00  0.00     0.126 HD
HETATM   18  H11 UNL     1      -1.821  -5.057  -0.178  1.00  0.00     0.126 HD
ENDBRANCH  14  16
ENDBRANCH  12  14
ENDBRANCH   1  12
BRANCH   1  19
HETATM   19  C10 UNL     1      -2.074   0.570  -0.124  1.00  0.00    -0.032 A 
HETATM   20  C11 UNL     1      -2.249   0.298   1.227  1.00  0.00     0.009 A 
HETATM   21  C12 UNL     1      -2.926   1.238   1.981  1.00  0.00     0.001 A 
HETATM   22  C13 UNL     1      -3.392   2.396   1.353  1.00  0.00     0.000 A 
HETATM   23  C14 UNL     1      -3.200   2.628   0.018  1.00  0.00     0.001 A 
HETATM   24  C15 UNL     1      -2.530   1.721  -0.782  1.00  0.00     0.009 A 
ENDBRANCH   1  19
TORSDOF 5
