REMARK  4 active torsions:
REMARK  status: ('A' for Active; 'I' for Inactive)
REMARK    1  A    between atoms: C2_2  and  C3_3 
REMARK    2  A    between atoms: N1_14  and  N2_15 
REMARK    3  A    between atoms: N2_15  and  C14_16 
REMARK    4  A    between atoms: C14_16  and  N3_17 
ROOT
HETATM    1  C3  UNL     1      -2.700  -2.812   1.663  1.00  0.00     0.008 C 
HETATM    2  C4  UNL     1      -2.024  -1.988   0.921  1.00  0.00    -0.035 C 
HETATM    3  C5  UNL     1      -1.293  -2.196  -0.378  1.00  0.00     0.010 C 
HETATM    4  C6  UNL     1      -0.645  -1.538  -1.239  1.00  0.00     0.013 C 
HETATM    5  C7  UNL     1      -0.042  -0.399  -1.884  1.00  0.00    -0.024 A 
HETATM    6  C8  UNL     1      -0.596  -0.373  -3.188  1.00  0.00     0.012 A 
HETATM    7  C9  UNL     1      -0.413   0.551  -4.234  1.00  0.00     0.001 A 
HETATM    8  C10 UNL     1       0.443   1.559  -3.882  1.00  0.00     0.001 A 
HETATM    9  C11 UNL     1       0.992   1.556  -2.625  1.00  0.00     0.014 A 
HETATM   10  C12 UNL     1       0.804   0.640  -1.596  1.00  0.00     0.004 A 
HETATM   11  C13 UNL     1       1.630   1.290  -0.530  1.00  0.00     0.087 C 
HETATM   12  N1  UNL     1       2.937   1.411  -0.740  1.00  0.00    -0.172 NA
HETATM   13  C15 UNL     1       1.245   1.955   0.752  1.00  0.00     0.031 C 
HETATM   14  C16 UNL     1       0.995   2.590   1.923  1.00  0.00    -0.008 C 
HETATM   15  C17 UNL     1      -0.473   2.408   2.297  1.00  0.00     0.029 A 
HETATM   16  C18 UNL     1       0.131   1.531   3.170  1.00  0.00     0.062 A 
HETATM   17  C19 UNL     1      -0.593   0.345   3.349  1.00  0.00    -0.007 A 
HETATM   18  C20 UNL     1      -1.211   1.204   2.476  1.00  0.00     0.075 A 
HETATM   19  C21 UNL     1      -1.805   2.026   1.639  1.00  0.00     0.061 A 
HETATM   20  C22 UNL     1      -1.112   3.231   1.432  1.00  0.00    -0.027 A 
HETATM   21  O1  UNL     1      -1.995  -0.050   2.465  1.00  0.00    -0.372 OA
HETATM   22  C23 UNL     1      -1.616  -0.656   1.169  1.00  0.00     0.207 C 
ENDROOT
BRANCH  12  23
HETATM   23  N2  UNL     1       3.317   0.883  -1.976  1.00  0.00    -0.258 N 
HETATM   24  H11 UNL     1       3.230   0.626  -2.963  1.00  0.00     0.191 HD
BRANCH  23  25
HETATM   25  C14 UNL     1       4.659   0.342  -1.918  1.00  0.00     0.164 C 
HETATM   26  S1  UNL     1       5.807  -0.422  -2.755  1.00  0.00    -0.046 SA
BRANCH  25  27
HETATM   27  N3  UNL     1       4.695   0.751  -0.549  1.00  0.00    -0.278 NA
HETATM   28  H12 UNL     1       5.093   1.494   0.038  1.00  0.00     0.126 HD
HETATM   29  H13 UNL     1       5.256   1.633  -0.331  1.00  0.00     0.126 HD
ENDBRANCH  25  27
ENDBRANCH  23  25
ENDBRANCH  12  23
BRANCH   1  30
HETATM   30  C2  UNL     1      -2.717  -4.139   1.080  1.00  0.00    -0.010 C 
HETATM   31  C1  UNL     1      -3.432  -4.958   1.892  1.00  0.00     0.011 C 
ENDBRANCH   1  30
TORSDOF 4
