REMARK  2 active torsions:
REMARK  status: ('A' for Active; 'I' for Inactive)
REMARK    1  A    between atoms: C7_8  and  N1_9 
REMARK    2  A    between atoms: C11_17  and  N5_18 
ROOT
HETATM    1  C1  UNL     1      -4.194   0.203  -0.027  1.00  0.00     0.055 C 
HETATM    2  C2  UNL     1      -2.868   0.551  -0.691  1.00  0.00     0.122 C 
HETATM    3  C3  UNL     1      -3.027   1.884  -1.456  1.00  0.00     0.055 C 
HETATM    4  O1  UNL     1      -2.637  -0.471  -1.624  1.00  0.00    -0.361 OA
HETATM    5  C4  UNL     1      -1.423  -1.072  -1.768  1.00  0.00     0.178 C 
HETATM    6  C5  UNL     1      -0.399  -1.775  -2.201  1.00  0.00     0.011 C 
HETATM    7  C6  UNL     1       0.740  -1.669  -1.279  1.00  0.00     0.050 C 
HETATM    8  C7  UNL     1       0.920  -1.011  -0.137  1.00  0.00     0.143 C 
HETATM    9  N4  UNL     1      -0.299  -0.320   0.018  1.00  0.00    -0.214 NA
HETATM   10  C11 UNL     1      -0.499   0.475   0.957  1.00  0.00     0.152 C 
HETATM   11  C12 UNL     1      -1.814   0.724   0.316  1.00  0.00     0.222 C 
HETATM   12  O2  UNL     1      -2.383   1.609   1.060  1.00  0.00    -0.286 OA
ENDROOT
BRANCH   8  13
HETATM   13  N1  UNL     1       2.080  -0.989   0.680  1.00  0.00    -0.272 N 
HETATM   14  C8  UNL     1       3.413  -1.072   0.174  1.00  0.00     0.218 C 
HETATM   15  C9  UNL     1       4.189   0.126   0.617  1.00  0.00     0.129 C 
HETATM   16  F1  UNL     1       5.138   0.768  -0.074  1.00  0.00    -0.207 F 
HETATM   17  C10 UNL     1       3.920   0.618   1.822  1.00  0.00     0.142 C 
HETATM   18  N2  UNL     1       2.903  -0.058   2.581  1.00  0.00    -0.312 N 
HETATM   19  N3  UNL     1       1.894  -0.877   2.062  1.00  0.00    -0.145 NA
HETATM   20  H13 UNL     1       2.836   0.010   3.605  1.00  0.00     0.181 HD
HETATM   21  H14 UNL     1       2.075  -1.836   2.439  1.00  0.00     0.173 HD
ENDBRANCH   8  13
BRANCH  10  22
HETATM   22  N5  UNL     1      -0.033   1.121   2.124  1.00  0.00    -0.284 NA
HETATM   23  H15 UNL     1       0.562   1.949   1.911  1.00  0.00     0.125 HD
HETATM   24  H16 UNL     1       0.528   1.902   1.750  1.00  0.00     0.125 HD
ENDBRANCH  10  22
TORSDOF 2
