REMARK  8 active torsions:
REMARK  status: ('A' for Active; 'I' for Inactive)
REMARK    1  A    between atoms: N1_2  and  C2_3 
REMARK    2  A    between atoms: C2_3  and  C3_4 
REMARK    3  A    between atoms: C14_19  and  N3_20 
REMARK    4  A    between atoms: N3_20  and  C15_21 
REMARK    5  A    between atoms: C15_21  and  C16_22 
REMARK    6  A    between atoms: C16_22  and  C17_23 
REMARK    7  A    between atoms: C17_23  and  C18_24 
REMARK    8  A    between atoms: C18_24  and  C19_25 
ROOT
HETATM    1  C3  UNL     1      -2.436  -1.158  -0.128  1.00  0.00     0.122 A 
HETATM    2  C4  UNL     1      -1.234  -1.383   0.566  1.00  0.00     0.066 A 
HETATM    3  C5  UNL     1      -0.600  -3.221   0.228  1.00  0.00     0.019 A 
HETATM    4  C6  UNL     1       0.330  -1.928   0.186  1.00  0.00     0.085 A 
HETATM    5  C7  UNL     1       0.240  -2.004  -1.549  1.00  0.00     0.082 A 
HETATM    6  O1  UNL     1      -0.520  -2.544  -2.364  1.00  0.00    -0.308 OA
HETATM    7  C8  UNL     1       1.387  -1.206  -1.384  1.00  0.00     0.072 A 
HETATM    8  C9  UNL     1       1.660  -2.714  -1.198  1.00  0.00     0.069 A 
HETATM    9  C10 UNL     1       1.720  -3.899  -0.125  1.00  0.00     0.047 C 
HETATM   10  P1  UNL     1      -1.090  -3.105   0.290  1.00  0.00    -0.077 P 
HETATM   11  C11 UNL     1      -2.522  -2.731   0.474  1.00  0.00     0.074 C 
HETATM   12  O2  UNL     1      -3.760  -2.389   0.605  1.00  0.00    -0.319 OA
HETATM   13  C12 UNL     1      -3.485  -1.815  -1.083  1.00  0.00     0.200 A 
HETATM   14  N2  UNL     1      -2.637  -1.081  -1.789  1.00  0.00    -0.249 NA
HETATM   15  C13 UNL     1      -1.423  -0.195  -1.828  1.00  0.00     0.119 C 
HETATM   16  C14 UNL     1       0.032  -0.374  -1.658  1.00  0.00     0.113 A 
ENDROOT
BRANCH  16  17
HETATM   17  N3  UNL     1       0.787   0.709  -1.658  1.00  0.00    -0.381 N 
HETATM   18  H13 UNL     1       1.049   1.136  -2.600  1.00  0.00     0.160 HD
BRANCH  17  19
HETATM   19  C15 UNL     1       1.400   1.574  -0.753  1.00  0.00     0.084 C 
BRANCH  19  20
HETATM   20  C16 UNL     1       1.906   2.394   0.125  1.00  0.00     0.017 C 
BRANCH  20  21
HETATM   21  C17 UNL     1       3.366   2.518  -0.123  1.00  0.00    -0.000 C 
BRANCH  21  22
HETATM   22  C18 UNL     1       4.377   3.146   0.388  1.00  0.00     0.004 C 
BRANCH  22  23
HETATM   23  C19 UNL     1       5.731   3.628   0.622  1.00  0.00     0.249 C 
HETATM   24  F1  UNL     1       6.627   3.059  -0.299  1.00  0.00    -0.251 F 
ENDBRANCH  22  23
ENDBRANCH  21  22
ENDBRANCH  20  21
ENDBRANCH  19  20
ENDBRANCH  17  19
ENDBRANCH  16  17
BRANCH   1  25
HETATM   25  C2  UNL     1      -2.879   0.189   0.214  1.00  0.00     0.304 C 
BRANCH  25  26
HETATM   26  N1  UNL     1      -4.165   0.018   0.939  1.00  0.00     0.081 N 
HETATM   27  C1  UNL     1      -4.682   1.340   1.312  1.00  0.00     0.306 C 
HETATM   28  H4  UNL     1      -4.052  -0.480   1.825  1.00  0.00     0.315 HD
ENDBRANCH  25  26
ENDBRANCH   1  25
TORSDOF 8
