REMARK  6 active torsions:
REMARK  status: ('A' for Active; 'I' for Inactive)
REMARK    1  A    between atoms: O1_2  and  C2_3 
REMARK    2  A    between atoms: C4_5  and  N1_6 
REMARK    3  A    between atoms: N1_6  and  C5_7 
REMARK    4  A    between atoms: C8_12  and  N3_13 
REMARK    5  A    between atoms: N3_13  and  C9_14 
REMARK    6  A    between atoms: C21_30  and  O4_31 
ROOT
HETATM    1  C2  UNL     1      -6.064   1.857  -0.081  1.00  0.00     0.106 A 
HETATM    2  C3  UNL     1      -4.705   1.978  -0.252  1.00  0.00     0.069 A 
HETATM    3  C4  UNL     1      -3.783   1.029   0.118  1.00  0.00     0.054 A 
HETATM    4  C18 UNL     1      -4.332  -0.093   0.692  1.00  0.00     0.069 A 
HETATM    5  C19 UNL     1      -5.691  -0.336   0.920  1.00  0.00     0.106 A 
HETATM    6  O3  UNL     1      -6.106  -1.397   1.454  1.00  0.00    -0.353 OA
HETATM    7  C20 UNL     1      -6.514  -2.487   2.000  1.00  0.00     0.210 C 
HETATM    8  C21 UNL     1      -6.524   0.688   0.507  1.00  0.00     0.135 A 
ENDROOT
BRANCH   8   9
HETATM    9  O4  UNL     1      -7.885   0.498   0.712  1.00  0.00    -0.351 OA
HETATM   10  C22 UNL     1      -8.756  -0.102  -0.210  1.00  0.00     0.210 C 
ENDBRANCH   8   9
BRANCH   3  11
HETATM   11  N1  UNL     1      -2.407   1.274  -0.102  1.00  0.00    -0.188 N 
HETATM   12  H5  UNL     1      -2.150   2.233  -0.474  1.00  0.00     0.184 HD
BRANCH  11  13
HETATM   13  C5  UNL     1      -1.319   0.391   0.116  1.00  0.00     0.728 A 
HETATM   14  N2  UNL     1      -1.415  -0.869   0.549  1.00  0.00    -0.072 NA
HETATM   15  C6  UNL     1      -0.411  -1.724   0.761  1.00  0.00     0.182 A 
HETATM   16  C7  UNL     1       0.867  -1.289   0.518  1.00  0.00     0.180 A 
HETATM   17  F1  UNL     1       1.866  -2.156   0.732  1.00  0.00    -0.200 F 
HETATM   18  C8  UNL     1       0.992   0.005   0.073  1.00  0.00     0.187 A 
HETATM   19  N5  UNL     1      -0.057   0.794  -0.114  1.00  0.00    -0.042 NA
BRANCH  18  20
HETATM   20  N3  UNL     1       2.306   0.483  -0.180  1.00  0.00    -0.339 N 
HETATM   21  H7  UNL     1       2.446   1.472  -0.532  1.00  0.00     0.167 HD
BRANCH  20  22
HETATM   22  C9  UNL     1       3.483  -0.294   0.013  1.00  0.00     0.057 A 
HETATM   23  C10 UNL     1       4.469  -1.221  -0.440  1.00  0.00     0.008 A 
HETATM   24  C11 UNL     1       5.078  -2.124  -1.451  1.00  0.00     0.036 C 
HETATM   25  C17 UNL     1       4.474  -0.637   0.849  1.00  0.00     0.306 A 
HETATM   26  C12 UNL     1       6.391  -2.142  -1.782  1.00  0.00     0.136 C 
HETATM   27  O2  UNL     1       7.535  -1.427  -1.370  1.00  0.00    -0.356 OA
HETATM   28  C13 UNL     1       7.900  -0.729  -0.128  1.00  0.00     0.156 C 
HETATM   29  C14 UNL     1       8.840   0.386  -0.609  1.00  0.00     0.042 C 
HETATM   30  C15 UNL     1       6.615  -0.300   0.317  1.00  0.00     0.246 C 
HETATM   31  C16 UNL     1       6.235   0.548  -0.819  1.00  0.00     0.045 C 
HETATM   32  N4  UNL     1       5.729   0.051   1.266  1.00  0.00     0.105 N 
HETATM   33  H18 UNL     1       5.477   1.055   1.338  1.00  0.00     0.317 HD
ENDBRANCH  20  22
ENDBRANCH  18  20
ENDBRANCH  11  13
ENDBRANCH   3  11
BRANCH   1  34
HETATM   34  O1  UNL     1      -6.991   2.812  -0.455  1.00  0.00    -0.353 OA
HETATM   35  C1  UNL     1      -6.535   4.003  -1.060  1.00  0.00     0.210 C 
ENDBRANCH   1  34
TORSDOF 6
