REMARK  4 active torsions:
REMARK  status: ('A' for Active; 'I' for Inactive)
REMARK    1  A    between atoms: C5_5  and  N1_6 
REMARK    2  A    between atoms: N1_6  and  C6_7 
REMARK    3  A    between atoms: C6_7  and  C7_8 
REMARK    4  A    between atoms: C11_15  and  C12_16 
ROOT
HETATM    1  C1  UNL     1      -1.720  -1.747   0.628  1.00  0.00     0.020 C 
HETATM    2  C2  UNL     1      -0.962  -0.658  -0.031  1.00  0.00     0.007 C 
HETATM    3  C3  UNL     1       0.261  -0.962   0.367  1.00  0.00     0.031 C 
HETATM    4  C4  UNL     1       1.673  -0.663   0.364  1.00  0.00     0.009 C 
HETATM    5  C5  UNL     1       2.838  -0.049   0.100  1.00  0.00     0.025 C 
HETATM    6  C8  UNL     1       3.039   1.130  -0.725  1.00  0.00     0.046 C 
HETATM    7  C9  UNL     1       2.321   1.967  -1.445  1.00  0.00     0.092 C 
HETATM    8  N2  UNL     1       0.948   2.126  -1.776  1.00  0.00    -0.345 N 
HETATM    9  C10 UNL     1      -0.328   1.479  -1.922  1.00  0.00     0.162 C 
HETATM   10  N3  UNL     1      -1.297   1.517  -1.105  1.00  0.00    -0.249 NA
HETATM   11  C11 UNL     1      -1.891   0.246  -0.800  1.00  0.00     0.102 C 
HETATM   12  C17 UNL     1      -2.232  -0.431  -2.094  1.00  0.00     0.121 C 
HETATM   13  S1  UNL     1      -1.029   0.434  -3.193  1.00  0.00    -0.089 SA
HETATM   14  H12 UNL     1       0.527   3.037  -2.050  1.00  0.00     0.167 HD
ENDROOT
BRANCH  11  15
HETATM   15  C12 UNL     1      -3.080   0.533   0.030  1.00  0.00    -0.009 A 
HETATM   16  C13 UNL     1      -4.435   0.535  -0.174  1.00  0.00     0.012 A 
HETATM   17  C14 UNL     1      -5.293   0.871   0.850  1.00  0.00     0.020 A 
HETATM   18  C15 UNL     1      -4.810   1.209   2.096  1.00  0.00     0.116 A 
HETATM   19  N4  UNL     1      -3.486   1.219   2.339  1.00  0.00    -0.272 NA
HETATM   20  C16 UNL     1      -2.656   0.888   1.325  1.00  0.00     0.126 A 
ENDBRANCH  11  15
BRANCH   5  21
HETATM   21  N1  UNL     1       3.931  -0.688   0.720  1.00  0.00    -0.387 N 
HETATM   22  H6  UNL     1       3.925  -0.800   1.761  1.00  0.00     0.159 HD
BRANCH  21  23
HETATM   23  C6  UNL     1       4.908  -1.091  -0.245  1.00  0.00     0.156 C 
BRANCH  23  24
HETATM   24  C7  UNL     1       6.016  -1.752   0.512  1.00  0.00     0.410 C 
HETATM   25  O1  UNL     1       6.311  -2.034   1.662  1.00  0.00    -0.428 OA
ENDBRANCH  23  24
ENDBRANCH  21  23
ENDBRANCH   5  21
TORSDOF 4
