REMARK  5 active torsions:
REMARK  status: ('A' for Active; 'I' for Inactive)
REMARK    1  A    between atoms: C3_3  and  C4_4 
REMARK    2  A    between atoms: C4_4  and  N1_5 
REMARK    3  A    between atoms: N1_5  and  C5_6 
REMARK    4  A    between atoms: C8_11  and  N3_12 
REMARK    5  A    between atoms: N3_12  and  C9_13 
ROOT
HETATM    1  N3  UNL     1      -0.016  -1.052   0.574  1.00  0.00    -0.323 N 
HETATM    2  H10 UNL     1      -0.028  -2.089   0.813  1.00  0.00     0.169 HD
ENDROOT
BRANCH   1   3
HETATM    3  C8  UNL     1       1.310  -0.581   0.749  1.00  0.00     0.188 A 
HETATM    4  C7  UNL     1       1.714   0.516   1.489  1.00  0.00     0.180 A 
HETATM    5  C6  UNL     1       3.041   0.879   1.569  1.00  0.00     0.182 A 
HETATM    6  F1  UNL     1       0.792   1.218   2.145  1.00  0.00    -0.200 F 
HETATM    7  N2  UNL     1       3.989   0.144   0.907  1.00  0.00    -0.072 NA
HETATM    8  C5  UNL     1       3.604  -0.921   0.189  1.00  0.00     0.724 A 
HETATM    9  N6  UNL     1       2.305  -1.232   0.142  1.00  0.00    -0.042 NA
BRANCH   8  10
HETATM   10  N1  UNL     1       4.517  -1.743  -0.520  1.00  0.00    -0.219 N 
HETATM   11  H8  UNL     1       4.144  -2.580  -1.038  1.00  0.00     0.178 HD
BRANCH  10  12
HETATM   12  C4  UNL     1       5.942  -1.570  -0.618  1.00  0.00     0.165 C 
BRANCH  12  13
HETATM   13  C3  UNL     1       6.374  -0.346  -1.302  1.00  0.00    -0.011 C 
HETATM   14  C2  UNL     1       7.057   0.781  -1.175  1.00  0.00    -0.033 C 
HETATM   15  C1  UNL     1       7.716   1.070   0.142  1.00  0.00     0.036 C 
ENDBRANCH  12  13
ENDBRANCH  10  12
ENDBRANCH   8  10
ENDBRANCH   1   3
BRANCH   1  16
HETATM   16  C9  UNL     1      -1.237  -0.447   0.181  1.00  0.00     0.131 A 
HETATM   17  C10 UNL     1      -1.369   0.880  -0.138  1.00  0.00     0.053 A 
HETATM   18  C11 UNL     1      -2.555   1.501  -0.521  1.00  0.00     0.044 A 
HETATM   19  C12 UNL     1      -3.648   0.624  -0.555  1.00  0.00     0.116 A 
HETATM   20  C13 UNL     1      -3.501  -0.717  -0.232  1.00  0.00     0.166 A 
HETATM   21  O2  UNL     1      -4.928   1.079  -0.920  1.00  0.00    -0.327 OA
HETATM   22  N4  UNL     1      -2.327  -1.227   0.125  1.00  0.00    -0.211 NA
HETATM   23  N5  UNL     1      -4.640  -1.575  -0.308  1.00  0.00    -0.307 N 
HETATM   24  C14 UNL     1      -5.909  -1.060  -0.711  1.00  0.00     0.258 C 
HETATM   25  H13 UNL     1      -4.502  -2.596  -0.057  1.00  0.00     0.170 HD
HETATM   26  O1  UNL     1      -6.718  -1.859  -1.264  1.00  0.00    -0.270 OA
HETATM   27  C15 UNL     1      -6.082   0.401  -0.399  1.00  0.00     0.141 C 
HETATM   28  C16 UNL     1      -6.140   0.474   1.117  1.00  0.00     0.057 C 
HETATM   29  C17 UNL     1      -7.281   1.004  -1.057  1.00  0.00     0.057 C 
ENDBRANCH   1  16
TORSDOF 5
