REMARK  3 active torsions:
REMARK  status: ('A' for Active; 'I' for Inactive)
REMARK    1  A    between atoms: C3_3  and  C4_5 
REMARK    2  A    between atoms: N2_10  and  C7_11 
REMARK    3  A    between atoms: C15_22  and  N5_23 
ROOT
HETATM    1  C4  UNL     1      -1.870  -0.776  -0.879  1.00  0.00     0.013 C 
HETATM    2  C5  UNL     1      -0.532  -0.943  -0.739  1.00  0.00     0.075 C 
HETATM    3 CL2  UNL     1       0.074  -2.484  -1.393  1.00  0.00    -0.081 Cl
HETATM    4  C6  UNL     1       0.583  -0.182  -0.218  1.00  0.00     0.112 A 
HETATM    5  N1  UNL     1       1.691  -0.657   0.335  1.00  0.00    -0.169 NA
HETATM    6  N2  UNL     1       2.559   0.251   0.694  1.00  0.00    -0.265 N 
HETATM    7  C11 UNL     1       2.100   1.481   0.407  1.00  0.00     0.128 A 
HETATM    8  C12 UNL     1       0.927   1.168  -0.130  1.00  0.00     0.025 A 
HETATM    9  C13 UNL     1      -0.047   2.142  -0.587  1.00  0.00    -0.002 A 
HETATM   10  C14 UNL     1       0.060   3.329  -1.252  1.00  0.00     0.131 A 
HETATM   11  N4  UNL     1      -1.046   3.989  -1.585  1.00  0.00    -0.240 NA
HETATM   12  C15 UNL     1      -2.254   3.524  -1.290  1.00  0.00     0.154 A 
HETATM   13  C16 UNL     1      -2.637   2.366  -0.632  1.00  0.00     0.116 A 
HETATM   14  C17 UNL     1      -1.355   1.846  -0.378  1.00  0.00     0.054 A 
HETATM   15  O1  UNL     1      -3.017   1.223   0.017  1.00  0.00    -0.338 OA
HETATM   16  C18 UNL     1      -3.183  -0.008  -0.717  1.00  0.00     0.161 C 
HETATM   17  C19 UNL     1      -4.124  -0.818   0.087  1.00  0.00     0.045 C 
ENDROOT
BRANCH   6  18
HETATM   18  C7  UNL     1       3.824  -0.117   1.286  1.00  0.00     0.174 C 
HETATM   19  C8  UNL     1       3.894   0.030   2.783  1.00  0.00     0.068 C 
HETATM   20  C9  UNL     1       5.367   0.002   3.142  1.00  0.00     0.273 C 
HETATM   21  N3  UNL     1       6.116  -1.064   2.572  1.00  0.00     0.092 N 
HETATM   22  C10 UNL     1       5.409  -2.274   2.295  1.00  0.00     0.345 C 
HETATM   23  H10 UNL     1       6.950  -1.250   3.205  1.00  0.00     0.316 HD
HETATM   24  S1  UNL     1       4.172  -1.901   0.993  1.00  0.00    -0.112 SA
ENDBRANCH   6  18
BRANCH   1  25
HETATM   25  C3  UNL     1      -2.435  -1.946  -1.540  1.00  0.00     0.024 A 
HETATM   26  C2  UNL     1      -3.374  -2.699  -2.080  1.00  0.00     0.111 A 
HETATM   27  C1  UNL     1      -4.791  -2.400  -2.461  1.00  0.00     0.032 C 
HETATM   28 CL1  UNL     1      -1.501  -3.457  -1.698  1.00  0.00    -0.176 Cl
ENDBRANCH   1  25
BRANCH  12  29
HETATM   29  N5  UNL     1      -3.632   3.903  -1.452  1.00  0.00    -0.382 N 
HETATM   30  H15 UNL     1      -4.320   3.750  -2.220  1.00  0.00     0.157 HD
HETATM   31  H16 UNL     1      -4.268   4.435  -0.809  1.00  0.00     0.157 HD
ENDBRANCH  12  29
TORSDOF 3
