REMARK  4 active torsions:
REMARK  status: ('A' for Active; 'I' for Inactive)
REMARK    1  A    between atoms: C2_2  and  C3_3 
REMARK    2  A    between atoms: C4_4  and  C5_5 
REMARK    3  A    between atoms: N3_11  and  N4_12 
REMARK    4  A    between atoms: C12_16  and  O1_17 
ROOT
HETATM    1  C5  UNL     1       1.857  -0.791  -0.114  1.00  0.00     0.090 A 
HETATM    2  N1  UNL     1       2.360  -1.810  -0.859  1.00  0.00    -0.240 NA
HETATM    3  C6  UNL     1       1.557  -2.913  -0.931  1.00  0.00     0.236 A 
HETATM    4  N2  UNL     1       0.387  -2.872  -0.274  1.00  0.00    -0.215 NA
HETATM    5  C7  UNL     1      -0.070  -1.869   0.439  1.00  0.00     0.201 A 
HETATM    6  C8  UNL     1       0.654  -0.692   0.588  1.00  0.00     0.132 A 
HETATM    7  N3  UNL     1       0.605   0.610   1.216  1.00  0.00    -0.292 N 
HETATM    8  C9  UNL     1      -0.514   1.395   0.720  1.00  0.00     0.152 C 
HETATM    9  C10 UNL     1      -1.730   0.909   1.450  1.00  0.00     0.051 C 
HETATM   10  C11 UNL     1      -3.002   1.391   0.875  1.00  0.00     0.011 C 
HETATM   11  C12 UNL     1      -3.657   0.397   0.286  1.00  0.00     0.066 C 
HETATM   12  C14 UNL     1      -3.392  -0.990   0.090  1.00  0.00     0.061 C 
HETATM   13  C15 UNL     1      -2.472  -1.887   0.356  1.00  0.00     0.147 C 
HETATM   14  O2  UNL     1      -1.290  -2.423   0.846  1.00  0.00    -0.302 OA
ENDROOT
BRANCH   1  15
HETATM   15  C4  UNL     1       2.797   0.360  -0.113  1.00  0.00     0.034 C 
HETATM   16  C3  UNL     1       3.934   0.237  -0.777  1.00  0.00     0.002 C 
BRANCH  16  17
HETATM   17  C2  UNL     1       5.028   1.133  -0.971  1.00  0.00    -0.010 C 
HETATM   18  C1  UNL     1       6.142   0.971  -1.639  1.00  0.00     0.011 C 
ENDBRANCH  16  17
ENDBRANCH   1  15
BRANCH   7  19
HETATM   19  N4  UNL     1       1.603   0.800   2.131  1.00  0.00    -0.342 N 
HETATM   20  H7  UNL     1       1.795   1.754   2.414  1.00  0.00     0.177 HD
HETATM   21  H8  UNL     1       1.679   0.076   2.865  1.00  0.00     0.177 HD
ENDBRANCH   7  19
BRANCH  11  22
HETATM   22  O1  UNL     1      -4.837   0.893  -0.228  1.00  0.00    -0.356 OA
HETATM   23  C13 UNL     1      -5.382   0.549  -1.485  1.00  0.00     0.210 C 
ENDBRANCH  11  22
TORSDOF 4
