REMARK  3 active torsions:
REMARK  status: ('A' for Active; 'I' for Inactive)
REMARK    1  A    between atoms: N1_1  and  C1_2 
REMARK    2  A    between atoms: C3_5  and  C4_6 
REMARK    3  A    between atoms: C7_11  and  O1_12 
ROOT
HETATM    1  C4  UNL     1      -0.005   0.643  -0.660  1.00  0.00     0.019 A 
HETATM    2  C5  UNL     1      -0.804   1.356  -1.458  1.00  0.00     0.126 A 
HETATM    3  N3  UNL     1      -2.010   1.266  -0.934  1.00  0.00    -0.279 N 
HETATM    4  N4  UNL     1      -1.867   0.552   0.082  1.00  0.00    -0.174 NA
HETATM    5  C6  UNL     1      -0.701   0.113   0.350  1.00  0.00     0.096 A 
HETATM    6  C7  UNL     1      -0.659  -0.724   1.532  1.00  0.00     0.176 C 
HETATM    7  C8  UNL     1      -2.090  -0.987   1.973  1.00  0.00     0.069 C 
HETATM    8  P1  UNL     1      -3.173  -1.050   0.469  1.00  0.00    -0.125 P 
HETATM    9  C9  UNL     1      -4.121   0.502   0.114  1.00  0.00     0.053 C 
HETATM   10  C10 UNL     1      -3.399   1.470  -0.832  1.00  0.00     0.154 C 
HETATM   11  H8  UNL     1      -4.019  -2.230   0.468  1.00  0.00     0.057 HD
ENDROOT
BRANCH   1  12
HETATM   12  C3  UNL     1       1.338   0.381  -0.666  1.00  0.00    -0.012 A 
HETATM   13  C2  UNL     1       2.086  -0.687  -0.577  1.00  0.00     0.136 A 
HETATM   14  N2  UNL     1       2.805  -1.789   0.045  1.00  0.00    -0.255 NA
HETATM   15  C13 UNL     1       3.013  -0.752  -1.845  1.00  0.00     0.229 A 
HETATM   16  C12 UNL     1       3.472   0.016  -0.555  1.00  0.00     0.106 A 
HETATM   17  C1  UNL     1       4.103  -1.006   0.289  1.00  0.00     0.112 C 
HETATM   18  F1  UNL     1       3.590  -1.918  -2.017  1.00  0.00    -0.245 F 
HETATM   19  C11 UNL     1       2.791   1.212  -0.648  1.00  0.00     0.008 A 
BRANCH  17  20
HETATM   20  N1  UNL     1       5.421  -0.592   0.758  1.00  0.00    -0.387 N 
HETATM   21  H1  UNL     1       5.348   0.170   1.428  1.00  0.00     0.157 HD
HETATM   22  H2  UNL     1       6.235  -1.083   0.399  1.00  0.00     0.157 HD
ENDBRANCH  17  20
ENDBRANCH   1  12
BRANCH   6  23
HETATM   23  O1  UNL     1      -0.129  -2.002   1.315  1.00  0.00    -0.389 OA
HETATM   24  H5  UNL     1      -0.619  -2.418   0.588  1.00  0.00     0.210 HD
ENDBRANCH   6  23
TORSDOF 3
