REMARK  8 active torsions:
REMARK  status: ('A' for Active; 'I' for Inactive)
REMARK    1  A    between atoms: O1_2  and  C2_3 
REMARK    2  A    between atoms: N1_6  and  C5_7 
REMARK    3  A    between atoms: C5_7  and  C6_8 
REMARK    4  A    between atoms: C6_8  and  N2_9 
REMARK    5  A    between atoms: N3_10  and  C7_11 
REMARK    6  A    between atoms: C8_12  and  C9_14 
REMARK    7  A    between atoms: C9_14  and  N4_15 
REMARK    8  A    between atoms: C17_25  and  O3_26 
ROOT
HETATM    1  C5  UNL     1       1.119   0.270  -0.520  1.00  0.00     0.130 C 
HETATM    2  N3  UNL     1      -0.067  -0.006  -0.966  1.00  0.00    -0.243 NA
ENDROOT
BRANCH   1   3
HETATM    3  N1  UNL     1       2.320  -0.492  -0.731  1.00  0.00    -0.361 N 
HETATM    4  C4  UNL     1       2.996  -0.139  -1.946  1.00  0.00     0.154 C 
HETATM    5  C3  UNL     1       4.277   0.525  -1.589  1.00  0.00     0.032 C 
HETATM    6  C2  UNL     1       5.179   0.125  -0.719  1.00  0.00     0.099 C 
HETATM    7  C17 UNL     1       5.162  -1.071   0.122  1.00  0.00     0.099 C 
HETATM    8  C16 UNL     1       4.054  -1.693   0.515  1.00  0.00     0.032 C 
HETATM    9  C15 UNL     1       2.625  -1.449   0.286  1.00  0.00     0.154 C 
BRANCH   6  10
HETATM   10  O1  UNL     1       6.311   0.927  -0.557  1.00  0.00    -0.353 OA
HETATM   11  C1  UNL     1       6.726   1.473   0.668  1.00  0.00     0.210 C 
ENDBRANCH   6  10
BRANCH   7  12
HETATM   12  O3  UNL     1       6.412  -1.561   0.517  1.00  0.00    -0.353 OA
HETATM   13  C18 UNL     1       7.137  -2.269  -0.473  1.00  0.00     0.210 C 
ENDBRANCH   7  12
ENDBRANCH   1   3
BRANCH   1  14
HETATM   14  C6  UNL     1       1.449   1.459   0.311  1.00  0.00     0.344 C 
BRANCH  14  15
HETATM   15  N2  UNL     1       2.434   2.280  -0.368  1.00  0.00     0.085 N 
HETATM   16  H9  UNL     1       2.854   2.961   0.278  1.00  0.00     0.313 HD
HETATM   17  H10 UNL     1       1.922   2.773  -1.160  1.00  0.00     0.313 HD
ENDBRANCH  14  15
ENDBRANCH   1  14
BRANCH   2  18
HETATM   18  C7  UNL     1      -1.108   0.923  -0.612  1.00  0.00     0.158 C 
HETATM   19  C8  UNL     1      -1.718   0.273   0.369  1.00  0.00     0.131 C 
HETATM   20  F1  UNL     1      -1.099  -0.909   0.566  1.00  0.00    -0.207 F 
BRANCH  19  21
HETATM   21  C9  UNL     1      -2.879   0.464   1.311  1.00  0.00     0.222 C 
BRANCH  21  22
HETATM   22  N4  UNL     1      -3.801  -0.601   1.069  1.00  0.00    -0.268 NA
HETATM   23  C10 UNL     1      -4.799  -0.514   0.256  1.00  0.00     0.118 C 
HETATM   24  C11 UNL     1      -5.135   0.693  -0.539  1.00  0.00     0.246 C 
HETATM   25  N5  UNL     1      -5.656  -1.645   0.094  1.00  0.00    -0.374 N 
HETATM   26  O2  UNL     1      -6.501   0.772  -0.806  1.00  0.00    -0.377 OA
HETATM   27  C12 UNL     1      -7.238   0.094   0.133  1.00  0.00     0.135 C 
HETATM   28  C13 UNL     1      -8.659   0.514   0.276  1.00  0.00     0.041 C 
HETATM   29  C14 UNL     1      -7.076  -1.394  -0.204  1.00  0.00     0.152 C 
HETATM   30  H22 UNL     1      -5.271  -2.632   0.188  1.00  0.00     0.161 HD
ENDBRANCH  21  22
ENDBRANCH  19  21
ENDBRANCH   2  18
TORSDOF 8
