REMARK  8 active torsions:
REMARK  status: ('A' for Active; 'I' for Inactive)
REMARK    1  A    between atoms: C2_2  and  N1_3 
REMARK    2  A    between atoms: N1_3  and  C3_4 
REMARK    3  A    between atoms: C3_4  and  C4_5 
REMARK    4  A    between atoms: N2_7  and  C6_8 
REMARK    5  A    between atoms: C6_8  and  C7_9 
REMARK    6  A    between atoms: C9_12  and  N4_13 
REMARK    7  A    between atoms: C10_14  and  O1_15 
REMARK    8  A    between atoms: O1_15  and  C11_16 
ROOT
HETATM    1  C7  UNL     1       0.331  -1.170  -0.350  1.00  0.00    -0.018 A 
HETATM    2  C8  UNL     1       0.369  -1.473  -1.711  1.00  0.00     0.128 A 
HETATM    3  N3  UNL     1      -0.710  -1.239  -2.462  1.00  0.00    -0.240 NA
HETATM    4  C9  UNL     1      -1.831  -0.718  -1.938  1.00  0.00     0.154 A 
HETATM    5  C10 UNL     1      -1.989  -0.381  -0.627  1.00  0.00     0.116 A 
HETATM    6  C18 UNL     1      -0.850  -0.629   0.160  1.00  0.00     0.051 A 
ENDROOT
BRANCH   5   7
HETATM    7  O1  UNL     1      -2.962   0.135   0.131  1.00  0.00    -0.329 OA
BRANCH   7   8
HETATM    8  C11 UNL     1      -4.257   0.545  -0.090  1.00  0.00     0.125 A 
HETATM    9  C12 UNL     1      -4.275   1.659  -1.139  1.00  0.00     0.055 C 
HETATM   10  C13 UNL     1      -4.828   1.214   1.152  1.00  0.00     0.086 A 
HETATM   11 CL1  UNL     1      -3.688   2.514   1.535  1.00  0.00    -0.082 Cl
HETATM   12  C14 UNL     1      -5.845   1.175   2.025  1.00  0.00     0.137 A 
HETATM   13  F1  UNL     1      -6.148   1.920   3.110  1.00  0.00    -0.205 F 
HETATM   14  C15 UNL     1      -6.748   0.070   1.629  1.00  0.00     0.041 A 
HETATM   15  C16 UNL     1      -6.314  -0.558   0.551  1.00  0.00    -0.000 A 
HETATM   16  C17 UNL     1      -5.212  -0.556  -0.439  1.00  0.00     0.145 A 
HETATM   17 CL2  UNL     1      -4.372  -2.134  -0.201  1.00  0.00    -0.117 Cl
ENDBRANCH   7   8
ENDBRANCH   5   7
BRANCH   4  18
HETATM   18  N4  UNL     1      -2.947  -0.487  -2.773  1.00  0.00    -0.382 N 
HETATM   19  H15 UNL     1      -3.854  -0.941  -3.027  1.00  0.00     0.157 HD
HETATM   20  H16 UNL     1      -2.938   0.376  -3.345  1.00  0.00     0.157 HD
ENDBRANCH   4  18
BRANCH   1  21
HETATM   21  C6  UNL     1       1.544  -1.456   0.415  1.00  0.00     0.189 C 
BRANCH  21  22
HETATM   22  N2  UNL     1       2.468  -0.381   0.498  1.00  0.00    -0.292 NA
HETATM   23  C4  UNL     1       3.685  -0.656   0.805  1.00  0.00     0.031 C 
HETATM   24  C5  UNL     1       4.133  -2.068   1.070  1.00  0.00     0.067 C 
BRANCH  23  25
HETATM   25  C3  UNL     1       4.784   0.371   0.933  1.00  0.00     0.323 C 
BRANCH  25  26
HETATM   26  N1  UNL     1       5.779   0.052  -0.065  1.00  0.00     0.088 N 
HETATM   27  H6  UNL     1       5.380   0.004  -1.031  1.00  0.00     0.316 HD
BRANCH  26  28
HETATM   28  C2  UNL     1       6.921   0.941   0.009  1.00  0.00     0.265 C 
HETATM   29  C1  UNL     1       6.625   2.359  -0.372  1.00  0.00     0.037 C 
ENDBRANCH  26  28
ENDBRANCH  25  26
ENDBRANCH  23  25
ENDBRANCH  21  22
ENDBRANCH   1  21
TORSDOF 8
