REMARK  5 active torsions:
REMARK  status: ('A' for Active; 'I' for Inactive)
REMARK    1  A    between atoms: C4_5  and  N2_6 
REMARK    2  A    between atoms: C5_7  and  O1_8 
REMARK    3  A    between atoms: O1_8  and  C6_9 
REMARK    4  A    between atoms: C6_9  and  C8_11 
REMARK    5  A    between atoms: N5_24  and  C16_25 
ROOT
HETATM    1  C1  UNL     1      -1.542  -0.908  -3.284  1.00  0.00     0.068 C 
HETATM    2  C2  UNL     1      -1.584  -0.547  -1.881  1.00  0.00     0.032 C 
HETATM    3  C3  UNL     1      -0.754  -1.518  -1.396  1.00  0.00     0.187 C 
HETATM    4  N1  UNL     1       0.032  -2.360  -0.568  1.00  0.00    -0.262 NA
HETATM    5  C4  UNL     1       0.980  -1.887   0.235  1.00  0.00     0.127 C 
HETATM    6  C5  UNL     1       1.776  -0.778   0.853  1.00  0.00     0.112 C 
HETATM    7  C14 UNL     1       1.111   0.136   0.223  1.00  0.00     0.172 C 
HETATM    8  N3  UNL     1       0.927   1.484  -0.017  1.00  0.00    -0.370 N 
HETATM    9  C15 UNL     1      -0.062   1.290  -1.053  1.00  0.00     0.225 C 
HETATM   10  N4  UNL     1      -1.195   0.900  -0.650  1.00  0.00    -0.168 NA
HETATM   11  N5  UNL     1      -2.339   0.617  -1.376  1.00  0.00    -0.270 N 
HETATM   12  H14 UNL     1       0.783   2.495  -0.205  1.00  0.00     0.161 HD
ENDROOT
BRANCH   6  13
HETATM   13  O1  UNL     1       2.703  -1.302   1.686  1.00  0.00    -0.340 OA
BRANCH  13  14
HETATM   14  C6  UNL     1       4.073  -1.190   1.748  1.00  0.00     0.161 C 
HETATM   15  C7  UNL     1       4.638  -2.109   2.827  1.00  0.00     0.045 C 
BRANCH  14  16
HETATM   16  C8  UNL     1       4.447   0.223   2.019  1.00  0.00     0.017 A 
HETATM   17  C9  UNL     1       3.747   1.051   2.869  1.00  0.00     0.044 A 
HETATM   18 CL1  UNL     1       2.328   0.408   3.711  1.00  0.00    -0.084 Cl
HETATM   19  C10 UNL     1       4.038   2.378   3.163  1.00  0.00     0.028 A 
HETATM   20  C11 UNL     1       5.170   2.843   2.487  1.00  0.00     0.046 A 
HETATM   21  C12 UNL     1       5.961   2.124   1.613  1.00  0.00     0.138 A 
HETATM   22  F1  UNL     1       7.026   2.703   1.031  1.00  0.00    -0.204 F 
HETATM   23  C13 UNL     1       5.531   0.830   1.435  1.00  0.00     0.083 A 
HETATM   24 CL2  UNL     1       6.485  -0.151   0.335  1.00  0.00    -0.080 Cl
ENDBRANCH  14  16
ENDBRANCH  13  14
ENDBRANCH   6  13
BRANCH   5  25
HETATM   25  N2  UNL     1       1.093  -3.244   0.510  1.00  0.00    -0.285 NA
HETATM   26  H5  UNL     1       1.145  -4.179   0.920  1.00  0.00     0.125 HD
HETATM   27  H6  UNL     1       1.126  -4.141   1.040  1.00  0.00     0.125 HD
ENDBRANCH   5  25
BRANCH  11  28
HETATM   28  C16 UNL     1      -3.648   0.667  -1.931  1.00  0.00     0.113 C 
HETATM   29  C17 UNL     1      -4.392   1.856  -1.343  1.00  0.00     0.057 C 
HETATM   30  C18 UNL     1      -5.800   1.448  -0.970  1.00  0.00     0.271 C 
HETATM   31  N6  UNL     1      -6.394   0.614  -1.998  1.00  0.00     0.083 N 
HETATM   32  C19 UNL     1      -5.791  -0.679  -1.922  1.00  0.00     0.271 C 
HETATM   33  H21 UNL     1      -6.400   1.024  -2.935  1.00  0.00     0.315 HD
HETATM   34  C20 UNL     1      -4.374  -0.592  -1.474  1.00  0.00     0.057 C 
ENDBRANCH  11  28
TORSDOF 5
