REMARK  8 active torsions:
REMARK  status: ('A' for Active; 'I' for Inactive)
REMARK    1  A    between atoms: C2_2  and  C3_3 
REMARK    2  A    between atoms: C3_3  and  C4_4 
REMARK    3  A    between atoms: C4_4  and  C5_6 
REMARK    4  A    between atoms: C5_6  and  C6_7 
REMARK    5  A    between atoms: C6_7  and  C7_8 
REMARK    6  A    between atoms: C10_12  and  C11_13 
REMARK    7  A    between atoms: C12_14  and  N2_15 
REMARK    8  A    between atoms: C16_20  and  O1_21 
ROOT
HETATM    1  C7  UNL     1       3.468  -0.100   0.433  1.00  0.00    -0.036 A 
HETATM    2  C8  UNL     1       3.651  -1.478   0.438  1.00  0.00     0.123 A 
HETATM    3  N1  UNL     1       2.582  -2.299   0.329  1.00  0.00    -0.272 NA
HETATM    4  C9  UNL     1       1.335  -1.772   0.215  1.00  0.00     0.127 A 
HETATM    5  C10 UNL     1       1.174  -0.406   0.212  1.00  0.00    -0.017 A 
HETATM    6  C19 UNL     1       2.216   0.487   0.319  1.00  0.00     0.021 A 
ENDROOT
BRANCH   5   7
HETATM    7  C11 UNL     1      -0.173   0.136   0.089  1.00  0.00     0.029 C 
HETATM    8  C12 UNL     1      -1.243  -0.635  -0.020  1.00  0.00     0.086 C 
BRANCH   8   9
HETATM    9  N2  UNL     1      -2.607  -0.348  -0.147  1.00  0.00    -0.388 N 
HETATM   10  C13 UNL     1      -3.027  -0.162  -1.554  1.00  0.00     0.141 C 
HETATM   11  C14 UNL     1      -4.411  -0.644  -1.916  1.00  0.00     0.133 C 
HETATM   12  N3  UNL     1      -5.527   0.021  -1.419  1.00  0.00    -0.417 N 
HETATM   13  C15 UNL     1      -6.510  -0.560  -0.545  1.00  0.00     0.145 C 
HETATM   14  H15 UNL     1      -5.879   0.844  -1.949  1.00  0.00     0.153 HD
HETATM   15  C16 UNL     1      -6.058  -0.437   0.958  1.00  0.00     0.137 C 
HETATM   16  C17 UNL     1      -4.665  -0.397   0.858  1.00  0.00     0.053 C 
HETATM   17  C18 UNL     1      -3.301  -0.301   1.195  1.00  0.00     0.124 C 
BRANCH  15  18
HETATM   18  O1  UNL     1      -6.684   0.751   1.398  1.00  0.00    -0.394 OA
HETATM   19  H19 UNL     1      -6.229   1.068   2.226  1.00  0.00     0.210 HD
ENDBRANCH  15  18
ENDBRANCH   8   9
ENDBRANCH   5   7
BRANCH   1  20
HETATM   20  C6  UNL     1       4.716   0.687   0.558  1.00  0.00     0.068 C 
BRANCH  20  21
HETATM   21  C5  UNL     1       5.221   0.935  -0.796  1.00  0.00     0.002 C 
BRANCH  21  22
HETATM   22  C4  UNL     1       6.418   0.491  -1.135  1.00  0.00     0.037 C 
HETATM   23 CL1  UNL     1       7.110   0.736  -2.725  1.00  0.00    -0.084 Cl
BRANCH  22  24
HETATM   24  C3  UNL     1       7.303  -0.243  -0.257  1.00  0.00     0.074 C 
BRANCH  24  25
HETATM   25  C2  UNL     1       7.871   0.369   0.759  1.00  0.00    -0.153 C 
HETATM   26  C1  UNL     1       8.314   1.198   1.692  1.00  0.00     0.096 C 
ENDBRANCH  24  25
ENDBRANCH  22  24
ENDBRANCH  21  22
ENDBRANCH  20  21
ENDBRANCH   1  20
TORSDOF 8
