REMARK  2 active torsions:
REMARK  status: ('A' for Active; 'I' for Inactive)
REMARK    1  A    between atoms: O1_2  and  C2_3 
REMARK    2  A    between atoms: C11_15  and  N3_16 
ROOT
HETATM    1  C2  UNL     1       5.041  -0.358  -0.619  1.00  0.00     0.070 A 
HETATM    2  C3  UNL     1       4.483  -1.151  -1.624  1.00  0.00     0.037 A 
HETATM    3  C4  UNL     1       3.109  -1.381  -1.680  1.00  0.00     0.014 A 
HETATM    4  C5  UNL     1       2.239  -0.826  -0.730  1.00  0.00    -0.006 A 
HETATM    5  C6  UNL     1       2.852  -0.053   0.237  1.00  0.00     0.088 A 
HETATM    6  C7  UNL     1       4.190   0.186   0.312  1.00  0.00     0.074 A 
HETATM    7  O2  UNL     1       2.132   0.570   1.252  1.00  0.00    -0.289 OA
HETATM    8  C8  UNL     1       0.814   1.065   1.212  1.00  0.00     0.209 C 
HETATM    9  N1  UNL     1       0.417   2.164   1.791  1.00  0.00    -0.146 NA
HETATM   10  C9  UNL     1       1.397   2.874   2.494  1.00  0.00     0.208 C 
HETATM   11  N2  UNL     1       2.213   3.461   3.098  1.00  0.00    -0.170 NA
HETATM   12  C10 UNL     1      -0.289   0.407   0.508  1.00  0.00     0.098 C 
HETATM   13  C11 UNL     1      -1.531   0.647   0.822  1.00  0.00     0.119 C 
HETATM   14  N4  UNL     1      -0.197  -0.535  -0.556  1.00  0.00    -0.381 N 
HETATM   15  C18 UNL     1       0.909  -1.277  -1.104  1.00  0.00     0.161 C 
HETATM   16  H15 UNL     1      -1.086  -0.764  -1.072  1.00  0.00     0.160 HD
ENDROOT
BRANCH  13  17
HETATM   17  N3  UNL     1      -2.694   0.077   0.221  1.00  0.00    -0.381 N 
HETATM   18  C12 UNL     1      -3.191  -1.169   0.816  1.00  0.00     0.153 C 
HETATM   19  C13 UNL     1      -4.379  -0.917   1.679  1.00  0.00     0.035 C 
HETATM   20  C14 UNL     1      -5.577  -0.418   1.345  1.00  0.00     0.119 C 
HETATM   21  F1  UNL     1      -6.324  -0.378   2.476  1.00  0.00    -0.206 F 
HETATM   22  P1  UNL     1      -6.452   0.197  -0.146  1.00  0.00    -0.018 P 
HETATM   23  C15 UNL     1      -5.366  -0.216  -1.586  1.00  0.00     0.040 C 
HETATM   24  H11 UNL     1      -6.484   1.663  -0.037  1.00  0.00     0.070 HD
HETATM   25 CL1  UNL     1      -5.901  -1.149  -2.982  1.00  0.00    -0.084 Cl
HETATM   26  C16 UNL     1      -4.084   0.126  -1.750  1.00  0.00     0.017 C 
HETATM   27  C17 UNL     1      -3.143   0.901  -0.897  1.00  0.00     0.151 C 
ENDBRANCH  13  17
BRANCH   1  28
HETATM   28  O1  UNL     1       6.390  -0.110  -0.533  1.00  0.00    -0.356 OA
HETATM   29  C1  UNL     1       6.976   0.691   0.478  1.00  0.00     0.210 C 
ENDBRANCH   1  28
TORSDOF 2
