REMARK  5 active torsions:
REMARK  status: ('A' for Active; 'I' for Inactive)
REMARK    1  A    between atoms: C2_2  and  C17_25 
REMARK    2  A    between atoms: C3_3  and  P1_4 
REMARK    3  A    between atoms: P1_4  and  C4_6 
REMARK    4  A    between atoms: N2_10  and  C7_11 
REMARK    5  A    between atoms: C15_21  and  N5_22 
ROOT
HETATM    1  C4  UNL     1       1.560  -0.049   0.607  1.00  0.00     0.174 C 
HETATM    2  C5  UNL     1       0.846   0.898   1.546  1.00  0.00     0.086 C 
HETATM    3  C6  UNL     1      -0.580   1.090   1.304  1.00  0.00     0.114 C 
HETATM    4  N1  UNL     1      -0.900   0.163   0.497  1.00  0.00    -0.193 NA
HETATM    5  N2  UNL     1      -2.127  -0.072  -0.018  1.00  0.00    -0.297 N 
HETATM    6  C12 UNL     1      -2.235  -1.234  -0.866  1.00  0.00     0.183 C 
HETATM    7  C13 UNL     1      -0.880  -1.808  -1.120  1.00  0.00    -0.007 A 
HETATM    8  C14 UNL     1      -0.932  -2.984  -1.789  1.00  0.00     0.126 A 
HETATM    9  N4  UNL     1       0.408  -3.418  -1.972  1.00  0.00    -0.245 NA
HETATM   10  C15 UNL     1       1.246  -2.587  -1.463  1.00  0.00     0.131 A 
HETATM   11  C16 UNL     1       0.515  -1.426  -0.833  1.00  0.00     0.223 A 
HETATM   12  O1  UNL     1       0.875  -1.255   0.473  1.00  0.00    -0.362 OA
ENDROOT
BRANCH   1  13
HETATM   13  P1  UNL     1       3.283  -0.177   1.193  1.00  0.00     0.037 P 
HETATM   14 CL1  UNL     1       4.061  -2.085   1.385  1.00  0.00    -0.089 Cl
BRANCH  13  15
HETATM   15  C3  UNL     1       4.354   0.992   0.314  1.00  0.00     0.030 C 
HETATM   16  C2  UNL     1       5.474   0.804  -0.355  1.00  0.00    -0.054 C 
HETATM   17  C1  UNL     1       6.063  -0.555  -0.483  1.00  0.00     0.046 C 
BRANCH  16  18
HETATM   18  C17 UNL     1       6.124   1.986  -0.974  1.00  0.00     0.256 C 
HETATM   19  F1  UNL     1       7.399   2.091  -0.408  1.00  0.00    -0.251 F 
ENDBRANCH  16  18
ENDBRANCH  13  15
ENDBRANCH   1  13
BRANCH  10  20
HETATM   20  N5  UNL     1       2.653  -2.895  -1.573  1.00  0.00    -0.385 N 
HETATM   21  H22 UNL     1       2.899  -3.658  -0.882  1.00  0.00     0.157 HD
HETATM   22  H23 UNL     1       3.322  -2.425  -2.244  1.00  0.00     0.157 HD
ENDBRANCH  10  20
BRANCH   5  23
HETATM   23  C7  UNL     1      -3.427   0.534   0.069  1.00  0.00     0.108 C 
HETATM   24  C8  UNL     1      -3.501   1.796   0.854  1.00  0.00     0.057 C 
HETATM   25  C9  UNL     1      -4.870   2.410   0.521  1.00  0.00     0.271 C 
HETATM   26  N3  UNL     1      -5.874   1.602   1.128  1.00  0.00     0.083 N 
HETATM   27  C10 UNL     1      -5.492   0.281   1.498  1.00  0.00     0.271 C 
HETATM   28  H14 UNL     1      -6.269   2.113   1.948  1.00  0.00     0.315 HD
HETATM   29  C11 UNL     1      -4.501  -0.391   0.600  1.00  0.00     0.057 C 
ENDBRANCH   5  23
TORSDOF 5
