REMARK  6 active torsions:
REMARK  status: ('A' for Active; 'I' for Inactive)
REMARK    1  A    between atoms: C2_2  and  N1_3 
REMARK    2  A    between atoms: N2_6  and  C5_7 
REMARK    3  A    between atoms: C8_10  and  N3_11 
REMARK    4  A    between atoms: N3_11  and  C9_12 
REMARK    5  A    between atoms: C11_14  and  N4_15 
REMARK    6  A    between atoms: N4_15  and  C13_17 
ROOT
HETATM    1  C5  UNL     1       1.214  -0.295  -0.484  1.00  0.00     0.030 A 
HETATM    2  C6  UNL     1       0.941   0.842  -1.211  1.00  0.00     0.031 A 
HETATM    3  C7  UNL     1      -0.328   1.266  -1.470  1.00  0.00     0.032 A 
HETATM    4  C8  UNL     1      -1.351   0.483  -0.959  1.00  0.00     0.033 A 
HETATM    5  C15 UNL     1      -1.121  -0.663  -0.226  1.00  0.00     0.032 A 
HETATM    6  C16 UNL     1       0.188  -1.082   0.031  1.00  0.00     0.031 A 
ENDROOT
BRANCH   4   7
HETATM    7  N3  UNL     1      -2.689   0.893  -1.186  1.00  0.00    -0.341 N 
HETATM    8  H12 UNL     1      -2.890   1.843  -1.581  1.00  0.00     0.167 HD
BRANCH   7   9
HETATM    9  C9  UNL     1      -4.001   0.354  -1.019  1.00  0.00     0.133 A 
HETATM   10  C10 UNL     1      -4.794   0.339   0.129  1.00  0.00     0.101 A 
HETATM   11  C11 UNL     1      -6.049  -0.231   0.051  1.00  0.00     0.136 A 
HETATM   12  N5  UNL     1      -6.484  -0.761  -1.127  1.00  0.00    -0.224 NA
HETATM   13  C14 UNL     1      -5.700  -0.732  -2.213  1.00  0.00     0.237 A 
HETATM   14  N6  UNL     1      -4.471  -0.185  -2.180  1.00  0.00    -0.224 NA
BRANCH  11  15
HETATM   15  N4  UNL     1      -6.822  -0.226   1.246  1.00  0.00    -0.314 N 
HETATM   16  C12 UNL     1      -6.824  -1.286   2.234  1.00  0.00     0.160 C 
BRANCH  15  17
HETATM   17  C13 UNL     1      -7.668   0.883   1.525  1.00  0.00     0.356 C 
HETATM   18  O1  UNL     1      -8.412   1.039   2.553  1.00  0.00    -0.283 OA
ENDBRANCH  15  17
ENDBRANCH  11  15
ENDBRANCH   7   9
ENDBRANCH   4   7
BRANCH   1  19
HETATM   19  N2  UNL     1       2.595  -0.587  -0.319  1.00  0.00    -0.378 N 
HETATM   20  C4  UNL     1       3.633  -1.114  -1.171  1.00  0.00     0.142 C 
HETATM   21  C3  UNL     1       4.962  -0.498  -1.054  1.00  0.00     0.136 C 
HETATM   22  N1  UNL     1       5.241   0.368   0.027  1.00  0.00    -0.410 N 
HETATM   23  C18 UNL     1       4.094   0.895   0.712  1.00  0.00     0.136 C 
HETATM   24  C17 UNL     1       3.152  -0.284   0.989  1.00  0.00     0.142 C 
BRANCH  22  25
HETATM   25  C2  UNL     1       6.299  -0.041   0.915  1.00  0.00     0.112 C 
HETATM   26  C1  UNL     1       7.669  -0.010   0.274  1.00  0.00     0.026 C 
ENDBRANCH  22  25
ENDBRANCH   1  19
TORSDOF 6
