REMARK  4 active torsions:
REMARK  status: ('A' for Active; 'I' for Inactive)
REMARK    1  A    between atoms: C2_2  and  O1_3 
REMARK    2  A    between atoms: O1_3  and  C3_4 
REMARK    3  A    between atoms: C12_15  and  O2_16 
REMARK    4  A    between atoms: O2_16  and  C13_17 
ROOT
HETATM    1  C3  UNL     1      -1.466   2.335   0.434  1.00  0.00     0.060 C 
HETATM    2  C4  UNL     1      -1.199   1.310   1.224  1.00  0.00     0.083 C 
HETATM    3  C5  UNL     1      -0.204   0.311   1.680  1.00  0.00     0.074 A 
HETATM    4  N1  UNL     1       0.754  -0.517   2.041  1.00  0.00    -0.252 NA
HETATM    5  C6  UNL     1       2.114  -0.438   1.841  1.00  0.00     0.181 C 
HETATM    6  N2  UNL     1       3.320  -0.309   1.233  1.00  0.00    -0.247 NA
HETATM    7  C7  UNL     1       3.027  -0.125  -0.195  1.00  0.00     0.093 A 
HETATM    8  C8  UNL     1       2.282   1.045  -0.241  1.00  0.00     0.064 A 
HETATM    9  C9  UNL     1       1.778   0.983  -1.490  1.00  0.00     0.044 A 
HETATM   10  C10 UNL     1       1.893   0.098  -2.527  1.00  0.00     0.033 A 
HETATM   11  C11 UNL     1       2.734  -1.022  -2.226  1.00  0.00     0.041 A 
HETATM   12  C12 UNL     1       3.363  -1.181  -0.975  1.00  0.00     0.098 A 
HETATM   13  N3  UNL     1       0.878   2.083  -1.496  1.00  0.00    -0.278 N 
HETATM   14  C16 UNL     1      -0.044   3.157  -1.505  1.00  0.00     0.110 C 
HETATM   15  C17 UNL     1      -1.089   3.225  -0.654  1.00  0.00    -0.016 C 
HETATM   16  C18 UNL     1      -1.919   4.401  -0.890  1.00  0.00     0.052 C 
HETATM   17  C19 UNL     1      -0.123   1.004  -1.652  1.00  0.00     0.388 A 
HETATM   18  O3  UNL     1      -1.164   0.465  -1.918  1.00  0.00    -0.104 OA
HETATM   19  N4  UNL     1      -0.532  -0.428  -1.541  1.00  0.00     0.124 N 
HETATM   20  C20 UNL     1      -1.516  -1.424  -1.759  1.00  0.00     0.302 C 
HETATM   21  C21 UNL     1      -2.838  -1.242  -1.159  1.00  0.00     0.152 C 
HETATM   22  N5  UNL     1      -2.917  -1.238   0.309  1.00  0.00    -0.394 N 
HETATM   23  C22 UNL     1      -4.161  -1.310   1.126  1.00  0.00     0.148 C 
HETATM   24  C23 UNL     1      -1.664  -1.126   0.987  1.00  0.00     0.080 C 
HETATM   25  C24 UNL     1      -0.479  -1.158   1.637  1.00  0.00     0.129 A 
HETATM   26  H22 UNL     1       0.308  -0.871  -1.052  1.00  0.00     0.330 HD
ENDROOT
BRANCH  12  27
HETATM   27  O2  UNL     1       4.093  -2.276  -0.884  1.00  0.00    -0.344 OA
BRANCH  27  28
HETATM   28  C13 UNL     1       4.814  -2.731   0.204  1.00  0.00     0.120 C 
HETATM   29  C14 UNL     1       4.589  -4.228   0.416  1.00  0.00     0.040 C 
HETATM   30  C15 UNL     1       6.328  -2.583  -0.020  1.00  0.00     0.040 C 
ENDBRANCH  27  28
ENDBRANCH  12  27
BRANCH   1  31
HETATM   31  O1  UNL     1      -2.733   2.484   0.950  1.00  0.00    -0.355 OA
BRANCH  31  32
HETATM   32  C2  UNL     1      -3.957   2.368   0.315  1.00  0.00     0.171 C 
HETATM   33  C1  UNL     1      -5.062   2.716   1.292  1.00  0.00     0.034 C 
ENDBRANCH  31  32
ENDBRANCH   1  31
TORSDOF 4
