REMARK  4 active torsions:
REMARK  status: ('A' for Active; 'I' for Inactive)
REMARK    1  A    between atoms: C5_5  and  S1_6 
REMARK    2  A    between atoms: S1_6  and  N1_9 
REMARK       I    between atoms: N1_9  and  C6_10 
REMARK    3  A    between atoms: C6_10  and  C7_12 
REMARK    4  A    between atoms: C7_12  and  C8_13 
ROOT
HETATM    1  N1  UNL     1       0.207  -2.346   1.447  1.00  0.00    -0.250 N 
HETATM    2  C6  UNL     1       0.919  -1.258   0.879  1.00  0.00     0.235 C 
HETATM    3  O3  UNL     1       0.374  -0.245   0.380  1.00  0.00    -0.272 OA
HETATM    4  H6  UNL     1       0.652  -3.194   1.865  1.00  0.00     0.181 HD
ENDROOT
BRANCH   1   5
HETATM    5  S1  UNL     1      -1.497  -2.432   1.534  1.00  0.00     0.265 S 
HETATM    6  O1  UNL     1      -1.977  -2.572   2.971  1.00  0.00    -0.200 OA
HETATM    7  O2  UNL     1      -1.958  -3.692   0.841  1.00  0.00    -0.200 OA
BRANCH   5   8
HETATM    8  C5  UNL     1      -2.302  -1.038   0.850  1.00  0.00     0.080 A 
HETATM    9  C4  UNL     1      -2.621  -1.094  -0.502  1.00  0.00     0.026 A 
HETATM   10  C3  UNL     1      -3.261  -0.003  -1.076  1.00  0.00     0.008 A 
HETATM   11  C2  UNL     1      -3.607   1.147  -0.388  1.00  0.00    -0.062 A 
HETATM   12  C1  UNL     1      -4.288   2.270  -1.063  1.00  0.00     0.048 C 
HETATM   13  C15 UNL     1      -3.261   1.145   0.966  1.00  0.00     0.008 A 
HETATM   14  C14 UNL     1      -2.626   0.087   1.581  1.00  0.00     0.026 A 
ENDBRANCH   5   8
ENDBRANCH   1   5
BRANCH   2  15
HETATM   15  C7  UNL     1       2.376  -1.412   0.919  1.00  0.00     0.142 C 
BRANCH  15  16
HETATM   16  C8  UNL     1       3.095  -0.259   0.317  1.00  0.00    -0.049 A 
HETATM   17  C9  UNL     1       3.368  -0.334  -1.036  1.00  0.00     0.011 A 
HETATM   18  C10 UNL     1       4.038   0.710  -1.662  1.00  0.00     0.043 A 
HETATM   19  C11 UNL     1       4.422   1.817  -0.904  1.00  0.00     0.116 A 
HETATM   20  F1  UNL     1       5.078   2.840  -1.518  1.00  0.00    -0.206 F 
HETATM   21  C12 UNL     1       4.149   1.890   0.445  1.00  0.00     0.043 A 
HETATM   22  C13 UNL     1       3.481   0.850   1.073  1.00  0.00     0.011 A 
ENDBRANCH  15  16
ENDBRANCH   2  15
TORSDOF 4
