REMARK  6 active torsions:
REMARK  status: ('A' for Active; 'I' for Inactive)
REMARK    1  A    between atoms: C3_3  and  C4_4 
REMARK    2  A    between atoms: C4_4  and  C5_5 
REMARK    3  A    between atoms: C5_5  and  O1_7 
REMARK    4  A    between atoms: O1_7  and  N1_8 
REMARK    5  A    between atoms: N1_8  and  S1_9 
REMARK    6  A    between atoms: S1_9  and  C7_12 
ROOT
HETATM    1  O1  UNL     1       0.549  -2.260  -0.428  1.00  0.00    -0.286 OA
ENDROOT
BRANCH   1   2
HETATM    2  C5  UNL     1      -0.528  -1.561   0.079  1.00  0.00     0.146 C 
HETATM    3  C6  UNL     1      -1.836  -2.296  -0.059  1.00  0.00     0.042 C 
BRANCH   2   4
HETATM    4  C4  UNL     1      -0.701  -0.208  -0.526  1.00  0.00     0.072 C 
BRANCH   4   5
HETATM    5  C3  UNL     1      -1.794   0.495   0.219  1.00  0.00    -0.051 A 
HETATM    6  C2  UNL     1      -2.937   0.953  -0.283  1.00  0.00    -0.040 A 
HETATM    7  C1  UNL     1      -3.616   1.003  -1.615  1.00  0.00     0.047 C 
HETATM    8  C15 UNL     1      -3.739   1.588   0.815  1.00  0.00     0.222 A 
HETATM    9  C14 UNL     1      -2.893   1.423   1.998  1.00  0.00     0.015 A 
HETATM   10  F1  UNL     1      -3.991   2.894   0.499  1.00  0.00    -0.240 F 
HETATM   11  C13 UNL     1      -1.780   0.797   1.652  1.00  0.00     0.006 A 
ENDBRANCH   4   5
ENDBRANCH   2   4
ENDBRANCH   1   2
BRANCH   1  12
HETATM   12  N1  UNL     1       1.475  -2.623   0.453  1.00  0.00    -0.090 NA
HETATM   13  H10 UNL     1       1.355  -2.020   1.299  1.00  0.00     0.173 HD
BRANCH  12  14
HETATM   14  S1  UNL     1       3.024  -2.229  -0.196  1.00  0.00     0.263 S 
HETATM   15  O2  UNL     1       4.100  -2.716   0.745  1.00  0.00    -0.204 OA
HETATM   16  O3  UNL     1       3.241  -2.922  -1.530  1.00  0.00    -0.204 OA
BRANCH  14  17
HETATM   17  C7  UNL     1       3.218  -0.515  -0.476  1.00  0.00     0.076 A 
HETATM   18  C8  UNL     1       2.915   0.181  -1.628  1.00  0.00     0.025 A 
HETATM   19  C9  UNL     1       3.128   1.540  -1.690  1.00  0.00     0.002 A 
HETATM   20  C10 UNL     1       3.647   2.231  -0.606  1.00  0.00     0.000 A 
HETATM   21  C11 UNL     1       3.962   1.571   0.561  1.00  0.00     0.002 A 
HETATM   22  C12 UNL     1       3.740   0.208   0.601  1.00  0.00     0.025 A 
ENDBRANCH  14  17
ENDBRANCH  12  14
ENDBRANCH   1  12
TORSDOF 6
