REMARK  7 active torsions:
REMARK  status: ('A' for Active; 'I' for Inactive)
REMARK    1  A    between atoms: S1_3  and  C3_4 
REMARK    2  A    between atoms: C4_5  and  C5_6 
REMARK    3  A    between atoms: C4_5  and  P1_10 
REMARK    4  A    between atoms: C5_6  and  C6_7 
REMARK    5  A    between atoms: P1_10  and  N1_11 
REMARK    6  A    between atoms: N1_11  and  S2_12 
REMARK    7  A    between atoms: S2_12  and  C9_15 
ROOT
HETATM    1  C1  UNL     1      -2.880   4.491   0.615  1.00  0.00     0.025 C 
HETATM    2  C2  UNL     1      -2.495   3.483   1.178  1.00  0.00    -0.041 C 
HETATM    3  S1  UNL     1      -1.906   2.022   1.997  1.00  0.00    -0.051 SA
ENDROOT
BRANCH   3   4
HETATM    4  C3  UNL     1      -2.157   0.572   0.990  1.00  0.00     0.068 C 
HETATM    5  C4  UNL     1      -1.457  -0.290   0.258  1.00  0.00    -0.033 C 
BRANCH   5   6
HETATM    6  C5  UNL     1      -1.984  -1.439  -0.489  1.00  0.00     0.044 C 
BRANCH   6   7
HETATM    7  C6  UNL     1      -3.454  -1.628  -0.395  1.00  0.00    -0.018 C 
HETATM    8  C7  UNL     1      -4.268  -0.485  -0.898  1.00  0.00     0.010 C 
HETATM    9  C8  UNL     1      -3.850  -2.066   1.009  1.00  0.00     0.010 C 
ENDBRANCH   6   7
ENDBRANCH   5   6
BRANCH   5  10
HETATM   10  P1  UNL     1       0.351   0.025   0.202  1.00  0.00    -0.010 P 
HETATM   11  H12 UNL     1       0.888   0.202   1.559  1.00  0.00     0.079 HD
BRANCH  10  12
HETATM   12  N1  UNL     1       1.217  -1.357  -0.518  1.00  0.00    -0.188 NA
HETATM   13  H13 UNL     1       0.601  -2.082  -0.933  1.00  0.00     0.145 HD
BRANCH  12  14
HETATM   14  S2  UNL     1       2.470  -0.842  -1.589  1.00  0.00     0.245 S 
HETATM   15  O1  UNL     1       1.939   0.025  -2.684  1.00  0.00    -0.206 OA
HETATM   16  O2  UNL     1       3.141  -2.016  -2.226  1.00  0.00    -0.206 OA
BRANCH  14  17
HETATM   17  C9  UNL     1       3.626   0.089  -0.665  1.00  0.00     0.074 A 
HETATM   18  C10 UNL     1       3.580   1.448  -0.465  1.00  0.00     0.025 A 
HETATM   19  C11 UNL     1       4.561   2.062   0.289  1.00  0.00     0.002 A 
HETATM   20  C12 UNL     1       5.607   1.344   0.860  1.00  0.00     0.000 A 
HETATM   21  C13 UNL     1       5.681  -0.034   0.676  1.00  0.00     0.002 A 
HETATM   22  C14 UNL     1       4.680  -0.617  -0.086  1.00  0.00     0.025 A 
ENDBRANCH  14  17
ENDBRANCH  12  14
ENDBRANCH  10  12
ENDBRANCH   5  10
ENDBRANCH   3   4
TORSDOF 7
