REMARK  5 active torsions:
REMARK  status: ('A' for Active; 'I' for Inactive)
REMARK    1  A    between atoms: S1_2  and  N1_4 
REMARK    2  A    between atoms: S1_2  and  C8_14 
REMARK    3  A    between atoms: N1_4  and  P1_5 
REMARK    4  A    between atoms: P1_5  and  C1_6 
REMARK    5  A    between atoms: C13_19  and  O3_20 
ROOT
HETATM    1  N1  UNL     1       0.470  -1.947  -0.224  1.00  0.00    -0.192 NA
HETATM    2  H1  UNL     1      -0.072  -2.722  -0.654  1.00  0.00     0.145 HD
ENDROOT
BRANCH   1   3
HETATM    3  S1  UNL     1       1.790  -1.497  -1.237  1.00  0.00     0.247 S 
HETATM    4  O1  UNL     1       1.167  -0.923  -2.500  1.00  0.00    -0.205 OA
HETATM    5  O2  UNL     1       2.593  -2.692  -1.664  1.00  0.00    -0.205 OA
BRANCH   3   6
HETATM    6  C8  UNL     1       2.758  -0.322  -0.398  1.00  0.00     0.107 A 
HETATM    7  C9  UNL     1       2.628   0.227   0.861  1.00  0.00     0.028 A 
HETATM    8  C10 UNL     1       3.547   1.153   1.299  1.00  0.00     0.002 A 
HETATM    9  C11 UNL     1       4.618   1.580   0.544  1.00  0.00     0.003 A 
HETATM   10  C12 UNL     1       4.752   1.034  -0.716  1.00  0.00     0.038 A 
HETATM   11  C13 UNL     1       3.833   0.092  -1.186  1.00  0.00     0.088 A 
BRANCH  11  12
HETATM   12  O3  UNL     1       4.141  -0.343  -2.488  1.00  0.00    -0.359 OA
HETATM   13  H11 UNL     1       3.671   0.125  -3.252  1.00  0.00     0.217 HD
ENDBRANCH  11  12
ENDBRANCH   3   6
ENDBRANCH   1   3
BRANCH   1  14
HETATM   14  P1  UNL     1      -0.514  -0.478   0.082  1.00  0.00    -0.027 P 
HETATM   15  H2  UNL     1      -0.901  -0.492   1.481  1.00  0.00     0.076 HD
BRANCH  14  16
HETATM   16  C1  UNL     1      -2.054  -0.597  -0.942  1.00  0.00     0.094 A 
HETATM   17  C2  UNL     1      -3.348  -0.809  -0.225  1.00  0.00    -0.037 A 
HETATM   18  C3  UNL     1      -4.553  -0.998   0.440  1.00  0.00     0.012 A 
HETATM   19  C7  UNL     1      -3.059   0.464  -0.814  1.00  0.00    -0.034 A 
HETATM   20  C4  UNL     1      -5.457   0.048   0.523  1.00  0.00     0.043 A 
HETATM   21  C5  UNL     1      -5.164   1.270  -0.050  1.00  0.00     0.117 A 
HETATM   22  F1  UNL     1      -6.124   2.210   0.098  1.00  0.00    -0.206 F 
HETATM   23  C6  UNL     1      -3.964   1.477  -0.719  1.00  0.00     0.051 A 
ENDBRANCH  14  16
ENDBRANCH   1  14
TORSDOF 5
