REMARK  4 active torsions:
REMARK  status: ('A' for Active; 'I' for Inactive)
REMARK    1  A    between atoms: C1_2  and  C2_3 
REMARK       I    between atoms: C1_2  and  N1_11 
REMARK    2  A    between atoms: C2_3  and  C3_4 
REMARK    3  A    between atoms: N1_11  and  S1_12 
REMARK    4  A    between atoms: S1_12  and  C9_15 
ROOT
HETATM    1  O1  UNL     1       0.316  -0.228   0.814  1.00  0.00    -0.272 OA
HETATM    2  C1  UNL     1       0.018  -0.918  -0.215  1.00  0.00     0.235 C 
HETATM    3  N1  UNL     1       1.012  -1.669  -0.873  1.00  0.00    -0.253 N 
HETATM    4  H7  UNL     1       0.779  -2.237  -1.715  1.00  0.00     0.181 HD
ENDROOT
BRANCH   3   5
HETATM    5  S1  UNL     1       2.608  -1.612  -0.236  1.00  0.00     0.246 S 
HETATM    6  O2  UNL     1       3.312  -2.869  -0.589  1.00  0.00    -0.204 OA
HETATM    7  O3  UNL     1       2.643  -1.311   1.218  1.00  0.00    -0.204 OA
BRANCH   5   8
HETATM    8  C9  UNL     1       3.412  -0.187  -1.113  1.00  0.00     0.124 A 
HETATM    9  C10 UNL     1       2.675   1.032  -0.835  1.00  0.00     0.041 C 
HETATM   10  C11 UNL     1       3.489   1.264   0.247  1.00  0.00     0.104 C 
HETATM   11  F2  UNL     1       4.196   1.662   1.367  1.00  0.00    -0.210 F 
HETATM   12  C12 UNL     1       4.510   0.467  -0.506  1.00  0.00     0.063 A 
HETATM   13  C13 UNL     1       4.654  -0.506  -1.639  1.00  0.00     0.042 A 
ENDBRANCH   5   8
ENDBRANCH   3   5
BRANCH   2  14
HETATM   14  C2  UNL     1      -1.359  -0.966  -0.762  1.00  0.00     0.142 C 
BRANCH  14  15
HETATM   15  C3  UNL     1      -2.305  -0.133   0.023  1.00  0.00    -0.049 A 
HETATM   16  C4  UNL     1      -2.466   1.202  -0.357  1.00  0.00     0.011 A 
HETATM   17  C5  UNL     1      -3.321   2.065   0.305  1.00  0.00     0.043 A 
HETATM   18  C6  UNL     1      -4.044   1.588   1.384  1.00  0.00     0.116 A 
HETATM   19  F1  UNL     1      -4.896   2.408   2.060  1.00  0.00    -0.206 F 
HETATM   20  C7  UNL     1      -3.870   0.275   1.737  1.00  0.00     0.043 A 
HETATM   21  C8  UNL     1      -3.038  -0.601   1.110  1.00  0.00     0.011 A 
ENDBRANCH  14  15
ENDBRANCH   2  14
TORSDOF 4
