REMARK  3 active torsions:
REMARK  status: ('A' for Active; 'I' for Inactive)
REMARK    1  A    between atoms: C5_5  and  S1_6 
REMARK    2  A    between atoms: S1_6  and  N1_9 
REMARK       I    between atoms: N1_9  and  C6_10 
REMARK    3  A    between atoms: C6_10  and  C7_12 
ROOT
HETATM    1  N1  UNL     1       0.726   0.207   0.680  1.00  0.00    -0.250 N 
HETATM    2  C6  UNL     1       1.821   0.374   1.562  1.00  0.00     0.239 C 
HETATM    3  O3  UNL     1       1.428   0.528   2.768  1.00  0.00    -0.272 OA
HETATM    4  H6  UNL     1       0.918   0.069  -0.352  1.00  0.00     0.182 HD
ENDROOT
BRANCH   1   5
HETATM    5  S1  UNL     1      -0.794   0.264   1.510  1.00  0.00     0.265 S 
HETATM    6  O1  UNL     1      -0.890  -0.756   2.595  1.00  0.00    -0.200 OA
HETATM    7  O2  UNL     1      -0.844   1.619   2.182  1.00  0.00    -0.200 OA
BRANCH   5   8
HETATM    8  C5  UNL     1      -2.132   0.056   0.404  1.00  0.00     0.080 A 
HETATM    9  C4  UNL     1      -2.627  -1.200   0.120  1.00  0.00     0.026 A 
HETATM   10  C3  UNL     1      -3.683  -1.396  -0.749  1.00  0.00     0.008 A 
HETATM   11  C2  UNL     1      -4.288  -0.313  -1.376  1.00  0.00    -0.062 A 
HETATM   12  C1  UNL     1      -5.420  -0.612  -2.299  1.00  0.00     0.048 C 
HETATM   13  C14 UNL     1      -3.801   0.938  -1.100  1.00  0.00     0.008 A 
HETATM   14  C13 UNL     1      -2.741   1.129  -0.226  1.00  0.00     0.026 A 
ENDBRANCH   5   8
ENDBRANCH   1   5
BRANCH   2  15
HETATM   15  C7  UNL     1       3.239   0.369   1.132  1.00  0.00     0.107 A 
HETATM   16  C8  UNL     1       3.569   1.411   0.171  1.00  0.00    -0.012 A 
HETATM   17  C9  UNL     1       4.180   1.467  -0.998  1.00  0.00    -0.001 A 
HETATM   18  C10 UNL     1       4.654   0.177  -1.474  1.00  0.00     0.037 A 
HETATM   19  C11 UNL     1       4.385  -0.813  -0.645  1.00  0.00     0.095 A 
HETATM   20  F1  UNL     1       4.818  -2.049  -1.059  1.00  0.00    -0.211 F 
HETATM   21  C12 UNL     1       3.715  -0.959   0.665  1.00  0.00     0.088 A 
ENDBRANCH   2  15
TORSDOF 3
