REMARK  7 active torsions:
REMARK  status: ('A' for Active; 'I' for Inactive)
REMARK    1  A    between atoms: C2_2  and  B1_3 
REMARK    2  A    between atoms: B1_3  and  C3_4 
REMARK    3  A    between atoms: C4_6  and  C5_7 
REMARK    4  A    between atoms: C6_8  and  S1_9 
REMARK    5  A    between atoms: S1_9  and  N1_12 
REMARK       I    between atoms: N1_12  and  C7_13 
REMARK    6  A    between atoms: C7_13  and  C8_15 
REMARK    7  A    between atoms: C8_15  and  C9_16 
ROOT
HETATM    1  S1  UNL     1       0.845  -0.507  -1.036  1.00  0.00     0.255 S 
HETATM    2  O1  UNL     1       1.697  -0.821  -2.249  1.00  0.00    -0.201 OA
HETATM    3  O2  UNL     1       0.643  -1.706  -0.177  1.00  0.00    -0.201 OA
ENDROOT
BRANCH   1   4
HETATM    4  C6  UNL     1       1.683   0.684  -0.099  1.00  0.00     0.131 C 
HETATM    5  C5  UNL     1       2.999   0.663  -0.096  1.00  0.00     0.015 C 
BRANCH   5   6
HETATM    6  C4  UNL     1       3.649   1.681   0.705  1.00  0.00     0.025 C 
HETATM    7  C3  UNL     1       4.969   1.717   0.753  1.00  0.00     0.047 C 
HETATM    8  F1  UNL     1       6.263   1.971   0.970  1.00  0.00    -0.225 F 
BRANCH   7   9
HETATM    9  B1  UNL     1       5.545   0.552  -0.142  1.00  0.00     0.255 B 
HETATM   10  H4  UNL     1       5.399   0.595  -1.334  1.00  0.00    -0.014 HD
BRANCH   9  11
HETATM   11  C2  UNL     1       5.625  -0.916   0.439  1.00  0.00    -0.085 C 
HETATM   12  C1  UNL     1       6.931  -1.090   0.539  1.00  0.00    -0.005 C 
ENDBRANCH   9  11
ENDBRANCH   7   9
ENDBRANCH   5   6
ENDBRANCH   1   4
BRANCH   1  13
HETATM   13  N1  UNL     1      -0.670   0.021  -1.615  1.00  0.00    -0.251 N 
HETATM   14  C7  UNL     1      -1.804  -0.200  -0.807  1.00  0.00     0.235 C 
HETATM   15  O3  UNL     1      -1.892  -0.738   0.308  1.00  0.00    -0.272 OA
HETATM   16  H8  UNL     1      -0.801   0.505  -2.550  1.00  0.00     0.181 HD
BRANCH  14  17
HETATM   17  C8  UNL     1      -3.126   0.250  -1.290  1.00  0.00     0.142 C 
BRANCH  17  18
HETATM   18  C9  UNL     1      -4.202  -0.051  -0.330  1.00  0.00    -0.049 A 
HETATM   19  C10 UNL     1      -4.927  -1.248  -0.354  1.00  0.00     0.011 A 
HETATM   20  C11 UNL     1      -5.937  -1.475   0.588  1.00  0.00     0.043 A 
HETATM   21  C12 UNL     1      -6.226  -0.523   1.544  1.00  0.00     0.116 A 
HETATM   22  F2  UNL     1      -7.211  -0.758   2.452  1.00  0.00    -0.206 F 
HETATM   23  C13 UNL     1      -5.542   0.695   1.627  1.00  0.00     0.043 A 
HETATM   24  C14 UNL     1      -4.568   0.815   0.652  1.00  0.00     0.011 A 
ENDBRANCH  17  18
ENDBRANCH  14  17
ENDBRANCH   1  13
TORSDOF 7
