REMARK  7 active torsions:
REMARK  status: ('A' for Active; 'I' for Inactive)
REMARK    1  A    between atoms: C2_2  and  C3_3 
REMARK    2  A    between atoms: C3_3  and  C4_4 
REMARK    3  A    between atoms: C4_4  and  C5_5 
REMARK    4  A    between atoms: C5_5  and  C7_7 
REMARK    5  A    between atoms: C7_7  and  C8_8 
REMARK       I    between atoms: C8_8  and  N1_10 
REMARK    6  A    between atoms: N1_10  and  S1_11 
REMARK    7  A    between atoms: S1_11  and  C9_14 
ROOT
HETATM    1  C8  UNL     1       0.471  -0.357  -0.302  1.00  0.00     0.235 C 
HETATM    2  O1  UNL     1       0.614  -0.385   0.966  1.00  0.00    -0.272 OA
HETATM    3  N1  UNL     1      -0.897  -0.145  -0.676  1.00  0.00    -0.250 N 
HETATM    4  H10 UNL     1      -1.129  -0.104  -1.697  1.00  0.00     0.181 HD
ENDROOT
BRANCH   3   5
HETATM    5  S1  UNL     1      -1.883  -0.002   0.751  1.00  0.00     0.265 S 
HETATM    6  O2  UNL     1      -1.754  -1.252   1.584  1.00  0.00    -0.200 OA
HETATM    7  O3  UNL     1      -1.397   1.195   1.510  1.00  0.00    -0.200 OA
BRANCH   5   8
HETATM    8  C9  UNL     1      -3.544   0.254   0.270  1.00  0.00     0.080 A 
HETATM    9  C10 UNL     1      -4.309  -0.871   0.096  1.00  0.00     0.028 A 
HETATM   10  C11 UNL     1      -5.645  -0.841  -0.284  1.00  0.00     0.044 A 
HETATM   11  C12 UNL     1      -6.207   0.408  -0.492  1.00  0.00     0.116 A 
HETATM   12  F1  UNL     1      -7.500   0.465  -0.861  1.00  0.00    -0.206 F 
HETATM   13  C13 UNL     1      -5.452   1.565  -0.322  1.00  0.00     0.044 A 
HETATM   14  C14 UNL     1      -4.117   1.493   0.060  1.00  0.00     0.028 A 
ENDBRANCH   5   8
ENDBRANCH   3   5
BRANCH   1  15
HETATM   15  C7  UNL     1       1.578  -0.520  -1.296  1.00  0.00     0.137 C 
BRANCH  15  16
HETATM   16  C5  UNL     1       2.819  -0.714  -0.502  1.00  0.00    -0.074 C 
HETATM   17  C6  UNL     1       2.858  -1.884   0.410  1.00  0.00     0.044 C 
BRANCH  16  18
HETATM   18  C4  UNL     1       3.848   0.113  -0.598  1.00  0.00     0.011 C 
BRANCH  18  19
HETATM   19  C3  UNL     1       5.036  -0.093   0.177  1.00  0.00     0.051 C 
BRANCH  19  20
HETATM   20  C2  UNL     1       5.795   0.938   0.517  1.00  0.00    -0.155 C 
HETATM   21  C1  UNL     1       6.375   2.110   0.721  1.00  0.00     0.096 C 
ENDBRANCH  19  20
ENDBRANCH  18  19
ENDBRANCH  16  18
ENDBRANCH  15  16
ENDBRANCH   1  15
TORSDOF 7
