REMARK  4 active torsions:
REMARK  status: ('A' for Active; 'I' for Inactive)
REMARK    1  A    between atoms: C1_2  and  C2_3 
REMARK       I    between atoms: C1_2  and  N1_11 
REMARK    2  A    between atoms: C2_3  and  C3_4 
REMARK    3  A    between atoms: N1_11  and  S1_12 
REMARK    4  A    between atoms: S1_12  and  C9_15 
ROOT
HETATM    1  O1  UNL     1      -0.478  -0.918  -0.806  1.00  0.00    -0.272 OA
HETATM    2  C1  UNL     1      -0.494   0.212  -0.204  1.00  0.00     0.235 C 
HETATM    3  N1  UNL     1       0.447   0.422   0.863  1.00  0.00    -0.250 N 
HETATM    4  H7  UNL     1       0.280   1.380   1.233  1.00  0.00     0.181 HD
ENDROOT
BRANCH   3   5
HETATM    5  S1  UNL     1       1.556  -0.869   1.251  1.00  0.00     0.265 S 
HETATM    6  O2  UNL     1       1.006  -2.155   0.686  1.00  0.00    -0.200 OA
HETATM    7  O3  UNL     1       1.743  -0.878   2.713  1.00  0.00    -0.200 OA
BRANCH   5   8
HETATM    8  C9  UNL     1       3.037  -0.460   0.363  1.00  0.00     0.080 A 
HETATM    9  C10 UNL     1       3.999   0.201   1.099  1.00  0.00     0.028 A 
HETATM   10  C11 UNL     1       5.166   0.554   0.462  1.00  0.00     0.044 A 
HETATM   11  C12 UNL     1       5.318   0.229  -0.891  1.00  0.00     0.116 A 
HETATM   12  F2  UNL     1       6.501   0.609  -1.450  1.00  0.00    -0.206 F 
HETATM   13  C13 UNL     1       4.318  -0.439  -1.592  1.00  0.00     0.044 A 
HETATM   14  C14 UNL     1       3.132  -0.805  -0.969  1.00  0.00     0.028 A 
ENDBRANCH   5   8
ENDBRANCH   3   5
BRANCH   2  15
HETATM   15  C2  UNL     1      -1.555   1.003  -0.843  1.00  0.00     0.145 C 
BRANCH  15  16
HETATM   16  C3  UNL     1      -2.906   0.421  -0.638  1.00  0.00    -0.011 A 
HETATM   17  C4  UNL     1      -3.695  -0.298  -1.528  1.00  0.00     0.011 A 
HETATM   18  C5  UNL     1      -4.924  -0.712  -1.072  1.00  0.00     0.001 A 
HETATM   19  C6  UNL     1      -5.396  -0.446   0.210  1.00  0.00     0.003 A 
HETATM   20  C7  UNL     1      -4.602   0.275   1.099  1.00  0.00     0.043 A 
HETATM   21  C8  UNL     1      -3.349   0.700   0.640  1.00  0.00     0.123 A 
HETATM   22  F1  UNL     1      -2.690   1.383   1.605  1.00  0.00    -0.206 F 
ENDBRANCH  15  16
ENDBRANCH   2  15
TORSDOF 4
