REMARK  5 active torsions:
REMARK  status: ('A' for Active; 'I' for Inactive)
REMARK    1  A    between atoms: C3_3  and  S1_4 
REMARK    2  A    between atoms: S1_4  and  N1_6 
REMARK    3  A    between atoms: N1_6  and  C4_7 
REMARK    4  A    between atoms: C4_7  and  C5_8 
REMARK    5  A    between atoms: C5_8  and  C6_9 
ROOT
HETATM    1  N1  UNL     1       0.155  -0.767  -0.445  1.00  0.00    -0.238 NA
HETATM    2  H4  UNL     1      -0.030  -0.197  -1.285  1.00  0.00     0.137 HD
ENDROOT
BRANCH   1   3
HETATM    3  S1  UNL     1      -0.971  -0.353   0.812  1.00  0.00     0.125 S 
HETATM    4  O1  UNL     1      -0.413   0.777   1.625  1.00  0.00    -0.236 OA
BRANCH   3   5
HETATM    5  C3  UNL     1      -2.596  -0.080   0.281  1.00  0.00     0.052 C 
HETATM    6  C2  UNL     1      -3.281   1.044   0.383  1.00  0.00    -0.042 C 
HETATM    7  C1  UNL     1      -2.492   2.126   1.033  1.00  0.00     0.049 C 
HETATM    8  C16 UNL     1      -4.639   1.379  -0.026  1.00  0.00     0.004 C 
HETATM    9  C15 UNL     1      -5.579   0.505  -0.335  1.00  0.00    -0.022 C 
HETATM   10  C14 UNL     1      -5.734  -0.963  -0.417  1.00  0.00     0.054 C 
HETATM   11  C13 UNL     1      -4.423  -1.633  -0.607  1.00  0.00    -0.021 C 
HETATM   12  C12 UNL     1      -3.154  -1.287  -0.329  1.00  0.00     0.019 C 
ENDBRANCH   3   5
ENDBRANCH   1   3
BRANCH   1  13
HETATM   13  C4  UNL     1       1.496  -0.480   0.038  1.00  0.00     0.106 C 
BRANCH  13  14
HETATM   14  C5  UNL     1       2.568  -0.804  -0.981  1.00  0.00     0.054 C 
BRANCH  14  15
HETATM   15  C6  UNL     1       3.875  -0.460  -0.350  1.00  0.00    -0.057 A 
HETATM   16  C7  UNL     1       4.430   0.807  -0.477  1.00  0.00     0.010 A 
HETATM   17  C8  UNL     1       5.616   1.209   0.064  1.00  0.00     0.043 A 
HETATM   18  C9  UNL     1       6.323   0.280   0.797  1.00  0.00     0.116 A 
HETATM   19  F1  UNL     1       7.498   0.665   1.338  1.00  0.00    -0.206 F 
HETATM   20  C10 UNL     1       5.816  -1.009   0.960  1.00  0.00     0.043 A 
HETATM   21  C11 UNL     1       4.613  -1.362   0.392  1.00  0.00     0.010 A 
ENDBRANCH  14  15
ENDBRANCH  13  14
ENDBRANCH   1  13
TORSDOF 5
