REMARK  5 active torsions:
REMARK  status: ('A' for Active; 'I' for Inactive)
REMARK    1  A    between atoms: C1_2  and  C2_3 
REMARK       I    between atoms: C1_2  and  N1_11 
REMARK    2  A    between atoms: C2_3  and  C3_4 
REMARK    3  A    between atoms: N1_11  and  C9_12 
REMARK    4  A    between atoms: C9_12  and  S1_13 
REMARK    5  A    between atoms: S1_13  and  C10_16 
ROOT
HETATM    1  O1  UNL     1      -1.147  -0.020   1.349  1.00  0.00    -0.273 OA
HETATM    2  C1  UNL     1      -0.879  -1.030   0.651  1.00  0.00     0.222 C 
HETATM    3  N1  UNL     1       0.258  -1.816   0.970  1.00  0.00    -0.347 N 
HETATM    4  H7  UNL     1       0.366  -2.636   0.302  1.00  0.00     0.163 HD
ENDROOT
BRANCH   3   5
HETATM    5  C9  UNL     1       1.184  -1.586   2.045  1.00  0.00     0.267 C 
BRANCH   5   6
HETATM    6  S1  UNL     1       1.993   0.002   1.901  1.00  0.00     0.177 S 
HETATM    7  O2  UNL     1       3.015   0.018   3.032  1.00  0.00    -0.222 OA
HETATM    8  O3  UNL     1       1.076   1.143   2.132  1.00  0.00    -0.222 OA
BRANCH   6   9
HETATM    9  C10 UNL     1       2.869   0.102   0.431  1.00  0.00    -0.008 C 
HETATM   10  B1  UNL     1       4.190  -1.132   0.195  1.00  0.00     0.228 B 
HETATM   11  C11 UNL     1       5.486  -0.196  -0.780  1.00  0.00    -0.056 C 
HETATM   12  C12 UNL     1       4.900   0.704  -1.610  1.00  0.00     0.019 C 
HETATM   13 CL1  UNL     1       5.969   1.206  -2.927  1.00  0.00    -0.086 Cl
HETATM   14  C13 UNL     1       3.654   1.271  -1.595  1.00  0.00     0.023 C 
HETATM   15  C14 UNL     1       2.777   0.945  -0.624  1.00  0.00     0.008 C 
ENDBRANCH   6   9
ENDBRANCH   5   6
ENDBRANCH   3   5
BRANCH   2  16
HETATM   16  C2  UNL     1      -1.800  -1.313  -0.471  1.00  0.00     0.141 C 
BRANCH  16  17
HETATM   17  C3  UNL     1      -2.852  -0.263  -0.463  1.00  0.00    -0.049 A 
HETATM   18  C4  UNL     1      -3.966  -0.540   0.285  1.00  0.00     0.011 A 
HETATM   19  C5  UNL     1      -5.021   0.369   0.369  1.00  0.00     0.043 A 
HETATM   20  C6  UNL     1      -4.892   1.554  -0.332  1.00  0.00     0.116 A 
HETATM   21  F1  UNL     1      -5.937   2.415  -0.227  1.00  0.00    -0.206 F 
HETATM   22  C7  UNL     1      -3.776   1.873  -1.103  1.00  0.00     0.043 A 
HETATM   23  C8  UNL     1      -2.748   0.928  -1.154  1.00  0.00     0.011 A 
ENDBRANCH  16  17
ENDBRANCH   2  16
TORSDOF 5
