REMARK  3 active torsions:
REMARK  status: ('A' for Active; 'I' for Inactive)
REMARK       I    between atoms: C1_2  and  N1_3 
REMARK    1  A    between atoms: C1_2  and  C8_13 
REMARK    2  A    between atoms: N1_3  and  S1_4 
REMARK    3  A    between atoms: S1_4  and  C2_6 
ROOT
HETATM    1  O1  UNL     1      -0.144  -1.939  -0.332  1.00  0.00    -0.264 OA
HETATM    2  C1  UNL     1      -0.689  -0.806  -0.542  1.00  0.00     0.287 C 
HETATM    3  N1  UNL     1       0.209   0.084  -1.143  1.00  0.00    -0.266 N 
HETATM    4  H1  UNL     1      -0.104   1.053  -1.373  1.00  0.00     0.180 HD
ENDROOT
BRANCH   3   5
HETATM    5  S1  UNL     1       1.844  -0.251  -1.566  1.00  0.00     0.153 S 
HETATM    6  O2  UNL     1       2.053  -1.549  -2.293  1.00  0.00    -0.230 OA
BRANCH   5   7
HETATM    7  C2  UNL     1       3.004   0.098  -0.316  1.00  0.00     0.052 A 
HETATM    8  C3  UNL     1       3.447  -0.757   0.667  1.00  0.00     0.026 A 
HETATM    9  C4  UNL     1       4.375  -0.364   1.608  1.00  0.00     0.044 A 
HETATM   10  C5  UNL     1       4.895   0.920   1.592  1.00  0.00     0.116 A 
HETATM   11  F1  UNL     1       5.810   1.351   2.499  1.00  0.00    -0.206 F 
HETATM   12  C6  UNL     1       4.468   1.806   0.614  1.00  0.00     0.044 A 
HETATM   13  C7  UNL     1       3.531   1.388  -0.326  1.00  0.00     0.026 A 
ENDBRANCH   5   7
ENDBRANCH   3   5
BRANCH   2  14
HETATM   14  C8  UNL     1      -2.075  -0.530  -0.181  1.00  0.00     0.143 C 
HETATM   15  C9  UNL     1      -2.690   0.615  -0.373  1.00  0.00     0.046 C 
HETATM   16  C10 UNL     1      -4.044   1.059  -0.080  1.00  0.00     0.045 C 
HETATM   17  C11 UNL     1      -5.087   0.317   0.290  1.00  0.00     0.118 C 
HETATM   18  F2  UNL     1      -6.184   1.072   0.475  1.00  0.00    -0.206 F 
HETATM   19  C12 UNL     1      -5.081  -1.130   0.482  1.00  0.00     0.067 C 
HETATM   20  C13 UNL     1      -4.037  -1.928   0.526  1.00  0.00     0.145 C 
HETATM   21  O3  UNL     1      -2.704  -1.644   0.408  1.00  0.00    -0.317 OA
ENDBRANCH   2  14
TORSDOF 3
