REMARK  4 active torsions:
REMARK  status: ('A' for Active; 'I' for Inactive)
REMARK    1  A    between atoms: C1_2  and  C2_3 
REMARK       I    between atoms: C1_2  and  N1_10 
REMARK    2  A    between atoms: C2_3  and  C3_4 
REMARK    3  A    between atoms: N1_10  and  S1_11 
REMARK    4  A    between atoms: S1_11  and  C9_14 
ROOT
HETATM    1  O1  UNL     1      -0.674  -0.948   0.624  1.00  0.00    -0.272 OA
HETATM    2  C1  UNL     1      -0.659  -0.701  -0.608  1.00  0.00     0.235 C 
HETATM    3  N1  UNL     1       0.505  -1.073  -1.368  1.00  0.00    -0.250 N 
HETATM    4  H8  UNL     1       0.589  -0.896  -2.412  1.00  0.00     0.181 HD
ENDROOT
BRANCH   3   5
HETATM    5  S1  UNL     1       1.827  -1.838  -0.572  1.00  0.00     0.265 S 
HETATM    6  O2  UNL     1       2.498  -2.768  -1.556  1.00  0.00    -0.200 OA
HETATM    7  O3  UNL     1       1.366  -2.692   0.574  1.00  0.00    -0.200 OA
BRANCH   5   8
HETATM    8  C9  UNL     1       3.000  -0.708   0.039  1.00  0.00     0.080 A 
HETATM    9  C10 UNL     1       3.016  -0.113   1.289  1.00  0.00     0.027 A 
HETATM   10  C11 UNL     1       4.028   0.770   1.620  1.00  0.00     0.025 A 
HETATM   11  C12 UNL     1       5.047   1.101   0.751  1.00  0.00     0.034 A 
HETATM   12 CL1  UNL     1       6.318   2.223   1.194  1.00  0.00    -0.084 Cl
HETATM   13  C13 UNL     1       5.054   0.522  -0.503  1.00  0.00     0.025 A 
HETATM   14  C14 UNL     1       4.042  -0.359  -0.827  1.00  0.00     0.027 A 
ENDBRANCH   5   8
ENDBRANCH   3   5
BRANCH   2  15
HETATM   15  C2  UNL     1      -1.722  -0.055  -1.402  1.00  0.00     0.142 C 
BRANCH  15  16
HETATM   16  C3  UNL     1      -2.909   0.320  -0.603  1.00  0.00    -0.049 A 
HETATM   17  C4  UNL     1      -3.085   1.532   0.033  1.00  0.00     0.007 A 
HETATM   18  C5  UNL     1      -4.253   1.778   0.763  1.00  0.00     0.001 A 
HETATM   19  C6  UNL     1      -5.253   0.820   0.866  1.00  0.00     0.000 A 
HETATM   20  C7  UNL     1      -5.102  -0.399   0.239  1.00  0.00     0.001 A 
HETATM   21  C8  UNL     1      -3.929  -0.600  -0.474  1.00  0.00     0.007 A 
ENDBRANCH  15  16
ENDBRANCH   2  15
TORSDOF 4
