REMARK  1 active torsions:
REMARK  status: ('A' for Active; 'I' for Inactive)
REMARK    1  A    between atoms: O1_1  and  C1_2 
ROOT
HETATM    1  C1  UNL     1      -5.759  -0.147   0.745  1.00  0.00     0.068 A 
HETATM    2  C2  UNL     1      -5.772  -1.372   0.115  1.00  0.00     0.037 A 
HETATM    3  C3  UNL     1      -4.522  -1.900  -0.211  1.00  0.00     0.014 A 
HETATM    4  C4  UNL     1      -3.294  -1.325   0.032  1.00  0.00    -0.006 A 
HETATM    5  C5  UNL     1      -3.369  -0.083   0.673  1.00  0.00     0.088 A 
HETATM    6  C6  UNL     1      -4.566   0.484   1.017  1.00  0.00     0.074 A 
HETATM    7  O2  UNL     1      -2.224   0.668   1.010  1.00  0.00    -0.289 OA
HETATM    8  C7  UNL     1      -1.001   0.741   0.314  1.00  0.00     0.199 C 
HETATM    9  N1  UNL     1      -0.608   1.956   0.584  1.00  0.00    -0.216 NA
HETATM   10  C8  UNL     1       0.513   2.772   0.258  1.00  0.00     0.232 C 
HETATM   11  N2  UNL     1       1.730   2.475  -0.048  1.00  0.00    -0.250 NA
HETATM   12  C9  UNL     1       2.603   1.333  -0.229  1.00  0.00     0.132 C 
HETATM   13  C10 UNL     1       3.789   1.824  -0.991  1.00  0.00     0.086 C 
HETATM   14  C11 UNL     1       4.992   0.995  -0.919  1.00  0.00     0.021 C 
HETATM   15  C12 UNL     1       5.430  -0.130  -0.369  1.00  0.00     0.134 C 
HETATM   16  F1  UNL     1       6.702  -0.600  -0.551  1.00  0.00    -0.205 F 
HETATM   17  C13 UNL     1       4.533  -0.941   0.486  1.00  0.00     0.068 C 
HETATM   18 CL1  UNL     1       5.032  -2.627   0.652  1.00  0.00    -0.081 Cl
HETATM   19  C14 UNL     1       3.416  -0.602   1.147  1.00  0.00     0.005 C 
HETATM   20  C15 UNL     1       2.858   0.776   1.116  1.00  0.00     0.084 C 
HETATM   21  N3  UNL     1       1.997   0.269  -1.015  1.00  0.00    -0.369 N 
HETATM   22  C16 UNL     1       0.801  -0.496  -1.009  1.00  0.00     0.119 C 
HETATM   23  C17 UNL     1      -0.402  -0.324  -0.486  1.00  0.00     0.097 C 
HETATM   24  N4  UNL     1      -1.044  -1.517  -0.914  1.00  0.00    -0.381 N 
HETATM   25  C18 UNL     1      -2.224  -2.214  -0.472  1.00  0.00     0.161 C 
HETATM   26  H12 UNL     1       2.582  -0.064  -1.840  1.00  0.00     0.161 HD
HETATM   27  H14 UNL     1      -0.538  -1.971  -1.722  1.00  0.00     0.160 HD
ENDROOT
BRANCH   1  28
HETATM   28  O1  UNL     1      -6.976   0.420   1.089  1.00  0.00    -0.361 OA
HETATM   29  H1  UNL     1      -7.203   1.349   0.775  1.00  0.00     0.217 HD
ENDBRANCH   1  28
TORSDOF 1
