REMARK  3 active torsions:
REMARK  status: ('A' for Active; 'I' for Inactive)
REMARK    1  A    between atoms: C2_2  and  C3_3 
REMARK    2  A    between atoms: C10_15  and  N6_16 
REMARK    3  A    between atoms: N6_16  and  C11_17 
ROOT
HETATM    1  C3  UNL     1       3.948   0.266   0.090  1.00  0.00     0.035 C 
HETATM    2  C4  UNL     1       3.495  -0.429  -0.973  1.00  0.00     0.058 C 
HETATM    3  C5  UNL     1       2.286  -0.325  -1.828  1.00  0.00     0.058 A 
HETATM    4  C6  UNL     1       1.039  -0.004  -1.385  1.00  0.00     0.056 A 
HETATM    5  N1  UNL     1       1.224  -0.269  -2.793  1.00  0.00    -0.355 N 
HETATM    6  C7  UNL     1       0.370   0.334  -0.081  1.00  0.00     0.180 A 
HETATM    7  C8  UNL     1       0.997   1.573   0.444  1.00  0.00     0.164 A 
HETATM    8  N2  UNL     1       2.183   2.007   0.797  1.00  0.00    -0.158 NA
HETATM    9  N3  UNL     1       3.435   1.384   0.807  1.00  0.00    -0.280 N 
HETATM   10  N4  UNL     1       0.286   2.800   0.728  1.00  0.00    -0.224 NA
HETATM   11  C9  UNL     1      -0.983   2.798   0.502  1.00  0.00     0.237 A 
HETATM   12  N5  UNL     1      -1.692   1.672  -0.001  1.00  0.00    -0.227 NA
HETATM   13  C10 UNL     1      -1.062   0.550  -0.264  1.00  0.00     0.123 A 
HETATM   14  H5  UNL     1       1.007  -0.390  -3.804  1.00  0.00     0.166 HD
HETATM   15  H7  UNL     1       4.210   1.710   1.407  1.00  0.00     0.189 HD
ENDROOT
BRANCH  13  16
HETATM   16  N6  UNL     1      -1.892  -0.499  -0.768  1.00  0.00    -0.343 N 
HETATM   17  H9  UNL     1      -1.498  -1.161  -1.502  1.00  0.00     0.167 HD
BRANCH  16  18
HETATM   18  C11 UNL     1      -3.240  -0.637  -0.267  1.00  0.00     0.035 A 
HETATM   19  C12 UNL     1      -4.324   0.046  -0.784  1.00  0.00     0.029 A 
HETATM   20  C13 UNL     1      -5.590  -0.153  -0.237  1.00  0.00     0.004 A 
HETATM   21  C14 UNL     1      -5.705  -1.043   0.817  1.00  0.00     0.024 A 
HETATM   22  C15 UNL     1      -4.620  -1.731   1.339  1.00  0.00     0.036 A 
HETATM   23 CL1  UNL     1      -4.862  -2.836   2.671  1.00  0.00    -0.084 Cl
HETATM   24  C16 UNL     1      -3.349  -1.533   0.793  1.00  0.00     0.053 A 
ENDBRANCH  16  18
ENDBRANCH  13  16
BRANCH   1  25
HETATM   25  C2  UNL     1       5.185  -0.384   0.422  1.00  0.00     0.047 C 
HETATM   26  C1  UNL     1       6.320  -0.802   0.906  1.00  0.00     0.012 C 
ENDBRANCH   1  25
TORSDOF 3
