REMARK  5 active torsions:
REMARK  status: ('A' for Active; 'I' for Inactive)
REMARK    1  A    between atoms: C1_2  and  C2_3 
REMARK       I    between atoms: C1_2  and  N1_11 
REMARK    2  A    between atoms: C2_3  and  C3_4 
REMARK    3  A    between atoms: N1_11  and  S1_12 
REMARK    4  A    between atoms: S1_12  and  C9_15 
REMARK    5  A    between atoms: C9_15  and  C10_16 
ROOT
HETATM    1  O1  UNL     1      -0.720  -1.114  -1.405  1.00  0.00    -0.272 OA
HETATM    2  C1  UNL     1      -1.166  -1.213  -0.209  1.00  0.00     0.235 C 
HETATM    3  N1  UNL     1      -0.422  -0.651   0.896  1.00  0.00    -0.254 N 
HETATM    4  H7  UNL     1      -0.812  -0.735   1.884  1.00  0.00     0.181 HD
ENDROOT
BRANCH   3   5
HETATM    5  S1  UNL     1       1.053   0.213   1.114  1.00  0.00     0.236 S 
HETATM    6  O2  UNL     1       0.748   1.655   1.428  1.00  0.00    -0.205 OA
HETATM    7  O3  UNL     1       1.901  -0.409   2.174  1.00  0.00    -0.205 OA
BRANCH   5   8
HETATM    8  C9  UNL     1       1.997   0.218  -0.404  1.00  0.00     0.191 C 
BRANCH   8   9
HETATM    9  C10 UNL     1       3.241   1.005  -0.226  1.00  0.00    -0.002 C 
HETATM   10  C11 UNL     1       4.537   0.808  -0.269  1.00  0.00    -0.040 A 
HETATM   11  C12 UNL     1       5.896   1.394  -0.138  1.00  0.00     0.068 A 
HETATM   12  C14 UNL     1       5.162  -0.510  -0.513  1.00  0.00     0.013 A 
HETATM   13  C13 UNL     1       6.361   0.029  -0.392  1.00  0.00    -0.003 A 
HETATM   14 BR1  UNL     1       4.919  -2.374  -0.873  1.00  0.00    -0.051 Br
ENDBRANCH   8   9
ENDBRANCH   5   8
ENDBRANCH   3   5
BRANCH   2  15
HETATM   15  C2  UNL     1      -2.418  -1.854   0.206  1.00  0.00     0.142 C 
BRANCH  15  16
HETATM   16  C3  UNL     1      -3.591  -0.955   0.060  1.00  0.00    -0.049 A 
HETATM   17  C4  UNL     1      -4.929  -1.265   0.098  1.00  0.00     0.011 A 
HETATM   18  C5  UNL     1      -5.849  -0.222  -0.021  1.00  0.00     0.043 A 
HETATM   19  C6  UNL     1      -5.456   1.086  -0.175  1.00  0.00     0.116 A 
HETATM   20  F1  UNL     1      -6.368   2.071  -0.279  1.00  0.00    -0.206 F 
HETATM   21  C7  UNL     1      -4.124   1.440  -0.218  1.00  0.00     0.043 A 
HETATM   22  C8  UNL     1      -3.217   0.393  -0.099  1.00  0.00     0.011 A 
ENDBRANCH  15  16
ENDBRANCH   2  15
TORSDOF 5
