REMARK  3 active torsions:
REMARK  status: ('A' for Active; 'I' for Inactive)
REMARK    1  A    between atoms: O1_2  and  C2_3 
REMARK    2  A    between atoms: C10_14  and  N3_15 
REMARK    3  A    between atoms: N3_15  and  C11_16 
ROOT
HETATM    1  C2  UNL     1       4.746   0.280   0.063  1.00  0.00     0.070 A 
HETATM    2  C3  UNL     1       4.423  -0.322  -1.126  1.00  0.00     0.037 A 
HETATM    3  C4  UNL     1       3.099  -0.401  -1.504  1.00  0.00     0.014 A 
HETATM    4  C5  UNL     1       2.042   0.102  -0.743  1.00  0.00    -0.006 A 
HETATM    5  C6  UNL     1       2.405   0.699   0.444  1.00  0.00     0.088 A 
HETATM    6  C7  UNL     1       3.719   0.797   0.856  1.00  0.00     0.074 A 
HETATM    7  O2  UNL     1       1.492   1.255   1.330  1.00  0.00    -0.289 OA
HETATM    8  C8  UNL     1       0.088   1.196   1.335  1.00  0.00     0.202 A 
HETATM    9  N1  UNL     1      -0.450   1.912   2.337  1.00  0.00    -0.215 NA
HETATM   10  C9  UNL     1      -1.784   1.930   2.442  1.00  0.00     0.238 A 
HETATM   11  N2  UNL     1      -2.622   1.265   1.591  1.00  0.00    -0.222 NA
HETATM   12  C10 UNL     1      -2.140   0.534   0.573  1.00  0.00     0.156 A 
HETATM   13  C16 UNL     1      -0.766   0.512   0.461  1.00  0.00     0.128 A 
HETATM   14  N4  UNL     1      -0.373  -0.288  -0.636  1.00  0.00    -0.379 N 
HETATM   15  C17 UNL     1       0.804  -0.184  -1.495  1.00  0.00     0.161 C 
HETATM   16  H12 UNL     1      -1.073  -1.053  -0.803  1.00  0.00     0.160 HD
ENDROOT
BRANCH  12  17
HETATM   17  N3  UNL     1      -3.033  -0.132  -0.283  1.00  0.00    -0.362 N 
HETATM   18  H8  UNL     1      -2.956  -0.723  -1.107  1.00  0.00     0.162 HD
BRANCH  17  19
HETATM   19  C11 UNL     1      -4.431   0.049   0.055  1.00  0.00     0.134 A 
HETATM   20  C12 UNL     1      -4.687  -0.462   1.450  1.00  0.00     0.046 A 
HETATM   21  C13 UNL     1      -5.622  -1.401   1.451  1.00  0.00     0.136 A 
HETATM   22  F1  UNL     1      -6.291  -2.231   2.316  1.00  0.00    -0.205 F 
HETATM   23  C14 UNL     1      -6.062  -1.594   0.071  1.00  0.00     0.070 A 
HETATM   24 CL1  UNL     1      -7.225  -2.612  -0.762  1.00  0.00    -0.081 Cl
HETATM   25  C15 UNL     1      -5.371  -0.756  -0.718  1.00  0.00     0.029 A 
ENDBRANCH  17  19
ENDBRANCH  12  17
BRANCH   1  26
HETATM   26  O1  UNL     1       6.035   0.428   0.566  1.00  0.00    -0.356 OA
HETATM   27  C1  UNL     1       7.089  -0.103  -0.251  1.00  0.00     0.210 C 
ENDBRANCH   1  26
TORSDOF 3
