REMARK  8 active torsions:
REMARK  status: ('A' for Active; 'I' for Inactive)
REMARK    1  A    between atoms: C2_2  and  C3_3 
REMARK    2  A    between atoms: C3_3  and  C7_9 
REMARK    3  A    between atoms: C4_4  and  C5_5 
REMARK    4  A    between atoms: C5_5  and  N1_6 
REMARK    5  A    between atoms: C7_9  and  C8_10 
REMARK       I    between atoms: C8_10  and  N2_12 
REMARK    6  A    between atoms: N2_12  and  S1_13 
REMARK    7  A    between atoms: S1_13  and  C9_16 
REMARK    8  A    between atoms: C10_17  and  C11_18 
ROOT
HETATM    1  C8  UNL     1       1.475  -0.099   0.317  1.00  0.00     0.235 C 
HETATM    2  O1  UNL     1       1.167  -1.309   0.240  1.00  0.00    -0.272 OA
HETATM    3  N2  UNL     1       0.539   0.576   1.141  1.00  0.00    -0.251 N 
HETATM    4  H10 UNL     1       0.560   1.613   1.379  1.00  0.00     0.181 HD
ENDROOT
BRANCH   1   5
HETATM    5  C7  UNL     1       2.586   0.689  -0.277  1.00  0.00     0.142 C 
BRANCH   5   6
HETATM    6  C3  UNL     1       3.466  -0.162  -1.112  1.00  0.00    -0.052 C 
HETATM    7  C4  UNL     1       4.751  -0.358  -0.906  1.00  0.00     0.002 C 
BRANCH   6   8
HETATM    8  C2  UNL     1       2.854  -0.831  -2.252  1.00  0.00    -0.003 C 
HETATM    9  C1  UNL     1       1.584  -0.709  -2.554  1.00  0.00     0.012 C 
ENDBRANCH   6   8
BRANCH   7  10
HETATM   10  C5  UNL     1       5.636   0.166   0.137  1.00  0.00     0.178 C 
BRANCH  10  11
HETATM   11  N1  UNL     1       6.725   0.937  -0.390  1.00  0.00    -0.270 NA
HETATM   12  C6  UNL     1       6.587   1.941  -1.169  1.00  0.00     0.299 C 
HETATM   13  F1  UNL     1       5.687   2.717  -1.817  1.00  0.00    -0.199 F 
ENDBRANCH  10  11
ENDBRANCH   7  10
ENDBRANCH   5   6
ENDBRANCH   1   5
BRANCH   3  14
HETATM   14  S1  UNL     1      -0.722  -0.389   1.798  1.00  0.00     0.255 S 
HETATM   15  O2  UNL     1      -0.287  -1.808   2.083  1.00  0.00    -0.201 OA
HETATM   16  O3  UNL     1      -1.169   0.165   3.134  1.00  0.00    -0.201 OA
BRANCH  14  17
HETATM   17  C9  UNL     1      -2.130  -0.461   0.776  1.00  0.00     0.131 C 
HETATM   18  C10 UNL     1      -3.432  -0.320   0.968  1.00  0.00     0.014 C 
BRANCH  18  19
HETATM   19  C11 UNL     1      -4.452  -0.426  -0.069  1.00  0.00     0.003 C 
HETATM   20  C12 UNL     1      -5.673  -0.250   0.355  1.00  0.00    -0.088 C 
HETATM   21  C13 UNL     1      -5.818   0.026   1.814  1.00  0.00     0.043 C 
HETATM   22  C14 UNL     1      -6.699  -0.361  -0.714  1.00  0.00     0.043 C 
ENDBRANCH  18  19
ENDBRANCH  14  17
ENDBRANCH   3  14
TORSDOF 8
