REMARK  5 active torsions:
REMARK  status: ('A' for Active; 'I' for Inactive)
REMARK    1  A    between atoms: C5_5  and  S1_6 
REMARK    2  A    between atoms: S1_6  and  N1_8 
REMARK    3  A    between atoms: N1_8  and  C6_9 
REMARK    4  A    between atoms: C11_15  and  O2_16 
REMARK    5  A    between atoms: O2_16  and  O3_17 
ROOT
HETATM    1  C6  UNL     1       1.785   0.195   0.307  1.00  0.00     0.024 C 
HETATM    2  C7  UNL     1       1.393  -0.683  -0.593  1.00  0.00     0.027 C 
HETATM    3  C8  UNL     1       2.319  -1.376  -1.506  1.00  0.00     0.026 C 
HETATM    4  C9  UNL     1       3.639  -1.463  -1.463  1.00  0.00     0.036 C 
HETATM    5 CL1  UNL     1       4.433  -2.391  -2.745  1.00  0.00    -0.084 Cl
HETATM    6  C10 UNL     1       4.524  -0.875  -0.471  1.00  0.00     0.059 C 
HETATM    7  C11 UNL     1       4.252   0.053   0.433  1.00  0.00     0.091 C 
HETATM    8  C12 UNL     1       3.037   0.785   0.751  1.00  0.00     0.125 C 
ENDROOT
BRANCH   1   9
HETATM    9  N1  UNL     1       0.629   0.655   1.002  1.00  0.00    -0.305 N 
HETATM   10  H6  UNL     1       0.438   0.067   1.861  1.00  0.00     0.176 HD
BRANCH   9  11
HETATM   11  S1  UNL     1      -0.656   1.812   1.048  1.00  0.00     0.150 S 
HETATM   12  O1  UNL     1      -0.410   3.043   0.224  1.00  0.00    -0.230 OA
BRANCH  11  13
HETATM   13  C5  UNL     1      -2.185   1.060   0.525  1.00  0.00     0.052 A 
HETATM   14  C4  UNL     1      -2.889   0.507   1.592  1.00  0.00     0.023 A 
HETATM   15  C3  UNL     1      -4.111  -0.127   1.391  1.00  0.00     0.008 A 
HETATM   16  C2  UNL     1      -4.605  -0.190   0.083  1.00  0.00    -0.062 A 
HETATM   17  C1  UNL     1      -5.909  -0.862  -0.167  1.00  0.00     0.048 C 
HETATM   18  C14 UNL     1      -3.888   0.366  -0.956  1.00  0.00     0.008 A 
HETATM   19  C13 UNL     1      -2.675   0.996  -0.764  1.00  0.00     0.023 A 
ENDBRANCH  11  13
ENDBRANCH   9  11
ENDBRANCH   1   9
BRANCH   7  20
HETATM   20  O2  UNL     1       5.372   0.351   1.202  1.00  0.00    -0.204 OA
BRANCH  20  21
HETATM   21  O3  UNL     1       6.587   0.374   0.615  1.00  0.00    -0.245 OA
HETATM   22  H10 UNL     1       7.231   0.431   1.358  1.00  0.00     0.254 HD
ENDBRANCH  20  21
ENDBRANCH   7  20
TORSDOF 5
