REMARK  5 active torsions:
REMARK  status: ('A' for Active; 'I' for Inactive)
REMARK    1  A    between atoms: C1_2  and  C2_3 
REMARK       I    between atoms: C1_2  and  N1_11 
REMARK    2  A    between atoms: C2_3  and  C3_4 
REMARK    3  A    between atoms: N1_11  and  S1_12 
REMARK    4  A    between atoms: S1_12  and  N2_15 
REMARK    5  A    between atoms: N2_15  and  C9_16 
ROOT
HETATM    1  O1  UNL     1      -1.167   0.667   1.386  1.00  0.00    -0.272 OA
HETATM    2  C1  UNL     1      -0.854   1.010   0.196  1.00  0.00     0.236 C 
HETATM    3  N1  UNL     1       0.496   1.436   0.052  1.00  0.00    -0.237 N 
HETATM    4  H7  UNL     1       0.794   1.726  -0.907  1.00  0.00     0.183 HD
ENDROOT
BRANCH   3   5
HETATM    5  S1  UNL     1       1.499   1.431   1.467  1.00  0.00     0.326 S 
HETATM    6  O2  UNL     1       2.428   2.599   1.355  1.00  0.00    -0.182 OA
HETATM    7  O3  UNL     1       0.618   1.658   2.662  1.00  0.00    -0.182 OA
BRANCH   5   8
HETATM    8  N2  UNL     1       2.307  -0.068   1.670  1.00  0.00    -0.268 N 
HETATM    9  H8  UNL     1       2.213  -0.729   2.472  1.00  0.00     0.180 HD
BRANCH   8  10
HETATM   10  C9  UNL     1       3.213  -0.521   0.679  1.00  0.00     0.043 A 
HETATM   11  C10 UNL     1       4.157   0.306   0.109  1.00  0.00     0.030 A 
HETATM   12  C11 UNL     1       5.057  -0.095  -0.857  1.00  0.00     0.002 A 
HETATM   13  C12 UNL     1       5.027  -1.401  -1.292  1.00  0.00     0.000 A 
HETATM   14  C13 UNL     1       4.092  -2.280  -0.748  1.00  0.00     0.002 A 
HETATM   15  C14 UNL     1       3.223  -1.824   0.209  1.00  0.00     0.030 A 
ENDBRANCH   8  10
ENDBRANCH   5   8
ENDBRANCH   3   5
BRANCH   2  16
HETATM   16  C2  UNL     1      -1.826   0.962  -0.927  1.00  0.00     0.142 C 
BRANCH  16  17
HETATM   17  C3  UNL     1      -3.116   0.476  -0.415  1.00  0.00    -0.049 A 
HETATM   18  C4  UNL     1      -3.327  -0.897  -0.442  1.00  0.00     0.009 A 
HETATM   19  C5  UNL     1      -4.530  -1.431   0.029  1.00  0.00     0.024 A 
HETATM   20  C6  UNL     1      -5.500  -0.563   0.520  1.00  0.00     0.034 A 
HETATM   21 CL1  UNL     1      -7.050  -1.122   1.137  1.00  0.00    -0.084 Cl
HETATM   22  C7  UNL     1      -5.285   0.808   0.544  1.00  0.00     0.024 A 
HETATM   23  C8  UNL     1      -4.093   1.326   0.077  1.00  0.00     0.009 A 
ENDBRANCH  16  17
ENDBRANCH   2  16
TORSDOF 5
