REMARK  3 active torsions:
REMARK  status: ('A' for Active; 'I' for Inactive)
REMARK    1  A    between atoms: N1_1  and  C1_2 
REMARK    2  A    between atoms: C1_2  and  C2_3 
REMARK    3  A    between atoms: C3_4  and  C4_5 
ROOT
HETATM    1  C4  UNL     1       2.312   0.895  -0.734  1.00  0.00     0.035 C 
HETATM    2  C5  UNL     1       1.523  -0.256  -0.830  1.00  0.00     0.088 C 
HETATM    3  C6  UNL     1       0.136   0.294  -0.957  1.00  0.00     0.237 C 
HETATM    4  O1  UNL     1      -0.618  -0.174   0.112  1.00  0.00    -0.349 OA
HETATM    5  C7  UNL     1      -1.977   0.225   0.184  1.00  0.00     0.194 A 
HETATM    6  C8  UNL     1      -2.798  -0.513  -0.724  1.00  0.00     0.097 A 
HETATM    7  C9  UNL     1      -3.312   0.412   0.098  1.00  0.00     0.133 A 
HETATM    8  N2  UNL     1      -3.852   1.331   0.910  1.00  0.00    -0.263 NA
HETATM    9  C10 UNL     1      -2.812   1.894   1.670  1.00  0.00     0.225 A 
HETATM   10  N3  UNL     1      -1.754   1.202   1.203  1.00  0.00    -0.241 NA
HETATM   11  C11 UNL     1      -4.706  -0.177  -0.137  1.00  0.00     0.008 C 
HETATM   12  C12 UNL     1      -4.784  -1.570   0.106  1.00  0.00    -0.016 C 
HETATM   13  C13 UNL     1      -3.434  -2.093   0.514  1.00  0.00     0.081 C 
HETATM   14  C14 UNL     1      -2.822  -3.196   0.882  1.00  0.00     0.092 C 
HETATM   15  F1  UNL     1      -2.878  -4.548   1.162  1.00  0.00    -0.281 F 
HETATM   16  C15 UNL     1      -1.430  -3.453   1.166  1.00  0.00     0.235 C 
HETATM   17 CL1  UNL     1      -1.119  -5.228   0.875  1.00  0.00    -0.030 Cl
HETATM   18  C16 UNL     1      -0.411  -2.780   0.423  1.00  0.00    -0.047 C 
HETATM   19  C17 UNL     1       0.433  -2.210  -0.190  1.00  0.00     0.061 C 
HETATM   20  O2  UNL     1       1.380  -1.553  -0.878  1.00  0.00    -0.263 OA
ENDROOT
BRANCH   1  21
HETATM   21  C3  UNL     1       3.752   1.133  -0.586  1.00  0.00     0.000 C 
HETATM   22  C2  UNL     1       4.149   2.400  -0.521  1.00  0.00     0.003 C 
BRANCH  22  23
HETATM   23  C1  UNL     1       5.380   3.135  -0.384  1.00  0.00     0.294 C 
BRANCH  23  24
HETATM   24  N1  UNL     1       6.499   2.213  -0.279  1.00  0.00     0.081 N 
HETATM   25  H1  UNL     1       7.339   2.700   0.098  1.00  0.00     0.313 HD
HETATM   26  H2  UNL     1       6.705   1.852  -1.240  1.00  0.00     0.313 HD
ENDBRANCH  23  24
ENDBRANCH  22  23
ENDBRANCH   1  21
TORSDOF 3
