REMARK  4 active torsions:
REMARK  status: ('A' for Active; 'I' for Inactive)
REMARK    1  A    between atoms: C6_6  and  S1_7 
REMARK    2  A    between atoms: S1_7  and  N1_10 
REMARK       I    between atoms: N1_10  and  C7_11 
REMARK    3  A    between atoms: C7_11  and  C8_13 
REMARK    4  A    between atoms: C8_13  and  C9_14 
ROOT
HETATM    1  N1  UNL     1       0.775   0.127  -0.535  1.00  0.00    -0.250 N 
HETATM    2  C7  UNL     1       2.147   0.101  -0.166  1.00  0.00     0.235 C 
HETATM    3  O3  UNL     1       2.296   0.468   1.049  1.00  0.00    -0.272 OA
HETATM    4  H8  UNL     1       0.480  -0.148  -1.506  1.00  0.00     0.181 HD
ENDROOT
BRANCH   1   5
HETATM    5  S1  UNL     1      -0.329   0.631   0.700  1.00  0.00     0.261 S 
HETATM    6  O1  UNL     1       0.067   2.011   1.143  1.00  0.00    -0.200 OA
HETATM    7  O2  UNL     1      -0.238  -0.266   1.875  1.00  0.00    -0.200 OA
BRANCH   5   8
HETATM    8  C6  UNL     1      -1.980   0.621   0.122  1.00  0.00     0.058 A 
HETATM    9  C5  UNL     1      -2.389   1.756  -0.423  1.00  0.00     0.020 A 
HETATM   10  C4  UNL     1      -3.751   1.859  -0.939  1.00  0.00    -0.002 A 
HETATM   11  C3  UNL     1      -4.507   0.778  -0.826  1.00  0.00    -0.022 A 
HETATM   12  C2  UNL     1      -4.150  -0.558  -0.230  1.00  0.00     0.009 A 
HETATM   13  C1  UNL     1      -5.132  -0.942   0.849  1.00  0.00     0.014 C 
HETATM   14  C14 UNL     1      -2.751  -0.614   0.284  1.00  0.00     0.060 A 
ENDBRANCH   5   8
ENDBRANCH   1   5
BRANCH   2  15
HETATM   15  C8  UNL     1       3.166  -0.315  -1.147  1.00  0.00     0.143 C 
BRANCH  15  16
HETATM   16  C9  UNL     1       4.497  -0.246  -0.489  1.00  0.00    -0.036 C 
HETATM   17  C10 UNL     1       5.574   0.460  -0.788  1.00  0.00     0.005 C 
HETATM   18  C11 UNL     1       6.653   0.067  -0.132  1.00  0.00     0.045 C 
HETATM   19 CL1  UNL     1       8.300   0.535  -0.454  1.00  0.00    -0.083 Cl
HETATM   20  C12 UNL     1       6.138  -0.831   0.903  1.00  0.00     0.025 C 
HETATM   21  C13 UNL     1       4.827  -1.033   0.702  1.00  0.00     0.010 C 
ENDBRANCH  15  16
ENDBRANCH   2  15
TORSDOF 4
