REMARK  5 active torsions:
REMARK  status: ('A' for Active; 'I' for Inactive)
REMARK       I    between atoms: C1_2  and  N1_3 
REMARK    1  A    between atoms: C1_2  and  O4_13 
REMARK    2  A    between atoms: N1_3  and  S1_4 
REMARK    3  A    between atoms: S1_4  and  C2_7 
REMARK    4  A    between atoms: O4_13  and  C8_14 
REMARK    5  A    between atoms: C8_14  and  C9_15 
ROOT
HETATM    1  O1  UNL     1       0.465   2.280  -0.843  1.00  0.00    -0.237 OA
HETATM    2  C1  UNL     1       0.354   1.109  -0.399  1.00  0.00     0.374 C 
HETATM    3  N1  UNL     1      -0.867   0.506  -0.004  1.00  0.00    -0.226 N 
HETATM    4  H1  UNL     1      -0.858  -0.487   0.358  1.00  0.00     0.184 HD
ENDROOT
BRANCH   2   5
HETATM    5  O4  UNL     1       1.552   0.389  -0.307  1.00  0.00    -0.297 OA
BRANCH   5   6
HETATM    6  C8  UNL     1       2.789   0.966  -0.695  1.00  0.00     0.239 C 
BRANCH   6   7
HETATM    7  C9  UNL     1       3.921   0.011  -0.508  1.00  0.00     0.058 A 
HETATM    8  C10 UNL     1       3.871  -1.298  -0.022  1.00  0.00     0.031 A 
HETATM    9  C11 UNL     1       5.054  -2.001   0.065  1.00  0.00     0.027 A 
HETATM   10  C12 UNL     1       6.249  -1.424  -0.317  1.00  0.00     0.051 A 
HETATM   11 CL1  UNL     1       7.691  -2.411  -0.163  1.00  0.00    -0.083 Cl
HETATM   12  C13 UNL     1       6.267  -0.110  -0.800  1.00  0.00     0.140 A 
HETATM   13  N2  UNL     1       5.108   0.549  -0.875  1.00  0.00    -0.262 NA
ENDBRANCH   6   7
ENDBRANCH   5   6
ENDBRANCH   2   5
BRANCH   3  14
HETATM   14  S1  UNL     1      -2.297   1.460  -0.148  1.00  0.00     0.267 S 
HETATM   15  O2  UNL     1      -2.380   1.948  -1.560  1.00  0.00    -0.200 OA
HETATM   16  O3  UNL     1      -2.160   2.674   0.758  1.00  0.00    -0.200 OA
BRANCH  14  17
HETATM   17  C2  UNL     1      -3.710   0.605   0.367  1.00  0.00     0.080 A 
HETATM   18  C3  UNL     1      -4.374  -0.118  -0.604  1.00  0.00     0.025 A 
HETATM   19  C4  UNL     1      -5.525  -0.861  -0.357  1.00  0.00     0.002 A 
HETATM   20  C5  UNL     1      -5.975  -0.830   0.946  1.00  0.00     0.000 A 
HETATM   21  C6  UNL     1      -5.341  -0.119   1.954  1.00  0.00     0.002 A 
HETATM   22  C7  UNL     1      -4.204   0.594   1.634  1.00  0.00     0.025 A 
ENDBRANCH  14  17
ENDBRANCH   3  14
TORSDOF 5
