REMARK  4 active torsions:
REMARK  status: ('A' for Active; 'I' for Inactive)
REMARK    1  A    between atoms: C1_2  and  C2_3 
REMARK       I    between atoms: C1_2  and  N1_11 
REMARK    2  A    between atoms: C2_3  and  C3_4 
REMARK    3  A    between atoms: N1_11  and  S1_12 
REMARK    4  A    between atoms: S1_12  and  C8_15 
ROOT
HETATM    1  O1  UNL     1       0.966  -0.405  -0.818  1.00  0.00    -0.272 OA
HETATM    2  C1  UNL     1       0.741  -0.748   0.367  1.00  0.00     0.235 C 
HETATM    3  N1  UNL     1      -0.395  -1.424   0.878  1.00  0.00    -0.250 N 
HETATM    4  H6  UNL     1      -0.457  -1.653   1.903  1.00  0.00     0.181 HD
ENDROOT
BRANCH   3   5
HETATM    5  S1  UNL     1      -1.688  -1.877  -0.176  1.00  0.00     0.265 S 
HETATM    6  O2  UNL     1      -2.324  -3.116   0.420  1.00  0.00    -0.200 OA
HETATM    7  O3  UNL     1      -1.163  -2.232  -1.524  1.00  0.00    -0.200 OA
BRANCH   5   8
HETATM    8  C8  UNL     1      -2.899  -0.614  -0.293  1.00  0.00     0.080 A 
HETATM    9  C9  UNL     1      -3.980  -0.574   0.584  1.00  0.00     0.028 A 
HETATM   10  C10 UNL     1      -4.883   0.457   0.416  1.00  0.00     0.044 A 
HETATM   11  C11 UNL     1      -4.719   1.408  -0.581  1.00  0.00     0.116 A 
HETATM   12  F1  UNL     1      -5.655   2.376  -0.664  1.00  0.00    -0.206 F 
HETATM   13  C12 UNL     1      -3.632   1.345  -1.441  1.00  0.00     0.044 A 
HETATM   14  C13 UNL     1      -2.718   0.322  -1.290  1.00  0.00     0.028 A 
ENDBRANCH   5   8
ENDBRANCH   3   5
BRANCH   2  15
HETATM   15  C2  UNL     1       1.808  -0.393   1.334  1.00  0.00     0.141 C 
BRANCH  15  16
HETATM   16  C3  UNL     1       2.935   0.317   0.621  1.00  0.00    -0.064 C 
HETATM   17  C4  UNL     1       2.801   1.711   0.586  1.00  0.00    -0.072 C 
HETATM   18  B1  UNL     1       3.624   2.362  -0.869  1.00  0.00     0.227 B 
HETATM   19  C5  UNL     1       5.364   1.355  -0.855  1.00  0.00    -0.035 C 
HETATM   20 CL1  UNL     1       7.003   1.800  -1.118  1.00  0.00    -0.103 Cl
HETATM   21  C6  UNL     1       5.004   0.063  -0.547  1.00  0.00     0.007 C 
HETATM   22  C7  UNL     1       3.928  -0.480   0.114  1.00  0.00     0.007 C 
ENDBRANCH  15  16
ENDBRANCH   2  15
TORSDOF 4
