REMARK  4 active torsions:
REMARK  status: ('A' for Active; 'I' for Inactive)
REMARK    1  A    between atoms: C1_2  and  C2_3 
REMARK       I    between atoms: C1_2  and  N1_11 
REMARK    2  A    between atoms: C2_3  and  C3_4 
REMARK    3  A    between atoms: N1_11  and  S1_12 
REMARK    4  A    between atoms: S1_12  and  C9_15 
ROOT
HETATM    1  O1  UNL     1      -0.486   0.902  -0.697  1.00  0.00    -0.272 OA
HETATM    2  C1  UNL     1      -0.496   0.593   0.542  1.00  0.00     0.235 C 
HETATM    3  N1  UNL     1       0.648   0.962   1.319  1.00  0.00    -0.250 N 
HETATM    4  H7  UNL     1       0.644   0.707   2.349  1.00  0.00     0.181 HD
ENDROOT
BRANCH   3   5
HETATM    5  S1  UNL     1       2.026   1.783   0.722  1.00  0.00     0.261 S 
HETATM    6  O2  UNL     1       2.670   2.561   1.821  1.00  0.00    -0.200 OA
HETATM    7  O3  UNL     1       1.714   2.677  -0.441  1.00  0.00    -0.200 OA
BRANCH   5   8
HETATM    8  C9  UNL     1       3.247   0.641   0.144  1.00  0.00     0.064 A 
HETATM    9  C10 UNL     1       4.222   0.115   0.872  1.00  0.00     0.024 A 
HETATM   10  C11 UNL     1       5.073  -0.796   0.114  1.00  0.00     0.039 A 
HETATM   11  C12 UNL     1       4.554  -0.786  -1.104  1.00  0.00     0.098 A 
HETATM   12  F1  UNL     1       5.018  -1.496  -2.173  1.00  0.00    -0.210 F 
HETATM   13  C13 UNL     1       3.371   0.095  -1.240  1.00  0.00     0.122 A 
ENDBRANCH   5   8
ENDBRANCH   3   5
BRANCH   2  14
HETATM   14  C2  UNL     1      -1.617  -0.126   1.236  1.00  0.00     0.142 C 
BRANCH  14  15
HETATM   15  C3  UNL     1      -2.691  -0.414   0.267  1.00  0.00    -0.049 A 
HETATM   16  C4  UNL     1      -3.665   0.582   0.152  1.00  0.00     0.009 A 
HETATM   17  C5  UNL     1      -4.704   0.381  -0.739  1.00  0.00     0.024 A 
HETATM   18  C6  UNL     1      -4.821  -0.752  -1.513  1.00  0.00     0.034 A 
HETATM   19 CL1  UNL     1      -6.146  -0.992  -2.638  1.00  0.00    -0.084 Cl
HETATM   20  C7  UNL     1      -3.858  -1.730  -1.394  1.00  0.00     0.024 A 
HETATM   21  C8  UNL     1      -2.797  -1.553  -0.502  1.00  0.00     0.009 A 
ENDBRANCH  14  15
ENDBRANCH   2  14
TORSDOF 4
