REMARK  5 active torsions:
REMARK  status: ('A' for Active; 'I' for Inactive)
REMARK    1  A    between atoms: C2_2  and  C3_3 
REMARK    2  A    between atoms: C2_2  and  N1_11 
REMARK    3  A    between atoms: C3_3  and  C4_4 
REMARK    4  A    between atoms: N1_11  and  S1_12 
REMARK    5  A    between atoms: S1_12  and  C10_15 
ROOT
HETATM    1  N1  UNL     1      -0.008   0.419  -0.663  1.00  0.00    -0.288 N 
HETATM    2  H9  UNL     1       0.526   0.760  -1.520  1.00  0.00     0.178 HD
ENDROOT
BRANCH   1   3
HETATM    3  C2  UNL     1       0.396  -0.915  -0.633  1.00  0.00     0.002 C 
HETATM    4  C1  UNL     1      -0.273  -1.731  -1.463  1.00  0.00     0.059 C 
BRANCH   3   5
HETATM    5  C3  UNL     1       1.473  -1.369   0.250  1.00  0.00     0.091 C 
BRANCH   5   6
HETATM    6  C4  UNL     1       2.766  -0.663  -0.050  1.00  0.00    -0.053 A 
HETATM    7  C5  UNL     1       2.871   0.487   0.705  1.00  0.00     0.009 A 
HETATM    8  C6  UNL     1       3.985   1.316   0.603  1.00  0.00     0.024 A 
HETATM    9  C7  UNL     1       4.982   0.940  -0.285  1.00  0.00     0.034 A 
HETATM   10 CL1  UNL     1       6.411   1.939  -0.461  1.00  0.00    -0.084 Cl
HETATM   11  C8  UNL     1       4.868  -0.211  -1.036  1.00  0.00     0.024 A 
HETATM   12  C9  UNL     1       3.760  -1.025  -0.927  1.00  0.00     0.009 A 
ENDBRANCH   5   6
ENDBRANCH   3   5
ENDBRANCH   1   3
BRANCH   1  13
HETATM   13  S1  UNL     1      -1.032   1.381   0.291  1.00  0.00     0.262 S 
HETATM   14  O1  UNL     1      -0.581   1.558   1.696  1.00  0.00    -0.200 OA
HETATM   15  O2  UNL     1      -1.031   2.755  -0.330  1.00  0.00    -0.200 OA
BRANCH  13  16
HETATM   16  C10 UNL     1      -2.691   0.826   0.312  1.00  0.00     0.080 A 
HETATM   17  C11 UNL     1      -3.657   1.239  -0.592  1.00  0.00     0.028 A 
HETATM   18  C12 UNL     1      -4.960   0.784  -0.550  1.00  0.00     0.044 A 
HETATM   19  C13 UNL     1      -5.285  -0.125   0.449  1.00  0.00     0.116 A 
HETATM   20  F1  UNL     1      -6.566  -0.595   0.517  1.00  0.00    -0.206 F 
HETATM   21  C14 UNL     1      -4.354  -0.569   1.376  1.00  0.00     0.044 A 
HETATM   22  C15 UNL     1      -3.063  -0.089   1.299  1.00  0.00     0.028 A 
ENDBRANCH  13  16
ENDBRANCH   1  13
TORSDOF 5
