REMARK  3 active torsions:
REMARK  status: ('A' for Active; 'I' for Inactive)
REMARK    1  A    between atoms: C2_2  and  C3_3 
REMARK       I    between atoms: C3_3  and  N1_5 
REMARK    2  A    between atoms: N1_5  and  S1_6 
REMARK    3  A    between atoms: S1_6  and  C4_9 
ROOT
HETATM    1  C3  UNL     1      -0.880   0.939  -0.134  1.00  0.00     0.240 C 
HETATM    2  O1  UNL     1      -0.336   2.040   0.203  1.00  0.00    -0.272 OA
HETATM    3  N1  UNL     1      -0.088   0.230  -1.082  1.00  0.00    -0.249 N 
HETATM    4  H4  UNL     1      -0.353  -0.703  -1.494  1.00  0.00     0.182 HD
ENDROOT
BRANCH   3   5
HETATM    5  S1  UNL     1       1.413   0.844  -1.662  1.00  0.00     0.265 S 
HETATM    6  O2  UNL     1       1.702   0.381  -3.059  1.00  0.00    -0.200 OA
HETATM    7  O3  UNL     1       1.435   2.348  -1.676  1.00  0.00    -0.200 OA
BRANCH   5   8
HETATM    8  C4  UNL     1       2.753   0.316  -0.663  1.00  0.00     0.080 A 
HETATM    9  C5  UNL     1       3.404  -0.864  -0.967  1.00  0.00     0.028 A 
HETATM   10  C6  UNL     1       4.460  -1.324  -0.216  1.00  0.00     0.044 A 
HETATM   11  C7  UNL     1       4.886  -0.575   0.887  1.00  0.00     0.116 A 
HETATM   12  F1  UNL     1       5.918  -0.982   1.656  1.00  0.00    -0.206 F 
HETATM   13  C8  UNL     1       4.200   0.592   1.140  1.00  0.00     0.044 A 
HETATM   14  C9  UNL     1       3.137   1.095   0.420  1.00  0.00     0.028 A 
ENDBRANCH   5   8
ENDBRANCH   3   5
BRANCH   1  15
HETATM   15  C2  UNL     1      -2.133   0.250   0.239  1.00  0.00     0.046 C 
HETATM   16  C1  UNL     1      -1.908  -1.092   0.851  1.00  0.00     0.026 C 
HETATM   17  C10 UNL     1      -3.063   0.047  -0.941  1.00  0.00     0.047 C 
HETATM   18  C11 UNL     1      -4.374  -0.156  -0.259  1.00  0.00    -0.006 C 
HETATM   19  C12 UNL     1      -4.337   0.464   0.920  1.00  0.00     0.009 C 
HETATM   20 CL1  UNL     1      -5.639   0.517   2.095  1.00  0.00    -0.089 Cl
HETATM   21  C13 UNL     1      -3.015   1.125   1.122  1.00  0.00     0.070 C 
ENDBRANCH   1  15
TORSDOF 3
