REMARK  4 active torsions:
REMARK  status: ('A' for Active; 'I' for Inactive)
REMARK    1  A    between atoms: C1_2  and  C2_3 
REMARK       I    between atoms: C1_2  and  N1_11 
REMARK    2  A    between atoms: C2_3  and  C3_4 
REMARK    3  A    between atoms: N1_11  and  S1_12 
REMARK    4  A    between atoms: S1_12  and  C9_15 
ROOT
HETATM    1  O1  UNL     1      -0.773  -0.180  -1.129  1.00  0.00    -0.272 OA
HETATM    2  C1  UNL     1      -0.331  -0.082   0.049  1.00  0.00     0.235 C 
HETATM    3  N1  UNL     1       1.028   0.039   0.449  1.00  0.00    -0.250 N 
HETATM    4  H7  UNL     1       1.305   0.114   1.436  1.00  0.00     0.181 HD
ENDROOT
BRANCH   3   5
HETATM    5  S1  UNL     1       2.157   0.049  -0.873  1.00  0.00     0.266 S 
HETATM    6  O2  UNL     1       2.013  -1.265  -1.584  1.00  0.00    -0.200 OA
HETATM    7  O3  UNL     1       1.802   1.221  -1.738  1.00  0.00    -0.200 OA
BRANCH   5   8
HETATM    8  C9  UNL     1       3.788   0.198  -0.324  1.00  0.00     0.092 C 
HETATM    9  C10 UNL     1       4.392   1.363  -0.154  1.00  0.00     0.022 C 
HETATM   10  C11 UNL     1       5.676   1.276   0.111  1.00  0.00     0.046 C 
HETATM   11 CL2  UNL     1       6.787   2.610   0.200  1.00  0.00    -0.083 Cl
HETATM   12  C12 UNL     1       5.884  -0.159   0.295  1.00  0.00     0.026 C 
HETATM   13  C13 UNL     1       4.768  -0.819   0.040  1.00  0.00     0.028 C 
ENDBRANCH   5   8
ENDBRANCH   3   5
BRANCH   2  14
HETATM   14  C2  UNL     1      -1.406  -0.104   1.085  1.00  0.00     0.142 C 
BRANCH  14  15
HETATM   15  C3  UNL     1      -2.711  -0.238   0.390  1.00  0.00    -0.049 A 
HETATM   16  C4  UNL     1      -3.364  -1.400   0.060  1.00  0.00     0.009 A 
HETATM   17  C5  UNL     1      -4.576  -1.308  -0.590  1.00  0.00     0.024 A 
HETATM   18  C6  UNL     1      -5.112  -0.097  -0.896  1.00  0.00     0.034 A 
HETATM   19 CL1  UNL     1      -6.654   0.002  -1.722  1.00  0.00    -0.084 Cl
HETATM   20  C7  UNL     1      -4.484   1.091  -0.579  1.00  0.00     0.024 A 
HETATM   21  C8  UNL     1      -3.262   1.004   0.076  1.00  0.00     0.009 A 
ENDBRANCH  14  15
ENDBRANCH   2  14
TORSDOF 4
