REMARK  0 active torsions:
REMARK  status: ('A' for Active; 'I' for Inactive)
ROOT
HETATM    1  O1  UNL     1       0.162   0.671  -1.039  1.00  0.00    -0.346 OA
HETATM    2  C1  UNL     1       0.292   0.981  -2.251  1.00  0.00     0.221 A 
HETATM    3  C2  UNL     1      -1.122   0.982  -1.988  1.00  0.00     0.246 A 
HETATM    4  C3  UNL     1      -1.622   0.651  -0.658  1.00  0.00    -0.024 A 
HETATM    5  C4  UNL     1      -2.447   1.596  -0.079  1.00  0.00     0.012 A 
HETATM    6  C5  UNL     1      -3.076   1.544   1.151  1.00  0.00     0.024 A 
HETATM    7  C6  UNL     1      -2.854   0.402   1.902  1.00  0.00     0.034 A 
HETATM    8 CL1  UNL     1      -3.647   0.327   3.459  1.00  0.00    -0.084 Cl
HETATM    9  C7  UNL     1      -2.016  -0.579   1.336  1.00  0.00     0.033 A 
HETATM   10  C8  UNL     1      -1.395  -0.486   0.081  1.00  0.00    -0.030 A 
HETATM   11  C9  UNL     1      -0.620  -1.752  -0.040  1.00  0.00     0.114 C 
HETATM   12 BR1  UNL     1      -1.779  -3.324  -0.012  1.00  0.00    -0.082 Br
HETATM   13  C10 UNL     1       0.309  -1.852   1.145  1.00  0.00    -0.006 C 
HETATM   14  C11 UNL     1       1.515  -1.491   1.573  1.00  0.00    -0.002 C 
HETATM   15  C12 UNL     1       2.743  -0.762   1.189  1.00  0.00     0.013 C 
HETATM   16  C13 UNL     1       3.329  -0.059   0.199  1.00  0.00     0.131 C 
HETATM   17  S1  UNL     1       3.236   0.603  -1.401  1.00  0.00     0.251 S 
HETATM   18  O2  UNL     1       3.983   1.941  -1.401  1.00  0.00    -0.201 OA
HETATM   19  O3  UNL     1       4.021  -0.251  -2.377  1.00  0.00    -0.201 OA
HETATM   20  N1  UNL     1       1.630   0.820  -1.904  1.00  0.00    -0.276 N 
HETATM   21  H11 UNL     1       1.682   1.107  -2.933  1.00  0.00     0.175 HD
ENDROOT
TORSDOF 0
