REMARK  3 active torsions:
REMARK  status: ('A' for Active; 'I' for Inactive)
REMARK    1  A    between atoms: O1_2  and  C2_3 
REMARK    2  A    between atoms: C4_5  and  N1_6 
REMARK    3  A    between atoms: C10_15  and  C11_16 
ROOT
HETATM    1  C2  UNL     1      -3.170  -0.388   0.320  1.00  0.00     0.077 C 
HETATM    2  C3  UNL     1      -2.983   0.971   0.431  1.00  0.00     0.066 C 
HETATM    3  C4  UNL     1      -1.642   1.391  -0.165  1.00  0.00     0.051 C 
HETATM    4  C5  UNL     1      -1.053   0.265  -0.641  1.00  0.00     0.039 C 
HETATM    5  C6  UNL     1      -1.775  -0.768  -1.536  1.00  0.00     0.098 C 
HETATM    6  C7  UNL     1      -2.455  -1.531  -0.363  1.00  0.00     0.193 C 
HETATM    7  O2  UNL     1      -1.560  -2.264   0.376  1.00  0.00    -0.320 OA
HETATM    8  C8  UNL     1      -0.145  -2.360   0.481  1.00  0.00     0.196 A 
HETATM    9  N2  UNL     1       0.499  -3.463   0.877  1.00  0.00    -0.216 NA
HETATM   10  C9  UNL     1       1.870  -3.438   0.941  1.00  0.00     0.236 A 
HETATM   11  N3  UNL     1       2.670  -2.374   0.633  1.00  0.00    -0.239 NA
HETATM   12  C10 UNL     1       2.127  -1.223   0.225  1.00  0.00     0.099 A 
HETATM   13  C17 UNL     1       0.778  -1.315   0.186  1.00  0.00     0.116 A 
HETATM   14  N4  UNL     1       0.315   0.037  -0.179  1.00  0.00    -0.352 N 
HETATM   15  H14 UNL     1       0.834   0.939  -0.127  1.00  0.00     0.166 HD
ENDROOT
BRANCH  12  16
HETATM   16  C11 UNL     1       2.852  -0.033  -0.128  1.00  0.00    -0.003 A 
HETATM   17  C12 UNL     1       2.859   0.805  -1.241  1.00  0.00     0.017 A 
HETATM   18  C13 UNL     1       3.673   1.909  -1.285  1.00  0.00     0.045 A 
HETATM   19  C14 UNL     1       4.513   2.248  -0.255  1.00  0.00     0.138 A 
HETATM   20  F1  UNL     1       5.251   3.367  -0.453  1.00  0.00    -0.204 F 
HETATM   21  C15 UNL     1       4.533   1.442   0.862  1.00  0.00     0.073 A 
HETATM   22 CL1  UNL     1       5.626   1.933   2.135  1.00  0.00    -0.081 Cl
HETATM   23  C16 UNL     1       3.710   0.314   0.923  1.00  0.00     0.041 A 
ENDBRANCH  12  16
BRANCH   3  24
HETATM   24  N1  UNL     1      -0.746   2.438  -0.366  1.00  0.00    -0.397 N 
HETATM   25  H5  UNL     1      -0.728   3.061  -1.201  1.00  0.00     0.156 HD
HETATM   26  H6  UNL     1      -0.007   2.724   0.277  1.00  0.00     0.156 HD
ENDBRANCH   3  24
BRANCH   1  27
HETATM   27  O1  UNL     1      -4.344  -0.621   1.072  1.00  0.00    -0.357 OA
HETATM   28  C1  UNL     1      -5.528  -0.153   0.408  1.00  0.00     0.209 C 
ENDBRANCH   1  27
TORSDOF 3
