REMARK  6 active torsions:
REMARK  status: ('A' for Active; 'I' for Inactive)
REMARK    1  A    between atoms: S1_2  and  N1_4 
REMARK    2  A    between atoms: S1_2  and  C9_15 
REMARK    3  A    between atoms: N1_4  and  O3_5 
REMARK    4  A    between atoms: O3_5  and  C1_6 
REMARK    5  A    between atoms: C1_6  and  C2_7 
REMARK    6  A    between atoms: C2_7  and  C3_8 
ROOT
HETATM    1  N1  UNL     1      -0.948   0.805   2.526  1.00  0.00    -0.188 N 
HETATM    2  H1  UNL     1      -1.545   1.471   3.010  1.00  0.00     0.207 HD
ENDROOT
BRANCH   1   3
HETATM    3  S1  UNL     1      -1.575  -0.735   2.187  1.00  0.00     0.281 S 
HETATM    4  O1  UNL     1      -0.489  -1.777   2.385  1.00  0.00    -0.199 OA
HETATM    5  O2  UNL     1      -2.676  -1.043   3.162  1.00  0.00    -0.199 OA
BRANCH   3   6
HETATM    6  C9  UNL     1      -2.252  -0.848   0.581  1.00  0.00     0.081 A 
HETATM    7  C10 UNL     1      -3.597  -0.545   0.398  1.00  0.00     0.025 A 
HETATM    8  C11 UNL     1      -4.071  -0.654  -0.897  1.00  0.00     0.002 A 
HETATM    9  C12 UNL     1      -3.333  -1.033  -2.007  1.00  0.00     0.000 A 
HETATM   10  C13 UNL     1      -1.988  -1.331  -1.795  1.00  0.00     0.002 A 
HETATM   11  C14 UNL     1      -1.481  -1.229  -0.497  1.00  0.00     0.025 A 
ENDBRANCH   3   6
ENDBRANCH   1   3
BRANCH   1  12
HETATM   12  O3  UNL     1       0.036   1.228   1.775  1.00  0.00    -0.270 OA
BRANCH  12  13
HETATM   13  C1  UNL     1       1.302   1.090   2.254  1.00  0.00     0.206 C 
BRANCH  13  14
HETATM   14  C2  UNL     1       2.407   1.590   1.361  1.00  0.00     0.067 C 
BRANCH  14  15
HETATM   15  C3  UNL     1       2.449   0.915   0.060  1.00  0.00    -0.056 A 
HETATM   16  C4  UNL     1       3.169  -0.232  -0.224  1.00  0.00     0.008 A 
HETATM   17  C5  UNL     1       3.165  -0.823  -1.482  1.00  0.00     0.019 A 
HETATM   18  C6  UNL     1       2.422  -0.250  -2.481  1.00  0.00     0.011 A 
HETATM   19 BR1  UNL     1       2.399  -1.042  -4.222  1.00  0.00    -0.051 Br
HETATM   20  C7  UNL     1       1.704   0.887  -2.211  1.00  0.00     0.019 A 
HETATM   21  C8  UNL     1       1.696   1.486  -0.970  1.00  0.00     0.008 A 
ENDBRANCH  14  15
ENDBRANCH  13  14
ENDBRANCH  12  13
ENDBRANCH   1  12
TORSDOF 6
