REMARK  8 active torsions:
REMARK  status: ('A' for Active; 'I' for Inactive)
REMARK    1  A    between atoms: N1_8  and  C8_9 
REMARK    2  A    between atoms: C12_15  and  O1_16 
REMARK    3  A    between atoms: O1_16  and  C13_17 
REMARK    4  A    between atoms: C13_17  and  C14_18 
REMARK    5  A    between atoms: C16_20  and  O2_21 
REMARK    6  A    between atoms: O2_21  and  C17_22 
REMARK    7  A    between atoms: C17_22  and  C18_23 
REMARK    8  A    between atoms: C18_23  and  O3_24 
ROOT
HETATM    1  C1  UNL     1       4.171  -0.422   2.604  1.00  0.00     0.019 C 
HETATM    2  C2  UNL     1       4.060   0.120   1.530  1.00  0.00    -0.059 C 
HETATM    3  C3  UNL     1       3.910   0.754   0.228  1.00  0.00     0.089 A 
HETATM    4  C4  UNL     1       4.604   1.883   0.107  1.00  0.00     0.039 A 
HETATM    5  C5  UNL     1       4.577   2.657  -1.128  1.00  0.00     0.000 A 
HETATM    6  C6  UNL     1       3.811   2.114  -2.060  1.00  0.00    -0.007 A 
HETATM    7  C7  UNL     1       2.977   0.887  -2.113  1.00  0.00     0.158 A 
HETATM    8  N1  UNL     1       3.087   0.219  -0.831  1.00  0.00    -0.320 N 
ENDROOT
BRANCH   8   9
HETATM    9  C8  UNL     1       2.455  -0.981  -0.417  1.00  0.00     0.145 A 
HETATM   10  N2  UNL     1       3.306  -2.047  -0.364  1.00  0.00    -0.223 NA
HETATM   11  C9  UNL     1       2.799  -3.255  -0.012  1.00  0.00     0.236 A 
HETATM   12  N3  UNL     1       1.485  -3.446   0.289  1.00  0.00    -0.241 NA
HETATM   13  C10 UNL     1       0.604  -2.422   0.252  1.00  0.00     0.075 A 
HETATM   14  C11 UNL     1      -0.731  -2.520   0.548  1.00  0.00     0.072 A 
HETATM   15  C21 UNL     1       1.140  -1.213  -0.106  1.00  0.00     0.042 A 
HETATM   16  C12 UNL     1      -1.567  -1.434   0.500  1.00  0.00     0.104 A 
HETATM   17  C16 UNL     1      -1.050  -0.173   0.137  1.00  0.00     0.103 A 
HETATM   18  C20 UNL     1       0.295  -0.134  -0.150  1.00  0.00     0.057 A 
BRANCH  16  19
HETATM   19  O1  UNL     1      -2.883  -1.549   0.793  1.00  0.00    -0.348 OA
BRANCH  19  20
HETATM   20  C13 UNL     1      -3.697  -2.585   1.155  1.00  0.00     0.175 C 
BRANCH  20  21
HETATM   21  C14 UNL     1      -3.861  -3.717   0.200  1.00  0.00     0.022 C 
HETATM   22  C15 UNL     1      -4.437  -3.192  -1.110  1.00  0.00     0.007 C 
ENDBRANCH  20  21
ENDBRANCH  19  20
ENDBRANCH  16  19
BRANCH  17  23
HETATM   23  O2  UNL     1      -1.985   0.813   0.133  1.00  0.00    -0.346 OA
BRANCH  23  24
HETATM   24  C17 UNL     1      -1.916   2.165  -0.132  1.00  0.00     0.201 C 
BRANCH  24  25
HETATM   25  C18 UNL     1      -1.064   2.994   0.775  1.00  0.00     0.193 C 
BRANCH  25  26
HETATM   26  O3  UNL     1      -1.084   4.315   0.392  1.00  0.00    -0.394 OA
HETATM   27  C19 UNL     1      -2.307   4.943   0.404  1.00  0.00     0.201 C 
ENDBRANCH  25  26
ENDBRANCH  24  25
ENDBRANCH  23  24
ENDBRANCH  17  23
ENDBRANCH   8   9
TORSDOF 8
