REMARK  5 active torsions:
REMARK  status: ('A' for Active; 'I' for Inactive)
REMARK    1  A    between atoms: C5_5  and  S1_6 
REMARK    2  A    between atoms: S1_6  and  N1_9 
REMARK    3  A    between atoms: N1_9  and  C6_10 
REMARK    4  A    between atoms: C6_10  and  O3_11 
REMARK    5  A    between atoms: C7_12  and  C8_13 
ROOT
HETATM    1  N1  UNL     1       0.253  -1.801  -0.525  1.00  0.00    -0.260 N 
HETATM    2  H6  UNL     1       0.576  -2.280  -1.409  1.00  0.00     0.181 HD
ENDROOT
BRANCH   1   3
HETATM    3  S1  UNL     1      -1.079  -2.338   0.404  1.00  0.00     0.264 S 
HETATM    4  O1  UNL     1      -1.582  -3.609  -0.249  1.00  0.00    -0.200 OA
HETATM    5  O2  UNL     1      -0.669  -2.671   1.812  1.00  0.00    -0.200 OA
BRANCH   3   6
HETATM    6  C5  UNL     1      -2.365  -1.183   0.515  1.00  0.00     0.080 A 
HETATM    7  C4  UNL     1      -3.344  -1.264  -0.479  1.00  0.00     0.026 A 
HETATM    8  C3  UNL     1      -4.441  -0.426  -0.545  1.00  0.00     0.008 A 
HETATM    9  C2  UNL     1      -4.583   0.560   0.435  1.00  0.00    -0.062 A 
HETATM   10  C1  UNL     1      -5.773   1.435   0.328  1.00  0.00     0.048 C 
HETATM   11  C15 UNL     1      -3.628   0.644   1.409  1.00  0.00     0.008 A 
HETATM   12  C14 UNL     1      -2.539  -0.202   1.460  1.00  0.00     0.026 A 
ENDBRANCH   3   6
ENDBRANCH   1   3
BRANCH   1  13
HETATM   13  C6  UNL     1       1.153  -0.706  -0.371  1.00  0.00     0.150 C 
HETATM   14  C7  UNL     1       2.465  -0.938  -0.224  1.00  0.00     0.068 C 
BRANCH  13  15
HETATM   15  O3  UNL     1       0.677   0.603  -0.370  1.00  0.00    -0.346 OA
HETATM   16  H7  UNL     1       0.308   1.063   0.450  1.00  0.00     0.219 HD
ENDBRANCH  13  15
BRANCH  14  17
HETATM   17  C8  UNL     1       3.568  -0.002  -0.051  1.00  0.00    -0.032 A 
HETATM   18  C9  UNL     1       4.794  -0.259  -0.679  1.00  0.00     0.013 A 
HETATM   19  C10 UNL     1       5.891   0.562  -0.571  1.00  0.00     0.020 A 
HETATM   20  C11 UNL     1       5.728   1.690   0.211  1.00  0.00     0.011 A 
HETATM   21 BR1  UNL     1       7.270   2.826   0.347  1.00  0.00    -0.051 Br
HETATM   22  C12 UNL     1       4.565   2.021   0.862  1.00  0.00     0.020 A 
HETATM   23  C13 UNL     1       3.487   1.152   0.715  1.00  0.00     0.013 A 
ENDBRANCH  14  17
ENDBRANCH   1  13
TORSDOF 5
