REMARK  8 active torsions:
REMARK  status: ('A' for Active; 'I' for Inactive)
REMARK    1  A    between atoms: C1_2  and  C2_3 
REMARK       I    between atoms: C1_2  and  N1_11 
REMARK    2  A    between atoms: C2_3  and  C3_4 
REMARK    3  A    between atoms: N1_11  and  S1_12 
REMARK    4  A    between atoms: S1_12  and  C9_15 
REMARK    5  A    between atoms: C9_15  and  C10_16 
REMARK    6  A    between atoms: C10_16  and  N2_17 
REMARK    7  A    between atoms: N2_17  and  C11_18 
REMARK    8  A    between atoms: C11_18  and  C12_19 
ROOT
HETATM    1  O1  UNL     1       0.290   1.827  -0.993  1.00  0.00    -0.272 OA
HETATM    2  C1  UNL     1      -0.643   1.342  -0.294  1.00  0.00     0.235 C 
HETATM    3  N1  UNL     1      -0.551   0.001   0.233  1.00  0.00    -0.251 N 
HETATM    4  H7  UNL     1      -1.318  -0.411   0.803  1.00  0.00     0.181 HD
ENDROOT
BRANCH   3   5
HETATM    5  S1  UNL     1       0.973  -0.717  -0.252  1.00  0.00     0.257 S 
HETATM    6  O2  UNL     1       1.336  -0.306  -1.646  1.00  0.00    -0.201 OA
HETATM    7  O3  UNL     1       0.851  -2.235  -0.267  1.00  0.00    -0.201 OA
BRANCH   5   8
HETATM    8  C9  UNL     1       2.138  -0.197   0.936  1.00  0.00     0.165 C 
BRANCH   8   9
HETATM    9  C10 UNL     1       3.153  -0.935   1.336  1.00  0.00     0.092 C 
BRANCH   9  10
HETATM   10  N2  UNL     1       4.373  -1.331   1.496  1.00  0.00    -0.284 NA
BRANCH  10  11
HETATM   11  C11 UNL     1       5.180  -1.421   0.311  1.00  0.00     0.180 C 
BRANCH  11  12
HETATM   12  C12 UNL     1       5.704  -0.095  -0.183  1.00  0.00     0.244 C 
HETATM   13  F1  UNL     1       6.471   0.466   0.830  1.00  0.00    -0.254 F 
ENDBRANCH  11  12
ENDBRANCH  10  11
ENDBRANCH   9  10
ENDBRANCH   8   9
ENDBRANCH   5   8
ENDBRANCH   3   5
BRANCH   2  14
HETATM   14  C2  UNL     1      -1.920   2.071   0.061  1.00  0.00     0.142 C 
BRANCH  14  15
HETATM   15  C3  UNL     1      -3.002   1.099   0.192  1.00  0.00    -0.049 A 
HETATM   16  C4  UNL     1      -3.427   0.794   1.468  1.00  0.00     0.009 A 
HETATM   17  C5  UNL     1      -4.425  -0.185   1.560  1.00  0.00     0.019 A 
HETATM   18  C6  UNL     1      -4.955  -0.812   0.425  1.00  0.00     0.011 A 
HETATM   19 BR1  UNL     1      -6.335  -2.133   0.599  1.00  0.00    -0.051 Br
HETATM   20  C7  UNL     1      -4.464  -0.441  -0.824  1.00  0.00     0.019 A 
HETATM   21  C8  UNL     1      -3.489   0.509  -0.975  1.00  0.00     0.009 A 
ENDBRANCH  14  15
ENDBRANCH   2  14
TORSDOF 8
