REMARK  4 active torsions:
REMARK  status: ('A' for Active; 'I' for Inactive)
REMARK    1  A    between atoms: C1_2  and  C2_3 
REMARK       I    between atoms: C1_2  and  N1_11 
REMARK    2  A    between atoms: C2_3  and  C3_4 
REMARK    3  A    between atoms: N1_11  and  S1_12 
REMARK    4  A    between atoms: S1_12  and  C9_15 
ROOT
HETATM    1  O1  UNL     1       1.039   1.635  -0.200  1.00  0.00    -0.272 OA
HETATM    2  C1  UNL     1      -0.091   1.114   0.022  1.00  0.00     0.235 C 
HETATM    3  N1  UNL     1      -0.207  -0.262   0.360  1.00  0.00    -0.250 N 
HETATM    4  H7  UNL     1      -1.177  -0.615   0.527  1.00  0.00     0.181 HD
ENDROOT
BRANCH   3   5
HETATM    5  S1  UNL     1       0.954  -1.488   0.553  1.00  0.00     0.265 S 
HETATM    6  O2  UNL     1       0.711  -2.187   1.854  1.00  0.00    -0.200 OA
HETATM    7  O3  UNL     1       0.642  -2.516  -0.530  1.00  0.00    -0.200 OA
BRANCH   5   8
HETATM    8  C9  UNL     1       2.599  -0.990   0.341  1.00  0.00     0.080 A 
HETATM    9  C10 UNL     1       3.326  -0.981  -0.834  1.00  0.00     0.028 A 
HETATM   10  C11 UNL     1       4.635  -0.558  -0.848  1.00  0.00     0.044 A 
HETATM   11  C12 UNL     1       5.248  -0.131   0.327  1.00  0.00     0.116 A 
HETATM   12  F1  UNL     1       6.546   0.299   0.362  1.00  0.00    -0.206 F 
HETATM   13  C13 UNL     1       4.562  -0.118   1.544  1.00  0.00     0.044 A 
HETATM   14  C14 UNL     1       3.246  -0.559   1.479  1.00  0.00     0.028 A 
ENDBRANCH   5   8
ENDBRANCH   3   5
BRANCH   2  15
HETATM   15  C2  UNL     1      -1.310   1.961  -0.075  1.00  0.00     0.142 C 
BRANCH  15  16
HETATM   16  C3  UNL     1      -2.532   1.157  -0.173  1.00  0.00    -0.049 A 
HETATM   17  C4  UNL     1      -3.143   0.671  -1.316  1.00  0.00     0.009 A 
HETATM   18  C5  UNL     1      -4.298  -0.076  -1.274  1.00  0.00     0.019 A 
HETATM   19  C6  UNL     1      -4.922  -0.390  -0.083  1.00  0.00     0.011 A 
HETATM   20 BR1  UNL     1      -6.502  -1.401   0.127  1.00  0.00    -0.051 Br
HETATM   21  C7  UNL     1      -4.339   0.079   1.075  1.00  0.00     0.019 A 
HETATM   22  C8  UNL     1      -3.182   0.827   1.023  1.00  0.00     0.009 A 
ENDBRANCH  15  16
ENDBRANCH   2  15
TORSDOF 4
