REMARK  7 active torsions:
REMARK  status: ('A' for Active; 'I' for Inactive)
REMARK    1  A    between atoms: C2_2  and  C3_3 
REMARK    2  A    between atoms: C3_3  and  S1_7 
REMARK    3  A    between atoms: C4_4  and  C5_5 
REMARK    4  A    between atoms: S1_7  and  N1_9 
REMARK       I    between atoms: N1_9  and  C6_10 
REMARK    5  A    between atoms: C6_10  and  C7_12 
REMARK    6  A    between atoms: C7_12  and  S2_13 
REMARK    7  A    between atoms: S2_13  and  C8_14 
ROOT
HETATM    1  N1  UNL     1      -1.184   0.571  -1.063  1.00  0.00    -0.261 N 
HETATM    2  C6  UNL     1      -0.542   1.022   0.149  1.00  0.00     0.307 C 
HETATM    3  O2  UNL     1      -1.225   1.711   0.982  1.00  0.00    -0.257 OA
HETATM    4  H7  UNL     1      -0.702   0.004  -1.798  1.00  0.00     0.180 HD
ENDROOT
BRANCH   2   5
HETATM    5  C7  UNL     1       0.777   0.714   0.395  1.00  0.00    -0.005 C 
BRANCH   5   6
HETATM    6  S2  UNL     1       2.158   0.402   0.630  1.00  0.00    -0.042 SA
BRANCH   6   7
HETATM    7  C8  UNL     1       3.826   0.035   0.883  1.00  0.00     0.013 A 
HETATM    8  C9  UNL     1       4.566   0.916   1.639  1.00  0.00     0.021 A 
HETATM    9  C10 UNL     1       5.901   0.614   1.833  1.00  0.00     0.020 A 
HETATM   10  C11 UNL     1       6.341  -0.539   1.246  1.00  0.00     0.011 A 
HETATM   11 BR1  UNL     1       8.180  -0.959   1.511  1.00  0.00    -0.051 Br
HETATM   12  C12 UNL     1       5.636  -1.451   0.482  1.00  0.00     0.020 A 
HETATM   13  C13 UNL     1       4.304  -1.139   0.295  1.00  0.00     0.021 A 
ENDBRANCH   6   7
ENDBRANCH   5   6
ENDBRANCH   2   5
BRANCH   1  14
HETATM   14  S1  UNL     1      -2.831   0.935  -1.412  1.00  0.00     0.153 S 
HETATM   15  O1  UNL     1      -3.094   1.298  -2.863  1.00  0.00    -0.230 OA
BRANCH  14  16
HETATM   16  C3  UNL     1      -3.984  -0.246  -0.822  1.00  0.00     0.050 C 
HETATM   17  C4  UNL     1      -4.833   0.236   0.044  1.00  0.00     0.027 C 
BRANCH  16  18
HETATM   18  C2  UNL     1      -4.014  -1.642  -1.245  1.00  0.00     0.012 C 
HETATM   19  C1  UNL     1      -3.146  -2.114  -2.125  1.00  0.00     0.013 C 
ENDBRANCH  16  18
BRANCH  17  20
HETATM   20  C5  UNL     1      -4.927   1.616   0.566  1.00  0.00     0.251 C 
HETATM   21  F1  UNL     1      -6.179   2.154   0.257  1.00  0.00    -0.251 F 
ENDBRANCH  17  20
ENDBRANCH  14  16
ENDBRANCH   1  14
TORSDOF 7
