REMARK  5 active torsions:
REMARK  status: ('A' for Active; 'I' for Inactive)
REMARK    1  A    between atoms: S1_2  and  N1_4 
REMARK    2  A    between atoms: S1_2  and  C9_15 
REMARK    3  A    between atoms: N1_4  and  P1_5 
REMARK    4  A    between atoms: C5_10  and  C6_11 
REMARK    5  A    between atoms: C7_13  and  C8_14 
ROOT
HETATM    1  N1  UNL     1       1.007   0.082  -2.515  1.00  0.00    -0.187 NA
HETATM    2  H1  UNL     1       0.596   1.038  -2.770  1.00  0.00     0.145 HD
ENDROOT
BRANCH   1   3
HETATM    3  S1  UNL     1       2.258   0.450  -1.378  1.00  0.00     0.245 S 
HETATM    4  O1  UNL     1       3.509   0.473  -2.117  1.00  0.00    -0.206 OA
HETATM    5  O2  UNL     1       2.032   1.938  -0.946  1.00  0.00    -0.206 OA
BRANCH   3   6
HETATM    6  C9  UNL     1       2.277  -0.499   0.061  1.00  0.00     0.074 A 
HETATM    7  C10 UNL     1       2.007  -0.010   1.320  1.00  0.00     0.026 A 
HETATM    8  C11 UNL     1       2.003  -0.697   2.520  1.00  0.00     0.025 A 
HETATM    9  C12 UNL     1       2.310  -2.040   2.443  1.00  0.00     0.034 A 
HETATM   10 CL1  UNL     1       2.296  -2.890   4.000  1.00  0.00    -0.084 Cl
HETATM   11  C13 UNL     1       2.600  -2.638   1.209  1.00  0.00     0.025 A 
HETATM   12  C14 UNL     1       2.575  -1.843   0.055  1.00  0.00     0.026 A 
ENDBRANCH   3   6
ENDBRANCH   1   3
BRANCH   1  13
HETATM   13  P1  UNL     1      -0.646   0.805  -0.691  1.00  0.00    -0.005 P 
HETATM   14  C1  UNL     1      -1.605   1.252   0.406  1.00  0.00    -0.144 A 
HETATM   15  C2  UNL     1      -2.473   1.635   1.351  1.00  0.00     0.092 A 
HETATM   16  C3  UNL     1      -3.404   0.931  -0.041  1.00  0.00    -0.025 A 
HETATM   17  C8  UNL     1      -1.524   1.109   0.081  1.00  0.00     0.055 A 
HETATM   18  C4  UNL     1      -4.218   0.347  -1.191  1.00  0.00     0.038 A 
HETATM   19  C5  UNL     1      -3.064   0.232  -1.588  1.00  0.00     0.023 A 
HETATM   20  C7  UNL     1      -0.369   0.669  -1.020  1.00  0.00     0.047 A 
HETATM   21  C6  UNL     1      -1.626   0.086  -2.088  1.00  0.00     0.075 A 
HETATM   22 BR1  UNL     1      -1.115  -0.704  -3.732  1.00  0.00    -0.077 Br
ENDBRANCH   1  13
TORSDOF 5
