REMARK  1 active torsions:
REMARK  status: ('A' for Active; 'I' for Inactive)
REMARK    1  A    between atoms: O1_2  and  C2_3 
ROOT
HETATM    1  C2  UNL     1       3.806  -0.406   0.843  1.00  0.00     0.120 C 
HETATM    2  C3  UNL     1       3.351  -0.478   2.160  1.00  0.00     0.061 C 
HETATM    3  C4  UNL     1       1.882  -0.629   2.008  1.00  0.00    -0.014 C 
HETATM    4  C5  UNL     1       0.749  -0.754   2.732  1.00  0.00     0.006 C 
HETATM    5  C6  UNL     1      -0.764  -0.908   2.749  1.00  0.00     0.119 C 
HETATM    6  N1  UNL     1      -1.254  -0.915   1.363  1.00  0.00    -0.225 NA
HETATM    7  C7  UNL     1      -1.097   0.365   0.745  1.00  0.00     0.191 C 
HETATM    8  S1  UNL     1      -0.576   0.373  -1.001  1.00  0.00    -0.076 SA
HETATM    9  C8  UNL     1      -1.426   0.818  -2.320  1.00  0.00     0.093 A 
HETATM   10  C9  UNL     1      -2.624   1.165  -1.684  1.00  0.00     0.038 C 
HETATM   11  C10 UNL     1      -3.422   1.887  -0.992  1.00  0.00     0.018 C 
HETATM   12  C11 UNL     1      -4.849   1.428  -0.698  1.00  0.00     0.235 C 
HETATM   13  F1  UNL     1      -5.546   2.387  -0.088  1.00  0.00    -0.239 F 
HETATM   14  C12 UNL     1      -4.663   0.321   0.365  1.00  0.00     0.046 A 
HETATM   15 CL1  UNL     1      -5.719  -0.616   1.434  1.00  0.00    -0.159 Cl
HETATM   16  C13 UNL     1      -3.706  -0.498   0.971  1.00  0.00     0.192 A 
HETATM   17  N2  UNL     1      -2.616  -1.281   1.512  1.00  0.00    -0.332 N 
HETATM   18  N3  UNL     1      -0.793   0.740  -3.554  1.00  0.00    -0.235 NA
HETATM   19  C14 UNL     1       0.422   0.338  -3.725  1.00  0.00     0.237 A 
HETATM   20  N4  UNL     1       1.389  -0.112  -2.750  1.00  0.00    -0.212 NA
HETATM   21  C15 UNL     1       1.096  -0.152  -1.508  1.00  0.00     0.203 A 
HETATM   22  O2  UNL     1       1.975  -0.566  -0.627  1.00  0.00    -0.326 OA
HETATM   23  C16 UNL     1       3.355  -0.423  -0.677  1.00  0.00     0.219 C 
HETATM   24  H15 UNL     1      -3.627  -1.513   1.597  1.00  0.00     0.216 HD
ENDROOT
BRANCH   1  25
HETATM   25  O1  UNL     1       5.199  -0.264   1.021  1.00  0.00    -0.379 OA
HETATM   26  C1  UNL     1       6.062  -0.448  -0.084  1.00  0.00     0.202 C 
ENDBRANCH   1  25
TORSDOF 1
