REMARK  4 active torsions:
REMARK  status: ('A' for Active; 'I' for Inactive)
REMARK       I    between atoms: C1_2  and  N1_3 
REMARK    1  A    between atoms: C1_2  and  C7_13 
REMARK    2  A    between atoms: N1_3  and  S1_4 
REMARK    3  A    between atoms: S1_4  and  C2_6 
REMARK    4  A    between atoms: C12_19  and  O3_20 
ROOT
HETATM    1  O1  UNL     1       0.060   0.830  -1.603  1.00  0.00    -0.271 OA
HETATM    2  C1  UNL     1      -0.423   0.205  -0.625  1.00  0.00     0.243 C 
HETATM    3  N1  UNL     1       0.363  -0.934  -0.298  1.00  0.00    -0.273 N 
HETATM    4  H1  UNL     1       0.184  -1.619   0.468  1.00  0.00     0.179 HD
ENDROOT
BRANCH   2   5
HETATM    5  C7  UNL     1      -1.632   0.453   0.208  1.00  0.00     0.157 C 
HETATM    6  C8  UNL     1      -2.363   1.669  -0.237  1.00  0.00    -0.009 C 
HETATM    7  C9  UNL     1      -3.658   1.855  -0.420  1.00  0.00    -0.010 C 
HETATM    8  C10 UNL     1      -4.609   0.735  -0.169  1.00  0.00     0.105 C 
HETATM    9 BR1  UNL     1      -5.790   0.570  -1.693  1.00  0.00    -0.083 Br
HETATM   10  C11 UNL     1      -3.905  -0.551  -0.022  1.00  0.00     0.026 C 
HETATM   11  C12 UNL     1      -2.597  -0.689   0.144  1.00  0.00     0.057 C 
BRANCH  11  12
HETATM   12  O3  UNL     1      -2.115  -1.985   0.264  1.00  0.00    -0.364 OA
HETATM   13  H10 UNL     1      -2.693  -2.704   0.684  1.00  0.00     0.217 HD
ENDBRANCH  11  12
ENDBRANCH   2   5
BRANCH   3  14
HETATM   14  S1  UNL     1       1.770  -1.252  -1.242  1.00  0.00     0.146 S 
HETATM   15  O2  UNL     1       1.991  -2.690  -1.597  1.00  0.00    -0.233 OA
BRANCH  14  16
HETATM   16  C2  UNL     1       3.247  -0.492  -0.639  1.00  0.00     0.246 C 
HETATM   17  C3  UNL     1       3.631  -0.900   0.717  1.00  0.00     0.018 C 
HETATM   18  C4  UNL     1       4.509  -0.156   1.377  1.00  0.00     0.043 C 
HETATM   19  C5  UNL     1       5.009   1.015   0.664  1.00  0.00     0.146 C 
HETATM   20  F1  UNL     1       6.200   1.611   0.913  1.00  0.00    -0.204 F 
HETATM   21  C6  UNL     1       4.268   1.548  -0.293  1.00  0.00     0.122 C 
HETATM   22  N2  UNL     1       3.199   0.953  -0.686  1.00  0.00    -0.260 NA
ENDBRANCH  14  16
ENDBRANCH   3  14
TORSDOF 4
