REMARK  2 active torsions:
REMARK  status: ('A' for Active; 'I' for Inactive)
REMARK    1  A    between atoms: O1_2  and  C2_3 
REMARK    2  A    between atoms: C6_7  and  O2_8 
ROOT
HETATM    1  C2  UNL     1       2.196   0.814   0.263  1.00  0.00     0.059 C 
HETATM    2  C3  UNL     1       1.083   0.461   0.851  1.00  0.00    -0.009 C 
HETATM    3  C4  UNL     1      -0.041   1.350   1.323  1.00  0.00     0.101 C 
HETATM    4  C5  UNL     1      -0.537   1.699  -0.096  1.00  0.00     0.043 C 
HETATM    5  C6  UNL     1       0.530   2.287  -0.685  1.00  0.00     0.072 C 
HETATM    6  C7  UNL     1       1.953   2.275  -0.125  1.00  0.00     0.131 C 
HETATM    7  N1  UNL     1      -1.784   1.478  -0.812  1.00  0.00    -0.353 N 
HETATM    8  C8  UNL     1      -2.644   0.318  -0.565  1.00  0.00     0.096 A 
HETATM    9  C9  UNL     1      -3.847   0.923  -0.233  1.00  0.00     0.151 A 
HETATM   10  N2  UNL     1      -5.065   0.399   0.121  1.00  0.00    -0.252 NA
HETATM   11  C10 UNL     1      -5.038  -0.970   0.136  1.00  0.00     0.235 A 
HETATM   12  N3  UNL     1      -3.895  -1.607  -0.179  1.00  0.00    -0.222 NA
HETATM   13  C11 UNL     1      -2.723  -1.061  -0.521  1.00  0.00     0.157 A 
HETATM   14  N4  UNL     1      -1.965  -2.283  -0.715  1.00  0.00    -0.339 N 
HETATM   15  C12 UNL     1      -0.698  -2.449  -0.133  1.00  0.00     0.036 A 
HETATM   16  C13 UNL     1       0.218  -3.403   0.195  1.00  0.00     0.056 A 
HETATM   17  C14 UNL     1       1.454  -3.198   0.769  1.00  0.00     0.075 A 
HETATM   18 CL1  UNL     1       2.517  -4.531   1.130  1.00  0.00    -0.081 Cl
HETATM   19  C15 UNL     1       1.991  -1.976   1.119  1.00  0.00     0.149 A 
HETATM   20  F1  UNL     1       3.047  -1.408   1.658  1.00  0.00    -0.203 F 
HETATM   21  C16 UNL     1       1.142  -0.974   0.825  1.00  0.00     0.015 A 
HETATM   22  C17 UNL     1      -0.061  -1.299   0.257  1.00  0.00     0.044 A 
HETATM   23  H9  UNL     1      -2.004   2.206  -1.506  1.00  0.00     0.166 HD
HETATM   24  H12 UNL     1      -2.139  -3.147  -1.232  1.00  0.00     0.167 HD
ENDROOT
BRANCH   1  25
HETATM   25  O1  UNL     1       3.352   0.105   0.010  1.00  0.00    -0.359 OA
HETATM   26  C1  UNL     1       4.574   0.673  -0.311  1.00  0.00     0.209 C 
ENDBRANCH   1  25
BRANCH   5  27
HETATM   27  O2  UNL     1       0.311   2.962  -1.909  1.00  0.00    -0.363 OA
HETATM   28  H6  UNL     1       0.050   3.952  -1.906  1.00  0.00     0.217 HD
ENDBRANCH   5  27
TORSDOF 2
