REMARK  1 active torsions:
REMARK  status: ('A' for Active; 'I' for Inactive)
REMARK    1  A    between atoms: C3_7  and  O3_8 
ROOT
HETATM    1  O1  UNL     1      -1.812   3.444   1.624  1.00  0.00    -0.210 OA
HETATM    2  S1  UNL     1      -0.958   2.808   0.610  1.00  0.00     0.223 S 
HETATM    3  O2  UNL     1      -0.762   3.769  -0.503  1.00  0.00    -0.210 OA
HETATM    4  N1  UNL     1       0.635   2.393   1.248  1.00  0.00    -0.215 NA
HETATM    5  C1  UNL     1       1.432   1.691   0.302  1.00  0.00     0.141 C 
HETATM    6  C2  UNL     1       1.423   0.208   0.348  1.00  0.00    -0.030 C 
HETATM    7  C3  UNL     1       0.979  -0.675   1.276  1.00  0.00     0.069 C 
HETATM    8  C4  UNL     1       0.093  -1.876   1.326  1.00  0.00     0.034 C 
HETATM    9  C5  UNL     1      -0.718  -2.591   0.499  1.00  0.00    -0.011 C 
HETATM   10  C6  UNL     1      -1.117  -2.083  -0.888  1.00  0.00     0.060 C 
HETATM   11  C7  UNL     1       0.111  -2.282  -1.727  1.00  0.00    -0.018 C 
HETATM   12  C8  UNL     1       1.176  -1.457  -1.503  1.00  0.00    -0.025 C 
HETATM   13  C9  UNL     1       2.033  -0.425  -0.890  1.00  0.00     0.065 C 
HETATM   14  C10 UNL     1      -1.445  -0.620  -0.754  1.00  0.00    -0.062 A 
HETATM   15  C11 UNL     1      -0.979  -0.044  -1.897  1.00  0.00     0.002 A 
HETATM   16  C12 UNL     1      -1.121   1.111  -1.189  1.00  0.00     0.001 A 
HETATM   17  C13 UNL     1      -1.568   1.216   0.077  1.00  0.00     0.108 A 
HETATM   18  C14 UNL     1      -2.047   0.717   1.243  1.00  0.00     0.032 A 
HETATM   19  C15 UNL     1      -1.887  -0.416   0.507  1.00  0.00     0.051 A 
HETATM   20  H1  UNL     1       1.051   3.272   1.595  1.00  0.00     0.140 HD
ENDROOT
BRANCH   7  21
HETATM   21  O3  UNL     1       1.503  -0.363   2.520  1.00  0.00    -0.360 OA
HETATM   22  H4  UNL     1       1.699   0.610   2.724  1.00  0.00     0.217 HD
ENDBRANCH   7  21
TORSDOF 1
