REMARK  6 active torsions:
REMARK  status: ('A' for Active; 'I' for Inactive)
REMARK    1  A    between atoms: C1_2  and  C2_3 
REMARK       I    between atoms: C1_2  and  N1_12 
REMARK    2  A    between atoms: C2_3  and  C3_4 
REMARK    3  A    between atoms: C6_7  and  C7_8 
REMARK    4  A    between atoms: C7_8  and  O2_9 
REMARK    5  A    between atoms: N1_12  and  S1_13 
REMARK    6  A    between atoms: S1_13  and  C10_16 
ROOT
HETATM    1  O1  UNL     1      -0.706  -0.247   0.666  1.00  0.00    -0.272 OA
HETATM    2  C1  UNL     1      -0.031   0.416  -0.168  1.00  0.00     0.235 C 
HETATM    3  N1  UNL     1       1.361   0.472  -0.466  1.00  0.00    -0.250 N 
HETATM    4  H10 UNL     1       1.599   1.137  -1.227  1.00  0.00     0.181 HD
ENDROOT
BRANCH   2   5
HETATM    5  C2  UNL     1      -1.042   1.250  -0.901  1.00  0.00     0.142 C 
BRANCH   5   6
HETATM    6  C3  UNL     1      -2.376   0.900  -0.293  1.00  0.00    -0.049 A 
HETATM    7  C4  UNL     1      -2.874   1.594   0.789  1.00  0.00     0.008 A 
HETATM    8  C5  UNL     1      -4.110   1.214   1.294  1.00  0.00     0.010 A 
HETATM    9  C6  UNL     1      -4.798   0.169   0.713  1.00  0.00    -0.035 A 
HETATM   10  C8  UNL     1      -4.292  -0.529  -0.379  1.00  0.00     0.010 A 
HETATM   11  C9  UNL     1      -3.056  -0.147  -0.883  1.00  0.00     0.008 A 
BRANCH   9  12
HETATM   12  C7  UNL     1      -6.118  -0.285   1.203  1.00  0.00     0.202 C 
BRANCH  12  13
HETATM   13  O2  UNL     1      -5.928  -1.270   2.169  1.00  0.00    -0.396 OA
HETATM   14  H7  UNL     1      -5.152  -1.849   1.882  1.00  0.00     0.209 HD
ENDBRANCH  12  13
ENDBRANCH   9  12
ENDBRANCH   5   6
ENDBRANCH   2   5
BRANCH   3  15
HETATM   15  S1  UNL     1       2.264  -0.597   0.540  1.00  0.00     0.265 S 
HETATM   16  O3  UNL     1       1.788  -1.999   0.222  1.00  0.00    -0.200 OA
HETATM   17  O4  UNL     1       1.971  -0.218   1.965  1.00  0.00    -0.200 OA
BRANCH  15  18
HETATM   18  C10 UNL     1       3.964  -0.544   0.192  1.00  0.00     0.079 A 
HETATM   19  C11 UNL     1       4.580  -1.361  -0.736  1.00  0.00     0.025 A 
HETATM   20  C12 UNL     1       5.923  -1.355  -1.046  1.00  0.00     0.002 A 
HETATM   21  C13 UNL     1       6.673  -0.436  -0.340  1.00  0.00     0.000 A 
HETATM   22  C14 UNL     1       6.095   0.402   0.599  1.00  0.00     0.002 A 
HETATM   23  C15 UNL     1       4.746   0.364   0.879  1.00  0.00     0.025 A 
ENDBRANCH  15  18
ENDBRANCH   3  15
TORSDOF 6
