REMARK  9 active torsions:
REMARK  status: ('A' for Active; 'I' for Inactive)
REMARK    1  A    between atoms: O1_2  and  C2_3 
REMARK    2  A    between atoms: C5_6  and  C6_7 
REMARK    3  A    between atoms: C6_7  and  C7_8 
REMARK    4  A    between atoms: C7_8  and  P1_9 
REMARK    5  A    between atoms: C7_8  and  O2_10 
REMARK    6  A    between atoms: O2_10  and  N1_11 
REMARK    7  A    between atoms: N1_11  and  S1_12 
REMARK    8  A    between atoms: S1_12  and  C8_15 
REMARK    9  A    between atoms: C13_20  and  P2_21 
ROOT
HETATM    1  N1  UNL     1      -0.636   0.204  -0.997  1.00  0.00    -0.084 NA
HETATM    2  H9  UNL     1       0.128  -0.120  -1.594  1.00  0.00     0.173 HD
ENDROOT
BRANCH   1   3
HETATM    3  O2  UNL     1      -0.335   0.141   0.338  1.00  0.00    -0.253 OA
BRANCH   3   4
HETATM    4  C7  UNL     1       0.253   1.101   1.101  1.00  0.00     0.080 C 
BRANCH   4   5
HETATM    5  C6  UNL     1       1.365   1.988   0.664  1.00  0.00     0.106 C 
BRANCH   5   6
HETATM    6  C5  UNL     1       2.526   1.123   0.356  1.00  0.00    -0.052 A 
HETATM    7  C4  UNL     1       3.285   0.856   1.503  1.00  0.00     0.010 A 
HETATM    8  C3  UNL     1       4.422   0.074   1.480  1.00  0.00     0.037 A 
HETATM    9  C2  UNL     1       4.832  -0.469   0.279  1.00  0.00     0.068 A 
HETATM   10  C15 UNL     1       4.092  -0.213  -0.858  1.00  0.00     0.037 A 
HETATM   11  C14 UNL     1       2.956   0.570  -0.831  1.00  0.00     0.010 A 
BRANCH   9  12
HETATM   12  O1  UNL     1       5.964  -1.266   0.167  1.00  0.00    -0.356 OA
HETATM   13  C1  UNL     1       6.380  -1.820  -1.064  1.00  0.00     0.210 C 
ENDBRANCH   9  12
ENDBRANCH   5   6
ENDBRANCH   4   5
BRANCH   4  14
HETATM   14  P1  UNL     1      -0.265   1.363   2.672  1.00  0.00    -0.039 P 
HETATM   15  H8  UNL     1      -1.343   0.554   3.200  1.00  0.00     0.069 HD
ENDBRANCH   4  14
ENDBRANCH   3   4
ENDBRANCH   1   3
BRANCH   1  16
HETATM   16  S1  UNL     1      -2.087  -0.736  -1.246  1.00  0.00     0.264 S 
HETATM   17  O3  UNL     1      -2.371  -0.853  -2.713  1.00  0.00    -0.204 OA
HETATM   18  O4  UNL     1      -1.735  -2.132  -0.766  1.00  0.00    -0.204 OA
BRANCH  16  19
HETATM   19  C8  UNL     1      -3.434  -0.079  -0.349  1.00  0.00     0.087 A 
HETATM   20  C9  UNL     1      -3.510   1.026   0.471  1.00  0.00     0.026 A 
HETATM   21  C10 UNL     1      -4.701   1.355   1.079  1.00  0.00     0.002 A 
HETATM   22  C11 UNL     1      -5.844   0.606   0.895  1.00  0.00     0.001 A 
HETATM   23  C12 UNL     1      -5.784  -0.501   0.079  1.00  0.00     0.013 A 
HETATM   24  C13 UNL     1      -4.584  -0.853  -0.549  1.00  0.00    -0.014 A 
BRANCH  24  25
HETATM   25  P2  UNL     1      -4.719  -2.354  -1.589  1.00  0.00    -0.105 P 
HETATM   26  H14 UNL     1      -5.493  -3.352  -0.842  1.00  0.00     0.059 HD
HETATM   27  H15 UNL     1      -5.533  -2.007  -2.746  1.00  0.00     0.059 HD
ENDBRANCH  24  25
ENDBRANCH  16  19
ENDBRANCH   1  16
TORSDOF 9
