REMARK  8 active torsions:
REMARK  status: ('A' for Active; 'I' for Inactive)
REMARK    1  A    between atoms: N1_1  and  C1_2 
REMARK    2  A    between atoms: C1_2  and  C2_3 
REMARK    3  A    between atoms: C2_3  and  C3_4 
REMARK    4  A    between atoms: C5_6  and  O1_7 
REMARK    5  A    between atoms: O1_7  and  C6_8 
REMARK    6  A    between atoms: C6_8  and  C7_9 
REMARK       I    between atoms: C7_9  and  N2_11 
REMARK    7  A    between atoms: N2_11  and  S1_12 
REMARK    8  A    between atoms: S1_12  and  C8_15 
ROOT
HETATM    1  C6  UNL     1       0.575  -0.669  -1.040  1.00  0.00     0.279 C 
ENDROOT
BRANCH   1   2
HETATM    2  O1  UNL     1      -0.357   0.165  -0.399  1.00  0.00    -0.342 OA
BRANCH   2   3
HETATM    3  C5  UNL     1      -1.654  -0.220  -0.122  1.00  0.00     0.065 A 
HETATM    4  C4  UNL     1      -2.743   0.723   0.067  1.00  0.00     0.039 A 
HETATM    5  C3  UNL     1      -3.950   0.246   0.329  1.00  0.00    -0.075 A 
HETATM    6  C16 UNL     1      -4.477  -1.128   0.486  1.00  0.00     0.038 A 
HETATM    7  C15 UNL     1      -3.344  -2.101   0.286  1.00  0.00     0.034 A 
HETATM    8  C14 UNL     1      -2.045  -1.474   0.000  1.00  0.00     0.010 A 
BRANCH   5   9
HETATM    9  C2  UNL     1      -5.098   1.151   0.531  1.00  0.00     0.064 C 
BRANCH   9  10
HETATM   10  C1  UNL     1      -6.229   0.976  -0.421  1.00  0.00     0.271 C 
BRANCH  10  11
HETATM   11  N1  UNL     1      -7.254   1.966  -0.046  1.00  0.00     0.078 N 
HETATM   12  H1  UNL     1      -8.053   1.982  -0.687  1.00  0.00     0.312 HD
HETATM   13  H2  UNL     1      -6.836   2.875   0.209  1.00  0.00     0.312 HD
ENDBRANCH  10  11
ENDBRANCH   9  10
ENDBRANCH   5   9
ENDBRANCH   2   3
ENDBRANCH   1   2
BRANCH   1  14
HETATM   14  C7  UNL     1       1.882   0.065  -1.181  1.00  0.00     0.255 C 
HETATM   15  O2  UNL     1       1.980   1.254  -0.740  1.00  0.00    -0.270 OA
HETATM   16  N2  UNL     1       3.008  -0.516  -1.786  1.00  0.00    -0.248 N 
HETATM   17  H10 UNL     1       2.925  -1.489  -2.147  1.00  0.00     0.182 HD
BRANCH  16  18
HETATM   18  S1  UNL     1       4.467   0.397  -1.906  1.00  0.00     0.265 S 
HETATM   19  O3  UNL     1       4.158   1.863  -2.054  1.00  0.00    -0.200 OA
HETATM   20  O4  UNL     1       5.238   0.010  -3.160  1.00  0.00    -0.200 OA
BRANCH  18  21
HETATM   21  C8  UNL     1       5.504   0.176  -0.515  1.00  0.00     0.079 A 
HETATM   22  C9  UNL     1       6.475  -0.805  -0.417  1.00  0.00     0.025 A 
HETATM   23  C10 UNL     1       7.225  -0.870   0.736  1.00  0.00     0.002 A 
HETATM   24  C11 UNL     1       7.080  -0.026   1.808  1.00  0.00     0.000 A 
HETATM   25  C12 UNL     1       6.108   0.952   1.703  1.00  0.00     0.002 A 
HETATM   26  C13 UNL     1       5.342   1.038   0.555  1.00  0.00     0.025 A 
ENDBRANCH  18  21
ENDBRANCH  16  18
ENDBRANCH   1  14
TORSDOF 8
