REMARK  4 active torsions:
REMARK  status: ('A' for Active; 'I' for Inactive)
REMARK    1  A    between atoms: O1_2  and  C2_3 
REMARK    2  A    between atoms: C5_6  and  C6_7 
REMARK       I    between atoms: C6_7  and  N1_9 
REMARK    3  A    between atoms: N1_9  and  S1_10 
REMARK    4  A    between atoms: S1_10  and  C7_13 
ROOT
HETATM    1  C6  UNL     1      -0.266  -1.456  -0.345  1.00  0.00     0.239 C 
HETATM    2  O2  UNL     1      -0.170  -2.243  -1.329  1.00  0.00    -0.272 OA
HETATM    3  N1  UNL     1       0.924  -0.719  -0.093  1.00  0.00    -0.250 N 
HETATM    4  H8  UNL     1       0.968  -0.024   0.708  1.00  0.00     0.182 HD
ENDROOT
BRANCH   3   5
HETATM    5  S1  UNL     1       2.345  -0.923  -1.078  1.00  0.00     0.265 S 
HETATM    6  O3  UNL     1       2.848  -2.352  -0.927  1.00  0.00    -0.200 OA
HETATM    7  O4  UNL     1       2.080  -0.721  -2.521  1.00  0.00    -0.200 OA
BRANCH   5   8
HETATM    8  C7  UNL     1       3.627   0.111  -0.522  1.00  0.00     0.079 A 
HETATM    9  C8  UNL     1       3.704   1.372  -1.066  1.00  0.00     0.025 A 
HETATM   10  C9  UNL     1       4.695   2.272  -0.684  1.00  0.00     0.002 A 
HETATM   11  C10 UNL     1       5.606   1.851   0.267  1.00  0.00     0.000 A 
HETATM   12  C11 UNL     1       5.542   0.581   0.825  1.00  0.00     0.002 A 
HETATM   13  C12 UNL     1       4.549  -0.313   0.440  1.00  0.00     0.025 A 
ENDBRANCH   5   8
ENDBRANCH   3   5
BRANCH   1  14
HETATM   14  C5  UNL     1      -1.423  -1.210   0.551  1.00  0.00     0.105 A 
HETATM   15  C4  UNL     1      -1.795   0.242   0.441  1.00  0.00     0.048 A 
HETATM   16  C3  UNL     1      -3.232   0.437   0.071  1.00  0.00     0.011 A 
HETATM   17  C2  UNL     1      -4.216  -0.423  -0.172  1.00  0.00     0.064 A 
HETATM   18  C14 UNL     1      -3.812  -1.835  -0.055  1.00  0.00     0.033 A 
HETATM   19  C13 UNL     1      -2.548  -2.130   0.272  1.00  0.00    -0.010 A 
BRANCH  17  20
HETATM   20  O1  UNL     1      -5.534  -0.110  -0.513  1.00  0.00    -0.356 OA
HETATM   21  C1  UNL     1      -6.075   1.103  -0.050  1.00  0.00     0.210 C 
ENDBRANCH  17  20
ENDBRANCH   1  14
TORSDOF 4
