REMARK  4 active torsions:
REMARK  status: ('A' for Active; 'I' for Inactive)
REMARK    1  A    between atoms: O1_2  and  C2_3 
REMARK    2  A    between atoms: C6_7  and  C7_8 
REMARK       I    between atoms: C7_8  and  N1_10 
REMARK    3  A    between atoms: N1_10  and  S1_11 
REMARK    4  A    between atoms: S1_11  and  C8_14 
ROOT
HETATM    1  C7  UNL     1      -0.069   0.600  -1.005  1.00  0.00     0.261 C 
HETATM    2  O2  UNL     1      -0.495   1.729  -1.365  1.00  0.00    -0.267 OA
HETATM    3  N1  UNL     1      -0.901  -0.566  -1.148  1.00  0.00    -0.246 N 
HETATM    4  H8  UNL     1      -0.469  -1.473  -0.823  1.00  0.00     0.182 HD
ENDROOT
BRANCH   3   5
HETATM    5  S1  UNL     1      -2.505  -0.550  -1.801  1.00  0.00     0.265 S 
HETATM    6  O3  UNL     1      -2.749  -1.914  -2.404  1.00  0.00    -0.200 OA
HETATM    7  O4  UNL     1      -2.614   0.456  -2.904  1.00  0.00    -0.200 OA
BRANCH   5   8
HETATM    8  C8  UNL     1      -3.695  -0.298  -0.563  1.00  0.00     0.080 A 
HETATM    9  C9  UNL     1      -4.037   0.996  -0.292  1.00  0.00     0.025 A 
HETATM   10  C10 UNL     1      -4.991   1.236   0.697  1.00  0.00     0.002 A 
HETATM   11  C11 UNL     1      -5.554   0.149   1.364  1.00  0.00     0.000 A 
HETATM   12  C12 UNL     1      -5.192  -1.152   1.072  1.00  0.00     0.002 A 
HETATM   13  C13 UNL     1      -4.248  -1.379   0.092  1.00  0.00     0.025 A 
ENDBRANCH   5   8
ENDBRANCH   3   5
BRANCH   1  14
HETATM   14  C6  UNL     1       1.273   0.479  -0.442  1.00  0.00     0.017 A 
HETATM   15  C5  UNL     1       2.075   1.524  -0.290  1.00  0.00     0.022 A 
HETATM   16  C3  UNL     1       3.323   1.040   0.295  1.00  0.00    -0.032 A 
HETATM   17  C2  UNL     1       3.235  -0.280   0.479  1.00  0.00     0.056 A 
HETATM   18  C4  UNL     1       4.504   1.885   0.634  1.00  0.00     0.050 C 
HETATM   19  C14 UNL     1       1.906  -0.784   0.024  1.00  0.00     0.109 A 
BRANCH  17  20
HETATM   20  O1  UNL     1       4.029  -1.311   0.972  1.00  0.00    -0.359 OA
HETATM   21  C1  UNL     1       5.336  -1.592   0.579  1.00  0.00     0.209 C 
ENDBRANCH  17  20
ENDBRANCH   1  14
TORSDOF 4
