REMARK  5 active torsions:
REMARK  status: ('A' for Active; 'I' for Inactive)
REMARK    1  A    between atoms: C5_5  and  S1_6 
REMARK    2  A    between atoms: S1_6  and  N1_8 
REMARK    3  A    between atoms: N1_8  and  C6_9 
REMARK    4  A    between atoms: C6_9  and  C8_11 
REMARK    5  A    between atoms: C11_14  and  C12_15 
ROOT
HETATM    1  N1  UNL     1      -0.442  -0.374  -1.720  1.00  0.00    -0.230 NA
HETATM    2  H6  UNL     1      -0.585   0.638  -1.639  1.00  0.00     0.138 HD
ENDROOT
BRANCH   1   3
HETATM    3  S1  UNL     1       1.143  -0.884  -2.156  1.00  0.00     0.126 S 
HETATM    4  O1  UNL     1       1.444  -0.740  -3.633  1.00  0.00    -0.236 OA
BRANCH   3   5
HETATM    5  C5  UNL     1       2.399  -0.171  -1.143  1.00  0.00     0.047 A 
HETATM    6  C4  UNL     1       2.837  -0.786   0.032  1.00  0.00     0.023 A 
HETATM    7  C3  UNL     1       3.807  -0.257   0.836  1.00  0.00     0.008 A 
HETATM    8  C2  UNL     1       4.371   0.948   0.450  1.00  0.00    -0.062 A 
HETATM    9  C1  UNL     1       5.442   1.578   1.296  1.00  0.00     0.048 C 
HETATM   10  C16 UNL     1       3.948   1.569  -0.710  1.00  0.00     0.008 A 
HETATM   11  C15 UNL     1       2.957   1.014  -1.518  1.00  0.00     0.023 A 
ENDBRANCH   3   5
ENDBRANCH   1   3
BRANCH   1  12
HETATM   12  C6  UNL     1      -0.967  -1.098  -0.570  1.00  0.00     0.098 C 
HETATM   13  C7  UNL     1      -1.041  -2.574  -0.851  1.00  0.00     0.032 C 
BRANCH  12  14
HETATM   14  C8  UNL     1      -2.260  -0.512  -0.133  1.00  0.00    -0.040 A 
HETATM   15  C9  UNL     1      -2.438  -0.311   1.221  1.00  0.00     0.010 A 
HETATM   16  C10 UNL     1      -3.621   0.231   1.674  1.00  0.00     0.015 A 
HETATM   17  C11 UNL     1      -4.535   0.526   0.686  1.00  0.00     0.002 A 
HETATM   18  C13 UNL     1      -4.385   0.337  -0.671  1.00  0.00     0.015 A 
HETATM   19  C14 UNL     1      -3.193  -0.207  -1.100  1.00  0.00     0.010 A 
BRANCH  17  20
HETATM   20  C12 UNL     1      -5.802   1.101   1.101  1.00  0.00     0.269 C 
HETATM   21  O2  UNL     1      -6.008   1.305   2.339  1.00  0.00    -0.301 OA
ENDBRANCH  17  20
ENDBRANCH  12  14
ENDBRANCH   1  12
TORSDOF 5
