REMARK  5 active torsions:
REMARK  status: ('A' for Active; 'I' for Inactive)
REMARK    1  A    between atoms: C5_5  and  S1_6 
REMARK    2  A    between atoms: S1_6  and  N1_7 
REMARK       I    between atoms: N1_7  and  C6_8 
REMARK    3  A    between atoms: C6_8  and  C7_10 
REMARK    4  A    between atoms: C8_11  and  O2_12 
REMARK    5  A    between atoms: O2_12  and  C9_13 
ROOT
HETATM    1  N1  UNL     1      -0.316  -0.491   0.055  1.00  0.00    -0.292 N 
HETATM    2  C6  UNL     1      -1.610  -0.995   0.226  1.00  0.00     0.260 C 
HETATM    3  O1  UNL     1      -1.532  -1.939   1.016  1.00  0.00    -0.267 OA
HETATM    4  H6  UNL     1       0.009   0.312  -0.545  1.00  0.00     0.177 HD
ENDROOT
BRANCH   2   5
HETATM    5  C7  UNL     1      -2.703  -0.368  -0.496  1.00  0.00     0.043 C 
HETATM    6  C8  UNL     1      -3.937  -0.774  -0.383  1.00  0.00     0.065 C 
HETATM    7  C10 UNL     1      -4.982  -0.068  -1.168  1.00  0.00     0.092 C 
HETATM    8  C11 UNL     1      -4.818   1.396  -0.907  1.00  0.00    -0.024 C 
HETATM    9  C12 UNL     1      -3.572   1.837  -1.040  1.00  0.00    -0.026 C 
HETATM   10  C13 UNL     1      -2.604   0.772  -1.423  1.00  0.00     0.073 C 
BRANCH   6  11
HETATM   11  O2  UNL     1      -4.402  -1.816   0.404  1.00  0.00    -0.316 OA
BRANCH  11  12
HETATM   12  C9  UNL     1      -4.301  -1.721   1.797  1.00  0.00     0.567 C 
HETATM   13  O3  UNL     1      -3.855  -0.838   2.605  1.00  0.00    -0.406 OA
ENDBRANCH  11  12
ENDBRANCH   6  11
ENDBRANCH   2   5
BRANCH   1  14
HETATM   14  S1  UNL     1       0.926  -1.334   0.981  1.00  0.00    -0.012 SA
BRANCH  14  15
HETATM   15  C5  UNL     1       2.544  -0.630   0.706  1.00  0.00     0.021 A 
HETATM   16  C4  UNL     1       2.823   0.439  -0.120  1.00  0.00     0.021 A 
HETATM   17  C3  UNL     1       4.123   0.884  -0.241  1.00  0.00     0.008 A 
HETATM   18  C2  UNL     1       5.189   0.319   0.423  1.00  0.00    -0.062 A 
HETATM   19  C1  UNL     1       6.582   0.773   0.311  1.00  0.00     0.048 C 
HETATM   20  C15 UNL     1       4.851  -0.758   1.244  1.00  0.00     0.008 A 
HETATM   21  C14 UNL     1       3.561  -1.267   1.420  1.00  0.00     0.021 A 
ENDBRANCH  14  15
ENDBRANCH   1  14
TORSDOF 5
