REMARK  7 active torsions:
REMARK  status: ('A' for Active; 'I' for Inactive)
REMARK    1  A    between atoms: O1_2  and  C2_3 
REMARK    2  A    between atoms: C2_3  and  C3_4 
REMARK    3  A    between atoms: C2_3  and  P1_19 
REMARK    4  A    between atoms: C3_4  and  B1_5 
REMARK    5  A    between atoms: B1_5  and  C4_6 
REMARK       I    between atoms: C4_6  and  N1_8 
REMARK    6  A    between atoms: N1_8  and  S1_9 
REMARK    7  A    between atoms: S1_9  and  C5_12 
ROOT
HETATM    1  C4  UNL     1       0.723  -0.115   0.533  1.00  0.00     0.171 C 
HETATM    2  O2  UNL     1       0.819   1.131   0.770  1.00  0.00    -0.288 OA
HETATM    3  N1  UNL     1      -0.390  -0.868   1.000  1.00  0.00    -0.261 N 
HETATM    4  H7  UNL     1      -0.289  -1.868   0.707  1.00  0.00     0.180 HD
ENDROOT
BRANCH   3   5
HETATM    5  S1  UNL     1      -1.604  -0.031   1.900  1.00  0.00     0.260 S 
HETATM    6  O3  UNL     1      -2.204  -0.978   2.905  1.00  0.00    -0.200 OA
HETATM    7  O4  UNL     1      -0.924   1.064   2.671  1.00  0.00    -0.200 OA
BRANCH   5   8
HETATM    8  C5  UNL     1      -2.818   0.579   0.821  1.00  0.00     0.058 C 
HETATM    9  C6  UNL     1      -3.851  -0.214   0.559  1.00  0.00     0.025 C 
HETATM   10  C7  UNL     1      -4.916   0.270  -0.361  1.00  0.00     0.141 C 
HETATM   11  C8  UNL     1      -5.240  -0.847  -1.319  1.00  0.00     0.044 C 
HETATM   12  O5  UNL     1      -4.551   1.427  -1.039  1.00  0.00    -0.382 OA
HETATM   13  C9  UNL     1      -4.110   2.375  -0.119  1.00  0.00     0.173 C 
HETATM   14  C10 UNL     1      -2.680   1.945   0.227  1.00  0.00     0.078 C 
ENDBRANCH   5   8
ENDBRANCH   3   5
BRANCH   1  15
HETATM   15  B1  UNL     1       1.976  -0.535  -0.291  1.00  0.00     0.277 B 
HETATM   16  H6  UNL     1       1.973  -0.347  -1.457  1.00  0.00    -0.015 HD
BRANCH  15  17
HETATM   17  C3  UNL     1       3.373  -0.429   0.469  1.00  0.00     0.022 C 
BRANCH  17  18
HETATM   18  C2  UNL     1       4.421  -0.880  -0.457  1.00  0.00     0.045 C 
BRANCH  18  19
HETATM   19  O1  UNL     1       4.063  -2.179  -0.746  1.00  0.00    -0.360 OA
HETATM   20  C1  UNL     1       4.911  -3.237  -0.351  1.00  0.00     0.209 C 
ENDBRANCH  18  19
BRANCH  18  21
HETATM   21  P1  UNL     1       5.639   0.171  -0.875  1.00  0.00    -0.033 P 
HETATM   22  C11 UNL     1       5.691   1.895  -0.192  1.00  0.00     0.056 C 
ENDBRANCH  18  21
ENDBRANCH  17  18
ENDBRANCH  15  17
ENDBRANCH   1  15
TORSDOF 7
