REMARK  8 active torsions:
REMARK  status: ('A' for Active; 'I' for Inactive)
REMARK    1  A    between atoms: C3_3  and  C5_5 
REMARK    2  A    between atoms: C5_5  and  C6_6 
REMARK    3  A    between atoms: C6_6  and  C7_7 
REMARK    4  A    between atoms: C7_7  and  S1_8 
REMARK    5  A    between atoms: S1_8  and  C8_10 
REMARK    6  A    between atoms: C8_10  and  C9_12 
REMARK    7  A    between atoms: C12_15  and  O3_16 
REMARK    8  A    between atoms: C15_19  and  O4_20 
ROOT
HETATM    1  C1  UNL     1       5.643  -2.019   0.069  1.00  0.00     0.097 C 
HETATM    2  C2  UNL     1       5.505  -0.730  -0.044  1.00  0.00    -0.148 C 
HETATM    3  C3  UNL     1       5.231   0.553  -0.204  1.00  0.00    -0.021 C 
HETATM    4  C4  UNL     1       6.428   1.358  -0.356  1.00  0.00     0.057 C 
ENDROOT
BRANCH   3   5
HETATM    5  C5  UNL     1       3.868   0.971  -0.207  1.00  0.00     0.011 C 
BRANCH   5   6
HETATM    6  C6  UNL     1       2.881   0.149   0.104  1.00  0.00    -0.013 C 
BRANCH   6   7
HETATM    7  C7  UNL     1       1.443   0.599   0.098  1.00  0.00     0.144 C 
BRANCH   7   8
HETATM    8  S1  UNL     1       0.614  -0.434  -1.086  1.00  0.00     0.094 S 
HETATM    9  O1  UNL     1       1.009  -1.880  -1.052  1.00  0.00    -0.249 OA
BRANCH   8  10
HETATM   10  C8  UNL     1      -1.084  -0.118  -1.289  1.00  0.00     0.251 C 
HETATM   11  O2  UNL     1      -0.928   0.184  -2.499  1.00  0.00    -0.277 OA
BRANCH  10  12
HETATM   12  C9  UNL     1      -2.312  -0.130  -0.539  1.00  0.00     0.057 A 
HETATM   13  C10 UNL     1      -3.416   0.243  -1.271  1.00  0.00     0.022 A 
HETATM   14  C11 UNL     1      -4.620   0.238  -0.560  1.00  0.00     0.038 A 
HETATM   15  C12 UNL     1      -4.725  -0.108   0.770  1.00  0.00     0.070 A 
HETATM   16  C14 UNL     1      -3.597  -0.476   1.471  1.00  0.00     0.074 A 
HETATM   17  C15 UNL     1      -2.416  -0.475   0.784  1.00  0.00     0.083 A 
BRANCH  15  18
HETATM   18  O3  UNL     1      -5.936  -0.097   1.429  1.00  0.00    -0.356 OA
HETATM   19  C13 UNL     1      -7.131   0.266   0.784  1.00  0.00     0.210 C 
ENDBRANCH  15  18
BRANCH  17  20
HETATM   20  O4  UNL     1      -1.274  -0.844   1.480  1.00  0.00    -0.360 OA
HETATM   21  H16 UNL     1      -1.042  -1.824   1.620  1.00  0.00     0.217 HD
ENDBRANCH  17  20
ENDBRANCH  10  12
ENDBRANCH   8  10
ENDBRANCH   7   8
ENDBRANCH   6   7
ENDBRANCH   5   6
ENDBRANCH   3   5
TORSDOF 8
