REMARK  9 active torsions:
REMARK  status: ('A' for Active; 'I' for Inactive)
REMARK    1  A    between atoms: C6_6  and  C7_7 
REMARK    2  A    between atoms: C7_7  and  S1_8 
REMARK    3  A    between atoms: S1_8  and  N1_11 
REMARK    4  A    between atoms: N1_11  and  C8_12 
REMARK    5  A    between atoms: C9_13  and  C10_14 
REMARK    6  A    between atoms: C10_14  and  C11_15 
REMARK    7  A    between atoms: C13_17  and  N2_18 
REMARK    8  A    between atoms: N2_18  and  O3_19 
REMARK    9  A    between atoms: C16_22  and  O4_23 
ROOT
HETATM    1  C8  UNL     1      -0.446  -1.670   0.515  1.00  0.00     0.096 C 
HETATM    2  C9  UNL     1      -1.334  -1.180   1.332  1.00  0.00    -0.008 C 
ENDROOT
BRANCH   2   3
HETATM    3  C10 UNL     1      -2.444  -0.245   1.426  1.00  0.00     0.044 C 
BRANCH   3   4
HETATM    4  C11 UNL     1      -2.822   0.470   0.164  1.00  0.00     0.070 C 
HETATM    5  C12 UNL     1      -3.973   1.374   0.550  1.00  0.00     0.012 C 
HETATM    6  C13 UNL     1      -5.232   0.974   0.568  1.00  0.00     0.032 C 
HETATM    7  C14 UNL     1      -5.548  -0.430   0.189  1.00  0.00     0.088 C 
HETATM    8  C15 UNL     1      -4.609  -0.842  -0.886  1.00  0.00     0.012 C 
HETATM    9  C16 UNL     1      -3.328  -0.426  -0.908  1.00  0.00     0.048 C 
BRANCH   6  10
HETATM   10  N2  UNL     1      -6.250   1.895   0.946  1.00  0.00    -0.273 N 
HETATM   11  H17 UNL     1      -7.251   1.766   0.669  1.00  0.00     0.193 HD
BRANCH  10  12
HETATM   12  O3  UNL     1      -5.964   2.989   1.687  1.00  0.00    -0.290 OA
HETATM   13  H18 UNL     1      -5.407   3.585   1.150  1.00  0.00     0.244 HD
ENDBRANCH  10  12
ENDBRANCH   6  10
BRANCH   9  14
HETATM   14  O4  UNL     1      -2.638  -0.947  -2.022  1.00  0.00    -0.365 OA
HETATM   15  H22 UNL     1      -2.953  -0.747  -2.977  1.00  0.00     0.217 HD
ENDBRANCH   9  14
ENDBRANCH   3   4
ENDBRANCH   2   3
BRANCH   1  16
HETATM   16  N1  UNL     1       0.107  -1.702  -0.778  1.00  0.00    -0.295 N 
HETATM   17  H10 UNL     1      -0.216  -2.351  -1.562  1.00  0.00     0.177 HD
BRANCH  16  18
HETATM   18  S1  UNL     1       1.394  -0.582  -1.051  1.00  0.00     0.233 S 
HETATM   19  O1  UNL     1       1.834  -0.712  -2.472  1.00  0.00    -0.205 OA
HETATM   20  O2  UNL     1       0.874   0.819  -0.839  1.00  0.00    -0.205 OA
BRANCH  18  21
HETATM   21  C7  UNL     1       2.783  -0.873   0.005  1.00  0.00     0.191 C 
BRANCH  21  22
HETATM   22  C6  UNL     1       3.877   0.074  -0.222  1.00  0.00    -0.002 C 
HETATM   23  C5  UNL     1       5.105  -0.163  -0.589  1.00  0.00    -0.052 A 
HETATM   24  C2  UNL     1       6.255   0.713  -0.838  1.00  0.00    -0.059 A 
HETATM   25  C4  UNL     1       5.870  -1.397  -0.910  1.00  0.00     0.066 A 
HETATM   26  C1  UNL     1       6.501   2.193  -0.780  1.00  0.00     0.048 C 
HETATM   27  C3  UNL     1       6.949  -0.397  -1.128  1.00  0.00    -0.015 A 
ENDBRANCH  21  22
ENDBRANCH  18  21
ENDBRANCH  16  18
ENDBRANCH   1  16
TORSDOF 9
