REMARK  5 active torsions:
REMARK  status: ('A' for Active; 'I' for Inactive)
REMARK    1  A    between atoms: O1_2  and  C2_3 
REMARK    2  A    between atoms: C5_6  and  C6_7 
REMARK    3  A    between atoms: C6_7  and  C7_8 
REMARK       I    between atoms: C7_8  and  N1_10 
REMARK    4  A    between atoms: N1_10  and  S1_11 
REMARK    5  A    between atoms: S1_11  and  C8_14 
ROOT
HETATM    1  C7  UNL     1      -0.295  -1.224  -0.477  1.00  0.00     0.235 C 
HETATM    2  O2  UNL     1      -1.267  -1.456  -1.236  1.00  0.00    -0.272 OA
HETATM    3  N1  UNL     1      -0.553  -0.599   0.752  1.00  0.00    -0.254 N 
HETATM    4  H8  UNL     1       0.345  -0.459   1.289  1.00  0.00     0.181 HD
ENDROOT
BRANCH   3   5
HETATM    5  S1  UNL     1      -2.089  -0.120   1.312  1.00  0.00     0.240 S 
HETATM    6  O3  UNL     1      -2.068   1.386   1.537  1.00  0.00    -0.205 OA
HETATM    7  O4  UNL     1      -2.464  -0.820   2.583  1.00  0.00    -0.205 OA
BRANCH   5   8
HETATM    8  C8  UNL     1      -3.367  -0.410   0.132  1.00  0.00     0.156 A 
HETATM    9  C9  UNL     1      -3.392   0.539  -0.983  1.00  0.00    -0.002 A 
HETATM   10  C10 UNL     1      -4.332   1.385  -1.429  1.00  0.00     0.039 A 
HETATM   11  C11 UNL     1      -5.628   1.441  -0.707  1.00  0.00     0.112 A 
HETATM   12  F1  UNL     1      -6.713   2.199  -0.973  1.00  0.00    -0.206 F 
HETATM   13  C12 UNL     1      -5.651   0.619   0.306  1.00  0.00     0.017 A 
HETATM   14  C13 UNL     1      -4.705  -0.333   0.894  1.00  0.00     0.056 A 
ENDBRANCH   5   8
ENDBRANCH   3   5
BRANCH   1  15
HETATM   15  C6  UNL     1       0.917  -1.716  -1.160  1.00  0.00     0.142 C 
BRANCH  15  16
HETATM   16  C5  UNL     1       2.107  -0.875  -0.866  1.00  0.00    -0.049 A 
HETATM   17  C4  UNL     1       3.219  -1.503  -0.308  1.00  0.00     0.010 A 
HETATM   18  C3  UNL     1       4.362  -0.846   0.010  1.00  0.00     0.037 A 
HETATM   19  C2  UNL     1       4.399   0.508  -0.241  1.00  0.00     0.068 A 
HETATM   20  C15 UNL     1       3.306   1.152  -0.793  1.00  0.00     0.037 A 
HETATM   21  C14 UNL     1       2.142   0.477  -1.118  1.00  0.00     0.010 A 
BRANCH  19  22
HETATM   22  O1  UNL     1       5.427   1.392  -0.016  1.00  0.00    -0.356 OA
HETATM   23  C1  UNL     1       6.686   1.034   0.527  1.00  0.00     0.210 C 
ENDBRANCH  19  22
ENDBRANCH  15  16
ENDBRANCH   1  15
TORSDOF 5
