REMARK  5 active torsions:
REMARK  status: ('A' for Active; 'I' for Inactive)
REMARK    1  A    between atoms: C6_7  and  S1_8 
REMARK    2  A    between atoms: S1_8  and  N1_10 
REMARK       I    between atoms: N1_10  and  C7_11 
REMARK    3  A    between atoms: C7_11  and  C8_13 
REMARK    4  A    between atoms: C11_16  and  O4_17 
REMARK    5  A    between atoms: O4_17  and  C12_18 
ROOT
HETATM    1  N1  UNL     1      -0.458   1.131  -0.836  1.00  0.00    -0.268 N 
HETATM    2  C7  UNL     1       0.467   1.673   0.094  1.00  0.00     0.263 C 
HETATM    3  O3  UNL     1      -0.019   2.573   0.806  1.00  0.00    -0.267 OA
HETATM    4  H8  UNL     1      -0.274   0.372  -1.529  1.00  0.00     0.180 HD
ENDROOT
BRANCH   1   5
HETATM    5  S1  UNL     1      -2.107   1.371  -1.271  1.00  0.00     0.151 S 
HETATM    6  O2  UNL     1      -2.527   2.808  -1.404  1.00  0.00    -0.230 OA
BRANCH   5   7
HETATM    7  C6  UNL     1      -3.239   0.369  -0.365  1.00  0.00     0.060 A 
HETATM    8  C2  UNL     1      -2.941  -1.065  -0.635  1.00  0.00     0.051 A 
HETATM    9  C1  UNL     1      -2.954  -1.412  -2.086  1.00  0.00     0.020 C 
HETATM   10  C3  UNL     1      -3.941  -1.841   0.167  1.00  0.00     0.007 A 
HETATM   11  C4  UNL     1      -4.892  -1.319   0.954  1.00  0.00     0.138 A 
HETATM   12  O1  UNL     1      -5.076   0.046   1.130  1.00  0.00    -0.334 OA
HETATM   13  C5  UNL     1      -4.201   0.870   0.430  1.00  0.00     0.160 A 
ENDBRANCH   5   7
ENDBRANCH   1   5
BRANCH   2  14
HETATM   14  C8  UNL     1       1.819   1.128   0.098  1.00  0.00     0.033 A 
HETATM   15  C9  UNL     1       2.361   0.133  -0.688  1.00  0.00     0.020 A 
HETATM   16  C10 UNL     1       3.680  -0.226  -0.509  1.00  0.00     0.038 A 
HETATM   17  C11 UNL     1       4.474   0.386   0.438  1.00  0.00     0.078 A 
HETATM   18  C13 UNL     1       3.946   1.394   1.242  1.00  0.00     0.038 A 
HETATM   19  C14 UNL     1       2.622   1.746   1.055  1.00  0.00     0.020 A 
BRANCH  17  20
HETATM   20  O4  UNL     1       5.785  -0.066   0.520  1.00  0.00    -0.286 OA
BRANCH  20  21
HETATM   21  C12 UNL     1       6.136  -1.114   1.365  1.00  0.00     0.403 C 
HETATM   22  O5  UNL     1       5.907  -2.011   2.218  1.00  0.00    -0.276 OA
ENDBRANCH  20  21
ENDBRANCH  17  20
ENDBRANCH   2  14
TORSDOF 5
