REMARK  8 active torsions:
REMARK  status: ('A' for Active; 'I' for Inactive)
REMARK    1  A    between atoms: C2_2  and  C3_4 
REMARK    2  A    between atoms: C3_4  and  B1_5 
REMARK    3  A    between atoms: B1_5  and  C4_6 
REMARK    4  A    between atoms: C4_6  and  S1_7 
REMARK    5  A    between atoms: S1_7  and  N1_10 
REMARK       I    between atoms: N1_10  and  C5_11 
REMARK    6  A    between atoms: C5_11  and  C6_13 
REMARK    7  A    between atoms: C6_13  and  C7_14 
REMARK    8  A    between atoms: C10_17  and  O4_18 
ROOT
HETATM    1  N1  UNL     1       1.039  -2.297   0.277  1.00  0.00    -0.252 N 
HETATM    2  C5  UNL     1      -0.115  -1.481   0.172  1.00  0.00     0.235 C 
HETATM    3  O3  UNL     1      -0.308  -0.296  -0.150  1.00  0.00    -0.272 OA
HETATM    4  H6  UNL     1       0.937  -3.280   0.575  1.00  0.00     0.181 HD
ENDROOT
BRANCH   1   5
HETATM    5  S1  UNL     1       2.633  -1.786  -0.055  1.00  0.00     0.241 S 
HETATM    6  O1  UNL     1       3.429  -1.955   1.227  1.00  0.00    -0.202 OA
HETATM    7  O2  UNL     1       3.185  -2.728  -1.113  1.00  0.00    -0.202 OA
BRANCH   5   8
HETATM    8  C4  UNL     1       2.759  -0.130  -0.552  1.00  0.00     0.040 C 
BRANCH   8   9
HETATM    9  B1  UNL     1       3.971   1.010   0.047  1.00  0.00     0.194 B 
BRANCH   9  10
HETATM   10  C3  UNL     1       5.246   2.054   0.733  1.00  0.00     0.016 C 
BRANCH  10  11
HETATM   11  C2  UNL     1       6.553   1.499   0.309  1.00  0.00     0.075 C 
HETATM   12  C1  UNL     1       7.468   1.088   1.207  1.00  0.00     0.051 C 
HETATM   13  F1  UNL     1       6.498   1.548  -1.061  1.00  0.00    -0.213 F 
ENDBRANCH  10  11
ENDBRANCH   9  10
ENDBRANCH   8   9
ENDBRANCH   5   8
ENDBRANCH   1   5
BRANCH   2  14
HETATM   14  C6  UNL     1      -1.430  -2.082   0.499  1.00  0.00     0.142 C 
BRANCH  14  15
HETATM   15  C7  UNL     1      -2.531  -1.100   0.340  1.00  0.00    -0.049 A 
HETATM   16  C8  UNL     1      -2.973  -0.274   1.350  1.00  0.00     0.010 A 
HETATM   17  C9  UNL     1      -4.015   0.616   1.097  1.00  0.00     0.037 A 
HETATM   18  C10 UNL     1      -4.621   0.691  -0.148  1.00  0.00     0.068 A 
HETATM   19  C12 UNL     1      -4.169  -0.140  -1.144  1.00  0.00     0.037 A 
HETATM   20  C13 UNL     1      -3.144  -1.017  -0.903  1.00  0.00     0.010 A 
BRANCH  18  21
HETATM   21  O4  UNL     1      -5.631   1.635  -0.187  1.00  0.00    -0.356 OA
HETATM   22  C11 UNL     1      -6.364   1.855  -1.373  1.00  0.00     0.210 C 
ENDBRANCH  18  21
ENDBRANCH  14  15
ENDBRANCH   2  14
TORSDOF 8
