REMARK  4 active torsions:
REMARK  status: ('A' for Active; 'I' for Inactive)
REMARK    1  A    between atoms: O1_2  and  C2_3 
REMARK    2  A    between atoms: C5_6  and  C6_7 
REMARK       I    between atoms: C6_7  and  N1_9 
REMARK    3  A    between atoms: N1_9  and  S1_10 
REMARK    4  A    between atoms: S1_10  and  C7_13 
ROOT
HETATM    1  C6  UNL     1       0.212  -0.315   0.201  1.00  0.00     0.265 C 
HETATM    2  O2  UNL     1       0.710   0.383   1.119  1.00  0.00    -0.267 OA
HETATM    3  N1  UNL     1       0.978  -1.229  -0.567  1.00  0.00    -0.248 N 
HETATM    4  H6  UNL     1       0.554  -1.805  -1.328  1.00  0.00     0.182 HD
ENDROOT
BRANCH   3   5
HETATM    5  S1  UNL     1       2.623  -1.660  -0.538  1.00  0.00     0.260 S 
HETATM    6  O3  UNL     1       2.733  -3.144  -0.215  1.00  0.00    -0.203 OA
HETATM    7  O4  UNL     1       3.285  -1.491  -1.871  1.00  0.00    -0.203 OA
BRANCH   5   8
HETATM    8  C7  UNL     1       3.571  -0.783   0.678  1.00  0.00     0.274 C 
HETATM    9  C8  UNL     1       3.641   0.663   0.348  1.00  0.00     0.019 C 
HETATM   10  C9  UNL     1       4.581   1.037  -0.538  1.00  0.00     0.025 C 
HETATM   11  C10 UNL     1       5.475   0.013  -1.124  1.00  0.00     0.064 C 
HETATM   12 CL1  UNL     1       6.488   0.281  -2.529  1.00  0.00    -0.082 Cl
HETATM   13  C11 UNL     1       5.497  -1.163  -0.542  1.00  0.00     0.104 C 
HETATM   14  N2  UNL     1       4.951  -1.295   0.618  1.00  0.00    -0.259 NA
ENDBRANCH   5   8
ENDBRANCH   3   5
BRANCH   1  15
HETATM   15  C5  UNL     1      -1.211  -0.143  -0.045  1.00  0.00     0.033 A 
HETATM   16  C4  UNL     1      -1.901   0.759   0.733  1.00  0.00     0.020 A 
HETATM   17  C3  UNL     1      -3.271   0.980   0.555  1.00  0.00     0.038 A 
HETATM   18  C2  UNL     1      -3.980   0.310  -0.395  1.00  0.00     0.068 A 
HETATM   19  C13 UNL     1      -3.301  -0.593  -1.179  1.00  0.00     0.038 A 
HETATM   20  C12 UNL     1      -1.955  -0.805  -0.998  1.00  0.00     0.020 A 
BRANCH  18  21
HETATM   21  O1  UNL     1      -5.341   0.510  -0.592  1.00  0.00    -0.356 OA
HETATM   22  C1  UNL     1      -6.077   1.422   0.182  1.00  0.00     0.210 C 
ENDBRANCH  18  21
ENDBRANCH   1  15
TORSDOF 4
