REMARK  6 active torsions:
REMARK  status: ('A' for Active; 'I' for Inactive)
REMARK    1  A    between atoms: C4_5  and  C5_6 
REMARK    2  A    between atoms: C6_7  and  S1_8 
REMARK    3  A    between atoms: S1_8  and  N1_11 
REMARK    4  A    between atoms: N1_11  and  C7_12 
REMARK    5  A    between atoms: C7_12  and  C9_14 
REMARK    6  A    between atoms: C9_14  and  C10_15 
ROOT
HETATM    1  C1  UNL     1       6.533   3.049   1.137  1.00  0.00     0.019 C 
HETATM    2  C2  UNL     1       5.502   2.585   0.700  1.00  0.00    -0.065 C 
HETATM    3  C3  UNL     1       4.281   2.053   0.164  1.00  0.00     0.086 C 
HETATM    4 CL1  UNL     1       2.924   3.069  -0.280  1.00  0.00    -0.074 Cl
HETATM    5  C4  UNL     1       4.143   0.749  -0.013  1.00  0.00     0.034 C 
ENDROOT
BRANCH   5   6
HETATM    6  C5  UNL     1       2.932   0.109  -0.555  1.00  0.00     0.015 C 
HETATM    7  C6  UNL     1       2.816  -1.219  -0.726  1.00  0.00     0.131 C 
BRANCH   7   8
HETATM    8  S1  UNL     1       1.303  -1.820  -1.384  1.00  0.00     0.252 S 
HETATM    9  O1  UNL     1       0.812  -0.825  -2.388  1.00  0.00    -0.201 OA
HETATM   10  O2  UNL     1       1.529  -3.103  -2.134  1.00  0.00    -0.201 OA
BRANCH   8  11
HETATM   11  N1  UNL     1       0.139  -2.060  -0.119  1.00  0.00    -0.289 N 
HETATM   12  H5  UNL     1      -0.251  -3.010   0.074  1.00  0.00     0.178 HD
BRANCH  11  13
HETATM   13  C7  UNL     1      -0.219  -0.886   0.603  1.00  0.00    -0.001 C 
HETATM   14  C8  UNL     1       0.269  -0.804   1.847  1.00  0.00     0.059 C 
BRANCH  13  15
HETATM   15  C9  UNL     1      -1.070   0.082  -0.094  1.00  0.00     0.064 C 
BRANCH  15  16
HETATM   16  C10 UNL     1      -2.412  -0.458  -0.531  1.00  0.00     0.044 C 
HETATM   17  C11 UNL     1      -3.066   0.723  -1.207  1.00  0.00     0.005 C 
HETATM   18  C12 UNL     1      -3.683   1.469  -0.276  1.00  0.00     0.131 C 
HETATM   19  O3  UNL     1      -3.458   0.827   0.951  1.00  0.00    -0.358 OA
HETATM   20  C13 UNL     1      -3.378  -0.562   0.633  1.00  0.00     0.131 C 
HETATM   21  C14 UNL     1      -4.723  -0.981   0.137  1.00  0.00     0.040 C 
ENDBRANCH  15  16
ENDBRANCH  13  15
ENDBRANCH  11  13
ENDBRANCH   8  11
ENDBRANCH   7   8
ENDBRANCH   5   6
TORSDOF 6
