REMARK  4 active torsions:
REMARK  status: ('A' for Active; 'I' for Inactive)
REMARK    1  A    between atoms: C1_2  and  O2_3 
REMARK    2  A    between atoms: O2_3  and  C2_4 
REMARK    3  A    between atoms: C8_10  and  S1_11 
REMARK    4  A    between atoms: S1_11  and  C9_14 
ROOT
HETATM    1  C2  UNL     1      -2.422   0.835  -0.565  1.00  0.00     0.085 A 
HETATM    2  C3  UNL     1      -3.308   1.475   0.184  1.00  0.00     0.037 A 
HETATM    3  C4  UNL     1      -3.345   1.342   1.637  1.00  0.00    -0.001 A 
HETATM    4  C5  UNL     1      -2.453   0.549   2.186  1.00  0.00    -0.022 A 
HETATM    5  C6  UNL     1      -1.371  -0.264   1.539  1.00  0.00     0.069 A 
HETATM    6  C7  UNL     1      -1.442  -0.040   0.071  1.00  0.00    -0.010 A 
HETATM    7  C8  UNL     1      -0.577  -0.661  -0.704  1.00  0.00     0.124 C 
ENDROOT
BRANCH   7   8
HETATM    8  S1  UNL     1       0.693  -1.756  -0.206  1.00  0.00     0.197 S 
HETATM    9  O3  UNL     1       0.460  -2.284   1.181  1.00  0.00    -0.218 OA
HETATM   10  O4  UNL     1       0.831  -2.931  -1.161  1.00  0.00    -0.218 OA
BRANCH   8  11
HETATM   11  C9  UNL     1       2.260  -0.936  -0.248  1.00  0.00     0.063 A 
HETATM   12  C10 UNL     1       2.626  -0.299   0.937  1.00  0.00     0.025 A 
HETATM   13  C11 UNL     1       3.814   0.375   1.044  1.00  0.00     0.025 A 
HETATM   14  C12 UNL     1       4.643   0.406  -0.060  1.00  0.00     0.034 A 
HETATM   15 CL1  UNL     1       6.180   1.267   0.049  1.00  0.00    -0.084 Cl
HETATM   16  C13 UNL     1       4.302  -0.220  -1.249  1.00  0.00     0.025 A 
HETATM   17  C14 UNL     1       3.101  -0.896  -1.344  1.00  0.00     0.025 A 
ENDBRANCH   8  11
ENDBRANCH   7   8
BRANCH   1  18
HETATM   18  O2  UNL     1      -2.477   1.035  -1.940  1.00  0.00    -0.285 OA
BRANCH  18  19
HETATM   19  C1  UNL     1      -3.698   0.661  -2.534  1.00  0.00     0.403 C 
HETATM   20  O1  UNL     1      -4.672   0.181  -1.886  1.00  0.00    -0.276 OA
ENDBRANCH  18  19
ENDBRANCH   1  18
TORSDOF 4
