REMARK  5 active torsions:
REMARK  status: ('A' for Active; 'I' for Inactive)
REMARK    1  A    between atoms: O1_2  and  C2_3 
REMARK    2  A    between atoms: C5_6  and  C6_7 
REMARK    3  A    between atoms: C6_7  and  C7_8 
REMARK       I    between atoms: C7_8  and  N1_10 
REMARK    4  A    between atoms: N1_10  and  S1_11 
REMARK    5  A    between atoms: S1_11  and  C8_14 
ROOT
HETATM    1  C7  UNL     1       0.168  -2.135  -1.339  1.00  0.00     0.235 C 
HETATM    2  O2  UNL     1       0.896  -3.147  -1.621  1.00  0.00    -0.272 OA
HETATM    3  N1  UNL     1       0.905  -1.028  -0.863  1.00  0.00    -0.250 N 
HETATM    4  H8  UNL     1       0.390  -0.173  -0.581  1.00  0.00     0.181 HD
ENDROOT
BRANCH   3   5
HETATM    5  S1  UNL     1       2.581  -1.303  -0.824  1.00  0.00     0.266 S 
HETATM    6  O3  UNL     1       2.843  -2.515   0.027  1.00  0.00    -0.200 OA
HETATM    7  O4  UNL     1       3.031  -1.584  -2.246  1.00  0.00    -0.200 OA
BRANCH   5   8
HETATM    8  C8  UNL     1       3.488   0.000  -0.143  1.00  0.00     0.092 A 
HETATM    9  P1  UNL     1       3.256   0.469   1.538  1.00  0.00    -0.006 P 
HETATM   10  C9  UNL     1       4.297   1.807   1.982  1.00  0.00     0.041 A 
HETATM   11  C10 UNL     1       5.138   2.319   1.016  1.00  0.00     0.035 A 
HETATM   12 CL1  UNL     1       6.129   3.637   1.569  1.00  0.00    -0.084 Cl
HETATM   13  C11 UNL     1       5.124   1.769  -0.225  1.00  0.00     0.025 A 
HETATM   14  C12 UNL     1       4.452   0.767  -0.828  1.00  0.00     0.028 A 
ENDBRANCH   5   8
ENDBRANCH   3   5
BRANCH   1  15
HETATM   15  C6  UNL     1      -1.269  -2.283  -1.549  1.00  0.00     0.142 C 
BRANCH  15  16
HETATM   16  C5  UNL     1      -2.160  -1.542  -0.630  1.00  0.00    -0.049 A 
HETATM   17  C4  UNL     1      -2.168  -0.134  -0.906  1.00  0.00     0.010 A 
HETATM   18  C3  UNL     1      -3.067   0.511  -0.042  1.00  0.00     0.037 A 
HETATM   19  C2  UNL     1      -3.872   0.023   0.946  1.00  0.00     0.068 A 
HETATM   20  C14 UNL     1      -3.804  -1.333   1.143  1.00  0.00     0.037 A 
HETATM   21  C13 UNL     1      -2.945  -2.046   0.338  1.00  0.00     0.010 A 
BRANCH  19  22
HETATM   22  O1  UNL     1      -4.643   0.958   1.612  1.00  0.00    -0.356 OA
HETATM   23  C1  UNL     1      -4.603   2.328   1.302  1.00  0.00     0.210 C 
ENDBRANCH  19  22
ENDBRANCH  15  16
ENDBRANCH   1  15
TORSDOF 5
