REMARK  6 active torsions:
REMARK  status: ('A' for Active; 'I' for Inactive)
REMARK    1  A    between atoms: O1_2  and  C2_3 
REMARK    2  A    between atoms: C5_6  and  C6_7 
REMARK    3  A    between atoms: C6_7  and  C7_8 
REMARK    4  A    between atoms: C7_8  and  N1_9 
REMARK    5  A    between atoms: N1_9  and  S1_10 
REMARK    6  A    between atoms: S1_10  and  C8_13 
ROOT
HETATM    1  N1  UNL     1      -1.844  -2.299   0.191  1.00  0.00    -0.215 NA
HETATM    2  H10 UNL     1      -2.059  -2.494  -0.792  1.00  0.00     0.139 HD
ENDROOT
BRANCH   1   3
HETATM    3  C7  UNL     1      -0.639  -1.501   0.352  1.00  0.00     0.109 C 
BRANCH   3   4
HETATM    4  C6  UNL     1       0.521  -2.081  -0.451  1.00  0.00     0.054 C 
BRANCH   4   5
HETATM    5  C5  UNL     1       1.759  -1.262  -0.286  1.00  0.00    -0.057 A 
HETATM    6  C4  UNL     1       2.651  -1.560   0.742  1.00  0.00     0.010 A 
HETATM    7  C3  UNL     1       3.830  -0.838   0.958  1.00  0.00     0.037 A 
HETATM    8  C2  UNL     1       4.095   0.217   0.093  1.00  0.00     0.068 A 
HETATM    9  C15 UNL     1       3.237   0.528  -0.920  1.00  0.00     0.037 A 
HETATM   10  C14 UNL     1       2.087  -0.206  -1.100  1.00  0.00     0.010 A 
BRANCH   8  11
HETATM   11  O1  UNL     1       5.307   0.847   0.430  1.00  0.00    -0.356 OA
HETATM   12  C1  UNL     1       5.807   1.939  -0.281  1.00  0.00     0.210 C 
ENDBRANCH   8  11
ENDBRANCH   4   5
ENDBRANCH   3   4
ENDBRANCH   1   3
BRANCH   1  13
HETATM   13  S1  UNL     1      -3.095  -1.595   1.112  1.00  0.00     0.241 S 
HETATM   14  O2  UNL     1      -4.328  -2.458   1.080  1.00  0.00    -0.206 OA
HETATM   15  O3  UNL     1      -2.636  -1.573   2.552  1.00  0.00    -0.206 OA
BRANCH  13  16
HETATM   16  C8  UNL     1      -3.510   0.013   0.629  1.00  0.00     0.074 A 
HETATM   17  C9  UNL     1      -2.948   1.197   1.116  1.00  0.00     0.026 A 
HETATM   18  C10 UNL     1      -3.357   2.429   0.658  1.00  0.00     0.025 A 
HETATM   19  C11 UNL     1      -4.346   2.537  -0.309  1.00  0.00     0.034 A 
HETATM   20 CL1  UNL     1      -4.843   4.125  -0.871  1.00  0.00    -0.084 Cl
HETATM   21  C12 UNL     1      -4.939   1.403  -0.828  1.00  0.00     0.025 A 
HETATM   22  C13 UNL     1      -4.501   0.177  -0.342  1.00  0.00     0.026 A 
ENDBRANCH  13  16
ENDBRANCH   1  13
TORSDOF 6
