REMARK  5 active torsions:
REMARK  status: ('A' for Active; 'I' for Inactive)
REMARK    1  A    between atoms: O1_2  and  C2_3 
REMARK    2  A    between atoms: C5_6  and  C6_7 
REMARK    3  A    between atoms: C6_7  and  C7_8 
REMARK       I    between atoms: C7_8  and  N1_10 
REMARK    4  A    between atoms: N1_10  and  S1_11 
REMARK    5  A    between atoms: S1_11  and  C8_14 
ROOT
HETATM    1  C7  UNL     1       0.217  -1.202  -0.291  1.00  0.00     0.235 C 
HETATM    2  O2  UNL     1      -0.274  -0.314   0.477  1.00  0.00    -0.272 OA
HETATM    3  N1  UNL     1       1.462  -1.893  -0.178  1.00  0.00    -0.250 N 
HETATM    4  H8  UNL     1       1.673  -2.590  -0.925  1.00  0.00     0.181 HD
ENDROOT
BRANCH   3   5
HETATM    5  S1  UNL     1       2.534  -1.573   1.129  1.00  0.00     0.265 S 
HETATM    6  O3  UNL     1       1.794  -1.153   2.367  1.00  0.00    -0.200 OA
HETATM    7  O4  UNL     1       3.255  -2.849   1.453  1.00  0.00    -0.200 OA
BRANCH   5   8
HETATM    8  C8  UNL     1       3.664  -0.303   0.767  1.00  0.00     0.080 A 
HETATM    9  C9  UNL     1       4.863  -0.691   0.188  1.00  0.00     0.027 A 
HETATM   10  C10 UNL     1       5.844   0.215  -0.148  1.00  0.00     0.025 A 
HETATM   11  C11 UNL     1       5.625   1.566   0.100  1.00  0.00     0.034 A 
HETATM   12 CL1  UNL     1       6.839   2.781  -0.306  1.00  0.00    -0.084 Cl
HETATM   13  C12 UNL     1       4.429   1.982   0.680  1.00  0.00     0.025 A 
HETATM   14  C13 UNL     1       3.465   1.041   1.005  1.00  0.00     0.027 A 
ENDBRANCH   5   8
ENDBRANCH   3   5
BRANCH   1  15
HETATM   15  C6  UNL     1      -0.729  -1.458  -1.410  1.00  0.00     0.142 C 
BRANCH  15  16
HETATM   16  C5  UNL     1      -1.899  -0.567  -1.198  1.00  0.00    -0.049 A 
HETATM   17  C4  UNL     1      -2.944  -1.086  -0.435  1.00  0.00     0.010 A 
HETATM   18  C3  UNL     1      -4.098  -0.339  -0.169  1.00  0.00     0.037 A 
HETATM   19  C2  UNL     1      -4.206   0.961  -0.680  1.00  0.00     0.068 A 
HETATM   20  C15 UNL     1      -3.146   1.429  -1.429  1.00  0.00     0.037 A 
HETATM   21  C14 UNL     1      -1.994   0.727  -1.714  1.00  0.00     0.010 A 
BRANCH  19  22
HETATM   22  O1  UNL     1      -5.335   1.745  -0.443  1.00  0.00    -0.356 OA
HETATM   23  C1  UNL     1      -6.365   1.149   0.346  1.00  0.00     0.210 C 
ENDBRANCH  19  22
ENDBRANCH  15  16
ENDBRANCH   1  15
TORSDOF 5
