REMARK  5 active torsions:
REMARK  status: ('A' for Active; 'I' for Inactive)
REMARK    1  A    between atoms: C1_2  and  C2_3 
REMARK    2  A    between atoms: C7_8  and  C8_9 
REMARK    3  A    between atoms: C9_10  and  N1_11 
REMARK    4  A    between atoms: N1_11  and  S1_12 
REMARK    5  A    between atoms: S1_12  and  C10_13 
ROOT
HETATM    1  N1  UNL     1      -0.731  -1.529   0.118  1.00  0.00    -0.349 N 
HETATM    2  H8  UNL     1      -0.656  -2.518  -0.214  1.00  0.00     0.172 HD
ENDROOT
BRANCH   1   3
HETATM    3  C9  UNL     1       0.452  -0.764   0.319  1.00  0.00     0.091 C 
HETATM    4  C8  UNL     1       1.191   0.233  -0.122  1.00  0.00     0.000 C 
BRANCH   4   5
HETATM    5  C7  UNL     1       2.473   0.756   0.431  1.00  0.00     0.047 C 
HETATM    6  C2  UNL     1       3.546   0.630  -0.637  1.00  0.00     0.082 C 
HETATM    7  C3  UNL     1       4.446  -0.539  -0.387  1.00  0.00    -0.001 C 
HETATM    8  C4  UNL     1       4.984  -0.477   0.817  1.00  0.00    -0.018 C 
HETATM    9  C5  UNL     1       4.215  -0.250   1.842  1.00  0.00    -0.018 C 
HETATM   10  C6  UNL     1       2.948  -0.093   1.579  1.00  0.00    -0.004 C 
BRANCH   6  11
HETATM   11  C1  UNL     1       4.372   1.872  -0.640  1.00  0.00     0.240 C 
HETATM   12  O1  UNL     1       5.548   1.720  -0.451  1.00  0.00    -0.306 OA
ENDBRANCH   6  11
ENDBRANCH   4   5
ENDBRANCH   1   3
BRANCH   1  13
HETATM   13  S1  UNL     1      -2.340  -0.530   0.523  1.00  0.00    -0.101 SA
HETATM   14  C11 UNL     1      -3.752  -1.571   0.178  1.00  0.00     0.053 A 
HETATM   15  C12 UNL     1      -4.697  -1.272  -0.665  1.00  0.00     0.031 A 
HETATM   16  C13 UNL     1      -4.689  -0.044  -1.412  1.00  0.00     0.031 A 
HETATM   17 CL1  UNL     1      -6.042   0.226  -2.522  1.00  0.00    -0.085 Cl
HETATM   18  C14 UNL     1      -3.745   0.864  -1.312  1.00  0.00     0.008 A 
HETATM   19  C15 UNL     1      -2.529   0.851  -0.457  1.00  0.00     0.114 A 
BRANCH  13  20
HETATM   20  C10 UNL     1      -2.093  -0.164   2.333  1.00  0.00     0.307 C 
HETATM   21  O2  UNL     1      -2.256  -0.802   3.321  1.00  0.00    -0.295 OA
ENDBRANCH  13  20
ENDBRANCH   1  13
TORSDOF 5
