REMARK  3 active torsions:
REMARK  status: ('A' for Active; 'I' for Inactive)
REMARK    1  A    between atoms: C2_2  and  C3_3 
REMARK    2  A    between atoms: C8_8  and  N1_9 
REMARK    3  A    between atoms: N1_9  and  C9_10 
ROOT
HETATM    1  C3  UNL     1      -0.059   2.354   0.008  1.00  0.00     0.033 C 
HETATM    2  C4  UNL     1       1.058   1.627   0.241  1.00  0.00     0.030 C 
HETATM    3  C5  UNL     1       2.310   1.065   0.683  1.00  0.00     0.015 C 
HETATM    4  C6  UNL     1       2.245  -0.236   1.006  1.00  0.00    -0.007 C 
HETATM    5  C7  UNL     1       1.826  -0.875  -0.086  1.00  0.00     0.070 A 
HETATM    6  C8  UNL     1       2.737  -1.132  -1.076  1.00  0.00     0.144 A 
HETATM    7  N2  UNL     1       2.289  -1.733  -2.192  1.00  0.00    -0.223 NA
HETATM    8  C15 UNL     1       0.964  -2.011  -2.187  1.00  0.00     0.237 A 
HETATM    9  N3  UNL     1       0.180  -1.709  -1.156  1.00  0.00    -0.220 NA
HETATM   10  C16 UNL     1       0.504  -1.117   0.001  1.00  0.00     0.184 A 
HETATM   11  N4  UNL     1      -0.537  -1.038   0.726  1.00  0.00    -0.158 NA
HETATM   12  N5  UNL     1      -1.837  -1.438   0.422  1.00  0.00    -0.312 N 
HETATM   13  C17 UNL     1      -2.755  -1.889   1.432  1.00  0.00     0.142 C 
HETATM   14  C18 UNL     1      -4.071  -2.312   0.927  1.00  0.00     0.025 C 
HETATM   15  C19 UNL     1      -4.923  -1.431   0.096  1.00  0.00    -0.015 C 
HETATM   16  C20 UNL     1      -6.219  -2.232  -0.162  1.00  0.00     0.010 C 
HETATM   17  C21 UNL     1      -5.361  -0.115   0.624  1.00  0.00     0.031 C 
HETATM   18  C22 UNL     1      -4.253   0.848   0.840  1.00  0.00     0.181 C 
HETATM   19  O1  UNL     1      -3.589   1.136  -0.412  1.00  0.00    -0.304 OA
HETATM   20  C23 UNL     1      -2.306   1.606  -0.288  1.00  0.00     0.365 C 
HETATM   21  O2  UNL     1      -1.648   1.807   0.757  1.00  0.00    -0.238 OA
HETATM   22  N6  UNL     1      -1.128   2.056  -0.898  1.00  0.00    -0.303 N 
HETATM   23  H12 UNL     1      -2.204  -1.436  -0.532  1.00  0.00     0.182 HD
HETATM   24  H25 UNL     1      -0.558   2.313  -1.692  1.00  0.00     0.171 HD
ENDROOT
BRANCH   6  25
HETATM   25  N1  UNL     1       4.048  -0.734  -0.840  1.00  0.00    -0.340 N 
HETATM   26  H6  UNL     1       4.250  -1.722  -0.459  1.00  0.00     0.167 HD
BRANCH  25  27
HETATM   27  C9  UNL     1       5.350  -0.360  -0.596  1.00  0.00     0.035 A 
HETATM   28  C10 UNL     1       6.143  -0.428   0.555  1.00  0.00     0.029 A 
HETATM   29  C11 UNL     1       7.445   0.012   0.545  1.00  0.00     0.004 A 
HETATM   30  C12 UNL     1       7.885   0.504  -0.640  1.00  0.00     0.024 A 
HETATM   31  C13 UNL     1       7.205   0.618  -1.824  1.00  0.00     0.036 A 
HETATM   32 CL1  UNL     1       8.016   1.291  -3.222  1.00  0.00    -0.084 Cl
HETATM   33  C14 UNL     1       5.897   0.166  -1.777  1.00  0.00     0.053 A 
ENDBRANCH  25  27
ENDBRANCH   6  25
BRANCH   1  34
HETATM   34  C2  UNL     1       0.045   3.482   0.874  1.00  0.00     0.003 C 
HETATM   35  C1  UNL     1      -0.952   4.322   0.786  1.00  0.00     0.033 C 
ENDBRANCH   1  34
TORSDOF 3
