REMARK  4 active torsions:
REMARK  status: ('A' for Active; 'I' for Inactive)
REMARK    1  A    between atoms: C1_2  and  C2_3 
REMARK       I    between atoms: C1_2  and  N1_11 
REMARK    2  A    between atoms: C2_3  and  C3_4 
REMARK    3  A    between atoms: N1_11  and  S1_12 
REMARK    4  A    between atoms: S1_12  and  C9_15 
ROOT
HETATM    1  O1  UNL     1       0.159  -1.500  -0.098  1.00  0.00    -0.272 OA
HETATM    2  C1  UNL     1       0.471  -0.506  -0.804  1.00  0.00     0.235 C 
HETATM    3  N1  UNL     1      -0.638  -0.345  -1.716  1.00  0.00    -0.250 N 
HETATM    4  H8  UNL     1      -0.699   0.418  -2.462  1.00  0.00     0.181 HD
ENDROOT
BRANCH   3   5
HETATM    5  S1  UNL     1      -1.962  -1.483  -1.574  1.00  0.00     0.265 S 
HETATM    6  O3  UNL     1      -2.665  -1.481  -2.903  1.00  0.00    -0.200 OA
HETATM    7  O4  UNL     1      -1.487  -2.836  -1.201  1.00  0.00    -0.200 OA
BRANCH   5   8
HETATM    8  C9  UNL     1      -3.135  -0.827  -0.428  1.00  0.00     0.080 A 
HETATM    9  C10 UNL     1      -3.017  -1.124   0.909  1.00  0.00     0.027 A 
HETATM   10  C11 UNL     1      -3.956  -0.594   1.797  1.00  0.00     0.020 A 
HETATM   11  C12 UNL     1      -4.995   0.215   1.387  1.00  0.00     0.011 A 
HETATM   12 BR1  UNL     1      -6.271   0.931   2.616  1.00  0.00    -0.051 Br
HETATM   13  C13 UNL     1      -5.104   0.504   0.050  1.00  0.00     0.020 A 
HETATM   14  C14 UNL     1      -4.185  -0.016  -0.806  1.00  0.00     0.027 A 
ENDBRANCH   5   8
ENDBRANCH   3   5
BRANCH   2  15
HETATM   15  C2  UNL     1       1.505   0.498  -1.020  1.00  0.00     0.142 C 
BRANCH  15  16
HETATM   16  C3  UNL     1       2.681   0.470  -0.170  1.00  0.00    -0.048 A 
HETATM   17  C4  UNL     1       2.969  -0.349   0.798  1.00  0.00     0.009 A 
HETATM   18  C5  UNL     1       4.079  -0.513   1.730  1.00  0.00     0.025 A 
HETATM   19  C6  UNL     1       5.149   0.265   1.731  1.00  0.00     0.141 A 
HETATM   20  O2  UNL     1       5.492   1.347   0.932  1.00  0.00    -0.335 OA
HETATM   21  C7  UNL     1       4.778   1.940  -0.099  1.00  0.00     0.141 A 
HETATM   22  C8  UNL     1       3.586   1.575  -0.574  1.00  0.00     0.032 A 
ENDBRANCH  15  16
ENDBRANCH   2  15
TORSDOF 4
