REMARK  3 active torsions:
REMARK  status: ('A' for Active; 'I' for Inactive)
REMARK    1  A    between atoms: S1_2  and  N1_4 
REMARK    2  A    between atoms: S1_2  and  C10_14 
REMARK    3  A    between atoms: N1_4  and  C1_5 
ROOT
HETATM    1  N1  UNL     1      -0.374   1.208  -1.096  1.00  0.00    -0.206 NA
HETATM    2  H1  UNL     1      -0.139   1.919  -0.370  1.00  0.00     0.140 HD
ENDROOT
BRANCH   1   3
HETATM    3  S1  UNL     1       1.057   0.779  -1.979  1.00  0.00     0.242 S 
HETATM    4  O1  UNL     1       0.723  -0.111  -3.132  1.00  0.00    -0.206 OA
HETATM    5  O2  UNL     1       1.766   2.011  -2.463  1.00  0.00    -0.206 OA
BRANCH   3   6
HETATM    6  C10 UNL     1       2.161  -0.038  -0.884  1.00  0.00     0.074 A 
HETATM    7  C11 UNL     1       2.200  -1.400  -0.657  1.00  0.00     0.026 A 
HETATM    8  C12 UNL     1       3.107  -1.945   0.225  1.00  0.00     0.020 A 
HETATM    9  C13 UNL     1       4.018  -1.158   0.922  1.00  0.00     0.011 A 
HETATM   10 BR1  UNL     1       5.281  -1.880   2.145  1.00  0.00    -0.051 Br
HETATM   11  C14 UNL     1       4.013   0.206   0.725  1.00  0.00     0.020 A 
HETATM   12  C15 UNL     1       3.091   0.711  -0.165  1.00  0.00     0.026 A 
ENDBRANCH   3   6
ENDBRANCH   1   3
BRANCH   1  13
HETATM   13  C1  UNL     1      -1.051   0.055  -0.580  1.00  0.00     0.112 C 
HETATM   14  C2  UNL     1      -1.324   0.285   0.905  1.00  0.00    -0.057 C 
HETATM   15  C3  UNL     1      -1.489   1.500   1.406  1.00  0.00     0.004 C 
HETATM   16  C9  UNL     1      -1.438  -1.075   1.577  1.00  0.00     0.062 C 
HETATM   17  C4  UNL     1      -2.440   2.182   0.475  1.00  0.00    -0.003 C 
HETATM   18  C5  UNL     1      -2.924   1.524  -0.598  1.00  0.00    -0.016 C 
HETATM   19  C6  UNL     1      -2.552   0.130  -1.028  1.00  0.00     0.053 C 
HETATM   20  C7  UNL     1      -3.294  -0.845  -0.150  1.00  0.00    -0.020 C 
HETATM   21  C8  UNL     1      -2.672  -1.587   0.806  1.00  0.00    -0.026 C 
ENDBRANCH   1  13
TORSDOF 3
