REMARK  8 active torsions:
REMARK  status: ('A' for Active; 'I' for Inactive)
REMARK    1  A    between atoms: C2_2  and  C3_3 
REMARK    2  A    between atoms: C3_3  and  C5_5 
REMARK    3  A    between atoms: C5_5  and  C6_6 
REMARK    4  A    between atoms: C6_6  and  C7_7 
REMARK    5  A    between atoms: C7_7  and  S1_8 
REMARK    6  A    between atoms: S1_8  and  N1_10 
REMARK       I    between atoms: N1_10  and  C8_11 
REMARK    7  A    between atoms: C8_11  and  C9_13 
REMARK    8  A    between atoms: C9_13  and  C10_14 
ROOT
HETATM    1  N1  UNL     1       0.914   0.239   0.352  1.00  0.00    -0.276 N 
HETATM    2  C8  UNL     1       1.889   0.087  -0.691  1.00  0.00     0.233 C 
HETATM    3  O2  UNL     1       1.580  -0.757  -1.566  1.00  0.00    -0.272 OA
HETATM    4  H10 UNL     1       0.998   0.877   1.166  1.00  0.00     0.179 HD
ENDROOT
BRANCH   1   5
HETATM    5  S1  UNL     1      -0.663  -0.553   0.596  1.00  0.00     0.120 S 
HETATM    6  O1  UNL     1      -0.696  -1.880  -0.166  1.00  0.00    -0.235 OA
BRANCH   5   7
HETATM    7  C7  UNL     1      -1.853   0.596  -0.121  1.00  0.00     0.159 C 
BRANCH   7   8
HETATM    8  C6  UNL     1      -3.245   0.175  -0.046  1.00  0.00    -0.012 C 
BRANCH   8   9
HETATM    9  C5  UNL     1      -4.263   0.801   0.568  1.00  0.00     0.004 C 
BRANCH   9  10
HETATM   10  C3  UNL     1      -5.641   0.319   0.603  1.00  0.00    -0.052 C 
HETATM   11  C4  UNL     1      -6.771   1.249   0.844  1.00  0.00     0.049 C 
BRANCH  10  12
HETATM   12  C2  UNL     1      -5.788  -0.990   0.396  1.00  0.00    -0.030 C 
HETATM   13  C1  UNL     1      -6.139  -2.071  -0.313  1.00  0.00     0.025 C 
ENDBRANCH  10  12
ENDBRANCH   9  10
ENDBRANCH   8   9
ENDBRANCH   7   8
ENDBRANCH   5   7
ENDBRANCH   1   5
BRANCH   2  14
HETATM   14  C9  UNL     1       3.102   0.896  -0.652  1.00  0.00     0.142 C 
BRANCH  14  15
HETATM   15  C10 UNL     1       4.373   0.208  -0.457  1.00  0.00    -0.048 A 
HETATM   16  C11 UNL     1       5.069  -0.556  -1.381  1.00  0.00     0.007 A 
HETATM   17  C12 UNL     1       6.289  -1.129  -1.088  1.00  0.00     0.002 A 
HETATM   18  C13 UNL     1       6.881  -0.977   0.127  1.00  0.00     0.019 A 
HETATM   19  C14 UNL     1       6.255  -0.230   1.110  1.00  0.00     0.011 A 
HETATM   20 BR1  UNL     1       7.004   0.040   2.838  1.00  0.00    -0.051 Br
HETATM   21  C15 UNL     1       5.032   0.324   0.765  1.00  0.00     0.026 A 
ENDBRANCH  14  15
ENDBRANCH   2  14
TORSDOF 8
