REMARK  5 active torsions:
REMARK  status: ('A' for Active; 'I' for Inactive)
REMARK    1  A    between atoms: N1_1  and  C1_2 
REMARK    2  A    between atoms: C1_2  and  C2_3 
REMARK    3  A    between atoms: C1_2  and  S1_10 
REMARK    4  A    between atoms: C2_3  and  C3_4 
REMARK    5  A    between atoms: S1_10  and  C8_13 
ROOT
HETATM    1  C1  UNL     1       1.004  -1.394  -0.388  1.00  0.00     0.347 C 
ENDROOT
BRANCH   1   2
HETATM    2  N1  UNL     1       0.812  -2.845  -0.347  1.00  0.00     0.098 N 
HETATM    3  H1  UNL     1       1.390  -3.224   0.435  1.00  0.00     0.314 HD
HETATM    4  H2  UNL     1       1.009  -3.231  -1.276  1.00  0.00     0.314 HD
ENDBRANCH   1   2
BRANCH   1   5
HETATM    5  C2  UNL     1       2.471  -1.042  -0.430  1.00  0.00     0.091 C 
BRANCH   5   6
HETATM    6  C3  UNL     1       2.725   0.404  -0.472  1.00  0.00    -0.043 C 
HETATM    7  C4  UNL     1       3.378   1.221   0.338  1.00  0.00    -0.000 C 
HETATM    8  C5  UNL     1       3.995   2.184  -0.329  1.00  0.00     0.022 C 
HETATM    9 BR1  UNL     1       5.630   3.141  -0.126  1.00  0.00    -0.050 Br
HETATM   10  C6  UNL     1       3.041   2.423  -1.432  1.00  0.00     0.020 C 
HETATM   11  C7  UNL     1       2.262   1.331  -1.519  1.00  0.00     0.009 C 
ENDBRANCH   5   6
ENDBRANCH   1   5
BRANCH   1  12
HETATM   12  S1  UNL     1       0.307  -0.649   1.068  1.00  0.00     0.198 S 
HETATM   13  O1  UNL     1       0.493   0.836   0.970  1.00  0.00    -0.221 OA
HETATM   14  O2  UNL     1       1.084  -1.136   2.271  1.00  0.00    -0.221 OA
BRANCH  12  15
HETATM   15  C8  UNL     1      -1.359  -1.098   1.152  1.00  0.00     0.122 C 
HETATM   16  C9  UNL     1      -2.546  -0.513   1.160  1.00  0.00    -0.023 C 
HETATM   17  C10 UNL     1      -3.805  -1.241   1.245  1.00  0.00     0.024 C 
HETATM   18  C14 UNL     1      -2.562   0.927   1.079  1.00  0.00     0.036 C 
HETATM   19  C11 UNL     1      -4.829  -0.545   0.872  1.00  0.00    -0.023 C 
HETATM   20  C12 UNL     1      -4.935   0.735   1.173  1.00  0.00     0.036 C 
HETATM   21  C13 UNL     1      -3.729   1.578   1.083  1.00  0.00     0.035 C 
HETATM   22 CL1  UNL     1      -3.916   3.314   0.990  1.00  0.00    -0.084 Cl
ENDBRANCH  12  15
ENDBRANCH   1  12
TORSDOF 5
