REMARK  6 active torsions:
REMARK  status: ('A' for Active; 'I' for Inactive)
REMARK    1  A    between atoms: C3_3  and  C4_4 
REMARK    2  A    between atoms: C5_6  and  C6_7 
REMARK    3  A    between atoms: C6_7  and  S1_8 
REMARK    4  A    between atoms: S1_8  and  N1_11 
REMARK       I    between atoms: N1_11  and  C7_12 
REMARK    5  A    between atoms: C7_12  and  C8_14 
REMARK    6  A    between atoms: C8_14  and  C9_15 
ROOT
HETATM    1  N1  UNL     1       1.277  -1.053  -0.053  1.00  0.00    -0.254 N 
HETATM    2  C7  UNL     1       2.034  -0.341  -1.028  1.00  0.00     0.231 C 
HETATM    3  O3  UNL     1       1.295   0.046  -1.974  1.00  0.00    -0.273 OA
HETATM    4  H9  UNL     1       1.681  -1.470   0.824  1.00  0.00     0.181 HD
ENDROOT
BRANCH   1   5
HETATM    5  S1  UNL     1      -0.426  -1.278  -0.278  1.00  0.00     0.236 S 
HETATM    6  O1  UNL     1      -0.677  -1.320  -1.758  1.00  0.00    -0.205 OA
HETATM    7  O2  UNL     1      -0.866  -2.546   0.400  1.00  0.00    -0.205 OA
BRANCH   5   8
HETATM    8  C6  UNL     1      -1.382   0.034   0.432  1.00  0.00     0.192 C 
BRANCH   8   9
HETATM    9  C5  UNL     1      -2.799  -0.289   0.165  1.00  0.00     0.013 C 
HETATM   10  C4  UNL     1      -3.786  -0.489   1.022  1.00  0.00     0.030 C 
HETATM   11 CL1  UNL     1      -3.246  -0.329   2.669  1.00  0.00    -0.085 Cl
BRANCH  10  12
HETATM   12  C3  UNL     1      -5.127  -0.800   0.590  1.00  0.00     0.019 C 
HETATM   13  C2  UNL     1      -6.119  -1.001   1.439  1.00  0.00    -0.029 C 
HETATM   14  C1  UNL     1      -5.960  -0.930   2.897  1.00  0.00     0.036 C 
ENDBRANCH  10  12
ENDBRANCH   8   9
ENDBRANCH   5   8
ENDBRANCH   1   5
BRANCH   2  15
HETATM   15  C8  UNL     1       3.460  -0.222  -0.719  1.00  0.00     0.116 C 
BRANCH  15  16
HETATM   16  C9  UNL     1       4.258   0.532  -1.752  1.00  0.00     0.041 A 
HETATM   17  C10 UNL     1       3.681   1.905  -1.837  1.00  0.00    -0.016 A 
HETATM   18  C11 UNL     1       4.532   2.821  -1.386  1.00  0.00     0.015 A 
HETATM   19  C12 UNL     1       5.754   2.132  -0.959  1.00  0.00     0.007 A 
HETATM   20 BR1  UNL     1       7.262   3.049  -0.238  1.00  0.00    -0.051 Br
HETATM   21  C13 UNL     1       5.602   0.832  -1.166  1.00  0.00     0.001 A 
ENDBRANCH  15  16
ENDBRANCH   2  15
TORSDOF 6
