REMARK  5 active torsions:
REMARK  status: ('A' for Active; 'I' for Inactive)
REMARK    1  A    between atoms: S1_2  and  N1_3 
REMARK    2  A    between atoms: S1_2  and  C8_14 
REMARK    3  A    between atoms: N1_3  and  C1_4 
REMARK    4  A    between atoms: C1_4  and  O2_5 
REMARK    5  A    between atoms: C7_11  and  O3_12 
ROOT
HETATM    1  C1  UNL     1      -1.396  -0.402  -0.660  1.00  0.00     0.171 C 
HETATM    2  C2  UNL     1      -1.023   0.887   0.069  1.00  0.00     0.087 C 
HETATM    3  C3  UNL     1      -2.190   1.831  -0.031  1.00  0.00    -0.022 C 
HETATM    4  C4  UNL     1      -3.446   1.469   0.200  1.00  0.00    -0.004 C 
HETATM    5  C5  UNL     1      -3.967   0.152   0.582  1.00  0.00    -0.000 C 
HETATM    6  C6  UNL     1      -3.348  -1.029   0.650  1.00  0.00     0.027 C 
HETATM    7  C7  UNL     1      -1.923  -1.361   0.353  1.00  0.00     0.179 C 
HETATM    8 BR1  UNL     1      -0.950  -1.272   2.034  1.00  0.00    -0.045 Br
ENDROOT
BRANCH   1   9
HETATM    9  N1  UNL     1      -0.230  -0.968  -1.355  1.00  0.00    -0.201 NA
HETATM   10  H1  UNL     1       0.106  -0.296  -2.071  1.00  0.00     0.141 HD
BRANCH   9  11
HETATM   11  S1  UNL     1       0.940  -1.378  -0.149  1.00  0.00     0.128 S 
HETATM   12  O1  UNL     1       1.285  -2.857  -0.149  1.00  0.00    -0.236 OA
BRANCH  11  13
HETATM   13  C8  UNL     1       2.348  -0.342  -0.116  1.00  0.00     0.047 A 
HETATM   14  C9  UNL     1       2.484   0.819   0.631  1.00  0.00     0.024 A 
HETATM   15  C10 UNL     1       3.634   1.564   0.588  1.00  0.00     0.025 A 
HETATM   16  C11 UNL     1       4.665   1.121  -0.232  1.00  0.00     0.034 A 
HETATM   17 CL1  UNL     1       6.150   2.073  -0.295  1.00  0.00    -0.084 Cl
HETATM   18  C12 UNL     1       4.580  -0.029  -0.997  1.00  0.00     0.025 A 
HETATM   19  C13 UNL     1       3.398  -0.745  -0.918  1.00  0.00     0.024 A 
ENDBRANCH  11  13
ENDBRANCH   9  11
ENDBRANCH   1   9
BRANCH   1  20
HETATM   20  O2  UNL     1      -2.340  -0.071  -1.620  1.00  0.00    -0.370 OA
HETATM   21  H2  UNL     1      -2.902  -0.863  -1.849  1.00  0.00     0.212 HD
ENDBRANCH   1  20
BRANCH   7  22
HETATM   22  O3  UNL     1      -1.888  -2.689  -0.060  1.00  0.00    -0.371 OA
HETATM   23  H9  UNL     1      -1.829  -2.681  -1.049  1.00  0.00     0.212 HD
ENDBRANCH   7  22
TORSDOF 5
