REMARK  7 active torsions:
REMARK  status: ('A' for Active; 'I' for Inactive)
REMARK    1  A    between atoms: C2_2  and  C3_3 
REMARK    2  A    between atoms: C4_4  and  C5_5 
REMARK    3  A    between atoms: C4_4  and  C7_8 
REMARK    4  A    between atoms: C7_8  and  C8_9 
REMARK       I    between atoms: C8_9  and  N1_11 
REMARK    5  A    between atoms: N1_11  and  S1_12 
REMARK    6  A    between atoms: S1_12  and  C9_15 
REMARK    7  A    between atoms: C10_16  and  C11_17 
ROOT
HETATM    1  C8  UNL     1      -0.663   1.458   0.464  1.00  0.00     0.231 C 
HETATM    2  O1  UNL     1      -0.326   0.760  -0.522  1.00  0.00    -0.273 OA
HETATM    3  N1  UNL     1       0.621   1.700   1.085  1.00  0.00    -0.251 N 
HETATM    4  H9  UNL     1       0.861   2.259   1.968  1.00  0.00     0.181 HD
ENDROOT
BRANCH   3   5
HETATM    5  S1  UNL     1       2.117   1.091   0.476  1.00  0.00     0.255 S 
HETATM    6  O2  UNL     1       2.821   0.363   1.582  1.00  0.00    -0.201 OA
HETATM    7  O3  UNL     1       3.012   2.272   0.105  1.00  0.00    -0.201 OA
BRANCH   5   8
HETATM    8  C9  UNL     1       1.969   0.118  -0.933  1.00  0.00     0.131 C 
HETATM    9  C10 UNL     1       2.303  -1.150  -1.070  1.00  0.00     0.015 C 
BRANCH   9  10
HETATM   10  C11 UNL     1       2.865  -2.268  -0.326  1.00  0.00     0.024 C 
HETATM   11  C12 UNL     1       3.241  -3.532  -0.326  1.00  0.00     0.030 A 
HETATM   12 CL1  UNL     1       3.900  -4.280   1.088  1.00  0.00    -0.108 Cl
HETATM   13  C13 UNL     1       3.106  -4.344  -1.542  1.00  0.00     0.031 A 
HETATM   14 BR2  UNL     1       4.202  -6.545  -0.115  1.00  0.00    -0.039 Br
HETATM   15  C14 UNL     1       3.463  -5.597  -1.591  1.00  0.00     0.062 A 
ENDBRANCH   9  10
ENDBRANCH   5   8
ENDBRANCH   3   5
BRANCH   1  16
HETATM   16  C7  UNL     1      -1.672   2.147   1.301  1.00  0.00     0.109 C 
BRANCH  16  17
HETATM   17  C4  UNL     1      -3.056   2.067   0.800  1.00  0.00    -0.031 C 
HETATM   18  C3  UNL     1      -2.706   1.358  -0.260  1.00  0.00     0.034 C 
BRANCH  18  19
HETATM   19  C2  UNL     1      -3.589   0.859  -1.325  1.00  0.00    -0.005 C 
HETATM   20  C1  UNL     1      -2.957   0.178  -2.262  1.00  0.00     0.006 C 
ENDBRANCH  18  19
BRANCH  17  21
HETATM   21  C5  UNL     1      -3.894   2.811   1.778  1.00  0.00     0.012 C 
HETATM   22  C6  UNL     1      -3.619   3.440   2.895  1.00  0.00     0.185 C 
HETATM   23 BR1  UNL     1      -2.049   3.798   3.952  1.00  0.00    -0.198 Br
ENDBRANCH  17  21
ENDBRANCH  16  17
ENDBRANCH   1  16
TORSDOF 7
