REMARK  2 active torsions:
REMARK  status: ('A' for Active; 'I' for Inactive)
REMARK    1  A    between atoms: N1_11  and  S1_12 
REMARK    2  A    between atoms: S1_12  and  C9_15 
ROOT
HETATM    1  O1  UNL     1       1.000  -0.605   2.765  1.00  0.00    -0.272 OA
HETATM    2  C1  UNL     1       1.379  -0.169   1.697  1.00  0.00     0.240 C 
HETATM    3  C2  UNL     1       2.666   0.200   1.227  1.00  0.00     0.131 C 
HETATM    4  C3  UNL     1       3.954  -0.331   1.583  1.00  0.00    -0.017 C 
HETATM    5  C4  UNL     1       4.527  -0.745   0.438  1.00  0.00    -0.004 C 
HETATM    6  C5  UNL     1       3.977  -0.729  -0.879  1.00  0.00     0.001 C 
HETATM    7  C6  UNL     1       2.879  -0.515  -1.624  1.00  0.00     0.020 C 
HETATM    8  C7  UNL     1       1.451  -0.178  -1.498  1.00  0.00     0.027 C 
HETATM    9 BR1  UNL     1       0.537   0.100  -3.144  1.00  0.00    -0.050 Br
HETATM   10  C8  UNL     1       0.508   0.009  -0.600  1.00  0.00     0.131 C 
HETATM   11  N1  UNL     1       0.283  -0.008   0.804  1.00  0.00    -0.214 N 
ENDROOT
BRANCH  11  12
HETATM   12  S1  UNL     1      -1.280   0.158   1.575  1.00  0.00     0.271 S 
HETATM   13  O2  UNL     1      -1.515  -0.971   2.522  1.00  0.00    -0.200 OA
HETATM   14  O3  UNL     1      -1.150   1.402   2.443  1.00  0.00    -0.200 OA
BRANCH  12  15
HETATM   15  C9  UNL     1      -2.558   0.346   0.423  1.00  0.00     0.080 A 
HETATM   16  C10 UNL     1      -3.112  -0.869   0.025  1.00  0.00     0.027 A 
HETATM   17  C11 UNL     1      -4.155  -0.933  -0.897  1.00  0.00     0.025 A 
HETATM   18  C12 UNL     1      -4.626   0.255  -1.409  1.00  0.00     0.034 A 
HETATM   19 CL1  UNL     1      -5.939   0.208  -2.573  1.00  0.00    -0.084 Cl
HETATM   20  C13 UNL     1      -4.092   1.476  -1.028  1.00  0.00     0.025 A 
HETATM   21  C14 UNL     1      -3.047   1.525  -0.102  1.00  0.00     0.027 A 
ENDBRANCH  12  15
ENDBRANCH  11  12
TORSDOF 2
