REMARK  5 active torsions:
REMARK  status: ('A' for Active; 'I' for Inactive)
REMARK    1  A    between atoms: C2_2  and  O1_3 
REMARK    2  A    between atoms: C8_9  and  S1_10 
REMARK    3  A    between atoms: S1_10  and  S2_11 
REMARK    4  A    between atoms: S2_11  and  C9_14 
REMARK    5  A    between atoms: C12_17  and  B1_18 
ROOT
HETATM    1  S2  UNL     1       0.900   0.914   1.220  1.00  0.00     0.231 S 
HETATM    2  O2  UNL     1       0.820   2.348   0.978  1.00  0.00    -0.211 OA
HETATM    3  O3  UNL     1       0.732   0.693   2.680  1.00  0.00    -0.211 OA
ENDROOT
BRANCH   1   4
HETATM    4  S1  UNL     1      -0.332  -0.479   0.431  1.00  0.00    -0.023 SA
BRANCH   4   5
HETATM    5  C8  UNL     1      -1.637   0.091  -0.549  1.00  0.00     0.105 C 
HETATM    6  C2  UNL     1      -2.588   0.858   0.287  1.00  0.00     0.086 C 
HETATM    7  C1  UNL     1      -3.171   1.998  -0.536  1.00  0.00     0.051 C 
HETATM    8  C3  UNL     1      -3.688   0.136   0.913  1.00  0.00     0.011 C 
HETATM    9  C4  UNL     1      -4.127  -1.131   1.032  1.00  0.00    -0.001 C 
HETATM   10  C5  UNL     1      -3.423  -2.279   0.417  1.00  0.00    -0.004 C 
HETATM   11  C6  UNL     1      -2.579  -2.246  -0.633  1.00  0.00    -0.025 C 
HETATM   12  C7  UNL     1      -2.191  -1.020  -1.384  1.00  0.00     0.046 C 
BRANCH   6  13
HETATM   13  O1  UNL     1      -1.830   1.507   1.292  1.00  0.00    -0.385 OA
HETATM   14  H4  UNL     1      -2.507   1.771   1.976  1.00  0.00     0.211 HD
ENDBRANCH   6  13
ENDBRANCH   4   5
ENDBRANCH   1   4
BRANCH   1  15
HETATM   15  C9  UNL     1       2.411   0.376   0.560  1.00  0.00     0.070 A 
HETATM   16  C10 UNL     1       2.792   0.879  -0.649  1.00  0.00     0.024 A 
HETATM   17  C11 UNL     1       3.968   0.541  -1.292  1.00  0.00    -0.002 A 
HETATM   18  C12 UNL     1       4.824  -0.357  -0.700  1.00  0.00    -0.083 A 
HETATM   19  C13 UNL     1       4.451  -0.873   0.520  1.00  0.00    -0.002 A 
HETATM   20  C14 UNL     1       3.291  -0.538   1.153  1.00  0.00     0.024 A 
BRANCH  18  21
HETATM   21  B1  UNL     1       6.149  -0.741  -1.423  1.00  0.00     0.303 B 
HETATM   22 CL1  UNL     1       7.431   0.579  -1.666  1.00  0.00    -0.210 Cl
HETATM   23  H14 UNL     1       6.493  -1.868  -1.335  1.00  0.00    -0.002 HD
ENDBRANCH  18  21
ENDBRANCH   1  15
TORSDOF 5
