REMARK  4 active torsions:
REMARK  status: ('A' for Active; 'I' for Inactive)
REMARK    1  A    between atoms: C1_2  and  C2_3 
REMARK       I    between atoms: C1_2  and  N1_11 
REMARK    2  A    between atoms: C2_3  and  C3_4 
REMARK    3  A    between atoms: N1_11  and  S1_12 
REMARK    4  A    between atoms: S1_12  and  C9_15 
ROOT
HETATM    1  O1  UNL     1       1.124   0.662   1.393  1.00  0.00    -0.272 OA
HETATM    2  C1  UNL     1       0.824   0.175   0.293  1.00  0.00     0.235 C 
HETATM    3  N1  UNL     1      -0.535  -0.004  -0.152  1.00  0.00    -0.250 N 
HETATM    4  H7  UNL     1      -0.783  -0.415  -1.079  1.00  0.00     0.181 HD
ENDROOT
BRANCH   3   5
HETATM    5  S1  UNL     1      -1.792   0.504   0.947  1.00  0.00     0.265 S 
HETATM    6  O2  UNL     1      -1.584  -0.097   2.291  1.00  0.00    -0.200 OA
HETATM    7  O3  UNL     1      -1.667   2.012   1.113  1.00  0.00    -0.200 OA
BRANCH   5   8
HETATM    8  C9  UNL     1      -3.367   0.226   0.277  1.00  0.00     0.080 A 
HETATM    9  C10 UNL     1      -3.895  -1.011   0.570  1.00  0.00     0.027 A 
HETATM   10  C11 UNL     1      -5.156  -1.394   0.107  1.00  0.00     0.025 A 
HETATM   11  C12 UNL     1      -5.865  -0.485  -0.663  1.00  0.00     0.034 A 
HETATM   12 CL1  UNL     1      -7.449  -0.914  -1.269  1.00  0.00    -0.084 Cl
HETATM   13  C13 UNL     1      -5.329   0.763  -0.958  1.00  0.00     0.025 A 
HETATM   14  C14 UNL     1      -4.077   1.127  -0.491  1.00  0.00     0.027 A 
ENDBRANCH   5   8
ENDBRANCH   3   5
BRANCH   2  15
HETATM   15  C2  UNL     1       1.844  -0.271  -0.677  1.00  0.00     0.142 C 
BRANCH  15  16
HETATM   16  C3  UNL     1       3.228  -0.092  -0.231  1.00  0.00    -0.048 A 
HETATM   17  C4  UNL     1       3.848  -1.125   0.471  1.00  0.00     0.007 A 
HETATM   18  C5  UNL     1       5.148  -1.047   0.931  1.00  0.00     0.002 A 
HETATM   19  C6  UNL     1       5.893   0.093   0.699  1.00  0.00     0.019 A 
HETATM   20  C7  UNL     1       5.277   1.113   0.005  1.00  0.00     0.011 A 
HETATM   21 BR1  UNL     1       6.276   2.722  -0.342  1.00  0.00    -0.051 Br
HETATM   22  C8  UNL     1       3.976   1.064  -0.468  1.00  0.00     0.026 A 
ENDBRANCH  15  16
ENDBRANCH   2  15
TORSDOF 4
