REMARK  4 active torsions:
REMARK  status: ('A' for Active; 'I' for Inactive)
REMARK    1  A    between atoms: C1_2  and  C2_3 
REMARK       I    between atoms: C1_2  and  N1_11 
REMARK    2  A    between atoms: C2_3  and  C3_4 
REMARK    3  A    between atoms: N1_11  and  S1_12 
REMARK    4  A    between atoms: S1_12  and  C9_15 
ROOT
HETATM    1  O1  UNL     1       1.143  -0.783  -1.256  1.00  0.00    -0.272 OA
HETATM    2  C1  UNL     1       0.806  -0.177  -0.199  1.00  0.00     0.235 C 
HETATM    3  N1  UNL     1      -0.592  -0.054   0.051  1.00  0.00    -0.250 N 
HETATM    4  H7  UNL     1      -0.935   0.442   0.916  1.00  0.00     0.181 HD
ENDROOT
BRANCH   3   5
HETATM    5  S1  UNL     1      -1.657  -0.761  -1.140  1.00  0.00     0.265 S 
HETATM    6  O2  UNL     1      -1.439  -0.127  -2.483  1.00  0.00    -0.200 OA
HETATM    7  O3  UNL     1      -1.417  -2.241  -1.273  1.00  0.00    -0.200 OA
BRANCH   5   8
HETATM    8  C9  UNL     1      -3.287  -0.460  -0.576  1.00  0.00     0.080 A 
HETATM    9  C10 UNL     1      -3.854   0.732  -1.018  1.00  0.00     0.027 A 
HETATM   10  C11 UNL     1      -5.133   1.028  -0.611  1.00  0.00     0.020 A 
HETATM   11  C12 UNL     1      -5.828   0.165   0.210  1.00  0.00     0.011 A 
HETATM   12 BR2  UNL     1      -7.606   0.653   0.731  1.00  0.00    -0.051 Br
HETATM   13  C13 UNL     1      -5.281  -1.034   0.665  1.00  0.00     0.020 A 
HETATM   14  C14 UNL     1      -4.001  -1.308   0.245  1.00  0.00     0.027 A 
ENDBRANCH   5   8
ENDBRANCH   3   5
BRANCH   2  15
HETATM   15  C2  UNL     1       1.716   0.417   0.800  1.00  0.00     0.142 C 
BRANCH  15  16
HETATM   16  C3  UNL     1       3.135   0.259   0.489  1.00  0.00    -0.049 A 
HETATM   17  C4  UNL     1       3.717   1.273  -0.269  1.00  0.00     0.009 A 
HETATM   18  C5  UNL     1       5.038   1.300  -0.661  1.00  0.00     0.019 A 
HETATM   19  C6  UNL     1       5.825   0.232  -0.261  1.00  0.00     0.011 A 
HETATM   20 BR1  UNL     1       7.666   0.181  -0.755  1.00  0.00    -0.051 Br
HETATM   21  C7  UNL     1       5.299  -0.805   0.494  1.00  0.00     0.019 A 
HETATM   22  C8  UNL     1       3.951  -0.781   0.863  1.00  0.00     0.009 A 
ENDBRANCH  15  16
ENDBRANCH   2  15
TORSDOF 4
