REMARK  5 active torsions:
REMARK  status: ('A' for Active; 'I' for Inactive)
REMARK    1  A    between atoms: C4_5  and  C5_6 
REMARK    2  A    between atoms: N2_8  and  C6_9 
REMARK    3  A    between atoms: C6_9  and  C7_10 
REMARK       I    between atoms: C7_10  and  N3_12 
REMARK    4  A    between atoms: N3_12  and  S1_13 
REMARK    5  A    between atoms: S1_13  and  C8_16 
ROOT
HETATM    1  C7  UNL     1      -0.747   0.317  -1.609  1.00  0.00     0.249 C 
HETATM    2  O2  UNL     1      -0.448  -0.891  -1.908  1.00  0.00    -0.271 OA
HETATM    3  N3  UNL     1       0.298   1.280  -1.582  1.00  0.00    -0.249 N 
HETATM    4  H8  UNL     1      -0.082   2.213  -1.327  1.00  0.00     0.182 HD
ENDROOT
BRANCH   3   5
HETATM    5  S1  UNL     1       1.888   0.659  -1.969  1.00  0.00     0.265 S 
HETATM    6  O3  UNL     1       1.735  -0.487  -2.924  1.00  0.00    -0.200 OA
HETATM    7  O4  UNL     1       2.643   1.806  -2.592  1.00  0.00    -0.200 OA
BRANCH   5   8
HETATM    8  C8  UNL     1       2.688   0.115  -0.510  1.00  0.00     0.080 A 
HETATM    9  C9  UNL     1       3.471   1.082   0.137  1.00  0.00     0.028 A 
HETATM   10  C10 UNL     1       4.157   0.811   1.301  1.00  0.00     0.044 A 
HETATM   11  C11 UNL     1       4.056  -0.458   1.828  1.00  0.00     0.116 A 
HETATM   12  F1  UNL     1       4.720  -0.770   2.983  1.00  0.00    -0.206 F 
HETATM   13  C12 UNL     1       3.296  -1.421   1.211  1.00  0.00     0.044 A 
HETATM   14  C13 UNL     1       2.601  -1.146   0.031  1.00  0.00     0.028 A 
ENDBRANCH   5   8
ENDBRANCH   3   5
BRANCH   1  15
HETATM   15  C6  UNL     1      -2.211   0.417  -1.347  1.00  0.00     0.234 C 
BRANCH  15  16
HETATM   16  N2  UNL     1      -2.561   0.081  -0.004  1.00  0.00    -0.323 N 
HETATM   17  C2  UNL     1      -2.823  -1.223   0.314  1.00  0.00     0.102 A 
HETATM   18  C1  UNL     1      -2.803  -2.412  -0.580  1.00  0.00     0.091 C 
HETATM   19  N1  UNL     1      -3.125  -1.326   1.641  1.00  0.00    -0.245 NA
HETATM   20  C3  UNL     1      -3.066  -0.101   2.206  1.00  0.00     0.151 A 
HETATM   21  C4  UNL     1      -2.718   0.745   1.176  1.00  0.00     0.092 A 
BRANCH  21  22
HETATM   22  C5  UNL     1      -2.515   2.190   1.211  1.00  0.00     0.289 C 
HETATM   23  O1  UNL     1      -2.197   3.003   0.297  1.00  0.00    -0.300 OA
ENDBRANCH  21  22
ENDBRANCH  15  16
ENDBRANCH   1  15
TORSDOF 5
