REMARK  7 active torsions:
REMARK  status: ('A' for Active; 'I' for Inactive)
REMARK    1  A    between atoms: C3_3  and  S1_9 
REMARK    2  A    between atoms: C4_4  and  N1_5 
REMARK    3  A    between atoms: N1_5  and  C5_6 
REMARK    4  A    between atoms: C5_6  and  C6_7 
REMARK    5  A    between atoms: S1_9  and  N2_12 
REMARK       I    between atoms: N2_12  and  C7_13 
REMARK    6  A    between atoms: C7_13  and  C8_15 
REMARK    7  A    between atoms: C8_15  and  C9_16 
ROOT
HETATM    1  C1  UNL     1      -2.778   2.102   2.492  1.00  0.00     0.041 C 
HETATM    2  C2  UNL     1      -2.791   1.367   1.587  1.00  0.00     0.019 C 
HETATM    3  C3  UNL     1      -2.742   0.517   0.530  1.00  0.00     0.075 C 
HETATM    4  C4  UNL     1      -3.711  -0.114  -0.278  1.00  0.00     0.138 C 
ENDROOT
BRANCH   3   5
HETATM    5  S1  UNL     1      -1.314  -0.470   0.604  1.00  0.00     0.262 S 
HETATM    6  O1  UNL     1      -0.870  -0.652   2.056  1.00  0.00    -0.200 OA
HETATM    7  O2  UNL     1      -1.609  -1.934   0.176  1.00  0.00    -0.200 OA
BRANCH   5   8
HETATM    8  N2  UNL     1      -0.005  -0.133  -0.371  1.00  0.00    -0.250 N 
HETATM    9  C7  UNL     1       0.691   1.057   0.388  1.00  0.00     0.235 C 
HETATM   10  O3  UNL     1       0.139   1.593   1.344  1.00  0.00    -0.272 OA
HETATM   11  H6  UNL     1       0.509  -0.339  -1.132  1.00  0.00     0.181 HD
BRANCH   9  12
HETATM   12  C8  UNL     1       2.023   1.606  -0.061  1.00  0.00     0.142 C 
BRANCH  12  13
HETATM   13  C9  UNL     1       3.017   0.505  -0.069  1.00  0.00    -0.048 A 
HETATM   14  C10 UNL     1       2.844  -0.659   0.521  1.00  0.00     0.007 A 
HETATM   15  C11 UNL     1       3.725  -1.609   0.422  1.00  0.00     0.002 A 
HETATM   16  C12 UNL     1       4.915  -1.495  -0.337  1.00  0.00     0.019 A 
HETATM   17  C13 UNL     1       5.143  -0.228  -1.011  1.00  0.00     0.011 A 
HETATM   18 BR2  UNL     1       6.718  -0.005  -1.965  1.00  0.00    -0.051 Br
HETATM   19  C14 UNL     1       4.139   0.747  -0.830  1.00  0.00     0.026 A 
ENDBRANCH  12  13
ENDBRANCH   9  12
ENDBRANCH   5   8
ENDBRANCH   3   5
BRANCH   4  20
HETATM   20  N1  UNL     1      -3.120  -0.860  -1.307  1.00  0.00    -0.257 NA
BRANCH  20  21
HETATM   21  C5  UNL     1      -3.935  -1.444  -2.188  1.00  0.00     0.092 C 
BRANCH  21  22
HETATM   22  C6  UNL     1      -5.225  -1.708  -2.572  1.00  0.00     0.090 C 
HETATM   23 BR1  UNL     1      -6.165  -3.141  -1.856  1.00  0.00    -0.061 Br
ENDBRANCH  21  22
ENDBRANCH  20  21
ENDBRANCH   4  20
TORSDOF 7
