REMARK  5 active torsions:
REMARK  status: ('A' for Active; 'I' for Inactive)
REMARK    1  A    between atoms: C2_2  and  C3_3 
REMARK    2  A    between atoms: C4_4  and  C5_5 
REMARK    3  A    between atoms: C4_4  and  C8_8 
REMARK       I    between atoms: C8_8  and  N1_10 
REMARK    4  A    between atoms: N1_10  and  S1_11 
REMARK    5  A    between atoms: S1_11  and  C9_14 
ROOT
HETATM    1  C5  UNL     1      -2.664  -0.962  -0.071  1.00  0.00    -0.062 C 
HETATM    2  C6  UNL     1      -3.009  -2.116  -0.150  1.00  0.00    -0.105 C 
HETATM    3  C7  UNL     1      -3.412  -3.525  -0.228  1.00  0.00     0.112 C 
ENDROOT
BRANCH   1   4
HETATM    4  C4  UNL     1      -2.268   0.436   0.038  1.00  0.00     0.086 C 
HETATM    5  C3  UNL     1      -3.068   1.403  -0.381  1.00  0.00     0.025 C 
BRANCH   5   6
HETATM    6  C2  UNL     1      -2.921   2.830  -0.388  1.00  0.00    -0.009 C 
HETATM    7  C1  UNL     1      -3.783   3.705  -0.830  1.00  0.00     0.011 C 
ENDBRANCH   5   6
BRANCH   4   8
HETATM    8  C8  UNL     1      -0.956   0.687   0.628  1.00  0.00     0.273 C 
HETATM    9  O1  UNL     1      -0.370   1.762   0.842  1.00  0.00    -0.266 OA
HETATM   10  N1  UNL     1      -0.124  -0.381   1.067  1.00  0.00    -0.245 N 
HETATM   11  H8  UNL     1      -0.425  -1.393   0.981  1.00  0.00     0.182 HD
BRANCH  10  12
HETATM   12  S1  UNL     1       1.417  -0.140   1.764  1.00  0.00     0.265 S 
HETATM   13  O2  UNL     1       1.383   1.187   2.495  1.00  0.00    -0.200 OA
HETATM   14  O3  UNL     1       1.709  -1.172   2.841  1.00  0.00    -0.200 OA
BRANCH  12  15
HETATM   15  C9  UNL     1       2.696  -0.122   0.570  1.00  0.00     0.080 A 
HETATM   16  C10 UNL     1       3.265  -1.347   0.291  1.00  0.00     0.027 A 
HETATM   17  C11 UNL     1       4.281  -1.480  -0.628  1.00  0.00     0.020 A 
HETATM   18  C12 UNL     1       4.738  -0.354  -1.283  1.00  0.00     0.011 A 
HETATM   19 BR1  UNL     1       6.135  -0.518  -2.550  1.00  0.00    -0.051 Br
HETATM   20  C13 UNL     1       4.169   0.892  -1.010  1.00  0.00     0.020 A 
HETATM   21  C14 UNL     1       3.150   1.008  -0.084  1.00  0.00     0.027 A 
ENDBRANCH  12  15
ENDBRANCH  10  12
ENDBRANCH   4   8
ENDBRANCH   1   4
TORSDOF 5
