REMARK  6 active torsions:
REMARK  status: ('A' for Active; 'I' for Inactive)
REMARK    1  A    between atoms: S1_2  and  N1_4 
REMARK    2  A    between atoms: S1_2  and  C9_15 
REMARK    3  A    between atoms: N1_4  and  C1_5 
REMARK    4  A    between atoms: C1_5  and  S2_6 
REMARK    5  A    between atoms: C1_5  and  C2_7 
REMARK    6  A    between atoms: C2_7  and  C3_8 
ROOT
HETATM    1  N1  UNL     1      -0.692  -1.596   1.207  1.00  0.00    -0.301 N 
HETATM    2  H1  UNL     1      -0.239  -2.277   1.833  1.00  0.00     0.173 HD
ENDROOT
BRANCH   1   3
HETATM    3  S1  UNL     1      -1.680  -2.264   0.002  1.00  0.00     0.259 S 
HETATM    4  O1  UNL     1      -0.916  -2.935  -1.096  1.00  0.00    -0.201 OA
HETATM    5  O2  UNL     1      -2.575  -3.289   0.638  1.00  0.00    -0.201 OA
BRANCH   3   6
HETATM    6  C9  UNL     1      -2.728  -1.006  -0.619  1.00  0.00     0.079 A 
HETATM    7  C10 UNL     1      -2.454  -0.187  -1.678  1.00  0.00     0.026 A 
HETATM    8  C11 UNL     1      -3.352   0.776  -2.087  1.00  0.00     0.020 A 
HETATM    9  C12 UNL     1      -4.568   0.970  -1.460  1.00  0.00     0.011 A 
HETATM   10 BR2  UNL     1      -5.847   2.284  -1.981  1.00  0.00    -0.051 Br
HETATM   11  C13 UNL     1      -4.900   0.161  -0.372  1.00  0.00     0.020 A 
HETATM   12  C14 UNL     1      -3.969  -0.776  -0.014  1.00  0.00     0.026 A 
ENDBRANCH   3   6
ENDBRANCH   1   3
BRANCH   1  13
HETATM   13  C1  UNL     1       0.188  -0.532   0.775  1.00  0.00     0.156 C 
BRANCH  13  14
HETATM   14  S2  UNL     1      -0.226   1.053   1.538  1.00  0.00    -0.156 SA
HETATM   15  H3  UNL     1       0.852   1.940   1.344  1.00  0.00     0.103 HD
ENDBRANCH  13  14
BRANCH  13  16
HETATM   16  C2  UNL     1       1.598  -0.967   1.056  1.00  0.00     0.075 C 
BRANCH  16  17
HETATM   17  C3  UNL     1       2.641  -0.018   0.686  1.00  0.00    -0.055 A 
HETATM   18  C4  UNL     1       3.117   0.952   1.553  1.00  0.00     0.008 A 
HETATM   19  C5  UNL     1       4.105   1.866   1.234  1.00  0.00     0.019 A 
HETATM   20  C6  UNL     1       4.659   1.811  -0.039  1.00  0.00     0.011 A 
HETATM   21 BR1  UNL     1       6.022   3.065  -0.493  1.00  0.00    -0.051 Br
HETATM   22  C7  UNL     1       4.221   0.862  -0.944  1.00  0.00     0.019 A 
HETATM   23  C8  UNL     1       3.229  -0.024  -0.561  1.00  0.00     0.008 A 
ENDBRANCH  16  17
ENDBRANCH  13  16
ENDBRANCH   1  13
TORSDOF 6
