REMARK  5 active torsions:
REMARK  status: ('A' for Active; 'I' for Inactive)
REMARK    1  A    between atoms: C2_2  and  C3_3 
REMARK    2  A    between atoms: C2_2  and  N1_11 
REMARK    3  A    between atoms: C3_3  and  C4_4 
REMARK    4  A    between atoms: N1_11  and  S1_12 
REMARK    5  A    between atoms: S1_12  and  C10_14 
ROOT
HETATM    1  N1  UNL     1       0.505   0.561  -1.043  1.00  0.00    -0.234 NA
HETATM    2  H11 UNL     1       0.294   1.394  -1.636  1.00  0.00     0.138 HD
ENDROOT
BRANCH   1   3
HETATM    3  C2  UNL     1      -0.695  -0.150  -0.647  1.00  0.00     0.069 C 
HETATM    4  C1  UNL     1      -0.327  -1.119   0.446  1.00  0.00     0.027 C 
BRANCH   3   5
HETATM    5  C3  UNL     1      -1.690   0.885  -0.163  1.00  0.00     0.058 C 
BRANCH   5   6
HETATM    6  C4  UNL     1      -2.942   0.295   0.309  1.00  0.00    -0.057 A 
HETATM    7  C5  UNL     1      -3.945   0.131  -0.654  1.00  0.00     0.008 A 
HETATM    8  C6  UNL     1      -5.166  -0.412  -0.338  1.00  0.00     0.019 A 
HETATM    9  C7  UNL     1      -5.471  -0.823   0.943  1.00  0.00     0.011 A 
HETATM   10 BR1  UNL     1      -7.155  -1.572   1.390  1.00  0.00    -0.051 Br
HETATM   11  C8  UNL     1      -4.481  -0.664   1.910  1.00  0.00     0.019 A 
HETATM   12  C9  UNL     1      -3.258  -0.118   1.578  1.00  0.00     0.008 A 
ENDBRANCH   5   6
ENDBRANCH   3   5
ENDBRANCH   1   3
BRANCH   1  13
HETATM   13  S1  UNL     1       1.765  -0.438  -1.652  1.00  0.00     0.125 S 
HETATM   14  O1  UNL     1       1.413  -1.878  -1.859  1.00  0.00    -0.236 OA
BRANCH  13  15
HETATM   15  C10 UNL     1       3.291  -0.247  -0.794  1.00  0.00     0.047 A 
HETATM   16  C11 UNL     1       3.750  -0.937   0.309  1.00  0.00     0.023 A 
HETATM   17  C12 UNL     1       4.982  -0.648   0.849  1.00  0.00     0.020 A 
HETATM   18  C13 UNL     1       5.784   0.347   0.288  1.00  0.00     0.011 A 
HETATM   19 BR2  UNL     1       7.464   0.620   1.161  1.00  0.00    -0.051 Br
HETATM   20  C14 UNL     1       5.340   1.047  -0.816  1.00  0.00     0.020 A 
HETATM   21  C15 UNL     1       4.088   0.742  -1.352  1.00  0.00     0.023 A 
ENDBRANCH  13  15
ENDBRANCH   1  13
TORSDOF 5
