REMARK  5 active torsions:
REMARK  status: ('A' for Active; 'I' for Inactive)
REMARK    1  A    between atoms: C5_5  and  C6_6 
REMARK    2  A    between atoms: C7_8  and  N1_9 
REMARK    3  A    between atoms: C11_14  and  C12_15 
REMARK    4  A    between atoms: C12_15  and  C13_16 
REMARK    5  A    between atoms: C16_21  and  O3_22 
ROOT
HETATM    1  C1  UNL     1      -4.143  -1.438  -1.631  1.00  0.00     0.043 C 
HETATM    2  C2  UNL     1      -3.128  -1.790  -0.582  1.00  0.00     0.220 C 
HETATM    3  C3  UNL     1      -1.716  -1.642  -1.115  1.00  0.00     0.063 C 
HETATM    4  C4  UNL     1      -0.842  -2.056   0.006  1.00  0.00    -0.013 C 
HETATM    5  C5  UNL     1      -0.176  -1.194   0.747  1.00  0.00    -0.007 C 
HETATM    6  C7  UNL     1       0.052   0.227   0.942  1.00  0.00     0.200 C 
HETATM    7  C16 UNL     1      -0.917   0.932   0.017  1.00  0.00     0.079 C 
HETATM    8  C17 UNL     1      -2.257   0.991  -0.081  1.00  0.00     0.012 C 
HETATM    9  C18 UNL     1      -2.670   1.886  -1.233  1.00  0.00     0.308 C 
HETATM   10  N4  UNL     1      -3.981   2.395  -0.952  1.00  0.00     0.087 N 
HETATM   11  C19 UNL     1      -4.175   2.408   0.502  1.00  0.00     0.272 C 
HETATM   12  C20 UNL     1      -4.456   0.986   0.936  1.00  0.00     0.070 C 
HETATM   13  C21 UNL     1      -3.131   0.245   0.812  1.00  0.00     0.255 C 
HETATM   14  N5  UNL     1      -3.272  -1.143   0.678  1.00  0.00     0.096 N 
HETATM   15  H23 UNL     1      -4.662   1.749  -1.426  1.00  0.00     0.316 HD
HETATM   16  H29 UNL     1      -4.200  -1.429   1.074  1.00  0.00     0.317 HD
ENDROOT
BRANCH   6  17
HETATM   17  N1  UNL     1       1.379   0.713   0.751  1.00  0.00    -0.268 N 
HETATM   18  C8  UNL     1       1.628   2.058   1.168  1.00  0.00     0.227 A 
HETATM   19  N2  UNL     1       2.734   2.674   1.028  1.00  0.00    -0.253 NA
HETATM   20  C9  UNL     1       3.850   2.054   0.426  1.00  0.00     0.145 A 
HETATM   21  C10 UNL     1       3.740   0.798   0.000  1.00  0.00     0.051 A 
HETATM   22  C11 UNL     1       4.719  -0.081  -0.654  1.00  0.00     0.046 C 
HETATM   23  N3  UNL     1       2.480   0.098   0.160  1.00  0.00    -0.290 N 
HETATM   24  C14 UNL     1       3.803  -1.059  -1.397  1.00  0.00     0.033 C 
HETATM   25  C15 UNL     1       2.633  -1.228  -0.394  1.00  0.00     0.150 C 
BRANCH  22  26
HETATM   26  C12 UNL     1       5.578  -0.887   0.256  1.00  0.00     0.080 C 
BRANCH  26  27
HETATM   27  C13 UNL     1       6.375  -0.022   1.152  1.00  0.00     0.231 C 
HETATM   28  O2  UNL     1       5.959   0.867   1.876  1.00  0.00    -0.307 OA
ENDBRANCH  26  27
ENDBRANCH  22  26
ENDBRANCH   6  17
BRANCH   5  29
HETATM   29  C6  UNL     1       0.636  -1.834   1.804  1.00  0.00     0.387 C 
HETATM   30  O1  UNL     1       1.242  -2.571   2.617  1.00  0.00    -0.405 OA
ENDBRANCH   5  29
BRANCH   7  31
HETATM   31  O3  UNL     1      -0.146   1.667  -0.920  1.00  0.00    -0.362 OA
HETATM   32  H20 UNL     1      -0.085   1.347  -1.855  1.00  0.00     0.217 HD
ENDBRANCH   7  31
TORSDOF 5
