REMARK  5 active torsions:
REMARK  status: ('A' for Active; 'I' for Inactive)
REMARK    1  A    between atoms: C2_2  and  O1_3 
REMARK    2  A    between atoms: C8_9  and  N1_10 
REMARK    3  A    between atoms: N1_10  and  C9_11 
REMARK    4  A    between atoms: C9_11  and  S1_12 
REMARK    5  A    between atoms: S1_12  and  C10_15 
ROOT
HETATM    1  N1  UNL     1      -0.993   0.712   0.647  1.00  0.00    -0.401 N 
HETATM    2  H12 UNL     1      -1.303   1.283   1.439  1.00  0.00     0.154 HD
ENDROOT
BRANCH   1   3
HETATM    3  C8  UNL     1      -1.501  -0.604   0.532  1.00  0.00     0.118 C 
HETATM    4  C2  UNL     1      -2.917  -0.758   1.042  1.00  0.00     0.092 C 
HETATM    5  C1  UNL     1      -3.476  -2.074   0.580  1.00  0.00     0.052 C 
HETATM    6  C3  UNL     1      -3.737   0.405   0.546  1.00  0.00     0.012 C 
HETATM    7  C4  UNL     1      -3.621   1.058  -0.601  1.00  0.00    -0.001 C 
HETATM    8  C5  UNL     1      -2.716   0.905  -1.736  1.00  0.00    -0.004 C 
HETATM    9  C6  UNL     1      -1.745   0.003  -1.885  1.00  0.00    -0.025 C 
HETATM   10  C7  UNL     1      -1.386  -1.035  -0.920  1.00  0.00     0.055 C 
BRANCH   4  11
HETATM   11  O1  UNL     1      -2.888  -0.775   2.436  1.00  0.00    -0.384 OA
HETATM   12  H4  UNL     1      -3.560  -1.417   2.771  1.00  0.00     0.211 HD
ENDBRANCH   4  11
ENDBRANCH   1   3
BRANCH   1  13
HETATM   13  C9  UNL     1       0.344   0.869   0.214  1.00  0.00     0.261 C 
BRANCH  13  14
HETATM   14  S1  UNL     1       1.572  -0.025   1.082  1.00  0.00     0.191 S 
HETATM   15  O2  UNL     1       1.411  -1.502   1.021  1.00  0.00    -0.221 OA
HETATM   16  O3  UNL     1       1.657   0.355   2.524  1.00  0.00    -0.221 OA
BRANCH  14  17
HETATM   17  C10 UNL     1       3.149   0.339   0.363  1.00  0.00     0.061 A 
HETATM   18  C11 UNL     1       3.903   1.409   0.842  1.00  0.00     0.026 A 
HETATM   19  C12 UNL     1       5.137   1.733   0.315  1.00  0.00     0.044 A 
HETATM   20  C13 UNL     1       5.588   0.946  -0.710  1.00  0.00     0.116 A 
HETATM   21  F1  UNL     1       6.792   1.241  -1.243  1.00  0.00    -0.206 F 
HETATM   22  C14 UNL     1       4.881  -0.138  -1.234  1.00  0.00     0.044 A 
HETATM   23  C15 UNL     1       3.651  -0.423  -0.673  1.00  0.00     0.026 A 
ENDBRANCH  14  17
ENDBRANCH  13  14
ENDBRANCH   1  13
TORSDOF 5
