REMARK  1 active torsions:
REMARK  status: ('A' for Active; 'I' for Inactive)
REMARK    1  A    between atoms: O1_2  and  C2_3 
ROOT
HETATM    1  C2  UNL     1       2.565   1.690  -0.730  1.00  0.00     0.076 A 
HETATM    2  C3  UNL     1       3.061   0.568  -0.075  1.00  0.00     0.043 A 
HETATM    3  C4  UNL     1       2.992  -0.445   1.043  1.00  0.00     0.043 A 
HETATM    4  C5  UNL     1       2.318   0.616   0.642  1.00  0.00     0.091 A 
HETATM    5  C6  UNL     1       1.361   1.627   0.589  1.00  0.00     0.062 A 
HETATM    6  C7  UNL     1       1.485   2.497  -0.463  1.00  0.00     0.092 A 
HETATM    7  N1  UNL     1       0.301   3.119   0.087  1.00  0.00    -0.390 N 
HETATM    8  C8  UNL     1      -1.004   2.344  -0.039  1.00  0.00     0.266 C 
HETATM    9  N2  UNL     1      -0.969   1.150   0.629  1.00  0.00    -0.276 NA
HETATM   10  C9  UNL     1      -1.452   0.003   0.578  1.00  0.00     0.048 C 
HETATM   11  C10 UNL     1      -2.405  -0.449  -0.452  1.00  0.00     0.173 C 
HETATM   12  N3  UNL     1      -3.202  -1.584  -0.089  1.00  0.00    -0.411 N 
HETATM   13  C11 UNL     1      -4.398  -1.795  -0.813  1.00  0.00     0.143 C 
HETATM   14  C12 UNL     1      -2.419  -2.760   0.190  1.00  0.00     0.119 C 
HETATM   15  C13 UNL     1      -1.139  -2.456   0.870  1.00  0.00     0.050 C 
HETATM   16  C14 UNL     1      -1.080  -1.126   1.542  1.00  0.00     0.135 C 
HETATM   17  N4  UNL     1       0.373  -0.857   1.752  1.00  0.00    -0.351 N 
HETATM   18  C15 UNL     1       1.782  -0.591   2.029  1.00  0.00     0.223 C 
HETATM   19  O2  UNL     1       1.437  -0.567   3.225  1.00  0.00    -0.273 OA
HETATM   20  H7  UNL     1       0.483   4.075   0.526  1.00  0.00     0.155 HD
HETATM   21  H20 UNL     1       0.642  -0.961   0.719  1.00  0.00     0.163 HD
ENDROOT
BRANCH   1  22
HETATM   22  O1  UNL     1       3.219   2.138  -1.854  1.00  0.00    -0.384 OA
HETATM   23  C1  UNL     1       4.351   1.467  -2.359  1.00  0.00     0.202 C 
ENDBRANCH   1  22
TORSDOF 1
