REMARK  0 active torsions:
REMARK  status: ('A' for Active; 'I' for Inactive)
ROOT
HETATM    1  O1  UNL     1      -0.811  -0.600   2.029  1.00  0.00    -0.135 OA
HETATM    2  C1  UNL     1      -0.479  -1.717   1.638  1.00  0.00     0.371 A 
HETATM    3  C2  UNL     1       0.136  -3.068   1.316  1.00  0.00     0.094 C 
HETATM    4  C3  UNL     1       1.526  -3.000   2.044  1.00  0.00     0.098 C 
HETATM    5  C4  UNL     1       2.110  -1.731   1.730  1.00  0.00    -0.108 C 
HETATM    6  S1  UNL     1       2.616  -0.600   1.457  1.00  0.00    -0.064 SA
HETATM    7  C5  UNL     1       3.205   0.779   1.128  1.00  0.00     0.054 C 
HETATM    8  C6  UNL     1       2.495   1.516   0.240  1.00  0.00    -0.015 C 
HETATM    9  C7  UNL     1       1.236   0.814  -0.285  1.00  0.00     0.054 C 
HETATM   10  C8  UNL     1       1.138   1.001  -1.687  1.00  0.00    -0.023 C 
HETATM   11  C9  UNL     1       0.429   1.459  -2.645  1.00  0.00    -0.001 C 
HETATM   12  C10 UNL     1      -0.667   2.086  -3.355  1.00  0.00     0.042 C 
HETATM   13  C11 UNL     1      -1.809   2.552  -2.730  1.00  0.00     0.114 C 
HETATM   14  F1  UNL     1      -3.038   3.152  -2.645  1.00  0.00    -0.206 F 
HETATM   15  C12 UNL     1      -2.199   1.872  -1.505  1.00  0.00     0.084 C 
HETATM   16  C13 UNL     1      -2.372   1.092  -0.392  1.00  0.00     0.150 C 
HETATM   17  S2  UNL     1      -2.671   0.127   1.077  1.00  0.00     0.349 S 
HETATM   18  O2  UNL     1      -4.148  -0.178   1.137  1.00  0.00    -0.196 OA
HETATM   19  O3  UNL     1      -2.429   1.027   2.270  1.00  0.00    -0.196 OA
HETATM   20  N1  UNL     1      -1.679  -1.260   1.042  1.00  0.00     0.191 N 
HETATM   21  H14 UNL     1      -2.134  -1.926   0.369  1.00  0.00     0.344 HD
ENDROOT
TORSDOF 0
