REMARK  7 active torsions:
REMARK  status: ('A' for Active; 'I' for Inactive)
REMARK    1  A    between atoms: C2_2  and  C3_3 
REMARK    2  A    between atoms: C5_5  and  O1_6 
REMARK    3  A    between atoms: O1_6  and  C6_7 
REMARK    4  A    between atoms: C6_7  and  N1_9 
REMARK    5  A    between atoms: N1_9  and  C8_10 
REMARK    6  A    between atoms: C14_17  and  N3_18 
REMARK    7  A    between atoms: N3_18  and  C15_19 
ROOT
HETATM    1  C3  UNL     1      -1.459  -1.220  -2.188  1.00  0.00    -0.029 A 
HETATM    2  C4  UNL     1      -0.541  -0.211  -2.109  1.00  0.00     0.046 A 
HETATM    3  C5  UNL     1       0.161  -0.015  -0.945  1.00  0.00     0.072 A 
HETATM    4  C12 UNL     1      -0.034  -0.808   0.151  1.00  0.00     0.039 A 
HETATM    5  C13 UNL     1      -0.980  -1.858   0.093  1.00  0.00     0.032 A 
HETATM    6  C14 UNL     1      -1.683  -2.026  -1.127  1.00  0.00     0.036 A 
ENDROOT
BRANCH   3   7
HETATM    7  O1  UNL     1       0.999   1.058  -1.142  1.00  0.00    -0.316 OA
BRANCH   7   8
HETATM    8  C6  UNL     1       1.930   1.557  -0.182  1.00  0.00     0.358 C 
HETATM    9  C7  UNL     1       3.163   1.962  -0.910  1.00  0.00     0.074 C 
BRANCH   8  10
HETATM   10  N1  UNL     1       1.228   2.605   0.506  1.00  0.00     0.118 N 
HETATM   11  H11 UNL     1       0.305   2.240   0.804  1.00  0.00     0.319 HD
BRANCH  10  12
HETATM   12  C8  UNL     1       1.855   3.328   1.505  1.00  0.00     0.253 C 
HETATM   13  C9  UNL     1       2.989   4.235   1.164  1.00  0.00     0.067 C 
HETATM   14  C10 UNL     1       3.264   4.749   2.595  1.00  0.00     0.272 C 
HETATM   15  N2  UNL     1       3.347   3.494   3.314  1.00  0.00     0.085 N 
HETATM   16  C11 UNL     1       2.508   2.528   2.614  1.00  0.00     0.305 C 
HETATM   17  H17 UNL     1       4.336   3.208   3.386  1.00  0.00     0.315 HD
ENDBRANCH  10  12
ENDBRANCH   8  10
ENDBRANCH   7   8
ENDBRANCH   3   7
BRANCH   1  18
HETATM   18  C2  UNL     1      -2.318  -1.598  -3.338  1.00  0.00     0.036 C 
HETATM   19  C1  UNL     1      -1.842  -2.790  -4.095  1.00  0.00     0.010 C 
ENDBRANCH   1  18
BRANCH   6  20
HETATM   20  N3  UNL     1      -2.493  -3.122  -0.762  1.00  0.00    -0.366 N 
HETATM   21  H22 UNL     1      -2.987  -3.149  -1.715  1.00  0.00     0.161 HD
BRANCH  20  22
HETATM   22  C15 UNL     1      -3.284  -4.222  -0.341  1.00  0.00     0.209 A 
HETATM   23  C16 UNL     1      -4.456  -3.843   0.530  1.00  0.00     0.095 A 
HETATM   24  C17 UNL     1      -3.719  -4.528   1.535  1.00  0.00     0.089 A 
HETATM   25  N4  UNL     1      -2.760  -4.847   0.849  1.00  0.00    -0.280 NA
ENDBRANCH  20  22
ENDBRANCH   6  20
TORSDOF 7
