REMARK  5 active torsions:
REMARK  status: ('A' for Active; 'I' for Inactive)
REMARK    1  A    between atoms: C2_2  and  N1_3 
REMARK    2  A    between atoms: C6_7  and  C7_8 
REMARK    3  A    between atoms: C11_13  and  C12_14 
REMARK    4  A    between atoms: C12_14  and  C13_16 
REMARK    5  A    between atoms: C13_16  and  P1_17 
ROOT
HETATM    1  C7  UNL     1      -1.400   0.414  -0.377  1.00  0.00     0.103 A 
HETATM    2  C8  UNL     1      -0.096   0.497  -0.735  1.00  0.00     0.133 A 
HETATM    3  N2  UNL     1       0.518  -0.818  -0.840  1.00  0.00    -0.380 N 
HETATM    4  C9  UNL     1       1.873  -1.164  -0.363  1.00  0.00     0.123 C 
HETATM    5  C10 UNL     1       2.823  -0.116  -0.853  1.00  0.00     0.054 C 
HETATM    6  C11 UNL     1       3.043   1.049   0.051  1.00  0.00     0.162 C 
HETATM    7  O1  UNL     1       2.515   2.260  -0.462  1.00  0.00    -0.299 OA
HETATM    8  S1  UNL     1       0.871   2.029  -1.033  1.00  0.00     0.089 SA
HETATM    9  N3  UNL     1      -0.103   3.350  -0.798  1.00  0.00    -0.189 NA
HETATM   10  C14 UNL     1      -1.421   2.834  -0.428  1.00  0.00     0.244 A 
HETATM   11  N4  UNL     1      -1.962   1.707  -0.255  1.00  0.00    -0.238 NA
HETATM   12  H9  UNL     1      -0.255  -1.355  -1.342  1.00  0.00     0.160 HD
ENDROOT
BRANCH   1  13
HETATM   13  C6  UNL     1      -2.112  -0.818  -0.113  1.00  0.00     0.015 A 
HETATM   14  C2  UNL     1      -3.575  -0.600   0.100  1.00  0.00     0.199 A 
HETATM   15  C1  UNL     1      -3.820   0.269   1.300  1.00  0.00     0.059 C 
HETATM   16  C3  UNL     1      -4.173  -1.908   0.280  1.00  0.00     0.019 A 
HETATM   17  C4  UNL     1      -3.275  -2.847   0.207  1.00  0.00    -0.001 A 
HETATM   18  C5  UNL     1      -2.066  -2.109  -0.029  1.00  0.00     0.012 A 
BRANCH  14  19
HETATM   19  N1  UNL     1      -4.179   0.036  -1.055  1.00  0.00     0.096 N 
HETATM   20  H4  UNL     1      -4.963   0.654  -0.791  1.00  0.00     0.314 HD
HETATM   21  H5  UNL     1      -4.402  -0.635  -1.809  1.00  0.00     0.314 HD
ENDBRANCH  14  19
ENDBRANCH   1  13
BRANCH   6  22
HETATM   22  C12 UNL     1       4.544   1.344   0.156  1.00  0.00     0.136 C 
HETATM   23 CL1  UNL     1       4.862   2.731   1.227  1.00  0.00    -0.118 Cl
BRANCH  22  24
HETATM   24  C13 UNL     1       5.335   0.172   0.544  1.00  0.00     0.004 C 
BRANCH  24  25
HETATM   25  P1  UNL     1       5.293  -0.353   2.115  1.00  0.00    -0.078 P 
HETATM   26  H17 UNL     1       6.070  -1.519   2.537  1.00  0.00     0.066 HD
ENDBRANCH  24  25
ENDBRANCH  22  24
ENDBRANCH   6  22
TORSDOF 5
