REMARK  2 active torsions:
REMARK  status: ('A' for Active; 'I' for Inactive)
REMARK    1  A    between atoms: C2_2  and  C3_3 
REMARK    2  A    between atoms: C10_11  and  N1_12 
ROOT
HETATM    1  C3  UNL     1       2.148   2.017   0.301  1.00  0.00    -0.022 C 
HETATM    2  C4  UNL     1       1.417   3.107   0.564  1.00  0.00     0.192 A 
HETATM    3  C5  UNL     1       0.069   3.585   0.285  1.00  0.00     0.130 A 
HETATM    4  O1  UNL     1       0.553   2.479  -0.000  1.00  0.00    -0.361 OA
HETATM    5  C6  UNL     1      -1.260   3.281  -0.304  1.00  0.00     0.083 C 
HETATM    6  C7  UNL     1      -1.860   2.029   0.271  1.00  0.00    -0.047 A 
HETATM    7  C8  UNL     1      -2.474   2.490   1.453  1.00  0.00     0.010 A 
HETATM    8  C9  UNL     1      -3.187   1.767   2.397  1.00  0.00     0.029 A 
HETATM    9  C10 UNL     1      -3.343   0.412   2.194  1.00  0.00     0.026 A 
HETATM   10  C11 UNL     1      -2.729  -0.044   1.015  1.00  0.00     0.038 A 
HETATM   11  C12 UNL     1      -1.995   0.652   0.027  1.00  0.00    -0.026 A 
HETATM   12  C13 UNL     1      -1.604  -0.376  -0.953  1.00  0.00     0.122 C 
HETATM   13  N2  UNL     1      -1.076  -1.555  -0.265  1.00  0.00    -0.378 N 
HETATM   14  C14 UNL     1      -1.552  -2.808  -0.649  1.00  0.00     0.146 C 
HETATM   15  C15 UNL     1       0.005  -1.395   0.560  1.00  0.00     0.347 C 
HETATM   16  C16 UNL     1       1.363  -1.569  -0.169  1.00  0.00     0.161 C 
HETATM   17  C17 UNL     1       2.243  -2.651   0.212  1.00  0.00     0.199 C 
HETATM   18  O2  UNL     1       1.754  -3.681   0.984  1.00  0.00    -0.360 OA
HETATM   19  C18 UNL     1       0.604  -3.435   1.678  1.00  0.00     0.443 C 
HETATM   20  N3  UNL     1       0.325  -2.003   1.765  1.00  0.00     0.137 N 
HETATM   21  C19 UNL     1       1.561  -1.436   2.259  1.00  0.00     0.297 C 
HETATM   22  C20 UNL     1       2.286  -0.377   1.494  1.00  0.00     0.154 C 
HETATM   23  N4  UNL     1       1.857  -0.192   0.088  1.00  0.00    -0.368 N 
HETATM   24  C21 UNL     1       1.787   1.049  -0.763  1.00  0.00     0.032 C 
HETATM   25  C22 UNL     1       1.300   0.311  -1.769  1.00  0.00     0.004 C 
HETATM   26  C23 UNL     1       0.102   0.760  -2.502  1.00  0.00     0.040 C 
HETATM   27  C24 UNL     1      -1.113  -0.025  -2.261  1.00  0.00    -0.020 C 
HETATM   28  C25 UNL     1      -2.212   0.915  -2.858  1.00  0.00     0.017 C 
HETATM   29  C26 UNL     1      -1.169  -1.187  -3.207  1.00  0.00     0.017 C 
ENDROOT
BRANCH   9  30
HETATM   30  N1  UNL     1      -4.058  -0.391   3.115  1.00  0.00    -0.399 N 
HETATM   31  H11 UNL     1      -3.462  -1.069   3.671  1.00  0.00     0.156 HD
HETATM   32  H12 UNL     1      -5.080  -0.352   3.266  1.00  0.00     0.156 HD
ENDBRANCH   9  30
BRANCH   1  33
HETATM   33  C2  UNL     1       3.531   1.823   0.755  1.00  0.00     0.035 C 
HETATM   34  C1  UNL     1       4.487   1.563  -0.405  1.00  0.00     0.010 C 
ENDBRANCH   1  33
TORSDOF 2
