REMARK  2 active torsions:
REMARK  status: ('A' for Active; 'I' for Inactive)
REMARK    1  A    between atoms: C2_2  and  C3_3 
REMARK    2  A    between atoms: N1_9  and  C9_10 
ROOT
HETATM    1  C3  UNL     1      -0.691   2.642   0.411  1.00  0.00     0.001 C 
HETATM    2  C4  UNL     1       0.162   1.742  -0.418  1.00  0.00     0.051 A 
HETATM    3  C5  UNL     1      -0.422   1.572  -1.828  1.00  0.00     0.024 A 
HETATM    4  C6  UNL     1       0.063   0.743  -1.007  1.00  0.00     0.035 A 
HETATM    5  C7  UNL     1      -1.130   0.065  -0.222  1.00  0.00     0.122 C 
HETATM    6  C8  UNL     1      -1.713  -0.995  -1.086  1.00  0.00     0.300 C 
HETATM    7  N1  UNL     1      -3.122  -1.008  -0.753  1.00  0.00     0.116 N 
HETATM    8  C12 UNL     1      -3.438   0.201  -0.047  1.00  0.00     0.394 C 
HETATM    9  N2  UNL     1      -2.198   0.849   0.178  1.00  0.00    -0.381 N 
HETATM   10  C13 UNL     1      -2.240   2.253   0.363  1.00  0.00     0.130 C 
HETATM   11  C14 UNL     1       1.324   0.307  -0.367  1.00  0.00     0.107 C 
HETATM   12  C15 UNL     1       2.587   0.780  -0.889  1.00  0.00     0.081 C 
HETATM   13  C16 UNL     1       3.548  -0.305  -0.568  1.00  0.00    -0.029 A 
HETATM   14  C17 UNL     1       4.918  -0.357  -0.732  1.00  0.00     0.011 A 
HETATM   15  C18 UNL     1       5.617  -1.484  -0.359  1.00  0.00     0.023 A 
HETATM   16  C19 UNL     1       4.934  -2.555   0.178  1.00  0.00     0.046 A 
HETATM   17  C20 UNL     1       5.595  -3.764   0.592  1.00  0.00     0.099 C 
HETATM   18  N3  UNL     1       6.117  -4.758   0.923  1.00  0.00    -0.191 NA
HETATM   19  C21 UNL     1       3.569  -2.450   0.318  1.00  0.00     0.052 A 
HETATM   20  C22 UNL     1       2.809  -1.335  -0.041  1.00  0.00     0.036 A 
HETATM   21  N4  UNL     1       1.425  -1.011   0.014  1.00  0.00    -0.372 N 
HETATM   22  C23 UNL     1       0.850   1.233   0.870  1.00  0.00     0.167 C 
HETATM   23  O2  UNL     1       0.994   1.382   2.052  1.00  0.00    -0.294 OA
HETATM   24  H24 UNL     1       0.753  -1.753   0.309  1.00  0.00     0.161 HD
ENDROOT
BRANCH   1  25
HETATM   25  C2  UNL     1      -0.250   3.782   1.320  1.00  0.00     0.009 C 
HETATM   26  C1  UNL     1      -0.829   5.090   0.911  1.00  0.00     0.006 C 
ENDBRANCH   1  25
BRANCH   7  27
HETATM   27  C9  UNL     1      -3.585  -2.161  -0.075  1.00  0.00     0.272 C 
HETATM   28  C10 UNL     1      -3.427  -3.482  -0.752  1.00  0.00     0.205 C 
HETATM   29  O1  UNL     1      -3.190  -4.062   0.492  1.00  0.00    -0.387 OA
HETATM   30  C11 UNL     1      -2.744  -2.808   0.963  1.00  0.00     0.205 C 
ENDBRANCH   7  27
TORSDOF 2
