REMARK  3 active torsions:
REMARK  status: ('A' for Active; 'I' for Inactive)
REMARK    1  A    between atoms: C2_2  and  C18_20 
REMARK    2  A    between atoms: C3_3  and  C4_4 
REMARK    3  A    between atoms: N2_23  and  C21_24 
ROOT
HETATM    1  C4  UNL     1      -0.542  -1.461   1.230  1.00  0.00     0.011 C 
HETATM    2  C5  UNL     1      -1.692  -0.791   1.240  1.00  0.00    -0.006 C 
HETATM    3  C6  UNL     1      -1.891   0.641   0.979  1.00  0.00     0.057 C 
HETATM    4  C7  UNL     1      -2.884   0.811  -0.139  1.00  0.00    -0.000 C 
HETATM    5  C8  UNL     1      -2.230   0.241  -1.397  1.00  0.00     0.021 C 
HETATM    6  C9  UNL     1      -3.182   2.262  -0.433  1.00  0.00     0.021 C 
HETATM    7  C10 UNL     1      -4.144   0.092   0.168  1.00  0.00     0.031 A 
HETATM    8  C11 UNL     1      -4.172  -0.990   0.948  1.00  0.00     0.022 A 
HETATM    9  C12 UNL     1      -5.543  -1.545   1.117  1.00  0.00     0.101 A 
HETATM   10  C13 UNL     1      -6.395  -0.646   0.322  1.00  0.00     0.015 A 
HETATM   11  C14 UNL     1      -7.383  -0.020  -0.298  1.00  0.00     0.024 A 
HETATM   12  C15 UNL     1      -6.569   1.043  -0.932  1.00  0.00     0.110 A 
HETATM   13  C16 UNL     1      -6.904   2.404  -0.352  1.00  0.00     0.037 C 
HETATM   14  N1  UNL     1      -5.502   0.329  -0.234  1.00  0.00    -0.344 N 
HETATM   15  C17 UNL     1      -2.929  -1.507   1.541  1.00  0.00     0.186 C 
HETATM   16  O1  UNL     1      -2.925  -2.543   2.292  1.00  0.00    -0.287 OA
ENDROOT
BRANCH   1  17
HETATM   17  C3  UNL     1       0.757  -0.887   0.953  1.00  0.00     0.003 C 
HETATM   18  C2  UNL     1       1.880  -1.587   0.952  1.00  0.00    -0.080 C 
HETATM   19  C1  UNL     1       1.801  -3.037   1.252  1.00  0.00     0.044 C 
BRANCH  18  20
HETATM   20  C18 UNL     1       3.199  -0.990   0.669  1.00  0.00     0.017 C 
HETATM   21  C19 UNL     1       3.731  -1.615  -0.620  1.00  0.00     0.039 C 
HETATM   22  C20 UNL     1       4.897  -0.865  -1.194  1.00  0.00     0.273 C 
HETATM   23  N2  UNL     1       5.434   0.108  -0.297  1.00  0.00     0.097 N 
HETATM   24  C24 UNL     1       4.464   1.062   0.181  1.00  0.00     0.273 C 
HETATM   25  C25 UNL     1       3.098   0.487   0.387  1.00  0.00     0.039 C 
BRANCH  23  26
HETATM   26  C21 UNL     1       6.481   0.860  -0.910  1.00  0.00     0.270 C 
HETATM   27  C22 UNL     1       6.164   1.653  -2.140  1.00  0.00     0.205 C 
HETATM   28  O2  UNL     1       7.505   1.424  -2.531  1.00  0.00    -0.387 OA
HETATM   29  C23 UNL     1       7.336   0.151  -1.936  1.00  0.00     0.205 C 
ENDBRANCH  23  26
ENDBRANCH  18  20
ENDBRANCH   1  17
TORSDOF 3
