REMARK  4 active torsions:
REMARK  status: ('A' for Active; 'I' for Inactive)
REMARK    1  A    between atoms: C3_3  and  C5_6 
REMARK    2  A    between atoms: C5_6  and  C6_7 
REMARK    3  A    between atoms: C15_16  and  C16_17 
REMARK    4  A    between atoms: N2_20  and  C19_21 
ROOT
HETATM    1  C1  UNL     1      -7.210   2.885  -0.106  1.00  0.00     0.037 C 
HETATM    2  C2  UNL     1      -6.703   1.586   0.345  1.00  0.00    -0.013 C 
HETATM    3  C3  UNL     1      -6.805   0.456  -0.321  1.00  0.00     0.019 C 
HETATM    4  C4  UNL     1      -7.449   0.415  -1.595  1.00  0.00     0.095 C 
HETATM    5  N1  UNL     1      -7.981   0.381  -2.604  1.00  0.00    -0.192 NA
ENDROOT
BRANCH   3   6
HETATM    6  C5  UNL     1      -6.240  -0.781   0.272  1.00  0.00     0.063 C 
BRANCH   6   7
HETATM    7  C6  UNL     1      -5.180  -1.379  -0.610  1.00  0.00     0.058 A 
HETATM    8  C7  UNL     1      -3.997  -0.649  -0.955  1.00  0.00     0.006 A 
HETATM    9  C8  UNL     1      -3.842  -1.581  -0.031  1.00  0.00    -0.048 A 
HETATM   10  C27 UNL     1      -2.880   0.169  -1.400  1.00  0.00     0.190 A 
HETATM   11  C9  UNL     1      -2.617  -1.970   0.691  1.00  0.00     0.005 A 
HETATM   12  C10 UNL     1      -2.828  -1.867   2.184  1.00  0.00     0.025 C 
HETATM   13  C11 UNL     1      -2.246  -3.413   0.387  1.00  0.00     0.025 C 
HETATM   14  C12 UNL     1      -1.485  -1.122   0.235  1.00  0.00    -0.035 A 
HETATM   15  C13 UNL     1      -0.375  -1.405   0.854  1.00  0.00    -0.013 A 
HETATM   16  C26 UNL     1      -1.584  -0.084  -0.779  1.00  0.00     0.022 A 
HETATM   17  C14 UNL     1       1.014  -1.008   0.911  1.00  0.00     0.062 A 
HETATM   18  C15 UNL     1       1.479   0.027   0.001  1.00  0.00    -0.072 A 
HETATM   19  C24 UNL     1       0.772   0.725  -0.896  1.00  0.00     0.004 A 
HETATM   20  C25 UNL     1      -0.646   0.721  -1.285  1.00  0.00     0.016 A 
HETATM   21  O2  UNL     1      -2.994   1.061  -2.277  1.00  0.00    -0.287 OA
BRANCH  18  22
HETATM   22  C16 UNL     1       2.910   0.337   0.070  1.00  0.00     0.018 C 
HETATM   23  C17 UNL     1       3.442   0.695   1.414  1.00  0.00     0.039 C 
HETATM   24  C18 UNL     1       4.968   0.527   1.360  1.00  0.00     0.273 C 
HETATM   25  N2  UNL     1       5.388   0.446  -0.012  1.00  0.00     0.097 N 
HETATM   26  C22 UNL     1       4.869   1.559  -0.709  1.00  0.00     0.273 C 
HETATM   27  C23 UNL     1       3.372   1.402  -0.892  1.00  0.00     0.039 C 
BRANCH  25  28
HETATM   28  C19 UNL     1       6.736   0.112  -0.208  1.00  0.00     0.270 C 
HETATM   29  C20 UNL     1       7.272   0.003  -1.601  1.00  0.00     0.205 C 
HETATM   30  O1  UNL     1       7.607   1.333  -1.561  1.00  0.00    -0.387 OA
HETATM   31  C21 UNL     1       7.777   1.197  -0.180  1.00  0.00     0.205 C 
ENDBRANCH  25  28
ENDBRANCH  18  22
ENDBRANCH   6   7
ENDBRANCH   3   6
TORSDOF 4
