REMARK  5 active torsions:
REMARK  status: ('A' for Active; 'I' for Inactive)
REMARK    1  A    between atoms: C6_6  and  C7_7 
REMARK    2  A    between atoms: C16_18  and  C18_20 
REMARK    3  A    between atoms: C20_24  and  C21_25 
REMARK    4  A    between atoms: C21_25  and  C22_26 
REMARK    5  A    between atoms: C22_26  and  C23_27 
ROOT
HETATM    1  C23 UNL     1       5.777  -2.349   0.551  1.00  0.00     0.131 C 
HETATM    2  C24 UNL     1       6.366  -1.009   0.803  1.00  0.00     0.059 C 
HETATM    3  N3  UNL     1       6.815   0.054   1.000  1.00  0.00    -0.197 NA
ENDROOT
BRANCH   1   4
HETATM    4  C22 UNL     1       4.322  -2.188   0.205  1.00  0.00     0.031 C 
BRANCH   4   5
HETATM    5  C21 UNL     1       3.657  -0.862   0.137  1.00  0.00     0.043 A 
HETATM    6  N2  UNL     1       2.367  -1.315  -0.212  1.00  0.00    -0.281 N 
HETATM    7  C16 UNL     1       0.935  -0.937  -0.482  1.00  0.00     0.072 C 
HETATM    8  C19 UNL     1       3.054  -0.033   0.020  1.00  0.00     0.122 A 
HETATM    9  C15 UNL     1       0.894   0.512  -0.346  1.00  0.00     0.057 C 
HETATM   10  C17 UNL     1       0.324  -1.678   0.739  1.00  0.00     0.041 C 
HETATM   11  C2  UNL     1       2.181   0.995  -0.864  1.00  0.00    -0.003 A 
HETATM   12  C6  UNL     1      -0.240   1.365  -0.494  1.00  0.00    -0.068 C 
HETATM   13  C1  UNL     1       2.571   0.392  -2.217  1.00  0.00     0.021 C 
HETATM   14  C3  UNL     1       2.163   2.447  -1.160  1.00  0.00    -0.016 C 
HETATM   15  C20 UNL     1       3.441   0.831   0.156  1.00  0.00     0.003 A 
HETATM   16  C4  UNL     1       1.175   3.273  -1.156  1.00  0.00    -0.003 C 
HETATM   17  C5  UNL     1      -0.076   2.649  -0.803  1.00  0.00     0.003 C 
BRANCH   7  18
HETATM   18  C18 UNL     1       0.459  -1.649  -1.632  1.00  0.00     0.257 C 
HETATM   19  O2  UNL     1       1.368  -2.495  -1.645  1.00  0.00    -0.305 OA
ENDBRANCH   7  18
BRANCH  12  20
HETATM   20  C7  UNL     1      -1.711   1.151  -0.209  1.00  0.00     0.016 C 
HETATM   21  C8  UNL     1      -1.885   0.661   1.233  1.00  0.00     0.011 C 
HETATM   22  C9  UNL     1      -2.925   1.451   2.004  1.00  0.00     0.034 C 
HETATM   23  C10 UNL     1      -4.276   0.769   1.944  1.00  0.00     0.141 C 
HETATM   24  C11 UNL     1      -4.782   0.666   0.520  1.00  0.00     0.151 C 
HETATM   25  O1  UNL     1      -4.081  -0.551   2.374  1.00  0.00    -0.365 OA
HETATM   26  N1  UNL     1      -4.344  -0.600   0.128  1.00  0.00    -0.390 N 
HETATM   27  C12 UNL     1      -3.292  -0.797  -0.765  1.00  0.00     0.119 C 
HETATM   28  C14 UNL     1      -4.407  -1.393   1.312  1.00  0.00     0.288 C 
HETATM   29  C13 UNL     1      -2.431   0.311  -1.190  1.00  0.00     0.028 C 
ENDBRANCH  12  20
ENDBRANCH   4   5
ENDBRANCH   1   4
TORSDOF 5
