REMARK  8 active torsions:
REMARK  status: ('A' for Active; 'I' for Inactive)
REMARK    1  A    between atoms: C2_2  and  C3_3 
REMARK    2  A    between atoms: C2_2  and  C13_15 
REMARK    3  A    between atoms: C4_4  and  C5_5 
REMARK    4  A    between atoms: C6_6  and  C8_8 
REMARK    5  A    between atoms: C8_8  and  C9_9 
REMARK    6  A    between atoms: C9_9  and  N1_10 
REMARK    7  A    between atoms: N1_10  and  C10_11 
REMARK    8  A    between atoms: C20_22  and  N2_23 
ROOT
HETATM    1  C13 UNL     1      -1.882  -1.010  -0.336  1.00  0.00     0.014 C 
HETATM    2  C14 UNL     1      -1.372  -0.448  -1.623  1.00  0.00     0.026 C 
HETATM    3  C15 UNL     1      -3.150  -1.757  -0.657  1.00  0.00     0.002 C 
HETATM    4  C16 UNL     1      -4.426  -1.442  -0.482  1.00  0.00    -0.012 A 
HETATM    5  C17 UNL     1      -5.401  -2.434  -0.922  1.00  0.00     0.013 A 
HETATM    6  C18 UNL     1      -6.710  -2.275  -0.817  1.00  0.00     0.003 A 
HETATM    7  C19 UNL     1      -7.511  -1.184  -0.289  1.00  0.00     0.029 A 
HETATM    8  C20 UNL     1      -7.123  -0.032   0.235  1.00  0.00     0.027 A 
HETATM    9  C21 UNL     1      -5.789   0.499   0.444  1.00  0.00     0.059 A 
HETATM   10  C22 UNL     1      -4.651  -0.122   0.130  1.00  0.00     0.042 A 
HETATM   11  N3  UNL     1      -3.493   0.623   0.445  1.00  0.00    -0.383 N 
HETATM   12  C23 UNL     1      -3.606   2.077   0.494  1.00  0.00     0.150 C 
HETATM   13  C24 UNL     1      -2.199  -0.012   0.723  1.00  0.00     0.140 C 
ENDROOT
BRANCH   1  14
HETATM   14  C2  UNL     1      -0.872  -1.965   0.207  1.00  0.00    -0.066 C 
HETATM   15  C1  UNL     1      -1.235  -3.204   0.467  1.00  0.00     0.039 C 
BRANCH  14  16
HETATM   16  C3  UNL     1       0.505  -1.723   0.519  1.00  0.00     0.004 C 
HETATM   17  C4  UNL     1       1.248  -0.659   0.421  1.00  0.00     0.001 C 
BRANCH  17  18
HETATM   18  C5  UNL     1       2.634  -0.359   0.715  1.00  0.00     0.002 C 
HETATM   19  C6  UNL     1       3.146   0.837   0.516  1.00  0.00    -0.082 C 
HETATM   20  C7  UNL     1       2.255   1.895  -0.026  1.00  0.00     0.043 C 
BRANCH  19  21
HETATM   21  C8  UNL     1       4.594   1.060   0.839  1.00  0.00     0.063 C 
BRANCH  21  22
HETATM   22  C9  UNL     1       5.238   1.482  -0.438  1.00  0.00     0.274 C 
BRANCH  22  23
HETATM   23  N1  UNL     1       6.626   1.762  -0.404  1.00  0.00     0.092 N 
HETATM   24  H13 UNL     1       6.883   2.234  -1.299  1.00  0.00     0.316 HD
BRANCH  23  25
HETATM   25  C10 UNL     1       7.516   0.679  -0.185  1.00  0.00     0.267 C 
HETATM   26  C11 UNL     1       7.463  -0.066   1.104  1.00  0.00     0.205 C 
HETATM   27  O1  UNL     1       8.879  -0.136   1.032  1.00  0.00    -0.387 OA
HETATM   28  C12 UNL     1       8.816   1.157   0.460  1.00  0.00     0.205 C 
ENDBRANCH  23  25
ENDBRANCH  22  23
ENDBRANCH  21  22
ENDBRANCH  19  21
ENDBRANCH  17  18
ENDBRANCH  14  16
ENDBRANCH   1  14
BRANCH   8  29
HETATM   29  N2  UNL     1      -8.109   0.897   0.693  1.00  0.00    -0.399 N 
HETATM   30  H26 UNL     1      -8.483   1.764   0.254  1.00  0.00     0.156 HD
HETATM   31  H27 UNL     1      -8.706   0.995   1.524  1.00  0.00     0.156 HD
ENDBRANCH   8  29
TORSDOF 8
