REMARK  3 active torsions:
REMARK  status: ('A' for Active; 'I' for Inactive)
REMARK    1  A    between atoms: C12_14  and  C13_15 
REMARK    2  A    between atoms: C16_18  and  N3_19 
REMARK    3  A    between atoms: N3_19  and  C18_21 
ROOT
HETATM    1  C1  UNL     1       2.791  -3.104   1.125  1.00  0.00     0.011 C 
HETATM    2  C2  UNL     1       2.244  -2.460  -0.101  1.00  0.00    -0.000 C 
HETATM    3  C3  UNL     1       3.213  -2.353  -1.226  1.00  0.00     0.124 C 
HETATM    4  N1  UNL     1       4.200  -1.294  -1.020  1.00  0.00    -0.389 N 
HETATM    5  C4  UNL     1       4.083   0.093  -0.637  1.00  0.00     0.035 A 
HETATM    6  C5  UNL     1       5.300   0.444  -0.080  1.00  0.00     0.052 A 
HETATM    7  C6  UNL     1       5.382   1.741   0.351  1.00  0.00     0.046 A 
HETATM    8  C7  UNL     1       6.624   2.173   0.942  1.00  0.00     0.099 C 
HETATM    9  N2  UNL     1       7.632   2.504   1.410  1.00  0.00    -0.191 NA
HETATM   10  C8  UNL     1       4.330   2.646   0.244  1.00  0.00     0.023 A 
HETATM   11  C9  UNL     1       3.128   2.250  -0.321  1.00  0.00     0.011 A 
HETATM   12  C10 UNL     1       2.996   0.936  -0.776  1.00  0.00    -0.031 A 
HETATM   13  C11 UNL     1       1.617   0.858  -1.311  1.00  0.00     0.050 C 
HETATM   14  C12 UNL     1       0.976  -0.466  -0.943  1.00  0.00     0.020 C 
HETATM   15  C24 UNL     1       1.573  -1.123   0.257  1.00  0.00     0.015 C 
HETATM   16  H7  UNL     1       5.223  -1.546  -1.171  1.00  0.00     0.159 HD
ENDROOT
BRANCH  14  17
HETATM   17  C13 UNL     1      -0.490  -0.311  -0.728  1.00  0.00    -0.068 A 
HETATM   18  C14 UNL     1      -1.376  -0.924  -1.548  1.00  0.00    -0.020 A 
HETATM   19  C15 UNL     1      -2.806  -0.689  -1.223  1.00  0.00     0.059 A 
HETATM   20  C16 UNL     1      -2.691   0.285  -0.066  1.00  0.00     0.043 A 
HETATM   21  C21 UNL     1      -1.997   1.624  -0.405  1.00  0.00     0.048 A 
HETATM   22  C22 UNL     1      -1.315   0.447   0.248  1.00  0.00     0.007 A 
HETATM   23  C23 UNL     1      -0.733   0.618   1.623  1.00  0.00     0.023 C 
BRANCH  20  24
HETATM   24  N3  UNL     1      -3.851   0.428   0.700  1.00  0.00    -0.398 N 
HETATM   25  C17 UNL     1      -3.872   1.294   1.815  1.00  0.00     0.144 C 
BRANCH  24  26
HETATM   26  C18 UNL     1      -5.012   0.553  -0.119  1.00  0.00     0.127 C 
HETATM   27  C19 UNL     1      -6.319   0.737   0.622  1.00  0.00     0.194 C 
HETATM   28  O1  UNL     1      -6.920   0.034  -0.449  1.00  0.00    -0.387 OA
HETATM   29  C20 UNL     1      -5.729  -0.734  -0.457  1.00  0.00     0.194 C 
ENDBRANCH  24  26
ENDBRANCH  20  24
ENDBRANCH  14  17
TORSDOF 3
