REMARK  2 active torsions:
REMARK  status: ('A' for Active; 'I' for Inactive)
REMARK    1  A    between atoms: C2_2  and  C3_3 
REMARK    2  A    between atoms: C6_6  and  C7_7 
ROOT
HETATM    1  C3  UNL     1       1.247   0.863   0.469  1.00  0.00     0.001 C 
HETATM    2  C4  UNL     1       1.842   0.098   1.589  1.00  0.00     0.022 C 
HETATM    3  C5  UNL     1      -0.251   0.792   0.347  1.00  0.00     0.049 C 
HETATM    4  C6  UNL     1      -0.880  -0.438  -0.116  1.00  0.00    -0.075 C 
HETATM    5  C14 UNL     1      -0.577  -1.694  -0.515  1.00  0.00    -0.017 C 
HETATM    6  C15 UNL     1       0.797  -2.262  -0.596  1.00  0.00     0.061 C 
HETATM    7  C16 UNL     1       1.231  -3.501  -0.987  1.00  0.00     0.049 C 
HETATM    8  C17 UNL     1       2.702  -3.596  -0.893  1.00  0.00     0.129 C 
HETATM    9  O2  UNL     1       3.423  -4.552  -1.191  1.00  0.00    -0.298 OA
HETATM   10  C18 UNL     1       3.551  -2.474  -0.392  1.00  0.00     0.091 C 
HETATM   11  C19 UNL     1       3.733  -1.405  -1.401  1.00  0.00     0.050 A 
HETATM   12  C20 UNL     1       5.163  -1.027  -1.479  1.00  0.00     0.008 A 
HETATM   13  C21 UNL     1       5.322   0.264  -1.278  1.00  0.00     0.068 A 
HETATM   14  C22 UNL     1       6.573   0.941  -1.289  1.00  0.00     0.101 C 
HETATM   15  N2  UNL     1       7.588   1.485  -1.317  1.00  0.00    -0.191 NA
HETATM   16  C23 UNL     1       3.973   0.736  -1.062  1.00  0.00     0.054 A 
HETATM   17  C24 UNL     1       2.980  -0.133  -1.107  1.00  0.00    -0.020 A 
HETATM   18  C25 UNL     1       1.940   0.843  -0.839  1.00  0.00     0.126 A 
HETATM   19  N3  UNL     1       3.070   1.795  -0.802  1.00  0.00    -0.379 N 
HETATM   20  H29 UNL     1       3.047   2.844  -0.633  1.00  0.00     0.160 HD
ENDROOT
BRANCH   1  21
HETATM   21  C2  UNL     1       1.441   2.344   0.932  1.00  0.00    -0.025 C 
HETATM   22  C1  UNL     1       0.488   3.295   0.961  1.00  0.00     0.008 C 
ENDBRANCH   1  21
BRANCH   4  23
HETATM   23  C7  UNL     1      -2.307  -0.027  -0.138  1.00  0.00     0.046 C 
HETATM   24  C8  UNL     1      -3.211  -1.045  -0.707  1.00  0.00     0.042 C 
HETATM   25  C9  UNL     1      -4.647  -0.456  -0.824  1.00  0.00     0.273 C 
HETATM   26  N1  UNL     1      -5.049   0.051   0.448  1.00  0.00     0.093 N 
HETATM   27  C10 UNL     1      -5.220   1.478   0.428  1.00  0.00     0.298 C 
HETATM   28  C13 UNL     1      -4.183  -0.308   1.524  1.00  0.00     0.305 C 
HETATM   29  C11 UNL     1      -3.946   2.234   0.569  1.00  0.00     0.198 C 
HETATM   30  O1  UNL     1      -2.993   1.683   1.388  1.00  0.00    -0.382 OA
HETATM   31  C12 UNL     1      -2.828   0.331   1.243  1.00  0.00     0.158 C 
ENDBRANCH   4  23
TORSDOF 2
