REMARK  4 active torsions:
REMARK  status: ('A' for Active; 'I' for Inactive)
REMARK    1  A    between atoms: C2_2  and  C3_3 
REMARK    2  A    between atoms: C2_2  and  C6_7 
REMARK    3  A    between atoms: C3_3  and  C4_4 
REMARK    4  A    between atoms: C10_11  and  C11_12 
ROOT
HETATM    1  C11 UNL     1      -0.746   0.143   0.369  1.00  0.00     0.018 C 
HETATM    2  C12 UNL     1      -0.336  -0.412   1.714  1.00  0.00     0.026 C 
HETATM    3  C13 UNL     1      -1.573  -0.933  -0.286  1.00  0.00    -0.002 C 
HETATM    4  C14 UNL     1      -2.891  -1.045  -0.231  1.00  0.00    -0.031 A 
HETATM    5  C15 UNL     1      -3.558  -2.159  -0.929  1.00  0.00     0.069 A 
HETATM    6  C16 UNL     1      -5.025  -2.058  -0.713  1.00  0.00     0.001 A 
HETATM    7  C17 UNL     1      -5.700  -1.158  -0.028  1.00  0.00     0.043 A 
HETATM    8  C18 UNL     1      -7.132  -1.174   0.104  1.00  0.00     0.099 C 
HETATM    9  N1  UNL     1      -8.265  -1.178   0.226  1.00  0.00    -0.191 NA
HETATM   10  C19 UNL     1      -4.938  -0.098   0.623  1.00  0.00     0.052 A 
HETATM   11  C20 UNL     1      -3.600  -0.022   0.541  1.00  0.00     0.037 A 
HETATM   12  N2  UNL     1      -2.851   1.015   1.178  1.00  0.00    -0.383 N 
HETATM   13  C21 UNL     1      -3.443   1.595   2.393  1.00  0.00     0.149 C 
HETATM   14  C22 UNL     1      -1.595   1.371   0.549  1.00  0.00     0.140 C 
ENDROOT
BRANCH   1  15
HETATM   15  C10 UNL     1       0.464   0.436  -0.403  1.00  0.00    -0.044 A 
HETATM   16  C9  UNL     1       0.446   0.592  -1.790  1.00  0.00     0.008 A 
HETATM   17  C8  UNL     1       1.569   0.870  -2.569  1.00  0.00     0.001 A 
HETATM   18  C7  UNL     1       2.781   0.997  -1.889  1.00  0.00     0.007 A 
HETATM   19  C6  UNL     1       2.812   0.843  -0.502  1.00  0.00    -0.054 A 
HETATM   20  C23 UNL     1       1.682   0.568   0.231  1.00  0.00     0.015 A 
BRANCH  19  21
HETATM   21  C2  UNL     1       4.188   1.021   0.013  1.00  0.00     0.017 C 
HETATM   22  C1  UNL     1       4.789   2.324  -0.517  1.00  0.00     0.015 C 
BRANCH  21  23
HETATM   23  C3  UNL     1       5.135  -0.071  -0.377  1.00  0.00     0.043 C 
BRANCH  23  24
HETATM   24  C4  UNL     1       4.750  -1.451   0.066  1.00  0.00     0.145 A 
HETATM   25  C5  UNL     1       3.492  -2.121  -0.351  1.00  0.00     0.200 A 
HETATM   26  O1  UNL     1       3.628  -1.560   0.896  1.00  0.00    -0.381 OA
ENDBRANCH  23  24
ENDBRANCH  21  23
ENDBRANCH  19  21
ENDBRANCH   1  15
TORSDOF 4
