REMARK  4 active torsions:
REMARK  status: ('A' for Active; 'I' for Inactive)
REMARK    1  A    between atoms: C2_2  and  C3_3 
REMARK    2  A    between atoms: C3_3  and  C4_4 
REMARK    3  A    between atoms: C3_3  and  C12_14 
REMARK    4  A    between atoms: N1_7  and  C7_8 
ROOT
HETATM    1  C12 UNL     1      -1.218  -1.252  -0.997  1.00  0.00     0.049 C 
HETATM    2  C13 UNL     1      -1.094  -2.483  -0.140  1.00  0.00     0.090 C 
HETATM    3  C14 UNL     1      -2.431  -3.037   0.232  1.00  0.00     0.131 C 
HETATM    4  O2  UNL     1      -2.662  -4.252   0.121  1.00  0.00    -0.298 OA
HETATM    5  C15 UNL     1      -3.490  -2.139   0.736  1.00  0.00     0.115 C 
HETATM    6  C16 UNL     1      -3.544  -0.931  -0.128  1.00  0.00    -0.037 A 
HETATM    7  C17 UNL     1      -4.320   0.165  -0.105  1.00  0.00    -0.003 A 
HETATM    8  C18 UNL     1      -5.421   0.908   0.545  1.00  0.00     0.036 A 
HETATM    9  C19 UNL     1      -5.615   2.044  -0.062  1.00  0.00     0.047 A 
HETATM   10  C20 UNL     1      -6.614   2.988   0.336  1.00  0.00     0.099 C 
HETATM   11  N2  UNL     1      -7.426   3.745   0.660  1.00  0.00    -0.191 NA
HETATM   12  C21 UNL     1      -4.682   2.171  -1.154  1.00  0.00     0.052 A 
HETATM   13  C22 UNL     1      -3.939   1.098  -1.181  1.00  0.00     0.040 A 
HETATM   14  N3  UNL     1      -2.843   0.426  -1.838  1.00  0.00    -0.380 N 
HETATM   15  C23 UNL     1      -2.619  -0.865  -1.283  1.00  0.00     0.121 A 
HETATM   16  H24 UNL     1      -2.278   0.819  -2.619  1.00  0.00     0.160 HD
ENDROOT
BRANCH   1  17
HETATM   17  C3  UNL     1      -0.347  -0.210  -0.509  1.00  0.00    -0.059 C 
BRANCH  17  18
HETATM   18  C2  UNL     1      -0.962   0.827   0.022  1.00  0.00    -0.033 C 
HETATM   19  C1  UNL     1      -1.441   1.601   0.983  1.00  0.00     0.024 C 
ENDBRANCH  17  18
BRANCH  17  20
HETATM   20  C4  UNL     1       1.123  -0.164  -0.512  1.00  0.00     0.019 C 
HETATM   21  C5  UNL     1       1.779  -1.271   0.253  1.00  0.00     0.028 C 
HETATM   22  C6  UNL     1       3.289  -1.168   0.163  1.00  0.00     0.118 C 
HETATM   23  N1  UNL     1       3.729   0.143   0.505  1.00  0.00    -0.404 N 
HETATM   24  C10 UNL     1       3.169   1.158  -0.316  1.00  0.00     0.118 C 
HETATM   25  C11 UNL     1       1.661   1.157  -0.024  1.00  0.00     0.028 C 
BRANCH  23  26
HETATM   26  C7  UNL     1       5.098   0.246   0.851  1.00  0.00     0.126 C 
HETATM   27  C8  UNL     1       6.124  -0.200  -0.171  1.00  0.00     0.194 C 
HETATM   28  O1  UNL     1       6.970   0.789   0.383  1.00  0.00    -0.387 OA
HETATM   29  C9  UNL     1       5.810   1.547   0.696  1.00  0.00     0.194 C 
ENDBRANCH  23  26
ENDBRANCH  17  20
ENDBRANCH   1  17
TORSDOF 4
