REMARK  7 active torsions:
REMARK  status: ('A' for Active; 'I' for Inactive)
REMARK    1  A    between atoms: C6_7  and  C7_8 
REMARK    2  A    between atoms: C12_14  and  C13_15 
REMARK    3  A    between atoms: N2_18  and  C16_19 
REMARK    4  A    between atoms: C23_27  and  C24_28 
REMARK    5  A    between atoms: C24_28  and  C25_29 
REMARK    6  A    between atoms: C25_29  and  C26_30 
REMARK    7  A    between atoms: C26_30  and  N3_31 
ROOT
HETATM    1  N1  UNL     1      -7.956  -0.742  -2.313  1.00  0.00    -0.191 NA
HETATM    2  C1  UNL     1      -7.257   0.071  -1.911  1.00  0.00     0.099 C 
HETATM    3  C2  UNL     1      -6.392   1.090  -1.415  1.00  0.00     0.045 A 
HETATM    4  C3  UNL     1      -6.743   2.410  -1.594  1.00  0.00     0.023 A 
HETATM    5  C4  UNL     1      -5.909   3.381  -1.115  1.00  0.00     0.002 A 
HETATM    6  C5  UNL     1      -4.747   3.055  -0.470  1.00  0.00     0.012 A 
HETATM    7  C6  UNL     1      -4.332   1.773  -0.255  1.00  0.00    -0.028 A 
HETATM    8  C27 UNL     1      -5.207   0.841  -0.756  1.00  0.00     0.034 A 
ENDROOT
BRANCH   7   9
HETATM    9  C7  UNL     1      -3.102   1.433   0.420  1.00  0.00    -0.036 C 
HETATM   10  C8  UNL     1      -2.411   2.539   0.773  1.00  0.00     0.059 C 
HETATM   11  C9  UNL     1      -1.117   2.573   1.474  1.00  0.00     0.161 C 
HETATM   12  O1  UNL     1      -0.524   3.481   2.063  1.00  0.00    -0.292 OA
HETATM   13  C10 UNL     1      -0.307   1.339   1.535  1.00  0.00     0.112 A 
HETATM   14  C11 UNL     1       1.080   1.558   1.193  1.00  0.00    -0.003 A 
HETATM   15  C22 UNL     1      -0.890   0.437   0.475  1.00  0.00    -0.056 A 
HETATM   16  C12 UNL     1       1.288   0.868   0.104  1.00  0.00    -0.056 A 
HETATM   17  C21 UNL     1       0.090   0.175  -0.353  1.00  0.00     0.012 A 
HETATM   18  C23 UNL     1      -2.344   0.286   0.863  1.00  0.00     0.049 C 
BRANCH  16  19
HETATM   19  C13 UNL     1       2.521   0.706  -0.709  1.00  0.00     0.021 C 
HETATM   20  C14 UNL     1       2.830  -0.760  -0.925  1.00  0.00     0.029 C 
HETATM   21  C15 UNL     1       4.352  -0.919  -1.053  1.00  0.00     0.118 C 
HETATM   22  N2  UNL     1       4.892  -0.638   0.233  1.00  0.00    -0.404 N 
HETATM   23  C19 UNL     1       4.560   0.659   0.756  1.00  0.00     0.118 C 
HETATM   24  C20 UNL     1       3.697   1.468  -0.172  1.00  0.00     0.029 C 
BRANCH  22  25
HETATM   25  C16 UNL     1       6.212  -1.068   0.497  1.00  0.00     0.126 C 
HETATM   26  C17 UNL     1       6.475  -2.534   0.427  1.00  0.00     0.194 C 
HETATM   27  O2  UNL     1       7.759  -2.238  -0.028  1.00  0.00    -0.387 OA
HETATM   28  C18 UNL     1       7.180  -1.113  -0.660  1.00  0.00     0.194 C 
ENDBRANCH  22  25
ENDBRANCH  16  19
BRANCH  18  29
HETATM   29  C24 UNL     1      -2.869  -1.031   0.405  1.00  0.00     0.015 C 
BRANCH  29  30
HETATM   30  C25 UNL     1      -1.964  -2.162   0.929  1.00  0.00     0.031 C 
BRANCH  30  31
HETATM   31  C26 UNL     1      -2.536  -3.473   0.440  1.00  0.00     0.267 C 
BRANCH  31  32
HETATM   32  N3  UNL     1      -3.885  -3.681   0.920  1.00  0.00     0.078 N 
HETATM   33  H29 UNL     1      -4.621  -3.248   0.335  1.00  0.00     0.312 HD
HETATM   34  H30 UNL     1      -3.974  -3.507   1.944  1.00  0.00     0.312 HD
ENDBRANCH  31  32
ENDBRANCH  30  31
ENDBRANCH  29  30
ENDBRANCH  18  29
ENDBRANCH   7   9
TORSDOF 7
