REMARK  8 active torsions:
REMARK  status: ('A' for Active; 'I' for Inactive)
REMARK    1  A    between atoms: N1_2  and  C3_4 
REMARK    2  A    between atoms: C3_4  and  C4_5 
REMARK    3  A    between atoms: C4_5  and  C5_7 
REMARK    4  A    between atoms: C5_7  and  O2_8 
REMARK    5  A    between atoms: C5_7  and  C6_9 
REMARK    6  A    between atoms: C7_10  and  C8_11 
REMARK    7  A    between atoms: C12_17  and  C13_18 
REMARK    8  A    between atoms: C18_24  and  C19_25 
ROOT
HETATM    1  C8  UNL     1      -0.723  -0.489  -0.520  1.00  0.00     0.169 C 
HETATM    2  N2  UNL     1      -0.186  -1.144  -1.494  1.00  0.00    -0.155 NA
HETATM    3  N3  UNL     1      -0.697  -1.902  -2.580  1.00  0.00    -0.288 N 
HETATM    4  C9  UNL     1      -2.055  -2.076  -3.033  1.00  0.00     0.105 C 
HETATM    5  C10 UNL     1      -3.171  -1.389  -2.847  1.00  0.00    -0.002 C 
HETATM    6  C11 UNL     1      -3.708  -0.182  -2.167  1.00  0.00     0.088 C 
HETATM    7  C12 UNL     1      -3.222  -0.147  -0.762  1.00  0.00     0.051 C 
HETATM    8  N4  UNL     1      -2.078  -0.265  -0.148  1.00  0.00    -0.231 NA
HETATM    9  H13 UNL     1       0.016  -2.412  -3.135  1.00  0.00     0.188 HD
ENDROOT
BRANCH   1  10
HETATM   10  C7  UNL     1       0.240   0.147   0.372  1.00  0.00     0.053 C 
HETATM   11  C6  UNL     1       1.536   0.019   0.142  1.00  0.00     0.016 C 
BRANCH  11  12
HETATM   12  C5  UNL     1       2.495   0.681   1.072  1.00  0.00     0.212 C 
BRANCH  12  13
HETATM   13  C4  UNL     1       3.880   0.648   0.541  1.00  0.00     0.187 C 
HETATM   14  O1  UNL     1       4.249   1.135  -0.514  1.00  0.00    -0.293 OA
BRANCH  13  15
HETATM   15  C3  UNL     1       4.973  -0.018   1.302  1.00  0.00     0.352 C 
BRANCH  15  16
HETATM   16  N1  UNL     1       6.236   0.052   0.634  1.00  0.00     0.086 N 
HETATM   17  C1  UNL     1       7.270  -0.611   1.415  1.00  0.00     0.309 C 
HETATM   18  C2  UNL     1       6.636   1.350   0.195  1.00  0.00     0.309 C 
ENDBRANCH  15  16
ENDBRANCH  13  15
ENDBRANCH  12  13
BRANCH  12  19
HETATM   19  O2  UNL     1       2.468   0.025   2.291  1.00  0.00    -0.384 OA
HETATM   20  H10 UNL     1       1.622  -0.500   2.361  1.00  0.00     0.211 HD
ENDBRANCH  12  19
ENDBRANCH  11  12
ENDBRANCH   1  10
BRANCH   7  21
HETATM   21  C13 UNL     1      -4.305   0.082   0.209  1.00  0.00     0.005 A 
HETATM   22  C14 UNL     1      -5.046  -1.061   0.455  1.00  0.00     0.014 A 
HETATM   23  C15 UNL     1      -6.113  -1.020   1.352  1.00  0.00     0.004 A 
HETATM   24  C16 UNL     1      -6.463   0.159   2.021  1.00  0.00     0.043 A 
HETATM   25  C17 UNL     1      -5.690   1.265   1.735  1.00  0.00     0.130 A 
HETATM   26  F1  UNL     1      -5.974   2.444   2.350  1.00  0.00    -0.205 F 
HETATM   27  C18 UNL     1      -4.628   1.258   0.854  1.00  0.00     0.052 A 
BRANCH  27  28
HETATM   28  C19 UNL     1      -3.793   2.382   0.523  1.00  0.00     0.274 C 
HETATM   29  O3  UNL     1      -4.298   2.989  -0.467  1.00  0.00    -0.301 OA
ENDBRANCH  27  28
ENDBRANCH   7  21
TORSDOF 8
