REMARK  6 active torsions:
REMARK  status: ('A' for Active; 'I' for Inactive)
REMARK    1  A    between atoms: C2_2  and  O1_3 
REMARK    2  A    between atoms: C2_2  and  C8_11 
REMARK    3  A    between atoms: O1_3  and  C3_4 
REMARK    4  A    between atoms: C4_5  and  C5_6 
REMARK       I    between atoms: C5_6  and  N1_7 
REMARK    5  A    between atoms: C6_9  and  C7_10 
REMARK    6  A    between atoms: C13_16  and  C14_17 
ROOT
HETATM    1  C1  UNL     1      -1.028  -1.410   2.087  1.00  0.00     0.045 C 
HETATM    2  C2  UNL     1      -0.409  -1.382   0.701  1.00  0.00     0.153 C 
ENDROOT
BRANCH   2   3
HETATM    3  O1  UNL     1       0.986  -1.456   0.874  1.00  0.00    -0.359 OA
BRANCH   3   4
HETATM    4  C3  UNL     1       1.831  -1.386  -0.260  1.00  0.00     0.137 A 
HETATM    5  C4  UNL     1       3.200   0.075  -0.114  1.00  0.00     0.134 A 
HETATM    6  C6  UNL     1       2.699  -0.468  -0.180  1.00  0.00    -0.006 A 
HETATM    7  C7  UNL     1       2.349  -0.842  -0.217  1.00  0.00    -0.006 A 
BRANCH   5   8
HETATM    8  C5  UNL     1       3.313   0.982   1.059  1.00  0.00     0.236 C 
HETATM    9  N1  UNL     1       4.363   1.969   0.972  1.00  0.00    -0.369 N 
HETATM   10  H5  UNL     1       5.231   1.532   1.380  1.00  0.00     0.159 HD
HETATM   11  H6  UNL     1       3.950   2.823   0.531  1.00  0.00     0.159 HD
HETATM   12  O2  UNL     1       2.802   1.251   2.208  1.00  0.00    -0.272 OA
ENDBRANCH   5   8
ENDBRANCH   3   4
ENDBRANCH   2   3
BRANCH   2  13
HETATM   13  C8  UNL     1      -0.882  -0.241  -0.109  1.00  0.00    -0.015 A 
HETATM   14  C9  UNL     1      -0.348   1.029  -0.087  1.00  0.00     0.010 A 
HETATM   15  C10 UNL     1      -0.768   2.118  -0.819  1.00  0.00     0.001 A 
HETATM   16  C11 UNL     1      -1.839   1.917  -1.666  1.00  0.00     0.001 A 
HETATM   17  C12 UNL     1      -2.414   0.666  -1.728  1.00  0.00     0.017 A 
HETATM   18  C13 UNL     1      -1.961  -0.405  -0.975  1.00  0.00     0.056 A 
BRANCH  18  19
HETATM   19  C14 UNL     1      -2.683  -1.661  -1.178  1.00  0.00     0.418 C 
HETATM   20  F1  UNL     1      -1.931  -2.699  -1.671  1.00  0.00    -0.166 F 
HETATM   21  F2  UNL     1      -3.737  -1.534  -2.061  1.00  0.00    -0.166 F 
HETATM   22  F3  UNL     1      -3.312  -2.025   0.026  1.00  0.00    -0.166 F 
ENDBRANCH  18  19
ENDBRANCH   2  13
TORSDOF 6
