REMARK  3 active torsions:
REMARK  status: ('A' for Active; 'I' for Inactive)
REMARK    1  A    between atoms: C1_2  and  O1_3 
REMARK    2  A    between atoms: O1_3  and  N1_4 
REMARK    3  A    between atoms: N1_4  and  C2_5 
ROOT
HETATM    1 CL1  UNL     1       1.263  -2.024   2.002  1.00  0.00    -0.052 Cl
HETATM    2  C1  UNL     1       0.676  -1.465   0.453  1.00  0.00     0.192 C 
HETATM    3  C8  UNL     1      -0.627  -1.136   0.408  1.00  0.00     0.078 C 
HETATM    4  C9  UNL     1      -1.386  -1.292   1.672  1.00  0.00     0.236 C 
HETATM    5  O2  UNL     1      -2.268  -0.196   1.835  1.00  0.00    -0.345 OA
HETATM    6  C10 UNL     1      -3.223   0.304   0.959  1.00  0.00     0.077 A 
HETATM    7  C11 UNL     1      -4.125   1.109   1.658  1.00  0.00     0.039 A 
HETATM    8  C12 UNL     1      -5.165   1.713   0.979  1.00  0.00     0.026 A 
HETATM    9  C13 UNL     1      -5.326   1.529  -0.392  1.00  0.00     0.034 A 
HETATM   10 CL2  UNL     1      -6.628   2.271  -1.309  1.00  0.00    -0.084 Cl
HETATM   11  C14 UNL     1      -4.418   0.722  -1.077  1.00  0.00     0.035 A 
HETATM   12  C15 UNL     1      -3.362   0.105  -0.405  1.00  0.00    -0.006 A 
HETATM   13  C16 UNL     1      -2.512  -0.710  -1.319  1.00  0.00     0.161 C 
HETATM   14  N2  UNL     1      -1.144  -0.673  -0.848  1.00  0.00    -0.384 N 
HETATM   15  H13 UNL     1      -0.397  -0.257  -1.483  1.00  0.00     0.159 HD
ENDROOT
BRANCH   2  16
HETATM   16  O1  UNL     1       1.406  -1.327  -0.717  1.00  0.00    -0.223 OA
BRANCH  16  17
HETATM   17  N1  UNL     1       2.758  -1.291  -0.801  1.00  0.00    -0.260 N 
HETATM   18  H1  UNL     1       2.927  -2.138  -1.378  1.00  0.00     0.195 HD
BRANCH  17  19
HETATM   19  C2  UNL     1       3.794  -0.456  -0.327  1.00  0.00     0.056 A 
HETATM   20  C3  UNL     1       5.083  -0.777  -0.643  1.00  0.00     0.031 A 
HETATM   21  C4  UNL     1       6.057   0.075  -0.153  1.00  0.00     0.004 A 
HETATM   22  C5  UNL     1       5.783   1.196   0.614  1.00  0.00     0.019 A 
HETATM   23  C6  UNL     1       4.459   1.477   0.906  1.00  0.00     0.013 A 
HETATM   24 BR1  UNL     1       4.155   3.020   1.957  1.00  0.00    -0.051 Br
HETATM   25  C7  UNL     1       3.448   0.650   0.436  1.00  0.00     0.050 A 
ENDBRANCH  17  19
ENDBRANCH  16  17
ENDBRANCH   2  16
TORSDOF 3
