REMARK  7 active torsions:
REMARK  status: ('A' for Active; 'I' for Inactive)
REMARK       I    between atoms: N1_1  and  C1_2 
REMARK    1  A    between atoms: C1_2  and  C2_4 
REMARK    2  A    between atoms: C3_6  and  N2_7 
REMARK    3  A    between atoms: C14_20  and  O2_21 
REMARK    4  A    between atoms: O2_21  and  C15_22 
REMARK    5  A    between atoms: C15_22  and  C16_23 
REMARK    6  A    between atoms: C21_28  and  C22_29 
REMARK    7  A    between atoms: C22_29  and  C23_30 
ROOT
HETATM    1  C2  UNL     1       1.201  -0.624  -0.647  1.00  0.00     0.107 A 
HETATM    2  S1  UNL     1      -0.448  -0.543  -1.508  1.00  0.00    -0.064 SA
HETATM    3  C3  UNL     1      -1.359  -0.857   0.082  1.00  0.00     0.085 A 
HETATM    4  C13 UNL     1      -0.414  -0.992   1.072  1.00  0.00     0.076 A 
HETATM    5  C14 UNL     1       0.882  -0.857   0.680  1.00  0.00     0.094 A 
ENDROOT
BRANCH   3   6
HETATM    6  N2  UNL     1      -2.713  -0.766  -0.010  1.00  0.00    -0.300 N 
HETATM    7  C4  UNL     1      -3.427  -1.720  -0.970  1.00  0.00     0.211 C 
HETATM    8  N3  UNL     1      -4.743  -1.904  -1.123  1.00  0.00    -0.265 NA
HETATM    9  C5  UNL     1      -6.051  -1.451  -0.692  1.00  0.00     0.274 C 
HETATM   10  N4  UNL     1      -5.881  -0.211   0.220  1.00  0.00    -0.363 N 
HETATM   11  C6  UNL     1      -5.859   0.165   1.774  1.00  0.00     0.090 C 
HETATM   12  C12 UNL     1      -5.478   0.945  -0.594  1.00  0.00     0.117 C 
HETATM   13  C7  UNL     1      -4.708  -0.479   1.676  1.00  0.00     0.047 C 
HETATM   14  C8  UNL     1      -3.737   0.172   0.626  1.00  0.00     0.046 C 
HETATM   15  C9  UNL     1      -4.159   1.387   0.030  1.00  0.00    -0.030 C 
HETATM   16  C10 UNL     1      -4.536   2.732  -0.572  1.00  0.00     0.041 C 
HETATM   17  C11 UNL     1      -5.951   2.313  -0.322  1.00  0.00     0.034 C 
ENDBRANCH   3   6
BRANCH   1  18
HETATM   18  C1  UNL     1       2.321  -0.512  -1.523  1.00  0.00     0.259 C 
HETATM   19  N1  UNL     1       2.580  -1.931  -1.748  1.00  0.00    -0.365 N 
HETATM   20  H1  UNL     1       2.930  -2.846  -1.325  1.00  0.00     0.159 HD
HETATM   21  H2  UNL     1       2.465  -2.710  -2.459  1.00  0.00     0.159 HD
HETATM   22  O1  UNL     1       3.005   0.386  -2.048  1.00  0.00    -0.267 OA
ENDBRANCH   1  18
BRANCH   5  23
HETATM   23  O2  UNL     1       2.014  -0.821   1.209  1.00  0.00    -0.345 OA
BRANCH  23  24
HETATM   24  C15 UNL     1       3.202  -0.792   1.796  1.00  0.00     0.215 C 
BRANCH  24  25
HETATM   25  C16 UNL     1       4.136   0.142   1.033  1.00  0.00    -0.028 A 
HETATM   26  C17 UNL     1       3.308   1.333   1.107  1.00  0.00     0.010 A 
HETATM   27  C18 UNL     1       3.567   2.584   0.459  1.00  0.00     0.001 A 
HETATM   28  C19 UNL     1       4.685   2.640  -0.271  1.00  0.00     0.001 A 
HETATM   29  C20 UNL     1       5.535   1.528  -0.392  1.00  0.00     0.008 A 
HETATM   30  C21 UNL     1       5.192   0.378   0.270  1.00  0.00    -0.048 A 
BRANCH  30  31
HETATM   31  C22 UNL     1       6.127  -0.730   0.196  1.00  0.00     0.070 C 
BRANCH  31  32
HETATM   32  C23 UNL     1       5.996  -1.610  -0.936  1.00  0.00     0.226 C 
HETATM   33  F1  UNL     1       6.100  -0.941  -2.194  1.00  0.00    -0.255 F 
ENDBRANCH  31  32
ENDBRANCH  30  31
ENDBRANCH  24  25
ENDBRANCH  23  24
ENDBRANCH   5  23
TORSDOF 7
