REMARK  7 active torsions:
REMARK  status: ('A' for Active; 'I' for Inactive)
REMARK       I    between atoms: N1_2  and  C2_3 
REMARK    1  A    between atoms: C2_3  and  C3_5 
REMARK    2  A    between atoms: C6_9  and  O2_10 
REMARK    3  A    between atoms: O2_10  and  C7_11 
REMARK    4  A    between atoms: C10_14  and  N3_15 
REMARK    5  A    between atoms: N3_15  and  C11_16 
REMARK    6  A    between atoms: C11_16  and  N4_18 
REMARK    7  A    between atoms: C16_23  and  C17_24 
ROOT
HETATM    1  C7  UNL     1       1.919  -0.377   0.217  1.00  0.00     0.075 A 
HETATM    2  C8  UNL     1       1.729  -0.583  -1.134  1.00  0.00     0.039 A 
HETATM    3  C9  UNL     1       0.537  -0.237  -1.733  1.00  0.00     0.032 A 
HETATM    4  C10 UNL     1      -0.516   0.326  -1.027  1.00  0.00     0.029 A 
HETATM    5  C19 UNL     1      -0.283   0.515   0.320  1.00  0.00     0.032 A 
HETATM    6  C20 UNL     1       0.902   0.180   0.965  1.00  0.00     0.039 A 
ENDROOT
BRANCH   4   7
HETATM    7  N3  UNL     1      -1.759   0.693  -1.627  1.00  0.00    -0.369 N 
HETATM    8  H10 UNL     1      -1.826   0.503  -2.671  1.00  0.00     0.161 HD
BRANCH   7   9
HETATM    9  C11 UNL     1      -2.858   1.282  -0.879  1.00  0.00     0.175 C 
HETATM   10  C12 UNL     1      -3.988   1.530  -1.849  1.00  0.00     0.055 C 
BRANCH   9  11
HETATM   11  N4  UNL     1      -3.199   0.344   0.155  1.00  0.00    -0.388 N 
HETATM   12  C13 UNL     1      -3.567  -0.951  -0.305  1.00  0.00     0.147 C 
HETATM   13  C14 UNL     1      -5.012  -1.011  -0.697  1.00  0.00     0.013 C 
HETATM   14  C15 UNL     1      -5.873  -0.306   0.037  1.00  0.00     0.024 C 
HETATM   15 CL1  UNL     1      -7.601  -0.299  -0.328  1.00  0.00    -0.088 Cl
HETATM   16  C16 UNL     1      -5.439   0.501   1.183  1.00  0.00     0.155 C 
HETATM   17  C18 UNL     1      -3.996   0.857   1.221  1.00  0.00     0.138 C 
BRANCH  16  18
HETATM   18  C17 UNL     1      -5.895  -0.180   2.469  1.00  0.00     0.397 C 
HETATM   19  F1  UNL     1      -5.473   0.602   3.551  1.00  0.00    -0.170 F 
HETATM   20  F2  UNL     1      -7.270  -0.216   2.544  1.00  0.00    -0.170 F 
HETATM   21  F3  UNL     1      -5.321  -1.430   2.598  1.00  0.00    -0.170 F 
ENDBRANCH  16  18
ENDBRANCH   9  11
ENDBRANCH   7   9
ENDBRANCH   4   7
BRANCH   1  22
HETATM   22  O2  UNL     1       3.083  -0.690   0.921  1.00  0.00    -0.312 OA
BRANCH  22  23
HETATM   23  C6  UNL     1       4.202  -1.264   0.289  1.00  0.00     0.089 A 
HETATM   24  C3  UNL     1       5.152  -0.474  -0.526  1.00  0.00     0.256 A 
HETATM   25  N2  UNL     1       6.101  -1.471  -0.952  1.00  0.00    -0.280 NA
HETATM   26  C4  UNL     1       5.717  -2.588  -0.449  1.00  0.00     0.114 A 
HETATM   27  C5  UNL     1       4.507  -2.548   0.361  1.00  0.00     0.054 A 
BRANCH  24  28
HETATM   28  C2  UNL     1       5.886   0.500   0.351  1.00  0.00     0.248 C 
HETATM   29  N1  UNL     1       7.281   0.366   0.647  1.00  0.00    -0.363 N 
HETATM   30  C1  UNL     1       7.972   1.316   1.496  1.00  0.00     0.149 C 
HETATM   31  H4  UNL     1       7.769  -0.440   0.225  1.00  0.00     0.162 HD
HETATM   32  O1  UNL     1       5.040   1.371   0.718  1.00  0.00    -0.271 OA
ENDBRANCH  24  28
ENDBRANCH  22  23
ENDBRANCH   1  22
TORSDOF 7
