REMARK  6 active torsions:
REMARK  status: ('A' for Active; 'I' for Inactive)
REMARK    1  A    between atoms: C2_2  and  O1_3 
REMARK    2  A    between atoms: O1_3  and  C3_4 
REMARK    3  A    between atoms: C6_7  and  N1_8 
REMARK    4  A    between atoms: N1_8  and  C7_9 
REMARK    5  A    between atoms: C7_9  and  C8_10 
REMARK    6  A    between atoms: C12_15  and  C13_16 
ROOT
HETATM    1  C7  UNL     1      -0.972  -1.203   2.323  1.00  0.00     0.158 C 
ENDROOT
BRANCH   1   2
HETATM    2  N1  UNL     1       0.308  -0.603   2.035  1.00  0.00    -0.386 N 
HETATM    3  H6  UNL     1       0.637  -0.079   2.899  1.00  0.00     0.160 HD
BRANCH   2   4
HETATM    4  C6  UNL     1       1.159  -0.562   0.930  1.00  0.00     0.028 A 
HETATM    5  C5  UNL     1       0.962  -1.186  -0.280  1.00  0.00     0.032 A 
HETATM    6  C4  UNL     1       1.788  -1.146  -1.382  1.00  0.00     0.039 A 
HETATM    7  C3  UNL     1       2.924  -0.390  -1.217  1.00  0.00     0.074 A 
HETATM    8  C16 UNL     1       3.205   0.270  -0.042  1.00  0.00     0.039 A 
HETATM    9  C15 UNL     1       2.322   0.172   1.002  1.00  0.00     0.032 A 
BRANCH   7  10
HETATM   10  O1  UNL     1       3.817  -0.287  -2.266  1.00  0.00    -0.324 OA
BRANCH  10  11
HETATM   11  C2  UNL     1       4.979   0.462  -2.154  1.00  0.00     0.132 C 
HETATM   12  C1  UNL     1       5.287   1.758  -2.190  1.00  0.00     0.037 C 
ENDBRANCH  10  11
ENDBRANCH   7  10
ENDBRANCH   2   4
ENDBRANCH   1   2
BRANCH   1  13
HETATM   13  C8  UNL     1      -2.000  -0.551   1.508  1.00  0.00    -0.040 A 
HETATM   14  C9  UNL     1      -2.506   0.646   2.039  1.00  0.00     0.010 A 
HETATM   15  C10 UNL     1      -3.488   1.409   1.443  1.00  0.00     0.025 A 
HETATM   16  C11 UNL     1      -4.020   0.998   0.260  1.00  0.00     0.049 A 
HETATM   17 CL1  UNL     1      -5.263   1.940  -0.521  1.00  0.00    -0.083 Cl
HETATM   18  C12 UNL     1      -3.565  -0.158  -0.300  1.00  0.00     0.070 A 
HETATM   19  C14 UNL     1      -2.584  -0.902   0.315  1.00  0.00     0.026 A 
BRANCH  18  20
HETATM   20  C13 UNL     1      -4.150  -0.590  -1.580  1.00  0.00     0.419 C 
HETATM   21  F1  UNL     1      -5.517  -0.763  -1.351  1.00  0.00    -0.166 F 
HETATM   22  F2  UNL     1      -3.649  -1.839  -1.890  1.00  0.00    -0.166 F 
HETATM   23  F3  UNL     1      -3.928   0.308  -2.601  1.00  0.00    -0.166 F 
ENDBRANCH  18  20
ENDBRANCH   1  13
TORSDOF 6
