REMARK  4 active torsions:
REMARK  status: ('A' for Active; 'I' for Inactive)
REMARK    1  A    between atoms: C6_7  and  S1_8 
REMARK    2  A    between atoms: S1_8  and  C7_9 
REMARK    3  A    between atoms: C9_12  and  C10_13 
REMARK    4  A    between atoms: C10_13  and  C11_15 
ROOT
HETATM    1  C7  UNL     1       0.485  -1.372  -1.746  1.00  0.00     0.067 A 
HETATM    2  C8  UNL     1      -0.323  -1.800  -0.597  1.00  0.00     0.144 A 
HETATM    3  N2  UNL     1      -1.413  -1.073  -0.317  1.00  0.00    -0.248 NA
HETATM    4  C9  UNL     1      -1.749  -0.141  -0.921  1.00  0.00     0.144 A 
HETATM    5  S2  UNL     1      -0.502   0.138  -2.323  1.00  0.00    -0.058 SA
ENDROOT
BRANCH   1   6
HETATM    6  S1  UNL     1       1.984  -2.631  -1.879  1.00  0.00    -0.064 SA
BRANCH   6   7
HETATM    7  C6  UNL     1       3.246  -1.853  -0.847  1.00  0.00     0.099 C 
HETATM    8  N1  UNL     1       4.288  -2.595  -0.857  1.00  0.00    -0.256 NA
HETATM    9  C5  UNL     1       5.510  -2.309  -0.149  1.00  0.00     0.116 C 
HETATM   10  C4  UNL     1       5.838  -1.173   0.485  1.00  0.00     0.029 C 
HETATM   11  C2  UNL     1       5.099   0.120   0.671  1.00  0.00     0.073 C 
HETATM   12  C1  UNL     1       6.122   1.207   0.346  1.00  0.00     0.050 C 
HETATM   13  C3  UNL     1       4.748   0.290   2.107  1.00  0.00     0.050 C 
HETATM   14  O2  UNL     1       4.075   0.300  -0.217  1.00  0.00    -0.370 OA
HETATM   15  C16 UNL     1       3.013  -0.569  -0.149  1.00  0.00     0.236 C 
ENDBRANCH   6   7
ENDBRANCH   1   6
BRANCH   4  16
HETATM   16  C10 UNL     1      -2.770   0.934  -1.042  1.00  0.00     0.189 C 
HETATM   17  O1  UNL     1      -2.826   1.849  -1.883  1.00  0.00    -0.290 OA
BRANCH  16  18
HETATM   18  C11 UNL     1      -3.804   0.822   0.003  1.00  0.00     0.066 C 
HETATM   19  C12 UNL     1      -4.779   1.966  -0.227  1.00  0.00     0.042 C 
HETATM   20  C13 UNL     1      -5.885   1.952   0.807  1.00  0.00     0.270 C 
HETATM   21  N3  UNL     1      -6.602   0.705   0.743  1.00  0.00     0.083 N 
HETATM   22  C14 UNL     1      -6.063  -0.235  -0.212  1.00  0.00     0.270 C 
HETATM   23  H15 UNL     1      -7.573   0.919   0.432  1.00  0.00     0.315 HD
HETATM   24  C15 UNL     1      -4.590  -0.460  -0.076  1.00  0.00     0.042 C 
ENDBRANCH  16  18
ENDBRANCH   4  16
TORSDOF 4
