REMARK  7 active torsions:
REMARK  status: ('A' for Active; 'I' for Inactive)
REMARK    1  A    between atoms: N2_7  and  C5_8 
REMARK    2  A    between atoms: N3_9  and  C6_10 
REMARK    3  A    between atoms: C6_10  and  C7_11 
REMARK    4  A    between atoms: C7_11  and  S1_12 
REMARK    5  A    between atoms: S1_12  and  C8_13 
REMARK    6  A    between atoms: C8_13  and  C9_14 
REMARK    7  A    between atoms: C11_17  and  C12_18 
ROOT
HETATM    1  C7  UNL     1       0.371  -0.728  -0.904  1.00  0.00     0.064 C 
ENDROOT
BRANCH   1   2
HETATM    2  C6  UNL     1       1.613  -1.108  -0.655  1.00  0.00     0.124 C 
BRANCH   2   3
HETATM    3  N3  UNL     1       2.980  -1.049  -0.296  1.00  0.00    -0.255 NA
HETATM    4  C5  UNL     1       3.545   0.126  -0.163  1.00  0.00     0.214 C 
BRANCH   4   5
HETATM    5  N2  UNL     1       4.902   0.372   0.191  1.00  0.00    -0.279 N 
HETATM    6  C2  UNL     1       5.795  -0.752   0.437  1.00  0.00     0.325 C 
HETATM    7  C1  UNL     1       6.283  -1.310  -0.870  1.00  0.00     0.066 C 
HETATM    8  N1  UNL     1       6.858  -0.110   1.202  1.00  0.00     0.115 N 
HETATM    9  C3  UNL     1       7.029   1.127   0.460  1.00  0.00     0.375 C 
HETATM   10  H5  UNL     1       6.390   0.164   2.111  1.00  0.00     0.319 HD
HETATM   11  C4  UNL     1       5.623   1.602   0.367  1.00  0.00     0.255 C 
HETATM   12  O1  UNL     1       5.038   2.719   0.409  1.00  0.00    -0.271 OA
ENDBRANCH   4   5
ENDBRANCH   2   3
ENDBRANCH   1   2
BRANCH   1  13
HETATM   13  S1  UNL     1      -0.059   0.994  -0.708  1.00  0.00    -0.132 SA
BRANCH  13  14
HETATM   14  C8  UNL     1      -0.890   1.212   0.915  1.00  0.00     0.165 C 
BRANCH  14  15
HETATM   15  C9  UNL     1      -2.179   0.451   0.781  1.00  0.00     0.154 A 
HETATM   16  N4  UNL     1      -2.335  -0.863   1.095  1.00  0.00    -0.237 NA
HETATM   17  C10 UNL     1      -3.617  -1.182   0.843  1.00  0.00     0.152 A 
HETATM   18  C11 UNL     1      -4.181  -0.009   0.378  1.00  0.00     0.080 A 
HETATM   19  O2  UNL     1      -3.303   0.966   0.345  1.00  0.00    -0.297 OA
BRANCH  18  20
HETATM   20  C12 UNL     1      -5.604   0.152  -0.040  1.00  0.00    -0.000 C 
HETATM   21  C13 UNL     1      -6.409   0.561   1.151  1.00  0.00     0.021 C 
HETATM   22  C14 UNL     1      -5.685   1.157  -1.158  1.00  0.00     0.021 C 
HETATM   23  C15 UNL     1      -6.024  -1.188  -0.621  1.00  0.00     0.021 C 
ENDBRANCH  18  20
ENDBRANCH  14  15
ENDBRANCH  13  14
ENDBRANCH   1  13
TORSDOF 7
