REMARK  7 active torsions:
REMARK  status: ('A' for Active; 'I' for Inactive)
REMARK       I    between atoms: N1_2  and  C2_3 
REMARK    1  A    between atoms: C2_3  and  C3_5 
REMARK    2  A    between atoms: C5_7  and  O2_8 
REMARK    3  A    between atoms: O2_8  and  C6_9 
REMARK    4  A    between atoms: C9_12  and  N2_13 
REMARK    5  A    between atoms: N2_13  and  S1_14 
REMARK    6  A    between atoms: S1_14  and  N3_16 
REMARK    7  A    between atoms: N3_16  and  C10_17 
ROOT
HETATM    1  C6  UNL     1      -1.919  -0.202   1.138  1.00  0.00     0.076 A 
HETATM    2  C7  UNL     1      -0.709   0.135   1.711  1.00  0.00     0.039 A 
HETATM    3  C8  UNL     1       0.501  -0.247   1.120  1.00  0.00     0.033 A 
HETATM    4  C9  UNL     1       0.427  -0.980  -0.067  1.00  0.00     0.042 A 
HETATM    5  C17 UNL     1      -0.781  -1.328  -0.657  1.00  0.00     0.033 A 
HETATM    6  C18 UNL     1      -1.960  -0.925  -0.032  1.00  0.00     0.039 A 
ENDROOT
BRANCH   4   7
HETATM    7  N2  UNL     1       1.651  -1.371  -0.679  1.00  0.00    -0.289 N 
HETATM    8  H8  UNL     1       1.900  -2.304  -0.232  1.00  0.00     0.178 HD
BRANCH   7   9
HETATM    9  S1  UNL     1       2.780  -0.789  -1.875  1.00  0.00     0.222 S 
HETATM   10  O3  UNL     1       2.601   0.663  -2.221  1.00  0.00    -0.212 OA
BRANCH   9  11
HETATM   11  N3  UNL     1       4.403  -1.203  -1.386  1.00  0.00    -0.292 N 
HETATM   12  H9  UNL     1       4.666  -2.212  -1.465  1.00  0.00     0.177 HD
BRANCH  11  13
HETATM   13  C10 UNL     1       5.413  -0.365  -0.900  1.00  0.00     0.025 C 
HETATM   14  C11 UNL     1       5.014   0.466   0.050  1.00  0.00     0.027 C 
HETATM   15  C12 UNL     1       5.667   1.512   0.860  1.00  0.00     0.021 C 
HETATM   16  C13 UNL     1       6.987   1.669   0.871  1.00  0.00     0.017 C 
HETATM   17 CL1  UNL     1       7.506   2.979   1.912  1.00  0.00    -0.089 Cl
HETATM   18  C14 UNL     1       8.119   1.002   0.216  1.00  0.00     0.130 C 
HETATM   19  C15 UNL     1       7.816  -0.382  -0.300  1.00  0.00     0.253 C 
HETATM   20  F1  UNL     1       9.023  -0.928  -0.724  1.00  0.00    -0.206 F 
HETATM   21  F2  UNL     1       7.343  -1.168   0.722  1.00  0.00    -0.206 F 
HETATM   22  C16 UNL     1       6.819  -0.409  -1.410  1.00  0.00     0.137 C 
ENDBRANCH  11  13
ENDBRANCH   9  11
ENDBRANCH   7   9
ENDBRANCH   4   7
BRANCH   1  23
HETATM   23  O2  UNL     1      -2.967   0.276   1.889  1.00  0.00    -0.311 OA
BRANCH  23  24
HETATM   24  C5  UNL     1      -4.261   0.025   1.454  1.00  0.00     0.079 A 
HETATM   25  C4  UNL     1      -5.091   0.760   0.636  1.00  0.00     0.074 A 
HETATM   26  C3  UNL     1      -6.348   0.259   0.369  1.00  0.00     0.126 A 
HETATM   27  N4  UNL     1      -6.760  -0.921   0.892  1.00  0.00    -0.255 NA
HETATM   28  C20 UNL     1      -5.981  -1.662   1.690  1.00  0.00     0.120 A 
HETATM   29  C19 UNL     1      -4.698  -1.182   1.982  1.00  0.00     0.056 A 
BRANCH  26  30
HETATM   30  C2  UNL     1      -7.188   1.090  -0.506  1.00  0.00     0.269 C 
HETATM   31  N1  UNL     1      -8.491   0.592  -0.785  1.00  0.00    -0.360 N 
HETATM   32  C1  UNL     1      -9.375   1.359  -1.640  1.00  0.00     0.149 C 
HETATM   33  H4  UNL     1      -8.823  -0.321  -0.383  1.00  0.00     0.162 HD
HETATM   34  O1  UNL     1      -6.810   2.189  -0.999  1.00  0.00    -0.266 OA
ENDBRANCH  26  30
ENDBRANCH  23  24
ENDBRANCH   1  23
TORSDOF 7
