REMARK  8 active torsions:
REMARK  status: ('A' for Active; 'I' for Inactive)
REMARK    1  A    between atoms: C2_2  and  C3_3 
REMARK    2  A    between atoms: C4_4  and  C5_5 
REMARK    3  A    between atoms: C5_5  and  C22_28 
REMARK    4  A    between atoms: C6_6  and  C7_7 
REMARK    5  A    between atoms: C7_7  and  N1_8 
REMARK    6  A    between atoms: N1_8  and  C8_9 
REMARK    7  A    between atoms: C8_9  and  N2_11 
REMARK    8  A    between atoms: N2_11  and  C10_12 
ROOT
HETATM    1  C10 UNL     1      -2.220  -0.497  -0.269  1.00  0.00     0.021 C 
HETATM    2  C11 UNL     1      -2.504  -0.177   0.985  1.00  0.00     0.009 C 
HETATM    3  C12 UNL     1      -3.063   0.150   2.271  1.00  0.00     0.043 C 
HETATM    4  C13 UNL     1      -4.208   0.288   2.874  1.00  0.00    -0.021 C 
HETATM    5  O1  UNL     1      -5.697   0.277   2.926  1.00  0.00     0.000 OA
HETATM    6  C14 UNL     1      -6.209  -0.868   2.209  1.00  0.00    -0.022 A 
HETATM    7  C15 UNL     1      -6.968  -1.870   2.842  1.00  0.00     0.027 A 
HETATM    8  C16 UNL     1      -7.242  -2.792   1.810  1.00  0.00     0.088 A 
HETATM    9  N3  UNL     1      -6.567  -2.016   0.993  1.00  0.00    -0.356 N 
HETATM   10  C17 UNL     1      -6.246  -2.035  -0.249  1.00  0.00     0.176 A 
HETATM   11  C18 UNL     1      -5.998  -1.112   0.848  1.00  0.00     0.160 A 
HETATM   12  C19 UNL     1      -5.414  -1.110  -0.917  1.00  0.00     0.254 C 
HETATM   13  O2  UNL     1      -6.114  -0.251  -1.382  1.00  0.00    -0.270 OA
HETATM   14  N4  UNL     1      -4.296  -0.457  -1.438  1.00  0.00    -0.349 N 
HETATM   15  C20 UNL     1      -4.615   0.827  -2.094  1.00  0.00     0.153 C 
HETATM   16  C21 UNL     1      -2.905  -0.762  -1.582  1.00  0.00     0.181 C 
ENDROOT
BRANCH   1  17
HETATM   17  N2  UNL     1      -0.779  -0.562  -0.499  1.00  0.00    -0.363 N 
HETATM   18  H16 UNL     1      -0.739  -1.629  -0.587  1.00  0.00     0.161 HD
BRANCH  17  19
HETATM   19  C8  UNL     1       0.583   0.060  -0.638  1.00  0.00     0.315 C 
HETATM   20  C9  UNL     1       1.484  -0.996  -1.174  1.00  0.00     0.066 C 
BRANCH  19  21
HETATM   21  N1  UNL     1       0.958   0.639   0.585  1.00  0.00     0.109 NA
HETATM   22  H11 UNL     1       0.171   1.241   0.989  1.00  0.00     0.318 HD
BRANCH  21  23
HETATM   23  C7  UNL     1       2.142   1.356   0.778  1.00  0.00     0.300 C 
BRANCH  23  24
HETATM   24  C6  UNL     1       3.424   0.654   0.704  1.00  0.00     0.012 C 
HETATM   25  C5  UNL     1       4.592   0.745   0.021  1.00  0.00    -0.032 C 
BRANCH  25  26
HETATM   26  C4  UNL     1       5.675  -0.223   0.272  1.00  0.00     0.005 C 
HETATM   27  C3  UNL     1       6.808  -0.182  -0.378  1.00  0.00    -0.026 C 
BRANCH  27  28
HETATM   28  C2  UNL     1       7.778   0.323  -1.339  1.00  0.00     0.022 C 
HETATM   29  C1  UNL     1       9.098   0.766  -0.700  1.00  0.00     0.009 C 
ENDBRANCH  27  28
ENDBRANCH  25  26
BRANCH  25  30
HETATM   30  C22 UNL     1       4.701   1.905  -0.859  1.00  0.00     0.260 C 
HETATM   31  F1  UNL     1       5.786   2.651  -0.389  1.00  0.00    -0.251 F 
ENDBRANCH  25  30
ENDBRANCH  23  24
ENDBRANCH  21  23
ENDBRANCH  19  21
ENDBRANCH  17  19
ENDBRANCH   1  17
TORSDOF 8
