REMARK  6 active torsions:
REMARK  status: ('A' for Active; 'I' for Inactive)
REMARK    1  A    between atoms: C2_2  and  C5_5 
REMARK    2  A    between atoms: C7_8  and  C8_9 
REMARK    3  A    between atoms: C8_9  and  S1_10 
REMARK    4  A    between atoms: S1_10  and  C9_11 
REMARK    5  A    between atoms: C9_11  and  S2_12 
REMARK    6  A    between atoms: S2_12  and  C10_13 
ROOT
HETATM    1  S1  UNL     1       1.199   1.330  -1.353  1.00  0.00    -0.150 SA
ENDROOT
BRANCH   1   2
HETATM    2  C8  UNL     1       0.253  -0.051  -2.032  1.00  0.00     0.161 C 
BRANCH   2   3
HETATM    3  C7  UNL     1      -1.195   0.029  -1.694  1.00  0.00     0.154 A 
HETATM    4  N1  UNL     1      -2.106   0.649  -2.492  1.00  0.00    -0.237 NA
HETATM    5  C6  UNL     1      -3.281   0.487  -1.813  1.00  0.00     0.152 A 
HETATM    6  C5  UNL     1      -3.061  -0.220  -0.631  1.00  0.00     0.080 A 
HETATM    7  O2  UNL     1      -1.774  -0.462  -0.629  1.00  0.00    -0.297 OA
BRANCH   6   8
HETATM    8  C2  UNL     1      -4.204  -0.512   0.270  1.00  0.00    -0.000 C 
HETATM    9  C1  UNL     1      -5.473   0.047  -0.332  1.00  0.00     0.021 C 
HETATM   10  C3  UNL     1      -4.027   0.160   1.620  1.00  0.00     0.021 C 
HETATM   11  C4  UNL     1      -4.391  -1.994   0.503  1.00  0.00     0.021 C 
ENDBRANCH   6   8
ENDBRANCH   2   3
ENDBRANCH   1   2
BRANCH   1  12
HETATM   12  C9  UNL     1       1.220   1.207   0.467  1.00  0.00     0.156 C 
BRANCH  12  13
HETATM   13  S2  UNL     1       2.180  -0.273   0.969  1.00  0.00    -0.083 SA
BRANCH  13  14
HETATM   14  C10 UNL     1       3.891   0.037   0.496  1.00  0.00     0.158 C 
HETATM   15  N2  UNL     1       4.261   1.156  -0.070  1.00  0.00    -0.260 NA
HETATM   16  C11 UNL     1       5.623   1.412  -0.450  1.00  0.00     0.231 C 
HETATM   17  C12 UNL     1       6.472   0.790   0.626  1.00  0.00     0.164 C 
HETATM   18  O1  UNL     1       7.194   1.206   1.515  1.00  0.00    -0.294 OA
HETATM   19  C13 UNL     1       6.348  -0.712   0.519  1.00  0.00     0.202 C 
HETATM   20  N3  UNL     1       4.913  -0.949   0.732  1.00  0.00    -0.362 N 
HETATM   21  H19 UNL     1       4.563  -1.855   1.069  1.00  0.00     0.162 HD
ENDBRANCH  13  14
ENDBRANCH  12  13
ENDBRANCH   1  12
TORSDOF 6
