REMARK  9 active torsions:
REMARK  status: ('A' for Active; 'I' for Inactive)
REMARK    1  A    between atoms: C2_2  and  N1_3 
REMARK    2  A    between atoms: N1_3  and  C3_4 
REMARK    3  A    between atoms: C3_4  and  C4_5 
REMARK       I    between atoms: C4_5  and  N2_7 
REMARK    4  A    between atoms: N2_7  and  C5_8 
REMARK    5  A    between atoms: C7_11  and  S1_12 
REMARK    6  A    between atoms: C7_11  and  S2_23 
REMARK    7  A    between atoms: S1_12  and  C8_13 
REMARK    8  A    between atoms: C8_13  and  C9_14 
REMARK    9  A    between atoms: C11_17  and  C12_18 
ROOT
HETATM    1  C5  UNL     1       2.327   0.895  -0.416  1.00  0.00     0.284 A 
HETATM    2  N3  UNL     1       1.531   0.354   0.039  1.00  0.00     0.078 N 
HETATM    3  C6  UNL     1       0.625   0.258   0.928  1.00  0.00     0.312 A 
HETATM    4  C7  UNL     1       0.478  -0.953   0.214  1.00  0.00     0.301 A 
HETATM    5  S2  UNL     1       1.785  -0.808  -1.063  1.00  0.00     0.116 SA
ENDROOT
BRANCH   4   6
HETATM    6  S1  UNL     1      -0.460  -2.621  -0.020  1.00  0.00    -0.106 SA
BRANCH   6   7
HETATM    7  C8  UNL     1      -1.716  -2.560   1.251  1.00  0.00     0.164 C 
BRANCH   7   8
HETATM    8  C9  UNL     1      -2.695  -1.492   0.922  1.00  0.00     0.154 A 
HETATM    9  N4  UNL     1      -2.826  -0.202   1.246  1.00  0.00    -0.237 NA
HETATM   10  C10 UNL     1      -3.914   0.321   0.668  1.00  0.00     0.152 A 
HETATM   11  C11 UNL     1      -4.473  -0.736  -0.055  1.00  0.00     0.080 A 
HETATM   12  O2  UNL     1      -3.714  -1.818   0.118  1.00  0.00    -0.297 OA
BRANCH  11  13
HETATM   13  C12 UNL     1      -5.716  -0.341  -0.779  1.00  0.00    -0.000 C 
HETATM   14  C13 UNL     1      -6.194  -1.517  -1.576  1.00  0.00     0.021 C 
HETATM   15  C14 UNL     1      -6.766  -0.007   0.293  1.00  0.00     0.021 C 
HETATM   16  C15 UNL     1      -5.511   0.878  -1.620  1.00  0.00     0.021 C 
ENDBRANCH  11  13
ENDBRANCH   7   8
ENDBRANCH   6   7
ENDBRANCH   4   6
BRANCH   1  17
HETATM   17  N2  UNL     1       3.390   1.831  -0.864  1.00  0.00    -0.298 N 
HETATM   18  C4  UNL     1       4.563   1.434  -0.158  1.00  0.00     0.251 C 
HETATM   19  O1  UNL     1       4.209   0.434   0.565  1.00  0.00    -0.271 OA
HETATM   20  H9  UNL     1       3.252   2.598  -1.553  1.00  0.00     0.171 HD
BRANCH  18  21
HETATM   21  C3  UNL     1       5.792   2.259  -0.453  1.00  0.00     0.372 C 
BRANCH  21  22
HETATM   22  N1  UNL     1       6.864   1.691   0.352  1.00  0.00     0.091 N 
HETATM   23  H6  UNL     1       6.587   1.639   1.366  1.00  0.00     0.316 HD
BRANCH  22  24
HETATM   24  C2  UNL     1       7.220   0.364  -0.144  1.00  0.00     0.265 C 
HETATM   25  C1  UNL     1       8.322  -0.242   0.671  1.00  0.00     0.037 C 
ENDBRANCH  22  24
ENDBRANCH  21  22
ENDBRANCH  18  21
ENDBRANCH   1  17
TORSDOF 9
