REMARK  3 active torsions:
REMARK  status: ('A' for Active; 'I' for Inactive)
REMARK    1  A    between atoms: C2_2  and  C5_5 
REMARK    2  A    between atoms: C6_7  and  S1_8 
REMARK    3  A    between atoms: S1_8  and  C7_9 
ROOT
HETATM    1  C7  UNL     1      -1.173  -0.384  -0.394  1.00  0.00     0.046 C 
HETATM    2  C8  UNL     1      -1.334  -1.719  -0.201  1.00  0.00     0.200 C 
HETATM    3  N2  UNL     1      -2.522  -2.257  -0.005  1.00  0.00    -0.413 NA
HETATM    4  C9  UNL     1      -3.459  -2.976   0.135  1.00  0.00     0.269 C 
HETATM    5  N3  UNL     1      -4.694  -2.315   0.398  1.00  0.00    -0.375 N 
HETATM    6  C10 UNL     1      -5.043  -1.106   1.187  1.00  0.00     0.126 C 
HETATM    7  C11 UNL     1      -4.476  -0.002   0.481  1.00  0.00     0.007 C 
HETATM    8  C12 UNL     1      -4.870   1.409   0.475  1.00  0.00     0.036 C 
HETATM    9  C13 UNL     1      -3.803   2.262  -0.131  1.00  0.00     0.271 C 
HETATM   10  N4  UNL     1      -2.541   1.730  -0.527  1.00  0.00     0.093 N 
HETATM   11  C14 UNL     1      -2.369   0.358  -0.377  1.00  0.00     0.263 C 
HETATM   12  C15 UNL     1      -3.032   0.093   0.952  1.00  0.00     0.047 C 
HETATM   13  H13 UNL     1      -5.525  -2.791  -0.072  1.00  0.00     0.161 HD
HETATM   14  H21 UNL     1      -2.240   2.049  -1.475  1.00  0.00     0.316 HD
ENDROOT
BRANCH   1  15
HETATM   15  S1  UNL     1       0.320   0.511  -0.667  1.00  0.00    -0.073 SA
BRANCH  15  16
HETATM   16  C6  UNL     1       1.768  -0.504  -0.682  1.00  0.00     0.096 C 
HETATM   17  N1  UNL     1       2.619   0.425  -0.897  1.00  0.00    -0.252 NA
HETATM   18  C5  UNL     1       3.927  -0.133  -0.958  1.00  0.00     0.252 C 
HETATM   19  O1  UNL     1       3.863  -1.377  -0.333  1.00  0.00    -0.358 OA
HETATM   20  C16 UNL     1       2.558  -1.771  -0.593  1.00  0.00     0.237 C 
BRANCH  18  21
HETATM   21  C2  UNL     1       4.937   0.702  -0.185  1.00  0.00    -0.005 C 
HETATM   22  C1  UNL     1       6.284   0.037  -0.309  1.00  0.00     0.019 C 
HETATM   23  C3  UNL     1       5.032   2.091  -0.787  1.00  0.00     0.019 C 
HETATM   24  C4  UNL     1       4.576   0.787   1.270  1.00  0.00     0.019 C 
ENDBRANCH  18  21
ENDBRANCH  15  16
ENDBRANCH   1  15
TORSDOF 3
