REMARK  7 active torsions:
REMARK  status: ('A' for Active; 'I' for Inactive)
REMARK    1  A    between atoms: C2_2  and  C5_5 
REMARK    2  A    between atoms: C7_8  and  C8_9 
REMARK    3  A    between atoms: C8_9  and  S1_10 
REMARK    4  A    between atoms: S1_10  and  C9_11 
REMARK    5  A    between atoms: C11_14  and  N3_15 
REMARK    6  A    between atoms: N3_15  and  C12_16 
REMARK    7  A    between atoms: C12_16  and  S2_17 
ROOT
HETATM    1  C9  UNL     1      -0.695  -0.626   1.006  1.00  0.00     0.064 A 
HETATM    2  C10 UNL     1      -0.787   0.497   1.726  1.00  0.00     0.141 A 
HETATM    3  N2  UNL     1      -1.990   0.891   1.081  1.00  0.00    -0.241 NA
HETATM    4  C11 UNL     1      -1.948  -0.179   0.360  1.00  0.00     0.143 A 
ENDROOT
BRANCH   4   5
HETATM    5  N3  UNL     1      -2.801  -0.695  -0.659  1.00  0.00    -0.348 N 
HETATM    6  H14 UNL     1      -2.323  -1.214  -1.452  1.00  0.00     0.163 HD
BRANCH   5   7
HETATM    7  C12 UNL     1      -4.240  -0.511  -0.594  1.00  0.00     0.160 C 
HETATM    8  C13 UNL     1      -4.627   0.936  -0.577  1.00  0.00     0.054 C 
HETATM    9  C14 UNL     1      -6.112   1.081  -0.499  1.00  0.00     0.023 C 
HETATM   10  C15 UNL     1      -6.793   0.112   0.406  1.00  0.00     0.123 C 
HETATM   11  N4  UNL     1      -5.879  -0.520   1.359  1.00  0.00    -0.358 N 
HETATM   12  C16 UNL     1      -4.751  -1.086   0.702  1.00  0.00     0.256 C 
HETATM   13  H22 UNL     1      -5.859  -0.654   2.404  1.00  0.00     0.162 HD
HETATM   14  O1  UNL     1      -4.090  -2.096   1.130  1.00  0.00    -0.270 OA
BRANCH   7  15
HETATM   15  S2  UNL     1      -4.972  -1.305  -2.029  1.00  0.00    -0.141 SA
HETATM   16  H15 UNL     1      -6.308  -0.926  -2.248  1.00  0.00     0.104 HD
ENDBRANCH   7  15
ENDBRANCH   5   7
ENDBRANCH   4   5
BRANCH   1  17
HETATM   17  S1  UNL     1       0.375  -2.067   0.813  1.00  0.00    -0.117 SA
BRANCH  17  18
HETATM   18  C8  UNL     1       1.765  -1.915   1.978  1.00  0.00     0.166 C 
BRANCH  18  19
HETATM   19  C7  UNL     1       2.579  -0.751   1.538  1.00  0.00     0.154 A 
HETATM   20  N1  UNL     1       2.549   0.562   1.831  1.00  0.00    -0.237 NA
HETATM   21  C6  UNL     1       3.522   1.210   1.153  1.00  0.00     0.152 A 
HETATM   22  C5  UNL     1       4.156   0.244   0.428  1.00  0.00     0.080 A 
HETATM   23  O2  UNL     1       3.576  -0.907   0.676  1.00  0.00    -0.297 OA
BRANCH  22  24
HETATM   24  C2  UNL     1       5.313   0.367  -0.511  1.00  0.00    -0.000 C 
HETATM   25  C1  UNL     1       6.557   0.166   0.330  1.00  0.00     0.021 C 
HETATM   26  C3  UNL     1       5.220  -0.698  -1.567  1.00  0.00     0.021 C 
HETATM   27  C4  UNL     1       5.349   1.753  -1.112  1.00  0.00     0.021 C 
ENDBRANCH  22  24
ENDBRANCH  18  19
ENDBRANCH  17  18
ENDBRANCH   1  17
TORSDOF 7
