REMARK  4 active torsions:
REMARK  status: ('A' for Active; 'I' for Inactive)
REMARK    1  A    between atoms: C8_11  and  S1_12 
REMARK    2  A    between atoms: S1_12  and  C9_13 
REMARK    3  A    between atoms: C9_13  and  C10_14 
REMARK    4  A    between atoms: C12_17  and  C13_18 
ROOT
HETATM    1  C1  UNL     1      -2.795   3.359  -0.432  1.00  0.00     0.043 C 
HETATM    2  C2  UNL     1      -2.770   2.209   0.457  1.00  0.00     0.137 C 
HETATM    3  N1  UNL     1      -3.722   1.896   1.431  1.00  0.00    -0.409 N 
HETATM    4  C3  UNL     1      -4.958   1.333   0.891  1.00  0.00     0.115 C 
HETATM    5  C4  UNL     1      -4.635  -0.006   0.242  1.00  0.00     0.021 C 
HETATM    6  C5  UNL     1      -3.872  -0.941   1.142  1.00  0.00     0.021 C 
HETATM    7  C6  UNL     1      -3.412  -2.194   0.432  1.00  0.00     0.120 C 
HETATM    8  N2  UNL     1      -2.466  -1.939  -0.651  1.00  0.00    -0.385 N 
HETATM    9  C7  UNL     1      -1.133  -1.529  -1.071  1.00  0.00     0.198 C 
HETATM   10  N3  UNL     1      -1.243  -0.448  -0.518  1.00  0.00    -0.259 NA
HETATM   11  C8  UNL     1      -0.401   0.677  -0.381  1.00  0.00     0.234 C 
HETATM   12  S2  UNL     1      -1.112   1.703   1.017  1.00  0.00    -0.107 SA
HETATM   13  H5  UNL     1      -3.857   2.524   2.228  1.00  0.00     0.154 HD
HETATM   14  H14 UNL     1      -2.938  -2.114  -1.595  1.00  0.00     0.160 HD
ENDROOT
BRANCH  11  15
HETATM   15  S1  UNL     1       1.235   0.214   0.195  1.00  0.00    -0.123 SA
BRANCH  15  16
HETATM   16  C9  UNL     1       2.089  -0.742  -1.057  1.00  0.00     0.163 C 
BRANCH  16  17
HETATM   17  C10 UNL     1       3.490  -1.077  -0.598  1.00  0.00     0.154 A 
HETATM   18  N4  UNL     1       3.936  -2.124   0.097  1.00  0.00    -0.237 NA
HETATM   19  C11 UNL     1       5.272  -1.986   0.268  1.00  0.00     0.153 A 
HETATM   20  C12 UNL     1       5.606  -0.803  -0.361  1.00  0.00     0.086 A 
HETATM   21  O1  UNL     1       4.518  -0.293  -0.864  1.00  0.00    -0.297 OA
BRANCH  20  22
HETATM   22  C13 UNL     1       6.984  -0.227  -0.438  1.00  0.00     0.108 C 
HETATM   23  C14 UNL     1       7.287   0.240   0.995  1.00  0.00     0.028 C 
HETATM   24  I1  UNL     1       8.367  -1.662  -1.123  1.00  0.00    -0.078 I 
ENDBRANCH  20  22
ENDBRANCH  16  17
ENDBRANCH  15  16
ENDBRANCH  11  15
TORSDOF 4
