REMARK  6 active torsions:
REMARK  status: ('A' for Active; 'I' for Inactive)
REMARK    1  A    between atoms: C2_2  and  C3_3 
REMARK    2  A    between atoms: C2_2  and  C18_23 
REMARK    3  A    between atoms: C4_4  and  C5_5 
REMARK    4  A    between atoms: C5_5  and  N1_6 
REMARK    5  A    between atoms: N1_6  and  C6_7 
REMARK    6  A    between atoms: C18_23  and  O2_25 
ROOT
HETATM    1  C6  UNL     1       0.090  -0.669   0.055  1.00  0.00     0.723 A 
HETATM    2  N2  UNL     1       0.048  -1.944   0.484  1.00  0.00    -0.075 NA
HETATM    3  C7  UNL     1      -1.138  -2.572   0.710  1.00  0.00     0.147 A 
HETATM    4  C8  UNL     1      -2.344  -1.928   0.508  1.00  0.00     0.010 A 
HETATM    5  C9  UNL     1      -2.234  -0.608   0.063  1.00  0.00     0.096 A 
HETATM    6  N3  UNL     1      -1.052   0.009  -0.158  1.00  0.00    -0.062 NA
HETATM    7  C10 UNL     1      -3.378   0.274  -0.219  1.00  0.00     0.006 A 
HETATM    8  C11 UNL     1      -2.998   1.595  -0.184  1.00  0.00     0.016 A 
HETATM    9  C12 UNL     1      -3.970   2.544  -0.431  1.00  0.00     0.025 A 
HETATM   10  C13 UNL     1      -5.268   2.153  -0.700  1.00  0.00     0.035 A 
HETATM   11 CL1  UNL     1      -6.471   3.399  -1.009  1.00  0.00    -0.084 Cl
HETATM   12  C14 UNL     1      -5.657   0.822  -0.736  1.00  0.00     0.037 A 
HETATM   13  C15 UNL     1      -4.689  -0.131  -0.490  1.00  0.00    -0.005 A 
HETATM   14  C16 UNL     1      -5.187  -1.507  -0.548  1.00  0.00     0.123 C 
HETATM   15  N4  UNL     1      -4.658  -2.547   0.002  1.00  0.00    -0.296 NA
HETATM   16  C17 UNL     1      -3.500  -2.781   0.809  1.00  0.00     0.191 C 
ENDROOT
BRANCH   1  17
HETATM   17  N1  UNL     1       1.344  -0.038  -0.172  1.00  0.00    -0.219 N 
HETATM   18  H7  UNL     1       1.378   0.951  -0.505  1.00  0.00     0.178 HD
BRANCH  17  19
HETATM   19  C5  UNL     1       2.572  -0.783   0.063  1.00  0.00     0.165 C 
BRANCH  19  20
HETATM   20  C4  UNL     1       3.770   0.032  -0.225  1.00  0.00    -0.006 C 
HETATM   21  C3  UNL     1       4.627   0.252   0.742  1.00  0.00     0.011 C 
BRANCH  21  22
HETATM   22  C2  UNL     1       5.821   1.050   0.498  1.00  0.00     0.015 C 
HETATM   23  C1  UNL     1       6.808   1.399   1.304  1.00  0.00     0.050 C 
BRANCH  22  24
HETATM   24  C18 UNL     1       6.161   1.653  -0.784  1.00  0.00     0.172 C 
HETATM   25  O1  UNL     1       7.232   2.312  -0.818  1.00  0.00    -0.646 OA
BRANCH  24  26
HETATM   26  O2  UNL     1       5.897   1.903  -2.112  1.00  0.00    -0.773 OA
HETATM   27  H15 UNL     1       6.034   1.232  -2.846  1.00  0.00     0.167 HD
ENDBRANCH  24  26
ENDBRANCH  22  24
ENDBRANCH  21  22
ENDBRANCH  19  20
ENDBRANCH  17  19
ENDBRANCH   1  17
TORSDOF 6
