REMARK  4 active torsions:
REMARK  status: ('A' for Active; 'I' for Inactive)
REMARK    1  A    between atoms: C6_7  and  C7_8 
REMARK    2  A    between atoms: C7_8  and  N2_9 
REMARK    3  A    between atoms: N2_9  and  C8_10 
REMARK    4  A    between atoms: O1_24  and  C19_25 
ROOT
HETATM    1  C8  UNL     1      -0.417  -0.677   0.856  1.00  0.00     0.120 A 
HETATM    2  C9  UNL     1      -0.414   0.544   1.291  1.00  0.00     0.094 C 
HETATM    3  N3  UNL     1      -1.492   0.782   2.008  1.00  0.00    -0.246 NA
HETATM    4  C10 UNL     1      -2.600   1.179   1.214  1.00  0.00     0.085 A 
HETATM    5  C11 UNL     1      -2.121   2.535   1.134  1.00  0.00     0.148 A 
HETATM    6  N4  UNL     1      -2.636   3.657   0.516  1.00  0.00    -0.271 NA
HETATM    7  C12 UNL     1      -3.815   3.525  -0.162  1.00  0.00     0.117 A 
HETATM    8  C13 UNL     1      -4.315   2.217  -0.108  1.00  0.00     0.033 A 
HETATM    9  C14 UNL     1      -3.776   1.112   0.520  1.00  0.00    -0.004 A 
HETATM   10  C15 UNL     1      -4.671  -0.004   0.268  1.00  0.00     0.015 C 
HETATM   11  C16 UNL     1      -3.989  -1.110   0.223  1.00  0.00     0.021 C 
HETATM   12  C17 UNL     1      -2.835  -1.953   0.278  1.00  0.00     0.026 C 
HETATM   13 CL1  UNL     1      -3.001  -3.715  -0.003  1.00  0.00    -0.088 Cl
HETATM   14  C18 UNL     1      -1.816  -1.109   0.571  1.00  0.00     0.065 A 
HETATM   15  O1  UNL     1      -0.928  -2.167   0.521  1.00  0.00     0.000 OA
ENDROOT
BRANCH   1  16
HETATM   16  N2  UNL     1       1.011  -0.709   1.045  1.00  0.00    -0.400 N 
HETATM   17  H9  UNL     1       1.367  -1.044   1.975  1.00  0.00     0.154 HD
BRANCH  16  18
HETATM   18  C7  UNL     1       1.678  -0.258  -0.167  1.00  0.00     0.156 C 
BRANCH  18  19
HETATM   19  C6  UNL     1       3.131  -0.306  -0.048  1.00  0.00    -0.017 A 
HETATM   20  C2  UNL     1       3.855   0.123  -1.167  1.00  0.00     0.038 A 
HETATM   21  C1  UNL     1       3.142   0.597  -2.394  1.00  0.00     0.071 C 
HETATM   22  N1  UNL     1       5.212   0.117  -1.157  1.00  0.00    -0.265 NA
HETATM   23  C3  UNL     1       5.913  -0.295  -0.090  1.00  0.00     0.117 A 
HETATM   24  C4  UNL     1       5.277  -0.733   1.051  1.00  0.00     0.020 A 
HETATM   25  C5  UNL     1       3.901  -0.717   1.015  1.00  0.00     0.012 A 
ENDBRANCH  18  19
ENDBRANCH  16  18
ENDBRANCH   1  16
BRANCH  15  26
HETATM   26  C19 UNL     1      -0.616  -2.900  -0.630  1.00  0.00     0.404 C 
HETATM   27  O2  UNL     1      -1.106  -2.680  -1.770  1.00  0.00    -0.404 OA
ENDBRANCH  15  26
TORSDOF 4
