REMARK  2 active torsions:
REMARK  status: ('A' for Active; 'I' for Inactive)
REMARK    1  A    between atoms: N1_1  and  C1_2 
REMARK    2  A    between atoms: C5_7  and  C6_8 
ROOT
HETATM    1  C6  UNL     1      -1.513  -0.604  -0.829  1.00  0.00     0.097 A 
HETATM    2  N2  UNL     1      -1.912  -1.156  -2.013  1.00  0.00    -0.239 NA
HETATM    3  C7  UNL     1      -1.032  -1.422  -2.979  1.00  0.00     0.236 A 
HETATM    4  N3  UNL     1       0.287  -1.192  -2.912  1.00  0.00    -0.215 NA
HETATM    5  C8  UNL     1       0.787  -0.643  -1.781  1.00  0.00     0.200 A 
HETATM    6  C9  UNL     1      -0.135  -0.357  -0.756  1.00  0.00     0.112 A 
HETATM    7  N4  UNL     1       0.168   0.325   0.488  1.00  0.00    -0.380 N 
HETATM    8  C10 UNL     1       1.314   0.038   1.354  1.00  0.00     0.161 C 
HETATM    9  C11 UNL     1       2.577   0.081   0.571  1.00  0.00    -0.005 A 
HETATM   10  C12 UNL     1       3.623   0.410   1.438  1.00  0.00     0.035 A 
HETATM   11  C13 UNL     1       4.935   0.548   1.110  1.00  0.00     0.034 A 
HETATM   12 CL1  UNL     1       6.158   0.963   2.281  1.00  0.00    -0.084 Cl
HETATM   13  C14 UNL     1       5.285   0.346  -0.208  1.00  0.00     0.026 A 
HETATM   14  C15 UNL     1       4.299   0.018  -1.117  1.00  0.00     0.039 A 
HETATM   15  C16 UNL     1       2.980  -0.111  -0.734  1.00  0.00     0.086 A 
HETATM   16  O1  UNL     1       2.163  -0.445  -1.805  1.00  0.00    -0.289 OA
HETATM   17  H7  UNL     1      -0.609   1.054   0.580  1.00  0.00     0.160 HD
ENDROOT
BRANCH   1  18
HETATM   18  C5  UNL     1      -2.464  -0.324   0.237  1.00  0.00     0.011 A 
HETATM   19  C1  UNL     1      -3.920  -0.250  -0.176  1.00  0.00     0.293 A 
HETATM   20  C2  UNL     1      -4.574   0.107   1.091  1.00  0.00     0.026 A 
HETATM   21 BR1  UNL     1      -6.472   0.343   1.159  1.00  0.00    -0.053 Br
HETATM   22  C3  UNL     1      -3.749   0.235   2.108  1.00  0.00     0.018 A 
HETATM   23  C4  UNL     1      -2.457  -0.044   1.522  1.00  0.00     0.013 A 
BRANCH  19  24
HETATM   24  N1  UNL     1      -4.091   0.926  -1.047  1.00  0.00     0.092 N 
HETATM   25  H1  UNL     1      -3.226   1.032  -1.652  1.00  0.00     0.314 HD
HETATM   26  H2  UNL     1      -4.057   1.791  -0.448  1.00  0.00     0.314 HD
ENDBRANCH  19  24
ENDBRANCH   1  18
TORSDOF 2
