REMARK  3 active torsions:
REMARK  status: ('A' for Active; 'I' for Inactive)
REMARK    1  A    between atoms: N1_1  and  C1_2 
REMARK    2  A    between atoms: N4_7  and  C4_8 
REMARK    3  A    between atoms: C9_14  and  O1_15 
ROOT
HETATM    1  C1  UNL     1      -2.112  -1.729   0.387  1.00  0.00     0.370 C 
HETATM    2  N2  UNL     1      -0.813  -2.233   0.321  1.00  0.00    -0.243 NA
HETATM    3  C2  UNL     1      -0.129  -3.104   0.866  1.00  0.00     0.230 C 
HETATM    4  N3  UNL     1       1.197  -3.164   0.365  1.00  0.00    -0.237 NA
HETATM    5  C3  UNL     1       1.711  -2.304  -0.445  1.00  0.00     0.210 C 
HETATM    6  N4  UNL     1       0.938  -1.200  -0.896  1.00  0.00    -0.350 N 
HETATM    7  C10 UNL     1       0.032  -0.970  -1.978  1.00  0.00     0.133 C 
HETATM    8  C11 UNL     1      -0.677   0.356  -1.860  1.00  0.00     0.055 C 
HETATM    9  C12 UNL     1      -1.484   0.550  -0.653  1.00  0.00    -0.072 C 
HETATM   10  C13 UNL     1      -2.083  -0.228   0.282  1.00  0.00    -0.024 C 
HETATM   11  C14 UNL     1      -2.816   0.517   1.360  1.00  0.00     0.038 C 
HETATM   12  C15 UNL     1      -3.847   1.382   0.714  1.00  0.00     0.005 C 
HETATM   13  C16 UNL     1      -3.247   2.185  -0.405  1.00  0.00     0.005 C 
HETATM   14  C17 UNL     1      -1.721   1.999  -0.384  1.00  0.00     0.034 C 
ENDROOT
BRANCH   6  15
HETATM   15  C4  UNL     1       1.399  -0.323   0.106  1.00  0.00     0.106 C 
HETATM   16  C5  UNL     1       2.522   0.375   0.129  1.00  0.00     0.013 A 
HETATM   17  C6  UNL     1       2.847   1.238   1.248  1.00  0.00     0.016 A 
HETATM   18  C9  UNL     1       3.463   0.297  -0.972  1.00  0.00     0.078 A 
HETATM   19  C7  UNL     1       3.886   2.000   1.457  1.00  0.00     0.009 A 
HETATM   20  P1  UNL     1       5.193   2.040   0.179  1.00  0.00    -0.080 P 
HETATM   21  C8  UNL     1       4.619   0.904  -1.141  1.00  0.00     0.045 A 
HETATM   22  H9  UNL     1       6.496   1.705   0.680  1.00  0.00     0.066 HD
BRANCH  18  23
HETATM   23  O1  UNL     1       3.259  -0.493  -2.093  1.00  0.00    -0.360 OA
HETATM   24  H11 UNL     1       3.859  -1.297  -2.221  1.00  0.00     0.217 HD
ENDBRANCH  18  23
ENDBRANCH   6  15
BRANCH   1  25
HETATM   25  N1  UNL     1      -2.878  -2.185  -0.787  1.00  0.00     0.107 N 
HETATM   26  H1  UNL     1      -2.471  -3.063  -1.134  1.00  0.00     0.316 HD
HETATM   27  H2  UNL     1      -3.870  -2.326  -0.459  1.00  0.00     0.316 HD
ENDBRANCH   1  25
TORSDOF 3
