REMARK  2 active torsions:
REMARK  status: ('A' for Active; 'I' for Inactive)
REMARK    1  A    between atoms: C2_2  and  N1_3 
REMARK    2  A    between atoms: N1_3  and  C3_4 
ROOT
HETATM    1  C3  UNL     1       2.566  -0.723   0.366  1.00  0.00     0.039 A 
HETATM    2  C4  UNL     1       2.258  -1.868   1.027  1.00  0.00     0.033 A 
HETATM    3  C5  UNL     1       1.032  -2.526   0.881  1.00  0.00     0.043 A 
HETATM    4  C6  UNL     1      -0.021  -2.108   0.053  1.00  0.00     0.117 A 
HETATM    5  C7  UNL     1       0.449  -0.957  -0.541  1.00  0.00     0.160 A 
HETATM    6  F1  UNL     1      -0.476  -0.677  -1.463  1.00  0.00    -0.202 F 
HETATM    7  C8  UNL     1       1.603  -0.228  -0.470  1.00  0.00     0.033 A 
HETATM    8  C9  UNL     1       1.411   1.112  -1.232  1.00  0.00     0.212 C 
HETATM    9  O1  UNL     1       0.521   1.774  -0.398  1.00  0.00    -0.379 OA
HETATM   10  C10 UNL     1      -0.073   2.925  -0.798  1.00  0.00     0.142 C 
HETATM   11  C11 UNL     1      -0.001   4.094   0.106  1.00  0.00     0.042 C 
HETATM   12  C12 UNL     1      -1.531   2.534  -1.072  1.00  0.00     0.206 C 
HETATM   13  O2  UNL     1      -2.188   2.046   0.140  1.00  0.00    -0.352 OA
HETATM   14  C13 UNL     1      -3.354   1.289  -0.146  1.00  0.00     0.106 A 
HETATM   15  C14 UNL     1      -4.504   0.540  -0.427  1.00  0.00     0.329 A 
HETATM   16  N2  UNL     1      -4.340  -0.824  -0.475  1.00  0.00     0.102 N 
HETATM   17  N3  UNL     1      -5.230  -1.813  -0.764  1.00  0.00    -0.070 NA
HETATM   18  C15 UNL     1      -4.666  -3.069  -0.761  1.00  0.00     0.265 A 
HETATM   19  N4  UNL     1      -3.384  -3.391  -0.513  1.00  0.00    -0.214 NA
HETATM   20  C16 UNL     1      -2.463  -2.458  -0.220  1.00  0.00     0.208 A 
HETATM   21  C17 UNL     1      -3.140  -1.333  -0.255  1.00  0.00     0.241 A 
HETATM   22  C18 UNL     1      -2.979  -0.017  -0.136  1.00  0.00     0.253 A 
HETATM   23  C19 UNL     1      -2.074  -0.087   1.112  1.00  0.00     0.064 C 
HETATM   24  O3  UNL     1      -1.178  -2.824   0.009  1.00  0.00    -0.287 OA
ENDROOT
BRANCH   1  25
HETATM   25  N1  UNL     1       3.709   0.082   0.376  1.00  0.00    -0.390 N 
HETATM   26  H6  UNL     1       3.881   0.958  -0.150  1.00  0.00     0.159 HD
BRANCH  25  27
HETATM   27  C2  UNL     1       4.794  -0.331   1.206  1.00  0.00     0.115 C 
HETATM   28  C1  UNL     1       5.307  -1.674   0.720  1.00  0.00     0.026 C 
ENDBRANCH  25  27
ENDBRANCH   1  25
TORSDOF 2
