REMARK  3 active torsions:
REMARK  status: ('A' for Active; 'I' for Inactive)
REMARK    1  A    between atoms: C6_7  and  C7_8 
REMARK       I    between atoms: C7_8  and  N2_10 
REMARK    2  A    between atoms: N2_10  and  C8_11 
REMARK    3  A    between atoms: C9_12  and  C10_13 
ROOT
HETATM    1  C7  UNL     1       2.098   0.308  -1.188  1.00  0.00     0.257 C 
HETATM    2  O1  UNL     1       2.118   0.803  -2.350  1.00  0.00    -0.267 OA
HETATM    3  N2  UNL     1       0.765   0.011  -0.725  1.00  0.00    -0.332 N 
HETATM    4  H7  UNL     1       0.600  -0.393   0.197  1.00  0.00     0.168 HD
ENDROOT
BRANCH   3   5
HETATM    5  C8  UNL     1      -0.273   0.311  -1.620  1.00  0.00     0.104 C 
HETATM    6  C9  UNL     1      -1.564   0.116  -1.393  1.00  0.00    -0.001 C 
BRANCH   6   7
HETATM    7  C10 UNL     1      -2.671  -0.308  -0.798  1.00  0.00    -0.029 A 
HETATM    8  C11 UNL     1      -3.338  -1.602  -0.697  1.00  0.00     0.080 A 
HETATM    9  C12 UNL     1      -4.318  -0.804   0.123  1.00  0.00    -0.040 A 
HETATM   10  C13 UNL     1      -5.499  -0.858   0.860  1.00  0.00     0.027 A 
HETATM   11  C16 UNL     1      -3.630   0.405  -0.016  1.00  0.00    -0.004 A 
HETATM   12  C14 UNL     1      -5.897   0.364   1.414  1.00  0.00     0.116 A 
HETATM   13  N3  UNL     1      -5.245   1.534   1.287  1.00  0.00    -0.272 NA
HETATM   14  C15 UNL     1      -4.113   1.567   0.574  1.00  0.00     0.128 A 
ENDBRANCH   6   7
ENDBRANCH   3   5
BRANCH   1  15
HETATM   15  C6  UNL     1       3.164  -0.013  -0.240  1.00  0.00     0.056 A 
HETATM   16  C2  UNL     1       4.258   0.779   0.017  1.00  0.00     0.046 A 
HETATM   17  C1  UNL     1       4.374   2.052  -0.702  1.00  0.00     0.071 C 
HETATM   18  N1  UNL     1       5.190   0.384   0.913  1.00  0.00    -0.265 NA
HETATM   19  C3  UNL     1       5.056  -0.804   1.572  1.00  0.00     0.117 A 
HETATM   20  C4  UNL     1       3.974  -1.666   1.370  1.00  0.00     0.020 A 
HETATM   21  C5  UNL     1       3.065  -1.204   0.446  1.00  0.00     0.020 A 
ENDBRANCH   1  15
TORSDOF 3
