REMARK  2 active torsions:
REMARK  status: ('A' for Active; 'I' for Inactive)
REMARK    1  A    between atoms: C2_2  and  N1_3 
REMARK    2  A    between atoms: C16_22  and  C17_23 
ROOT
HETATM    1  N1  UNL     1      -0.526  -0.396   0.742  1.00  0.00    -0.357 N 
HETATM    2  C3  UNL     1       0.352  -0.752  -0.327  1.00  0.00     0.040 C 
HETATM    3  C4  UNL     1       1.497  -1.341   0.084  1.00  0.00    -0.029 C 
HETATM    4  C5  UNL     1       2.730  -1.085  -0.709  1.00  0.00     0.043 C 
HETATM    5  C6  UNL     1       2.113  -0.269  -1.591  1.00  0.00     0.073 C 
HETATM    6  O1  UNL     1       3.307   0.446  -1.565  1.00  0.00    -0.333 OA
HETATM    7  C7  UNL     1       3.126   1.843  -1.209  1.00  0.00     0.325 C 
HETATM    8  N2  UNL     1       3.544   1.990   0.158  1.00  0.00    -0.257 NA
HETATM    9  C8  UNL     1       2.971   1.368   1.131  1.00  0.00     0.228 C 
HETATM   10  N3  UNL     1       1.918   0.464   1.295  1.00  0.00    -0.256 NA
HETATM   11  C9  UNL     1       1.227   0.265   2.332  1.00  0.00     0.116 C 
HETATM   12  C10 UNL     1       0.280  -0.797   1.909  1.00  0.00     0.130 C 
HETATM   13  C11 UNL     1       1.034  -2.025   1.381  1.00  0.00     0.071 C 
HETATM   14  C12 UNL     1       0.741  -0.822  -1.815  1.00  0.00     0.189 C 
HETATM   15 CL1  UNL     1       0.901  -2.476  -2.360  1.00  0.00    -0.111 Cl
ENDROOT
BRANCH   1  16
HETATM   16  C2  UNL     1      -1.781   0.180   0.326  1.00  0.00     0.080 A 
HETATM   17  C1  UNL     1      -2.601   0.503   1.558  1.00  0.00     0.046 C 
HETATM   18  C13 UNL     1      -1.563   1.465  -0.437  1.00  0.00     0.066 A 
HETATM   19  C14 UNL     1      -2.223   1.434  -1.767  1.00  0.00    -0.005 A 
HETATM   20  C15 UNL     1      -2.946   0.548  -2.419  1.00  0.00     0.113 A 
HETATM   21  N4  UNL     1      -3.138  -0.669  -1.669  1.00  0.00    -0.260 NA
HETATM   22  C16 UNL     1      -2.596  -0.728  -0.497  1.00  0.00     0.100 A 
BRANCH  22  23
HETATM   23  C17 UNL     1      -2.846  -1.994   0.181  1.00  0.00     0.288 C 
HETATM   24  O2  UNL     1      -3.508  -3.008  -0.229  1.00  0.00    -0.300 OA
ENDBRANCH  22  23
ENDBRANCH   1  16
TORSDOF 2
