REMARK  6 active torsions:
REMARK  status: ('A' for Active; 'I' for Inactive)
REMARK    1  A    between atoms: C6_7  and  C7_8 
REMARK    2  A    between atoms: C7_8  and  C8_10 
REMARK    3  A    between atoms: C8_10  and  C9_11 
REMARK    4  A    between atoms: C9_11  and  C10_12 
REMARK    5  A    between atoms: C10_12  and  N2_13 
REMARK    6  A    between atoms: C12_15  and  C13_16 
ROOT
HETATM    1  C8  UNL     1      -0.016   0.443  -0.146  1.00  0.00     0.119 C 
HETATM    2  C11 UNL     1      -0.706   0.537   1.118  1.00  0.00     0.019 C 
HETATM    3  C12 UNL     1      -1.886  -0.136   1.073  1.00  0.00    -0.034 C 
HETATM    4  C14 UNL     1      -1.921  -0.736  -0.256  1.00  0.00     0.088 A 
HETATM    5  C15 UNL     1      -1.297  -2.149  -0.219  1.00  0.00     0.050 C 
HETATM    6  C16 UNL     1      -3.253  -0.944  -0.867  1.00  0.00     0.124 A 
HETATM    7  N3  UNL     1      -3.620  -0.489  -2.039  1.00  0.00    -0.273 NA
HETATM    8  C17 UNL     1      -2.712   0.283  -2.807  1.00  0.00     0.133 A 
HETATM    9  C18 UNL     1      -1.476   0.613  -2.388  1.00  0.00     0.108 A 
HETATM   10  N4  UNL     1      -1.128   0.147  -1.071  1.00  0.00    -0.351 N 
ENDROOT
BRANCH   1  11
HETATM   11  C7  UNL     1       1.083  -0.411  -0.417  1.00  0.00     0.193 C 
HETATM   12  O1  UNL     1       1.082  -1.073  -1.493  1.00  0.00    -0.289 OA
BRANCH  11  13
HETATM   13  C6  UNL     1       2.265  -0.668   0.361  1.00  0.00     0.037 A 
HETATM   14  C2  UNL     1       3.288  -1.534   0.014  1.00  0.00     0.044 A 
HETATM   15  C1  UNL     1       3.183  -2.283  -1.267  1.00  0.00     0.071 C 
HETATM   16  N1  UNL     1       4.380  -1.739   0.773  1.00  0.00    -0.265 NA
HETATM   17  C3  UNL     1       4.543  -1.101   1.939  1.00  0.00     0.117 A 
HETATM   18  C4  UNL     1       3.584  -0.222   2.369  1.00  0.00     0.020 A 
HETATM   19  C5  UNL     1       2.478  -0.035   1.568  1.00  0.00     0.018 A 
ENDBRANCH  11  13
ENDBRANCH   1  11
BRANCH   1  20
HETATM   20  C9  UNL     1       0.315   1.927  -0.521  1.00  0.00     0.073 C 
BRANCH  20  21
HETATM   21  C10 UNL     1      -0.867   2.802  -0.223  1.00  0.00     0.270 C 
BRANCH  21  22
HETATM   22  N2  UNL     1      -0.590   4.206  -0.564  1.00  0.00     0.078 N 
HETATM   23  H11 UNL     1       0.182   4.588   0.040  1.00  0.00     0.312 HD
HETATM   24  H12 UNL     1      -1.462   4.711  -0.227  1.00  0.00     0.312 HD
ENDBRANCH  21  22
ENDBRANCH  20  21
ENDBRANCH   1  20
BRANCH   3  25
HETATM   25  C13 UNL     1      -2.976  -0.361   2.064  1.00  0.00     0.151 C 
HETATM   26 CL1  UNL     1      -3.238  -2.061   2.424  1.00  0.00    -0.126 Cl
ENDBRANCH   3  25
TORSDOF 6
