REMARK  8 active torsions:
REMARK  status: ('A' for Active; 'I' for Inactive)
REMARK    1  A    between atoms: O1_2  and  C2_3 
REMARK    2  A    between atoms: C3_4  and  N1_5 
REMARK    3  A    between atoms: C11_14  and  C12_15 
REMARK    4  A    between atoms: C12_15  and  C13_17 
REMARK    5  A    between atoms: C13_17  and  C14_18 
REMARK    6  A    between atoms: C14_18  and  N3_19 
REMARK    7  A    between atoms: C14_18  and  C15_20 
REMARK    8  A    between atoms: C16_21  and  C17_22 
ROOT
HETATM    1  C2  UNL     1      -1.788   1.366  -0.063  1.00  0.00     0.082 C 
HETATM    2  C3  UNL     1      -2.825   1.265   0.757  1.00  0.00     0.037 C 
HETATM    3  C4  UNL     1      -3.314   0.005   1.373  1.00  0.00     0.035 C 
HETATM    4  C5  UNL     1      -3.116  -1.281   1.071  1.00  0.00    -0.026 C 
HETATM    5  C6  UNL     1      -3.379  -2.689   1.383  1.00  0.00     0.159 C 
HETATM    6  N2  UNL     1      -3.248  -3.424   0.117  1.00  0.00    -0.385 N 
HETATM    7  C7  UNL     1      -2.218  -2.863  -0.751  1.00  0.00     0.040 A 
HETATM    8  C8  UNL     1      -1.274  -2.258  -1.500  1.00  0.00     0.039 A 
HETATM    9  C9  UNL     1      -1.284  -0.964  -0.819  1.00  0.00    -0.025 A 
HETATM   10  C10 UNL     1      -2.214  -1.562  -0.084  1.00  0.00     0.006 A 
HETATM   11  C11 UNL     1      -0.833   0.388  -0.616  1.00  0.00     0.148 C 
HETATM   12  H9  UNL     1      -3.734  -4.264  -0.295  1.00  0.00     0.160 HD
ENDROOT
BRANCH  11  13
HETATM   13  C12 UNL     1       0.364   0.479   0.286  1.00  0.00     0.144 C 
HETATM   14  O2  UNL     1      -0.045   1.465   0.894  1.00  0.00    -0.297 OA
BRANCH  13  15
HETATM   15  C13 UNL     1       1.623  -0.213   0.528  1.00  0.00     0.118 C 
BRANCH  15  16
HETATM   16  C14 UNL     1       2.649  -0.072  -0.594  1.00  0.00     0.247 C 
BRANCH  16  17
HETATM   17  N3  UNL     1       3.017   1.277  -0.864  1.00  0.00     0.086 N 
HETATM   18  H15 UNL     1       2.859   1.926  -0.072  1.00  0.00     0.313 HD
HETATM   19  H16 UNL     1       3.998   1.372  -1.212  1.00  0.00     0.313 HD
ENDBRANCH  16  17
BRANCH  16  20
HETATM   20  C15 UNL     1       3.892  -0.839  -0.208  1.00  0.00     0.005 C 
HETATM   21  C16 UNL     1       4.665  -0.181   0.666  1.00  0.00    -0.014 C 
BRANCH  21  22
HETATM   22  C17 UNL     1       5.967  -0.611   1.279  1.00  0.00     0.141 C 
HETATM   23 CL1  UNL     1       7.253   0.541   0.869  1.00  0.00    -0.126 Cl
ENDBRANCH  21  22
ENDBRANCH  16  20
ENDBRANCH  15  16
ENDBRANCH  13  15
ENDBRANCH  11  13
BRANCH   1  24
HETATM   24  O1  UNL     1      -1.631   2.700  -0.431  1.00  0.00    -0.357 OA
HETATM   25  C1  UNL     1      -2.160   3.088  -1.687  1.00  0.00     0.209 C 
ENDBRANCH   1  24
BRANCH   2  26
HETATM   26  N1  UNL     1      -3.651   2.328   1.197  1.00  0.00    -0.301 NA
HETATM   27  H4  UNL     1      -3.136   2.971   1.807  1.00  0.00     0.124 HD
HETATM   28  H5  UNL     1      -3.842   3.203   1.725  1.00  0.00     0.124 HD
ENDBRANCH   2  26
TORSDOF 8
