REMARK  7 active torsions:
REMARK  status: ('A' for Active; 'I' for Inactive)
REMARK    1  A    between atoms: C7_7  and  O1_8 
REMARK    2  A    between atoms: O1_8  and  C8_9 
REMARK    3  A    between atoms: C11_13  and  C12_14 
REMARK    4  A    between atoms: C13_15  and  C14_16 
REMARK    5  A    between atoms: C14_16  and  O2_19 
REMARK    6  A    between atoms: C17_22  and  C18_23 
REMARK    7  A    between atoms: C19_27  and  N6_28 
ROOT
HETATM    1  C8  UNL     1       0.897  -0.005   0.917  1.00  0.00     0.159 A 
HETATM    2  C9  UNL     1       0.464   1.239   0.781  1.00  0.00     0.149 A 
HETATM    3  N1  UNL     1      -0.896   1.459   0.425  1.00  0.00    -0.325 N 
HETATM    4  C10 UNL     1      -1.726   0.306   0.233  1.00  0.00     0.167 A 
HETATM    5  C11 UNL     1      -1.296  -0.919   0.367  1.00  0.00     0.135 A 
HETATM    6  N2  UNL     1       0.073  -1.139   0.725  1.00  0.00    -0.326 N 
HETATM    7  N3  UNL     1      -3.034   0.751  -0.114  1.00  0.00    -0.228 NA
HETATM    8  C17 UNL     1      -3.014   2.056  -0.133  1.00  0.00     0.094 A 
HETATM    9  C20 UNL     1      -1.694   2.631   0.197  1.00  0.00     0.142 A 
HETATM   10  C21 UNL     1      -1.178   3.429  -0.955  1.00  0.00     0.039 C 
HETATM   11  H22 UNL     1       0.535  -2.065   0.862  1.00  0.00     0.169 HD
ENDROOT
BRANCH   1  12
HETATM   12  O1  UNL     1       2.249  -0.055   1.267  1.00  0.00    -0.329 OA
BRANCH  12  13
HETATM   13  C7  UNL     1       3.250  -0.292   0.301  1.00  0.00     0.134 C 
HETATM   14  C2  UNL     1       4.583  -0.284   0.997  1.00  0.00     0.011 C 
HETATM   15  C1  UNL     1       4.980   1.063   1.518  1.00  0.00     0.012 C 
HETATM   16  C3  UNL     1       5.613  -0.733  -0.006  1.00  0.00     0.007 C 
HETATM   17  C4  UNL     1       5.613   0.021  -1.289  1.00  0.00     0.001 C 
HETATM   18  C5  UNL     1       4.257   0.366  -1.834  1.00  0.00     0.002 C 
HETATM   19  C6  UNL     1       3.272   0.760  -0.767  1.00  0.00     0.033 C 
ENDBRANCH  12  13
ENDBRANCH   1  12
BRANCH   5  20
HETATM   20  C12 UNL     1      -2.098  -2.096   0.181  1.00  0.00    -0.042 C 
HETATM   21  C13 UNL     1      -2.762  -3.088   0.011  1.00  0.00    -0.062 C 
BRANCH  21  22
HETATM   22  C14 UNL     1      -3.553  -4.315  -0.201  1.00  0.00     0.114 C 
HETATM   23  C15 UNL     1      -3.330  -5.339   0.869  1.00  0.00     0.060 C 
HETATM   24  C16 UNL     1      -3.138  -4.939  -1.534  1.00  0.00     0.060 C 
BRANCH  22  25
HETATM   25  O2  UNL     1      -4.876  -3.950  -0.192  1.00  0.00    -0.378 OA
HETATM   26  H21 UNL     1      -5.304  -3.867  -1.058  1.00  0.00     0.211 HD
ENDBRANCH  22  25
ENDBRANCH  21  22
ENDBRANCH   5  20
BRANCH   8  27
HETATM   27  C18 UNL     1      -4.012   3.078  -0.411  1.00  0.00     0.160 A 
HETATM   28  N4  UNL     1      -4.537   3.227  -1.640  1.00  0.00    -0.099 NA
HETATM   29  O3  UNL     1      -5.407   4.211  -1.620  1.00  0.00    -0.104 OA
HETATM   30  N5  UNL     1      -5.482   4.719  -0.438  1.00  0.00    -0.085 NA
HETATM   31  C19 UNL     1      -4.629   4.052   0.374  1.00  0.00     0.184 A 
BRANCH  31  32
HETATM   32  N6  UNL     1      -4.257   4.129   1.755  1.00  0.00    -0.380 N 
HETATM   33  H23 UNL     1      -3.988   5.035   2.170  1.00  0.00     0.158 HD
HETATM   34  H24 UNL     1      -4.250   3.288   2.359  1.00  0.00     0.158 HD
ENDBRANCH  31  32
ENDBRANCH   8  27
TORSDOF 7
