REMARK  5 active torsions:
REMARK  status: ('A' for Active; 'I' for Inactive)
REMARK    1  A    between atoms: C2_2  and  N1_3 
REMARK    2  A    between atoms: C2_2  and  C3_4 
REMARK    3  A    between atoms: C4_5  and  C5_6 
REMARK    4  A    between atoms: C6_7  and  N2_8 
REMARK    5  A    between atoms: N2_8  and  C7_9 
ROOT
HETATM    1  C7  UNL     1      -0.529   0.197   0.976  1.00  0.00     0.045 A 
HETATM    2  C8  UNL     1      -1.575  -0.179   0.257  1.00  0.00     0.121 A 
HETATM    3  N3  UNL     1      -2.885   0.400   0.244  1.00  0.00    -0.316 N 
HETATM    4  C9  UNL     1      -3.711  -0.331  -0.688  1.00  0.00     0.160 C 
HETATM    5  C10 UNL     1      -4.992   0.350  -0.958  1.00  0.00     0.009 C 
HETATM    6  C11 UNL     1      -5.739   1.361  -0.562  1.00  0.00     0.017 A 
HETATM    7  C12 UNL     1      -7.035   1.778  -1.080  1.00  0.00     0.046 A 
HETATM    8 CL1  UNL     1      -7.897   0.986  -2.383  1.00  0.00    -0.083 Cl
HETATM    9  C13 UNL     1      -7.374   2.843  -0.353  1.00  0.00     0.027 A 
HETATM   10  C14 UNL     1      -6.307   3.124   0.635  1.00  0.00     0.040 A 
HETATM   11  C15 UNL     1      -5.316   2.241   0.522  1.00  0.00     0.091 A 
HETATM   12  O1  UNL     1      -4.174   2.247   1.312  1.00  0.00    -0.277 OA
HETATM   13  C16 UNL     1      -3.003   1.514   1.139  1.00  0.00     0.249 A 
HETATM   14  N4  UNL     1      -2.022   1.904   1.841  1.00  0.00    -0.244 NA
HETATM   15  C17 UNL     1      -0.702   1.361   1.886  1.00  0.00     0.211 A 
ENDROOT
BRANCH   1  16
HETATM   16  N2  UNL     1       0.711  -0.466   0.893  1.00  0.00    -0.367 N 
HETATM   17  H11 UNL     1       0.754  -0.888   1.866  1.00  0.00     0.165 HD
BRANCH  16  18
HETATM   18  C6  UNL     1       1.801  -0.738   0.042  1.00  0.00     0.088 C 
HETATM   19  C5  UNL     1       3.001  -0.756   0.596  1.00  0.00     0.017 C 
BRANCH  19  20
HETATM   20  C4  UNL     1       4.154  -1.031  -0.237  1.00  0.00    -0.001 C 
HETATM   21  C3  UNL     1       5.378  -1.064   0.274  1.00  0.00     0.008 C 
BRANCH  21  22
HETATM   22  C2  UNL     1       6.642  -1.325  -0.425  1.00  0.00     0.236 C 
HETATM   23  C1  UNL     1       6.513  -1.234  -1.946  1.00  0.00     0.046 C 
BRANCH  22  24
HETATM   24  N1  UNL     1       7.205  -2.607  -0.023  1.00  0.00     0.086 N 
HETATM   25  H5  UNL     1       8.188  -2.429   0.316  1.00  0.00     0.313 HD
HETATM   26  H6  UNL     1       6.635  -2.987   0.776  1.00  0.00     0.313 HD
ENDBRANCH  22  24
ENDBRANCH  21  22
ENDBRANCH  19  20
ENDBRANCH  16  18
ENDBRANCH   1  16
TORSDOF 5
