REMARK  9 active torsions:
REMARK  status: ('A' for Active; 'I' for Inactive)
REMARK    1  A    between atoms: C2_2  and  O1_4 
REMARK    2  A    between atoms: C2_2  and  C4_5 
REMARK    3  A    between atoms: C5_6  and  C6_7 
REMARK    4  A    between atoms: C7_8  and  N1_9 
REMARK    5  A    between atoms: N2_12  and  C10_13 
REMARK    6  A    between atoms: C10_13  and  C11_14 
REMARK    7  A    between atoms: C12_18  and  N5_19 
REMARK    8  A    between atoms: C14_21  and  C15_22 
REMARK    9  A    between atoms: C15_22  and  C16_23 
ROOT
HETATM    1  C6  UNL     1      -1.502   1.267   0.004  1.00  0.00     0.021 C 
HETATM    2  C7  UNL     1      -1.389   2.546   0.367  1.00  0.00     0.019 C 
HETATM    3  C8  UNL     1      -0.315   3.326   0.963  1.00  0.00     0.077 C 
HETATM    4  C9  UNL     1       0.479   2.671   2.041  1.00  0.00     0.128 C 
HETATM    5  N2  UNL     1       1.615   2.026   1.362  1.00  0.00    -0.384 N 
HETATM    6  C13 UNL     1       1.591   0.970   0.415  1.00  0.00     0.089 C 
HETATM    7  C14 UNL     1       0.713   0.162  -0.158  1.00  0.00    -0.059 C 
HETATM    8  C21 UNL     1      -0.767   0.005  -0.037  1.00  0.00     0.085 C 
ENDROOT
BRANCH   5   9
HETATM    9  C10 UNL     1       2.888   2.587   1.751  1.00  0.00     0.187 C 
BRANCH   9  10
HETATM   10  C11 UNL     1       4.047   1.950   1.096  1.00  0.00     0.124 A 
HETATM   11  N3  UNL     1       4.777   2.466   0.064  1.00  0.00    -0.104 NA
HETATM   12  O2  UNL     1       5.712   1.628  -0.245  1.00  0.00    -0.105 OA
HETATM   13  N4  UNL     1       5.640   0.592   0.525  1.00  0.00    -0.091 NA
HETATM   14  C12 UNL     1       4.627   0.711   1.393  1.00  0.00     0.159 A 
BRANCH  14  15
HETATM   15  N5  UNL     1       4.210  -0.199   2.399  1.00  0.00    -0.283 NA
HETATM   16  H16 UNL     1       3.802   0.221   3.273  1.00  0.00     0.125 HD
HETATM   17  H17 UNL     1       3.790   0.070   3.311  1.00  0.00     0.125 HD
ENDBRANCH  14  15
ENDBRANCH   9  10
ENDBRANCH   5   9
BRANCH   7  18
HETATM   18  C15 UNL     1       1.313  -0.775  -1.108  1.00  0.00     0.042 C 
BRANCH  18  19
HETATM   19  C16 UNL     1       1.108  -2.223  -0.779  1.00  0.00     0.017 C 
HETATM   20  C17 UNL     1       1.726  -2.494   0.578  1.00  0.00     0.008 C 
HETATM   21  C18 UNL     1       1.334  -3.906   0.989  1.00  0.00     0.030 C 
HETATM   22  C19 UNL     1       1.692  -4.815  -0.173  1.00  0.00     0.269 C 
HETATM   23  N6  UNL     1       2.555  -4.173  -1.137  1.00  0.00     0.083 N 
HETATM   24  C20 UNL     1       1.919  -3.039  -1.776  1.00  0.00     0.274 C 
HETATM   25  H28 UNL     1       3.521  -4.015  -0.831  1.00  0.00     0.315 HD
ENDBRANCH  18  19
ENDBRANCH   7  18
BRANCH   2  26
HETATM   26  N1  UNL     1      -2.580   3.326   0.118  1.00  0.00    -0.401 N 
HETATM   27  H8  UNL     1      -3.206   3.683  -0.634  1.00  0.00     0.156 HD
HETATM   28  H9  UNL     1      -3.122   3.761   0.913  1.00  0.00     0.156 HD
ENDBRANCH   2  26
BRANCH   1  29
HETATM   29  C5  UNL     1      -2.843   1.077  -0.544  1.00  0.00    -0.066 C 
HETATM   30  C4  UNL     1      -3.949   0.899  -1.004  1.00  0.00    -0.064 C 
BRANCH  30  31
HETATM   31  C2  UNL     1      -5.275   0.678  -1.581  1.00  0.00     0.114 C 
HETATM   32  C1  UNL     1      -6.234   0.143  -0.514  1.00  0.00     0.060 C 
HETATM   33  C3  UNL     1      -5.147  -0.295  -2.724  1.00  0.00     0.060 C 
BRANCH  31  34
HETATM   34  O1  UNL     1      -5.842   1.846  -2.072  1.00  0.00    -0.378 OA
HETATM   35  H7  UNL     1      -5.151   2.347  -2.610  1.00  0.00     0.211 HD
ENDBRANCH  31  34
ENDBRANCH  30  31
ENDBRANCH   1  29
TORSDOF 9
