REMARK  5 active torsions:
REMARK  status: ('A' for Active; 'I' for Inactive)
REMARK    1  A    between atoms: O1_1  and  N1_2 
REMARK    2  A    between atoms: N1_2  and  C1_3 
REMARK    3  A    between atoms: C1_3  and  C2_4 
REMARK    4  A    between atoms: C7_10  and  N2_11 
REMARK    5  A    between atoms: N2_11  and  C8_12 
ROOT
HETATM    1  C2  UNL     1      -1.610   0.128  -0.116  1.00  0.00    -0.011 A 
HETATM    2  C3  UNL     1      -2.536   1.083  -0.400  1.00  0.00     0.045 A 
HETATM    3  C4  UNL     1      -2.451   2.359   0.067  1.00  0.00     0.092 A 
HETATM    4  C5  UNL     1      -1.364   2.709   0.876  1.00  0.00     0.129 A 
HETATM    5  C6  UNL     1      -0.400   1.756   1.184  1.00  0.00     0.174 A 
HETATM    6  F1  UNL     1       0.616   2.191   1.974  1.00  0.00    -0.201 F 
HETATM    7  C7  UNL     1      -0.513   0.452   0.691  1.00  0.00     0.082 A 
HETATM    8  N3  UNL     1      -1.588   4.079   1.175  1.00  0.00    -0.220 NA
HETATM    9  C14 UNL     1      -2.663   4.425   0.583  1.00  0.00     0.199 A 
HETATM   10  N4  UNL     1      -3.272   3.510  -0.086  1.00  0.00    -0.224 NA
ENDROOT
BRANCH   7  11
HETATM   11  N2  UNL     1       0.559  -0.382   1.107  1.00  0.00    -0.352 N 
HETATM   12  H6  UNL     1       0.275  -0.821   2.002  1.00  0.00     0.166 HD
BRANCH  11  13
HETATM   13  C8  UNL     1       1.793  -0.580   0.428  1.00  0.00     0.054 A 
HETATM   14  C9  UNL     1       1.977   0.100  -0.753  1.00  0.00     0.032 A 
HETATM   15  C10 UNL     1       3.201  -0.127  -1.381  1.00  0.00     0.021 A 
HETATM   16  C11 UNL     1       4.148  -0.990  -0.821  1.00  0.00     0.012 A 
HETATM   17 BR1  UNL     1       5.824  -1.338  -1.624  1.00  0.00    -0.051 Br
HETATM   18  C12 UNL     1       3.885  -1.646   0.386  1.00  0.00     0.045 A 
HETATM   19  C13 UNL     1       2.668  -1.446   1.050  1.00  0.00     0.062 A 
HETATM   20 CL1  UNL     1       2.287  -2.236   2.555  1.00  0.00    -0.082 Cl
ENDBRANCH  11  13
ENDBRANCH   7  11
BRANCH   1  21
HETATM   21  C1  UNL     1      -1.561  -1.291  -0.543  1.00  0.00     0.158 C 
BRANCH  21  22
HETATM   22  N1  UNL     1      -2.664  -1.682  -1.374  1.00  0.00    -0.204 NA
HETATM   23  H2  UNL     1      -2.516  -2.694  -1.590  1.00  0.00     0.153 HD
BRANCH  22  24
HETATM   24  O1  UNL     1      -3.841  -1.526  -0.753  1.00  0.00    -0.315 OA
HETATM   25  H1  UNL     1      -4.123  -2.276  -0.200  1.00  0.00     0.236 HD
ENDBRANCH  22  24
ENDBRANCH  21  22
ENDBRANCH   1  21
TORSDOF 5
