REMARK  7 active torsions:
REMARK  status: ('A' for Active; 'I' for Inactive)
REMARK    1  A    between atoms: O1_2  and  C2_3 
REMARK    2  A    between atoms: C2_3  and  C3_4 
REMARK    3  A    between atoms: C3_4  and  N1_5 
REMARK       I    between atoms: N1_5  and  C4_6 
REMARK    4  A    between atoms: C4_6  and  C5_8 
REMARK    5  A    between atoms: C5_8  and  N2_9 
REMARK    6  A    between atoms: N2_9  and  C6_10 
REMARK    7  A    between atoms: N2_9  and  C12_18 
ROOT
HETATM    1  N2  UNL     1      -0.724   0.459   0.493  1.00  0.00    -0.344 N 
ENDROOT
BRANCH   1   2
HETATM    2  C5  UNL     1       0.444   1.102   1.059  1.00  0.00     0.228 C 
BRANCH   2   3
HETATM    3  C4  UNL     1       1.666   0.954   0.263  1.00  0.00     0.235 C 
HETATM    4  N1  UNL     1       2.147   0.385  -0.941  1.00  0.00    -0.358 N 
HETATM    5  H8  UNL     1       1.321  -0.071  -1.405  1.00  0.00     0.162 HD
HETATM    6  O2  UNL     1       2.575   1.569   0.932  1.00  0.00    -0.272 OA
BRANCH   4   7
HETATM    7  C3  UNL     1       3.522   0.514  -1.308  1.00  0.00     0.148 C 
BRANCH   7   8
HETATM    8  C2  UNL     1       4.500  -0.089  -0.340  1.00  0.00     0.186 C 
BRANCH   8   9
HETATM    9  O1  UNL     1       4.337  -1.447  -0.141  1.00  0.00    -0.394 OA
HETATM   10  C1  UNL     1       4.476  -2.207  -1.281  1.00  0.00     0.201 C 
ENDBRANCH   8   9
ENDBRANCH   7   8
ENDBRANCH   4   7
ENDBRANCH   2   3
ENDBRANCH   1   2
BRANCH   1  11
HETATM   11  C6  UNL     1      -1.805   1.249  -0.000  1.00  0.00     0.054 A 
HETATM   12  C7  UNL     1      -3.005   1.091   0.705  1.00  0.00     0.032 A 
HETATM   13  C8  UNL     1      -4.152   1.788   0.367  1.00  0.00     0.021 A 
HETATM   14  C9  UNL     1      -4.151   2.685  -0.702  1.00  0.00     0.012 A 
HETATM   15 BR1  UNL     1      -5.645   3.711  -1.280  1.00  0.00    -0.051 Br
HETATM   16  C10 UNL     1      -2.978   2.852  -1.405  1.00  0.00     0.045 A 
HETATM   17  C11 UNL     1      -1.861   2.144  -1.042  1.00  0.00     0.061 A 
HETATM   18 CL1  UNL     1      -0.377   2.353  -1.930  1.00  0.00    -0.082 Cl
ENDBRANCH   1  11
BRANCH   1  19
HETATM   19  C12 UNL     1      -0.931  -0.950   0.380  1.00  0.00     0.243 A 
HETATM   20  C13 UNL     1      -2.191  -1.358  -0.268  1.00  0.00     0.104 A 
HETATM   21  C14 UNL     1      -2.645  -1.104  -1.501  1.00  0.00     0.219 C 
HETATM   22  N3  UNL     1      -3.002  -2.153   0.624  1.00  0.00    -0.242 NA
HETATM   23  F1  UNL     1      -3.827  -1.523  -2.016  1.00  0.00    -0.217 F 
HETATM   24  C15 UNL     1      -2.347  -2.283   1.751  1.00  0.00     0.207 A 
HETATM   25  N4  UNL     1      -1.077  -1.600   1.696  1.00  0.00    -0.353 N 
HETATM   26  C16 UNL     1      -0.176  -1.641   2.849  1.00  0.00     0.153 C 
ENDBRANCH   1  19
TORSDOF 7
