REMARK  5 active torsions:
REMARK  status: ('A' for Active; 'I' for Inactive)
REMARK    1  A    between atoms: C3_4  and  N1_5 
REMARK    2  A    between atoms: N1_5  and  C4_6 
REMARK    3  A    between atoms: C11_14  and  O1_15 
REMARK    4  A    between atoms: O1_15  and  C12_16 
REMARK    5  A    between atoms: C12_16  and  C13_17 
ROOT
HETATM    1 CL1  UNL     1       0.420  -3.713  -0.460  1.00  0.00    -0.081 Cl
HETATM    2  C1  UNL     1       0.346  -2.101   0.250  1.00  0.00     0.069 A 
HETATM    3  C2  UNL     1      -0.925  -1.516   0.291  1.00  0.00     0.056 A 
HETATM    4  C3  UNL     1      -1.122  -0.260   0.821  1.00  0.00     0.031 A 
HETATM    5  C9  UNL     1      -0.019   0.405   1.311  1.00  0.00     0.032 A 
HETATM    6  C10 UNL     1       1.247  -0.140   1.286  1.00  0.00     0.041 A 
HETATM    7  C11 UNL     1       1.446  -1.397   0.756  1.00  0.00     0.091 A 
ENDROOT
BRANCH   4   8
HETATM    8  N1  UNL     1      -2.397   0.364   0.877  1.00  0.00    -0.367 N 
HETATM    9  H2  UNL     1      -2.492   1.315   1.292  1.00  0.00     0.161 HD
BRANCH   8  10
HETATM   10  C4  UNL     1      -3.611  -0.252   0.383  1.00  0.00     0.208 A 
HETATM   11  C5  UNL     1      -4.817   0.623   0.588  1.00  0.00     0.076 A 
HETATM   12  C6  UNL     1      -5.517   1.003  -0.641  1.00  0.00    -0.021 A 
HETATM   13  C7  UNL     1      -5.235   0.685  -1.881  1.00  0.00     0.015 A 
HETATM   14  C8  UNL     1      -4.066  -0.155  -2.000  1.00  0.00     0.112 A 
HETATM   15  N2  UNL     1      -3.377  -0.551  -1.012  1.00  0.00    -0.276 NA
ENDBRANCH   8  10
ENDBRANCH   4   8
BRANCH   7  16
HETATM   16  O1  UNL     1       2.603  -2.145   0.623  1.00  0.00    -0.344 OA
BRANCH  16  17
HETATM   17  C12 UNL     1       3.830  -1.605   1.069  1.00  0.00     0.235 C 
BRANCH  17  18
HETATM   18  C13 UNL     1       4.093  -0.372   0.284  1.00  0.00     0.058 A 
HETATM   19  C14 UNL     1       3.466   0.101  -0.875  1.00  0.00     0.029 A 
HETATM   20  C15 UNL     1       3.891   1.281  -1.444  1.00  0.00     0.003 A 
HETATM   21  C16 UNL     1       4.921   2.025  -0.914  1.00  0.00     0.019 A 
HETATM   22  C17 UNL     1       5.494   1.502   0.226  1.00  0.00     0.117 A 
HETATM   23  N3  UNL     1       5.116   0.357   0.819  1.00  0.00    -0.263 NA
ENDBRANCH  17  18
ENDBRANCH  16  17
ENDBRANCH   7  16
TORSDOF 5
