REMARK  7 active torsions:
REMARK  status: ('A' for Active; 'I' for Inactive)
REMARK    1  A    between atoms: C2_2  and  N1_3 
REMARK    2  A    between atoms: C5_7  and  C11_14 
REMARK    3  A    between atoms: C6_8  and  C7_9 
REMARK    4  A    between atoms: C7_9  and  C8_10 
REMARK    5  A    between atoms: C8_10  and  O1_13 
REMARK    6  A    between atoms: C12_16  and  C13_17 
REMARK    7  A    between atoms: C14_21  and  N6_22 
ROOT
HETATM    1  N1  UNL     1       1.517  -0.795  -2.106  1.00  0.00    -0.069 N 
HETATM    2  C3  UNL     1       1.033  -0.941  -0.919  1.00  0.00     0.690 A 
HETATM    3  C4  UNL     1       0.099  -1.054   0.217  1.00  0.00     0.312 A 
HETATM    4  N2  UNL     1       0.896  -1.340   1.611  1.00  0.00     0.026 N 
HETATM    5  C5  UNL     1       1.006  -1.145   0.348  1.00  0.00     0.300 A 
HETATM    6  C6  UNL     1       2.502  -1.129   1.189  1.00  0.00     0.207 A 
HETATM    7  C11 UNL     1       0.562  -0.909  -0.858  1.00  0.00     0.292 A 
HETATM    8  N3  UNL     1      -0.866  -0.473  -1.394  1.00  0.00    -0.244 NA
HETATM    9  C12 UNL     1      -1.567   0.596  -1.278  1.00  0.00     0.101 C 
HETATM   10  C15 UNL     1      -2.324   0.020  -0.107  1.00  0.00     0.114 C 
HETATM   11  C16 UNL     1      -3.532  -0.764  -0.502  1.00  0.00     0.045 C 
HETATM   12  C17 UNL     1      -4.863  -0.205  -0.230  1.00  0.00     0.003 C 
HETATM   13  C18 UNL     1      -4.925   0.465   1.104  1.00  0.00     0.001 C 
HETATM   14  C19 UNL     1      -3.905   1.589   1.068  1.00  0.00     0.007 C 
HETATM   15  C20 UNL     1      -2.520   1.008   0.984  1.00  0.00     0.023 C 
HETATM   16  C21 UNL     1      -2.302   0.307   2.330  1.00  0.00     0.013 C 
HETATM   17  O3  UNL     1      -1.418  -0.995   0.428  1.00  0.00    -0.332 OA
HETATM   18  H7  UNL     1       0.558  -1.509   2.538  1.00  0.00     0.293 HD
ENDROOT
BRANCH   9  19
HETATM   19  C13 UNL     1      -1.936   1.940  -1.674  1.00  0.00     0.156 A 
HETATM   20  N4  UNL     1      -3.120   1.837  -2.301  1.00  0.00    -0.100 NA
HETATM   21  O2  UNL     1      -3.366   3.077  -2.657  1.00  0.00    -0.105 OA
HETATM   22  N5  UNL     1      -2.422   3.854  -2.286  1.00  0.00    -0.091 NA
HETATM   23  C14 UNL     1      -1.438   3.248  -1.641  1.00  0.00     0.164 A 
BRANCH  23  24
HETATM   24  N6  UNL     1      -0.185   3.028  -0.926  1.00  0.00    -0.283 NA
HETATM   25  H15 UNL     1       0.109   3.980  -1.344  1.00  0.00     0.125 HD
HETATM   26  H16 UNL     1       0.442   3.884  -1.135  1.00  0.00     0.125 HD
ENDBRANCH  23  24
ENDBRANCH   9  19
BRANCH   1  27
HETATM   27  C2  UNL     1       2.047  -0.633  -3.422  1.00  0.00     0.218 C 
HETATM   28  C1  UNL     1       1.494  -1.750  -4.273  1.00  0.00     0.033 C 
ENDBRANCH   1  27
BRANCH   6  29
HETATM   29  C7  UNL     1       3.533  -1.099   1.774  1.00  0.00    -0.083 C 
BRANCH  29  30
HETATM   30  C8  UNL     1       4.721  -1.085   2.463  1.00  0.00     0.108 C 
HETATM   31  C9  UNL     1       5.069   0.301   3.012  1.00  0.00     0.059 C 
HETATM   32  C10 UNL     1       5.922  -1.573   1.679  1.00  0.00     0.059 C 
BRANCH  30  33
HETATM   33  O1  UNL     1       4.579  -1.964   3.569  1.00  0.00    -0.379 OA
HETATM   34  H14 UNL     1       4.315  -2.840   3.200  1.00  0.00     0.211 HD
ENDBRANCH  30  33
ENDBRANCH  29  30
ENDBRANCH   6  29
TORSDOF 7
