REMARK  4 active torsions:
REMARK  status: ('A' for Active; 'I' for Inactive)
REMARK    1  A    between atoms: N3_8  and  C6_9 
REMARK    2  A    between atoms: C9_12  and  O1_13 
REMARK    3  A    between atoms: O1_13  and  C10_14 
REMARK    4  A    between atoms: C10_14  and  C11_15 
ROOT
HETATM    1  N1  UNL     1      -4.444  -0.543  -3.202  1.00  0.00    -0.190 NA
HETATM    2  C1  UNL     1      -4.551  -0.056  -2.163  1.00  0.00     0.119 C 
HETATM    3  C2  UNL     1      -4.679   0.564  -0.876  1.00  0.00     0.136 A 
HETATM    4  C3  UNL     1      -5.808   1.161  -0.548  1.00  0.00     0.129 A 
HETATM    5  N2  UNL     1      -5.982   1.796   0.732  1.00  0.00    -0.371 N 
HETATM    6  C4  UNL     1      -4.894   1.768   1.656  1.00  0.00     0.105 A 
HETATM    7  C5  UNL     1      -3.772   1.160   1.297  1.00  0.00     0.115 A 
HETATM    8  N3  UNL     1      -3.576   0.526   0.039  1.00  0.00    -0.315 N 
HETATM    9  H2  UNL     1      -6.917   2.249   0.909  1.00  0.00     0.164 HD
ENDROOT
BRANCH   8  10
HETATM   10  C6  UNL     1      -2.338  -0.108  -0.273  1.00  0.00     0.017 C 
HETATM   11  C7  UNL     1      -1.285   0.669  -0.022  1.00  0.00     0.028 C 
HETATM   12  C8  UNL     1       0.163   0.531  -0.150  1.00  0.00     0.040 C 
HETATM   13  C9  UNL     1       1.005  -0.435  -0.451  1.00  0.00     0.090 C 
HETATM   14  C16 UNL     1       0.749  -1.850  -0.797  1.00  0.00     0.063 C 
HETATM   15 CL1  UNL     1       2.131  -2.581  -1.588  1.00  0.00    -0.082 Cl
HETATM   16  C17 UNL     1      -0.293  -2.673  -0.637  1.00  0.00     0.000 C 
HETATM   17  C18 UNL     1      -1.654  -2.496  -0.031  1.00  0.00     0.035 C 
HETATM   18  C19 UNL     1      -2.489  -1.505  -0.813  1.00  0.00     0.061 C 
BRANCH  13  19
HETATM   19  O1  UNL     1       2.362  -0.217  -0.482  1.00  0.00    -0.344 OA
BRANCH  19  20
HETATM   20  C10 UNL     1       3.092   0.300   0.618  1.00  0.00     0.235 C 
BRANCH  20  21
HETATM   21  C11 UNL     1       4.536   0.442   0.331  1.00  0.00     0.058 A 
HETATM   22  C12 UNL     1       5.164   0.117  -0.871  1.00  0.00     0.029 A 
HETATM   23  C13 UNL     1       6.533   0.297  -1.017  1.00  0.00     0.003 A 
HETATM   24  C14 UNL     1       7.275   0.797   0.028  1.00  0.00     0.019 A 
HETATM   25  C15 UNL     1       6.619   1.107   1.204  1.00  0.00     0.117 A 
HETATM   26  N4  UNL     1       5.272   0.930   1.345  1.00  0.00    -0.263 NA
ENDBRANCH  20  21
ENDBRANCH  19  20
ENDBRANCH  13  19
ENDBRANCH   8  10
TORSDOF 4
