REMARK  4 active torsions:
REMARK  status: ('A' for Active; 'I' for Inactive)
REMARK    1  A    between atoms: C2_2  and  C3_4 
REMARK    2  A    between atoms: C4_5  and  C5_6 
REMARK    3  A    between atoms: C6_7  and  N1_8 
REMARK    4  A    between atoms: N1_8  and  C7_9 
ROOT
HETATM    1  C7  UNL     1       0.081   0.246   0.093  1.00  0.00     0.045 A 
HETATM    2  C8  UNL     1      -0.830  -0.712   0.014  1.00  0.00     0.121 A 
HETATM    3  N2  UNL     1      -2.183  -0.340   0.256  1.00  0.00    -0.319 N 
HETATM    4  C9  UNL     1      -3.056  -1.457   0.141  1.00  0.00     0.136 C 
HETATM    5  C10 UNL     1      -4.236  -1.487   1.050  1.00  0.00     0.062 C 
HETATM    6  C11 UNL     1      -5.192  -0.367   0.761  1.00  0.00    -0.019 A 
HETATM    7  C12 UNL     1      -6.479  -0.120   0.501  1.00  0.00     0.036 A 
HETATM    8  C13 UNL     1      -6.213   1.319   0.401  1.00  0.00     0.069 A 
HETATM    9 CL1  UNL     1      -7.111   2.790   0.086  1.00  0.00    -0.081 Cl
HETATM   10  C14 UNL     1      -4.920   1.063   0.663  1.00  0.00     0.107 A 
HETATM   11  O1  UNL     1      -3.647   1.642   0.835  1.00  0.00    -0.276 OA
HETATM   12  C15 UNL     1      -2.407   1.032   0.559  1.00  0.00     0.249 A 
HETATM   13  N3  UNL     1      -1.530   1.974   0.639  1.00  0.00    -0.244 NA
HETATM   14  C16 UNL     1      -0.132   1.682   0.407  1.00  0.00     0.211 A 
ENDROOT
BRANCH   1  15
HETATM   15  N1  UNL     1       1.440  -0.145  -0.154  1.00  0.00    -0.367 N 
HETATM   16  H7  UNL     1       1.991  -0.414   0.687  1.00  0.00     0.165 HD
BRANCH  15  17
HETATM   17  C6  UNL     1       1.920  -0.136  -1.493  1.00  0.00     0.088 C 
HETATM   18  C5  UNL     1       3.201   0.004  -1.755  1.00  0.00     0.017 C 
BRANCH  18  19
HETATM   19  C4  UNL     1       4.180   0.155  -0.686  1.00  0.00     0.003 C 
HETATM   20  C3  UNL     1       5.477   0.297  -0.935  1.00  0.00     0.018 C 
BRANCH  20  21
HETATM   21  C2  UNL     1       6.506   0.452   0.086  1.00  0.00     0.001 C 
HETATM   22  C1  UNL     1       7.795   0.590  -0.255  1.00  0.00     0.032 C 
HETATM   23 BR1  UNL     1       5.985   0.455   1.919  1.00  0.00    -0.052 Br
ENDBRANCH  20  21
ENDBRANCH  18  19
ENDBRANCH  15  17
ENDBRANCH   1  15
TORSDOF 4
