REMARK  6 active torsions:
REMARK  status: ('A' for Active; 'I' for Inactive)
REMARK    1  A    between atoms: C2_2  and  O1_4 
REMARK    2  A    between atoms: C2_2  and  C4_5 
REMARK    3  A    between atoms: C5_6  and  C6_7 
REMARK    4  A    between atoms: C9_10  and  O2_11 
REMARK    5  A    between atoms: O2_11  and  C10_12 
REMARK    6  A    between atoms: C10_12  and  C11_13 
ROOT
HETATM    1  C6  UNL     1       2.300  -0.051  -1.701  1.00  0.00     0.120 C 
HETATM    2  C7  UNL     1       1.441   0.896  -1.950  1.00  0.00     0.013 C 
HETATM    3  C8  UNL     1       0.257   0.726  -1.436  1.00  0.00     0.025 C 
HETATM    4  C9  UNL     1      -0.217  -0.624  -1.009  1.00  0.00     0.185 C 
HETATM    5  C16 UNL     1       0.574  -1.675  -1.720  1.00  0.00     0.127 C 
HETATM    6  N2  UNL     1       1.803  -1.342  -2.036  1.00  0.00    -0.252 NA
ENDROOT
BRANCH   4   7
HETATM    7  O2  UNL     1      -1.578  -0.730  -1.218  1.00  0.00    -0.376 OA
BRANCH   7   8
HETATM    8  C10 UNL     1      -2.191  -0.871   0.020  1.00  0.00     0.175 C 
BRANCH   8   9
HETATM    9  C11 UNL     1      -3.698  -0.990  -0.204  1.00  0.00     0.038 C 
HETATM   10  C12 UNL     1      -4.472  -1.146   1.043  1.00  0.00     0.010 C 
HETATM   11  C13 UNL     1      -5.293   0.011   1.477  1.00  0.00     0.030 C 
HETATM   12  C14 UNL     1      -5.354   1.162   0.512  1.00  0.00     0.269 C 
HETATM   13  N1  UNL     1      -5.479   0.585  -0.825  1.00  0.00     0.083 N 
HETATM   14  C15 UNL     1      -4.150   0.095  -1.130  1.00  0.00     0.276 C 
HETATM   15  H19 UNL     1      -6.166  -0.197  -0.757  1.00  0.00     0.315 HD
ENDBRANCH   8   9
ENDBRANCH   7   8
ENDBRANCH   4   7
BRANCH   1  16
HETATM   16  C5  UNL     1       3.606   0.187  -1.149  1.00  0.00    -0.043 C 
HETATM   17  C4  UNL     1       4.700   0.370  -0.673  1.00  0.00    -0.062 C 
BRANCH  17  18
HETATM   18  C2  UNL     1       6.032   0.574  -0.101  1.00  0.00     0.114 C 
HETATM   19  C1  UNL     1       6.258   2.062   0.089  1.00  0.00     0.060 C 
HETATM   20  C3  UNL     1       6.173  -0.124   1.245  1.00  0.00     0.060 C 
BRANCH  18  21
HETATM   21  O1  UNL     1       6.962   0.055  -1.016  1.00  0.00    -0.378 OA
HETATM   22  H7  UNL     1       7.281  -0.842  -0.740  1.00  0.00     0.211 HD
ENDBRANCH  18  21
ENDBRANCH  17  18
ENDBRANCH   1  16
TORSDOF 6
