REMARK  8 active torsions:
REMARK  status: ('A' for Active; 'I' for Inactive)
REMARK    1  A    between atoms: C2_2  and  C3_3 
REMARK    2  A    between atoms: C2_2  and  N4_20 
REMARK    3  A    between atoms: C3_3  and  N1_4 
REMARK    4  A    between atoms: N1_4  and  C4_5 
REMARK    5  A    between atoms: C4_5  and  C6_7 
REMARK       I    between atoms: C6_7  and  N2_9 
REMARK    6  A    between atoms: N2_9  and  C7_10 
REMARK    7  A    between atoms: C12_17  and  C13_18 
REMARK    8  A    between atoms: C13_18  and  N3_19 
ROOT
HETATM    1  C6  UNL     1      -1.346   0.007   0.443  1.00  0.00     0.254 C 
HETATM    2  O1  UNL     1      -1.480   1.187  -0.030  1.00  0.00    -0.271 OA
HETATM    3  N2  UNL     1      -2.539  -0.744   0.550  1.00  0.00    -0.335 N 
HETATM    4  H10 UNL     1      -2.366  -1.709   0.945  1.00  0.00     0.168 HD
ENDROOT
BRANCH   1   5
HETATM    5  C4  UNL     1      -0.028  -0.543   0.852  1.00  0.00     0.308 C 
HETATM    6  C5  UNL     1       0.145  -1.886   0.205  1.00  0.00     0.053 C 
BRANCH   5   7
HETATM    7  N1  UNL     1       1.063   0.344   0.653  1.00  0.00     0.102 N 
HETATM    8  H5  UNL     1       1.049   1.157   1.273  1.00  0.00     0.317 HD
BRANCH   7   9
HETATM    9  C3  UNL     1       1.362   0.591  -0.718  1.00  0.00     0.326 C 
BRANCH   9  10
HETATM   10  C2  UNL     1       2.526   1.536  -0.866  1.00  0.00     0.026 C 
HETATM   11  C1  UNL     1       2.316   2.677  -1.507  1.00  0.00     0.039 C 
BRANCH  10  12
HETATM   12  N4  UNL     1       3.786   1.175  -0.322  1.00  0.00    -0.380 N 
HETATM   13  C14 UNL     1       4.957   1.519  -1.119  1.00  0.00     0.153 C 
HETATM   14  C15 UNL     1       6.242   1.058  -0.504  1.00  0.00     0.291 C 
HETATM   15  N5  UNL     1       5.946  -0.191   0.183  1.00  0.00     0.087 N 
HETATM   16  C16 UNL     1       7.108  -0.994   0.430  1.00  0.00     0.310 C 
HETATM   17  C17 UNL     1       5.234   0.190   1.391  1.00  0.00     0.291 C 
HETATM   18  C18 UNL     1       3.805   0.496   0.978  1.00  0.00     0.153 C 
ENDBRANCH  10  12
ENDBRANCH   9  10
ENDBRANCH   7   9
ENDBRANCH   5   7
ENDBRANCH   1   5
BRANCH   3  19
HETATM   19  C7  UNL     1      -3.813  -0.245   0.167  1.00  0.00     0.103 C 
HETATM   20  C8  UNL     1      -4.945  -0.914   0.252  1.00  0.00    -0.010 A 
HETATM   21  C9  UNL     1      -4.882  -2.248   0.771  1.00  0.00     0.014 A 
HETATM   22  C12 UNL     1      -6.183  -0.293  -0.182  1.00  0.00     0.020 A 
HETATM   23  C10 UNL     1      -5.855  -3.088   0.937  1.00  0.00     0.012 A 
HETATM   24  P1  UNL     1      -7.564  -2.566   0.465  1.00  0.00    -0.040 P 
HETATM   25  C11 UNL     1      -7.374  -0.856  -0.157  1.00  0.00     0.129 A 
HETATM   26  H14 UNL     1      -8.474  -2.620   1.596  1.00  0.00     0.069 HD
HETATM   27  F1  UNL     1      -8.509  -0.262  -0.564  1.00  0.00    -0.205 F 
BRANCH  22  28
HETATM   28  C13 UNL     1      -6.195   1.091  -0.711  1.00  0.00     0.309 C 
BRANCH  28  29
HETATM   29  N3  UNL     1      -5.714   1.974   0.335  1.00  0.00     0.082 N 
HETATM   30  H17 UNL     1      -5.964   2.958   0.200  1.00  0.00     0.313 HD
HETATM   31  H18 UNL     1      -5.907   1.590   1.288  1.00  0.00     0.313 HD
ENDBRANCH  28  29
ENDBRANCH  22  28
ENDBRANCH   3  19
TORSDOF 8
