REMARK  3 active torsions:
REMARK  status: ('A' for Active; 'I' for Inactive)
REMARK    1  A    between atoms: C10_12  and  N3_13 
REMARK    2  A    between atoms: C14_19  and  N5_20 
REMARK    3  A    between atoms: C19_26  and  N6_27 
ROOT
HETATM    1  N3  UNL     1      -0.133   0.222   0.376  1.00  0.00    -0.272 NA
HETATM    2  C11 UNL     1       1.149   0.307   0.430  1.00  0.00     0.135 A 
HETATM    3  C12 UNL     1       1.625   1.663   0.678  1.00  0.00     0.272 A 
HETATM    4  O1  UNL     1       0.887   2.670   0.831  1.00  0.00    -0.266 OA
HETATM    5  N4  UNL     1       3.020   1.928   0.762  1.00  0.00    -0.319 N 
HETATM    6  C13 UNL     1       3.976   0.887   0.608  1.00  0.00     0.073 A 
HETATM    7  C14 UNL     1       5.341   1.075   0.676  1.00  0.00     0.053 A 
HETATM    8  C15 UNL     1       6.245   0.040   0.521  1.00  0.00     0.034 A 
HETATM    9  C16 UNL     1       5.747  -1.209   0.292  1.00  0.00     0.045 A 
HETATM   10  C17 UNL     1       4.380  -1.408   0.221  1.00  0.00     0.127 A 
HETATM   11  F1  UNL     1       4.055  -2.723  -0.015  1.00  0.00    -0.205 F 
HETATM   12  C18 UNL     1       3.473  -0.363   0.378  1.00  0.00     0.048 A 
HETATM   13  C19 UNL     1       2.075  -0.846   0.259  1.00  0.00     0.313 A 
HETATM   14  H16 UNL     1       3.397   2.895   0.939  1.00  0.00     0.169 HD
ENDROOT
BRANCH   1  15
HETATM   15  C10 UNL     1      -0.876  -1.002   0.143  1.00  0.00     0.162 C 
HETATM   16  C2  UNL     1      -1.865  -0.819  -0.942  1.00  0.00    -0.031 C 
HETATM   17  C1  UNL     1      -1.277  -1.151  -2.288  1.00  0.00     0.048 C 
HETATM   18  C3  UNL     1      -3.123  -0.434  -0.959  1.00  0.00     0.042 C 
HETATM   19  C4  UNL     1      -4.049  -0.277  -2.108  1.00  0.00     0.331 C 
HETATM   20  N2  UNL     1      -3.847  -0.080   0.213  1.00  0.00    -0.354 N 
HETATM   21  N1  UNL     1      -4.947   0.770  -1.637  1.00  0.00     0.107 N 
HETATM   22  C5  UNL     1      -4.432   2.096  -1.922  1.00  0.00     0.312 C 
HETATM   23  C6  UNL     1      -5.087   0.547  -0.209  1.00  0.00     0.398 C 
HETATM   24  C7  UNL     1      -3.669  -0.181   1.627  1.00  0.00     0.151 C 
HETATM   25  C8  UNL     1      -2.599  -1.069   2.078  1.00  0.00    -0.009 C 
HETATM   26  C9  UNL     1      -1.474  -1.382   1.449  1.00  0.00     0.002 C 
ENDBRANCH   1  15
BRANCH  13  27
HETATM   27  N6  UNL     1       1.800  -1.874   1.241  1.00  0.00     0.093 N 
HETATM   28  H22 UNL     1       2.406  -1.760   2.077  1.00  0.00     0.314 HD
HETATM   29  H23 UNL     1       1.783  -2.831   0.857  1.00  0.00     0.314 HD
ENDBRANCH  13  27
BRANCH   7  30
HETATM   30  N5  UNL     1       5.806   2.381   0.915  1.00  0.00    -0.397 N 
HETATM   31  H17 UNL     1       5.939   3.254   0.329  1.00  0.00     0.156 HD
HETATM   32  H18 UNL     1       6.145   2.772   1.826  1.00  0.00     0.156 HD
ENDBRANCH   7  30
TORSDOF 3
