REMARK  4 active torsions:
REMARK  status: ('A' for Active; 'I' for Inactive)
REMARK    1  A    between atoms: C2_2  and  C3_3 
REMARK    2  A    between atoms: C3_3  and  C4_4 
REMARK    3  A    between atoms: C4_4  and  N1_5 
REMARK    4  A    between atoms: C13_18  and  C14_19 
ROOT
HETATM    1  C14 UNL     1       0.006  -0.945   1.709  1.00  0.00     0.149 C 
HETATM    2  C15 UNL     1      -0.501  -1.757   2.793  1.00  0.00     0.061 C 
HETATM    3  N6  UNL     1      -0.896  -2.427   3.665  1.00  0.00    -0.197 NA
ENDROOT
BRANCH   1   4
HETATM    4  C13 UNL     1      -0.590  -1.006   0.360  1.00  0.00     0.104 C 
HETATM    5  N1  UNL     1       0.326  -0.086  -0.357  1.00  0.00    -0.390 N 
HETATM    6  C5  UNL     1       0.244   1.260  -0.299  1.00  0.00     0.260 C 
HETATM    7  N2  UNL     1      -0.856   2.113  -0.189  1.00  0.00    -0.297 N 
HETATM    8  N3  UNL     1      -1.909   2.625   0.489  1.00  0.00    -0.195 NA
HETATM    9  H12 UNL     1      -0.987   2.707  -1.075  1.00  0.00     0.184 HD
HETATM   10  C6  UNL     1      -3.123   2.546   0.115  1.00  0.00     0.114 C 
HETATM   11  C7  UNL     1      -3.447   1.834  -1.175  1.00  0.00     0.097 C 
HETATM   12  C8  UNL     1      -3.286   0.357  -0.967  1.00  0.00     0.254 C 
HETATM   13  N4  UNL     1      -3.238  -0.949  -1.450  1.00  0.00     0.358 N 
HETATM   14  C11 UNL     1      -3.041  -0.018   0.491  1.00  0.00     0.048 A 
HETATM   15  C9  UNL     1      -2.988  -1.764  -0.219  1.00  0.00     0.352 C 
HETATM   16  N5  UNL     1      -2.436  -2.042   0.978  1.00  0.00    -0.276 NA
HETATM   17  C12 UNL     1      -1.880  -0.728  -0.122  1.00  0.00     0.105 A 
HETATM   18  C10 UNL     1      -2.513  -0.602   1.546  1.00  0.00     0.129 A 
BRANCH   5  19
HETATM   19  C4  UNL     1       1.674  -0.639  -0.350  1.00  0.00     0.119 C 
BRANCH  19  20
HETATM   20  C3  UNL     1       2.430  -0.347  -1.618  1.00  0.00     0.019 C 
BRANCH  20  21
HETATM   21  C2  UNL     1       3.810  -0.981  -1.480  1.00  0.00    -0.003 C 
HETATM   22  C1  UNL     1       4.575  -0.416  -0.305  1.00  0.00     0.005 C 
ENDBRANCH  20  21
ENDBRANCH  19  20
ENDBRANCH   5  19
ENDBRANCH   1   4
TORSDOF 4
