REMARK  0 active torsions:
REMARK  status: ('A' for Active; 'I' for Inactive)
ROOT
HETATM    1  C1  UNL     1      -1.354  -2.047   2.145  1.00  0.00     0.311 C 
HETATM    2  N1  UNL     1      -1.295  -1.461   0.792  1.00  0.00     0.101 N 
HETATM    3  C2  UNL     1      -2.628  -1.806   0.237  1.00  0.00     0.329 C 
HETATM    4  C3  UNL     1      -2.957  -0.593  -0.561  1.00  0.00     0.036 C 
HETATM    5  C4  UNL     1      -2.918  -0.274  -1.901  1.00  0.00     0.029 C 
HETATM    6  C5  UNL     1      -2.034   0.802  -2.534  1.00  0.00     0.033 C 
HETATM    7  C6  UNL     1      -1.770   1.834  -1.647  1.00  0.00     0.057 C 
HETATM    8  C7  UNL     1      -2.662   2.993  -1.310  1.00  0.00     0.029 C 
HETATM    9  C8  UNL     1      -3.730   2.844  -0.473  1.00  0.00    -0.005 C 
HETATM   10  C9  UNL     1      -4.368   1.705   0.330  1.00  0.00     0.150 C 
HETATM   11  N2  UNL     1      -3.386   0.595   0.177  1.00  0.00    -0.377 N 
HETATM   12  C10 UNL     1      -2.335   0.727   1.156  1.00  0.00     0.165 C 
HETATM   13  C11 UNL     1      -1.072  -0.051   0.841  1.00  0.00     0.291 C 
HETATM   14  C12 UNL     1      -0.272   0.545  -0.243  1.00  0.00     0.070 C 
HETATM   15  C13 UNL     1       1.143   0.401  -0.441  1.00  0.00    -0.008 C 
HETATM   16  B1  UNL     1       2.145   1.170  -1.792  1.00  0.00     0.235 B 
HETATM   17  C14 UNL     1       3.896   0.203  -1.378  1.00  0.00    -0.066 C 
HETATM   18  C15 UNL     1       5.059   0.760  -1.181  1.00  0.00     0.109 C 
HETATM   19  F1  UNL     1       4.898   1.717  -2.078  1.00  0.00    -0.207 F 
HETATM   20  C16 UNL     1       5.835   0.114  -0.127  1.00  0.00     0.039 C 
HETATM   21  C17 UNL     1       5.461  -0.804   0.802  1.00  0.00    -0.004 C 
HETATM   22  C18 UNL     1       4.154  -1.502   1.150  1.00  0.00     0.153 C 
HETATM   23  N3  UNL     1       3.067  -1.084   0.319  1.00  0.00    -0.343 N 
HETATM   24  C19 UNL     1       3.340  -1.230  -1.168  1.00  0.00     0.151 C 
HETATM   25  C20 UNL     1       1.811  -0.450   0.579  1.00  0.00     0.241 C 
HETATM   26  O1  UNL     1       1.531  -0.787   1.724  1.00  0.00    -0.269 OA
HETATM   27  N4  UNL     1      -0.515   1.315  -1.270  1.00  0.00    -0.252 NA
ENDROOT
TORSDOF 0
