REMARK  3 active torsions:
REMARK  status: ('A' for Active; 'I' for Inactive)
REMARK    1  A    between atoms: N4_10  and  C7_11 
REMARK    2  A    between atoms: C7_11  and  C8_12 
REMARK    3  A    between atoms: C7_11  and  C10_15 
ROOT
HETATM    1  C8  UNL     1       0.122  -1.987  -0.226  1.00  0.00     0.151 C 
HETATM    2  C9  UNL     1      -0.462  -2.820  -1.226  1.00  0.00     0.061 C 
HETATM    3  N5  UNL     1      -0.923  -3.511  -2.034  1.00  0.00    -0.197 NA
ENDROOT
BRANCH   1   4
HETATM    4  C7  UNL     1      -0.313  -0.556  -0.262  1.00  0.00     0.127 C 
BRANCH   4   5
HETATM    5  N4  UNL     1       0.414   0.112   0.845  1.00  0.00    -0.266 N 
HETATM    6  N3  UNL     1       0.043   0.566   2.020  1.00  0.00    -0.183 NA
HETATM    7  C6  UNL     1       1.078   1.110   2.697  1.00  0.00     0.153 A 
HETATM    8  C5  UNL     1       2.204   0.980   1.853  1.00  0.00     0.026 A 
HETATM    9  C4  UNL     1       3.442   1.676   2.190  1.00  0.00     0.133 C 
HETATM   10  C15 UNL     1       1.725   0.350   0.730  1.00  0.00     0.061 A 
HETATM   11  N2  UNL     1       4.295   1.741   1.175  1.00  0.00    -0.243 NA
HETATM   12  C3  UNL     1       3.847   1.151  -0.072  1.00  0.00     0.141 A 
HETATM   13  N1  UNL     1       3.863   1.027  -1.356  1.00  0.00    -0.236 NA
HETATM   14  C16 UNL     1       2.888   0.043  -0.100  1.00  0.00     0.161 A 
HETATM   15  C2  UNL     1       2.872   0.022  -1.538  1.00  0.00     0.044 A 
HETATM   16  C1  UNL     1       2.744  -0.113  -2.850  1.00  0.00     0.041 C 
ENDBRANCH   4   5
BRANCH   4  17
HETATM   17  C10 UNL     1      -1.766  -0.378  -0.002  1.00  0.00     0.011 C 
HETATM   18  C11 UNL     1      -2.702  -0.951  -1.007  1.00  0.00     0.007 C 
HETATM   19  C12 UNL     1      -3.885   0.005  -1.150  1.00  0.00     0.000 C 
HETATM   20  C13 UNL     1      -3.732   0.931  -0.004  1.00  0.00     0.000 C 
HETATM   21  C14 UNL     1      -2.202   1.068   0.104  1.00  0.00     0.007 C 
ENDBRANCH   4  17
ENDBRANCH   1   4
TORSDOF 3
