REMARK  4 active torsions:
REMARK  status: ('A' for Active; 'I' for Inactive)
REMARK    1  A    between atoms: C2_2  and  C3_3 
REMARK    2  A    between atoms: C3_3  and  C4_4 
REMARK    3  A    between atoms: C21_27  and  C22_28 
REMARK    4  A    between atoms: C22_28  and  N4_29 
ROOT
HETATM    1  C4  UNL     1       1.685  -2.634   1.132  1.00  0.00     0.098 A 
HETATM    2  O1  UNL     1       0.456  -3.169   0.800  1.00  0.00    -0.239 OA
HETATM    3  N1  UNL     1       0.053  -2.727  -0.418  1.00  0.00    -0.261 N 
HETATM    4  C5  UNL     1       1.052  -1.871  -0.907  1.00  0.00     0.132 A 
HETATM    5  C6  UNL     1       2.015  -1.784  -0.039  1.00  0.00     0.031 A 
HETATM    6  C7  UNL     1       3.220  -0.934  -0.172  1.00  0.00     0.063 A 
HETATM    7  C8  UNL     1       3.142   0.368  -0.144  1.00  0.00     0.061 A 
HETATM    8  C9  UNL     1       4.532   0.847  -0.297  1.00  0.00     0.260 A 
HETATM    9  O2  UNL     1       4.941   2.054  -0.324  1.00  0.00    -0.267 OA
HETATM   10  N2  UNL     1       5.384  -0.283  -0.412  1.00  0.00    -0.289 N 
HETATM   11  C10 UNL     1       4.576  -1.466  -0.335  1.00  0.00     0.260 A 
HETATM   12  O3  UNL     1       4.891  -2.676  -0.388  1.00  0.00    -0.267 OA
HETATM   13  C11 UNL     1       1.871   1.058  -0.001  1.00  0.00     0.009 A 
HETATM   14  C12 UNL     1       0.832   0.765   0.813  1.00  0.00     0.104 A 
HETATM   15  N3  UNL     1      -0.171   1.614   0.659  1.00  0.00    -0.355 N 
HETATM   16  C13 UNL     1       0.255   2.500  -0.307  1.00  0.00     0.045 A 
HETATM   17  C14 UNL     1      -0.360   3.612  -0.892  1.00  0.00     0.030 A 
HETATM   18  C15 UNL     1       0.223   4.399  -1.866  1.00  0.00     0.002 A 
HETATM   19  C16 UNL     1       1.478   4.068  -2.282  1.00  0.00     0.001 A 
HETATM   20  C17 UNL     1       2.083   2.956  -1.693  1.00  0.00     0.014 A 
HETATM   21  C18 UNL     1       1.503   2.171  -0.720  1.00  0.00     0.003 A 
HETATM   22  C19 UNL     1      -1.457   1.643   1.282  1.00  0.00     0.131 C 
HETATM   23  C20 UNL     1      -2.132   0.299   1.434  1.00  0.00     0.054 C 
HETATM   24  C21 UNL     1      -2.156  -0.401   0.029  1.00  0.00     0.151 C 
HETATM   25  O4  UNL     1      -2.740  -1.564   0.146  1.00  0.00    -0.382 OA
HETATM   26  C25 UNL     1      -2.323  -2.799   0.227  1.00  0.00     0.190 C 
HETATM   27  C26 UNL     1      -1.240  -3.331  -0.688  1.00  0.00     0.182 C 
HETATM   28  H6  UNL     1       6.428  -0.285  -0.536  1.00  0.00     0.172 HD
ENDROOT
BRANCH  24  29
HETATM   29  C22 UNL     1      -2.861   0.556  -0.931  1.00  0.00     0.303 C 
BRANCH  29  30
HETATM   30  N4  UNL     1      -4.205   0.844  -0.531  1.00  0.00     0.082 N 
HETATM   31  C23 UNL     1      -5.069  -0.290  -0.655  1.00  0.00     0.309 C 
HETATM   32  C24 UNL     1      -4.717   1.917  -1.356  1.00  0.00     0.309 C 
ENDBRANCH  29  30
ENDBRANCH  24  29
BRANCH   1  33
HETATM   33  C3  UNL     1       2.539  -2.662   2.078  1.00  0.00     0.082 C 
BRANCH  33  34
HETATM   34  C2  UNL     1       3.343  -2.815   3.197  1.00  0.00    -0.024 C 
HETATM   35  C1  UNL     1       4.502  -2.140   3.192  1.00  0.00     0.008 C 
ENDBRANCH  33  34
ENDBRANCH   1  33
TORSDOF 4
