REMARK  8 active torsions:
REMARK  status: ('A' for Active; 'I' for Inactive)
REMARK    1  A    between atoms: C2_2  and  N1_3 
REMARK    2  A    between atoms: N1_3  and  C4_5 
REMARK    3  A    between atoms: C4_5  and  C5_6 
REMARK    4  A    between atoms: C4_5  and  O1_16 
REMARK    5  A    between atoms: C5_6  and  C6_7 
REMARK    6  A    between atoms: O1_16  and  C14_17 
REMARK    7  A    between atoms: C14_17  and  C15_18 
REMARK    8  A    between atoms: C15_18  and  N3_19 
ROOT
HETATM    1  C4  UNL     1       1.076  -1.509  -0.124  1.00  0.00     0.360 C 
ENDROOT
BRANCH   1   2
HETATM    2  N1  UNL     1       1.028  -2.551   0.855  1.00  0.00     0.112 N 
HETATM    3  C3  UNL     1       0.885  -3.869   0.269  1.00  0.00     0.313 C 
BRANCH   2   4
HETATM    4  C2  UNL     1      -0.034  -2.274   1.801  1.00  0.00     0.270 C 
HETATM    5  C1  UNL     1       0.099  -3.173   3.008  1.00  0.00     0.037 C 
ENDBRANCH   2   4
ENDBRANCH   1   2
BRANCH   1   6
HETATM    6  C5  UNL     1       2.180  -1.633  -1.125  1.00  0.00     0.094 C 
BRANCH   6   7
HETATM    7  C6  UNL     1       3.510  -1.631  -0.470  1.00  0.00     0.119 A 
HETATM    8  N2  UNL     1       4.512  -1.770  -1.560  1.00  0.00    -0.389 N 
HETATM    9  C7  UNL     1       5.426  -0.704  -1.630  1.00  0.00     0.095 A 
HETATM   10  H13 UNL     1       4.392  -2.655  -2.133  1.00  0.00     0.159 HD
HETATM   11  C8  UNL     1       5.106   0.132  -0.674  1.00  0.00    -0.013 A 
HETATM   12  C9  UNL     1       5.822   1.351  -0.430  1.00  0.00     0.009 A 
HETATM   13  C13 UNL     1       3.943  -0.352   0.099  1.00  0.00    -0.027 A 
HETATM   14  C10 UNL     1       5.454   2.162   0.567  1.00  0.00    -0.022 A 
HETATM   15  C11 UNL     1       4.301   1.841   1.458  1.00  0.00     0.055 A 
HETATM   16  C12 UNL     1       3.687   0.545   1.058  1.00  0.00    -0.013 A 
ENDBRANCH   6   7
ENDBRANCH   1   6
BRANCH   1  17
HETATM   17  O1  UNL     1      -0.177  -1.377  -0.793  1.00  0.00    -0.355 OA
BRANCH  17  18
HETATM   18  C14 UNL     1      -0.677  -0.125  -0.527  1.00  0.00     0.190 C 
BRANCH  18  19
HETATM   19  C15 UNL     1      -2.027   0.017  -1.241  1.00  0.00     0.149 C 
BRANCH  19  20
HETATM   20  N3  UNL     1      -2.661   1.275  -1.036  1.00  0.00    -0.378 N 
HETATM   21  C16 UNL     1      -2.167   2.536  -1.571  1.00  0.00     0.123 C 
HETATM   22  C17 UNL     1      -3.227   3.558  -1.787  1.00  0.00     0.024 C 
HETATM   23  C18 UNL     1      -4.636   3.039  -1.701  1.00  0.00     0.042 C 
HETATM   24  C19 UNL     1      -4.906   2.198  -0.524  1.00  0.00    -0.032 A 
HETATM   25  C20 UNL     1      -6.023   2.168   0.298  1.00  0.00     0.009 A 
HETATM   26  C24 UNL     1      -3.872   1.310  -0.246  1.00  0.00     0.036 A 
HETATM   27  C21 UNL     1      -6.068   1.273   1.344  1.00  0.00     0.001 A 
HETATM   28  C22 UNL     1      -5.063   0.380   1.648  1.00  0.00     0.002 A 
HETATM   29  C23 UNL     1      -3.944   0.421   0.813  1.00  0.00     0.030 A 
ENDBRANCH  19  20
ENDBRANCH  18  19
ENDBRANCH  17  18
ENDBRANCH   1  17
TORSDOF 8
