REMARK  12 active torsions:
REMARK  status: ('A' for Active; 'I' for Inactive)
REMARK    1  A    between atoms: O1_2  and  C2_3 
REMARK    2  A    between atoms: C2_3  and  C3_4 
REMARK    3  A    between atoms: C3_4  and  O2_5 
REMARK    4  A    between atoms: O2_5  and  C4_6 
REMARK    5  A    between atoms: C9_11  and  O3_12 
REMARK    6  A    between atoms: O3_12  and  C10_13 
REMARK    7  A    between atoms: C10_13  and  C11_14 
REMARK    8  A    between atoms: C11_14  and  O4_15 
REMARK    9  A    between atoms: C13_17  and  N1_18 
REMARK   10  A    between atoms: N1_18  and  C14_19 
REMARK   11  A    between atoms: C18_23  and  C19_24 
REMARK   12  A    between atoms: C19_24  and  O5_25 
ROOT
HETATM    1  C4  UNL     1      -2.021   0.174  -0.354  1.00  0.00     0.104 A 
HETATM    2  C5  UNL     1      -2.070  -1.018   0.550  1.00  0.00     0.071 A 
HETATM    3  C6  UNL     1      -1.081  -1.884   1.004  1.00  0.00     0.063 A 
HETATM    4  C7  UNL     1       0.082  -1.477   0.483  1.00  0.00    -0.002 A 
HETATM    5  C8  UNL     1       0.497  -0.385  -0.402  1.00  0.00     0.051 A 
HETATM    6  C9  UNL     1      -0.654   0.262  -0.672  1.00  0.00     0.102 A 
HETATM    7  C13 UNL     1       1.356  -2.332   0.618  1.00  0.00     0.144 A 
HETATM    8  C21 UNL     1       0.557  -3.380   1.418  1.00  0.00     0.163 A 
HETATM    9  N2  UNL     1      -0.798  -3.106   1.634  1.00  0.00    -0.279 NA
ENDROOT
BRANCH   7  10
HETATM   10  N1  UNL     1       2.345  -1.702   1.456  1.00  0.00    -0.379 N 
HETATM   11  H18 UNL     1       1.308  -1.137   1.803  1.00  0.00     0.160 HD
BRANCH  10  12
HETATM   12  C14 UNL     1       3.449  -1.178   2.146  1.00  0.00     0.029 A 
HETATM   13  C15 UNL     1       2.906  -0.778   3.465  1.00  0.00     0.029 A 
HETATM   14  C16 UNL     1       4.015  -0.431   4.265  1.00  0.00     0.003 A 
HETATM   15  C17 UNL     1       5.287  -0.414   4.028  1.00  0.00     0.009 A 
HETATM   16  C18 UNL     1       5.587  -0.811   2.764  1.00  0.00    -0.033 A 
HETATM   17  C20 UNL     1       4.849  -1.216   1.710  1.00  0.00     0.038 A 
BRANCH  16  18
HETATM   18  C19 UNL     1       7.066  -0.904   2.383  1.00  0.00     0.203 C 
BRANCH  18  19
HETATM   19  O5  UNL     1       7.364   0.187   1.640  1.00  0.00    -0.396 OA
HETATM   20  H24 UNL     1       7.988  -0.041   0.866  1.00  0.00     0.209 HD
ENDBRANCH  18  19
ENDBRANCH  16  18
ENDBRANCH  10  12
ENDBRANCH   7  10
BRANCH   6  21
HETATM   21  O3  UNL     1      -0.925   1.339  -1.512  1.00  0.00    -0.346 OA
BRANCH  21  22
HETATM   22  C10 UNL     1      -0.018   1.748  -2.524  1.00  0.00     0.201 C 
BRANCH  22  23
HETATM   23  C11 UNL     1      -0.620   3.151  -2.920  1.00  0.00     0.193 C 
BRANCH  23  24
HETATM   24  O4  UNL     1      -1.926   3.099  -3.172  1.00  0.00    -0.394 OA
HETATM   25  C12 UNL     1      -2.416   4.412  -3.410  1.00  0.00     0.201 C 
ENDBRANCH  23  24
ENDBRANCH  22  23
ENDBRANCH  21  22
ENDBRANCH   6  21
BRANCH   1  26
HETATM   26  O2  UNL     1      -3.206   0.801  -0.645  1.00  0.00    -0.346 OA
BRANCH  26  27
HETATM   27  C3  UNL     1      -4.381   0.062  -0.264  1.00  0.00     0.201 C 
BRANCH  27  28
HETATM   28  C2  UNL     1      -5.614   0.725  -0.694  1.00  0.00     0.193 C 
BRANCH  28  29
HETATM   29  O1  UNL     1      -6.779  -0.059  -0.358  1.00  0.00    -0.394 OA
HETATM   30  C1  UNL     1      -6.706  -1.199  -1.220  1.00  0.00     0.201 C 
ENDBRANCH  28  29
ENDBRANCH  27  28
ENDBRANCH  26  27
ENDBRANCH   1  26
TORSDOF 12
