REMARK  5 active torsions:
REMARK  status: ('A' for Active; 'I' for Inactive)
REMARK    1  A    between atoms: C9_9  and  N1_10 
REMARK    2  A    between atoms: C18_22  and  O3_23 
REMARK    3  A    between atoms: O3_23  and  C19_24 
REMARK    4  A    between atoms: C19_24  and  C20_25 
REMARK    5  A    between atoms: C20_25  and  O4_26 
ROOT
HETATM    1  C1  UNL     1      -6.421   0.751   1.573  1.00  0.00     0.018 C 
HETATM    2  C2  UNL     1      -5.394   1.324   1.311  1.00  0.00    -0.077 C 
HETATM    3  C3  UNL     1      -4.168   2.003   1.003  1.00  0.00     0.031 A 
HETATM    4  C4  UNL     1      -3.862   3.277   1.411  1.00  0.00     0.022 A 
HETATM    5  C5  UNL     1      -2.724   3.979   1.156  1.00  0.00     0.003 A 
HETATM    6  C6  UNL     1      -1.786   3.277   0.385  1.00  0.00     0.025 A 
HETATM    7  C7  UNL     1      -2.059   1.991  -0.043  1.00  0.00     0.028 A 
HETATM    8  C8  UNL     1      -3.255   1.322   0.254  1.00  0.00     0.030 A 
HETATM    9  C9  UNL     1      -3.389  -0.031  -0.268  1.00  0.00     0.037 C 
HETATM   10  C10 UNL     1      -2.713  -1.060   0.269  1.00  0.00     0.029 C 
HETATM   11  C11 UNL     1      -2.820  -2.486  -0.251  1.00  0.00     0.197 C 
HETATM   12  O1  UNL     1      -1.534  -2.850  -0.662  1.00  0.00    -0.385 OA
HETATM   13  C12 UNL     1      -0.616  -2.913   0.369  1.00  0.00     0.194 C 
HETATM   14  C13 UNL     1       0.768  -2.803  -0.422  1.00  0.00     0.195 C 
HETATM   15  O2  UNL     1       0.684  -1.607  -1.045  1.00  0.00    -0.376 OA
HETATM   16  C14 UNL     1       1.655  -1.120  -1.801  1.00  0.00     0.195 C 
HETATM   17  C15 UNL     1       1.102  -0.428  -3.061  1.00  0.00     0.012 C 
HETATM   18  C16 UNL     1      -0.024   0.104  -2.541  1.00  0.00     0.043 C 
HETATM   19  C17 UNL     1       0.175   1.002  -1.374  1.00  0.00     0.104 C 
HETATM   20  N2  UNL     1       1.418   1.144  -1.030  1.00  0.00    -0.243 NA
HETATM   21  C18 UNL     1       2.369   0.061  -1.101  1.00  0.00     0.278 C 
HETATM   22  N3  UNL     1      -0.945   1.562  -0.781  1.00  0.00    -0.243 NA
HETATM   23  H25 UNL     1      -0.798   0.789  -0.060  1.00  0.00     0.135 HD
ENDROOT
BRANCH   9  24
HETATM   24  N1  UNL     1      -4.263  -0.271  -1.382  1.00  0.00    -0.399 N 
HETATM   25  H5  UNL     1      -3.763   0.153  -2.202  1.00  0.00     0.156 HD
HETATM   26  H6  UNL     1      -5.140  -0.640  -1.850  1.00  0.00     0.156 HD
ENDBRANCH   9  24
BRANCH  21  27
HETATM   27  O3  UNL     1       2.900  -0.304   0.110  1.00  0.00    -0.360 OA
BRANCH  27  28
HETATM   28  C19 UNL     1       4.314  -0.166  -0.025  1.00  0.00     0.197 C 
BRANCH  28  29
HETATM   29  C20 UNL     1       5.010  -0.536   1.234  1.00  0.00     0.193 C 
BRANCH  29  30
HETATM   30  O4  UNL     1       6.375  -0.423   1.135  1.00  0.00    -0.394 OA
HETATM   31  C21 UNL     1       6.735   0.880   0.850  1.00  0.00     0.201 C 
ENDBRANCH  29  30
ENDBRANCH  28  29
ENDBRANCH  27  28
ENDBRANCH  21  27
TORSDOF 5
