REMARK  6 active torsions:
REMARK  status: ('A' for Active; 'I' for Inactive)
REMARK    1  A    between atoms: N1_2  and  C2_3 
REMARK    2  A    between atoms: C2_3  and  C3_4 
REMARK    3  A    between atoms: C3_4  and  C4_5 
REMARK    4  A    between atoms: C4_5  and  N2_6 
REMARK    5  A    between atoms: C11_13  and  C12_14 
REMARK    6  A    between atoms: C14_17  and  C16_19 
ROOT
HETATM    1  N2  UNL     1      -0.075   0.656  -0.188  1.00  0.00    -0.363 N 
HETATM    2  C5  UNL     1      -0.321   2.034   0.119  1.00  0.00     0.042 A 
HETATM    3  C6  UNL     1       0.613   2.925   0.546  1.00  0.00     0.030 A 
HETATM    4  C7  UNL     1       0.355   4.246   0.836  1.00  0.00     0.002 A 
HETATM    5  C8  UNL     1      -0.926   4.740   0.698  1.00  0.00     0.001 A 
HETATM    6  C9  UNL     1      -1.903   3.872   0.268  1.00  0.00     0.014 A 
HETATM    7  C10 UNL     1      -1.589   2.567  -0.007  1.00  0.00     0.004 A 
HETATM    8  C11 UNL     1      -2.689   1.742  -0.463  1.00  0.00     0.013 A 
HETATM    9  C13 UNL     1      -2.413   0.499  -0.754  1.00  0.00     0.024 A 
HETATM   10  C14 UNL     1      -1.110  -0.239  -0.701  1.00  0.00     0.075 A 
HETATM   11  C15 UNL     1      -0.789  -0.548  -2.159  1.00  0.00     0.048 C 
ENDROOT
BRANCH  10  12
HETATM   12  C16 UNL     1      -1.208  -1.468   0.080  1.00  0.00    -0.026 A 
HETATM   13  C17 UNL     1      -0.773  -2.767  -0.034  1.00  0.00     0.010 A 
HETATM   14  C18 UNL     1      -1.040  -3.742   0.894  1.00  0.00     0.001 A 
HETATM   15  C19 UNL     1      -1.778  -3.477   2.028  1.00  0.00     0.000 A 
HETATM   16  C20 UNL     1      -2.246  -2.178   2.199  1.00  0.00     0.001 A 
HETATM   17  C21 UNL     1      -1.954  -1.209   1.231  1.00  0.00     0.010 A 
ENDBRANCH  10  12
BRANCH   1  18
HETATM   18  C4  UNL     1       1.264   0.189   0.078  1.00  0.00     0.126 C 
BRANCH  18  19
HETATM   19  C3  UNL     1       2.085  -0.178  -1.108  1.00  0.00     0.050 C 
BRANCH  19  20
HETATM   20  C2  UNL     1       3.490  -0.627  -0.734  1.00  0.00     0.270 C 
BRANCH  20  21
HETATM   21  N1  UNL     1       3.426  -1.798   0.137  1.00  0.00     0.079 N 
HETATM   22  C1  UNL     1       4.753  -2.226   0.493  1.00  0.00     0.306 C 
HETATM   23  H4  UNL     1       2.941  -2.602  -0.329  1.00  0.00     0.315 HD
ENDBRANCH  20  21
ENDBRANCH  19  20
ENDBRANCH  18  19
ENDBRANCH   1  18
BRANCH   8  24
HETATM   24  C12 UNL     1      -4.064   2.103  -0.645  1.00  0.00     0.270 C 
HETATM   25  O1  UNL     1      -4.784   3.112  -0.511  1.00  0.00    -0.301 OA
ENDBRANCH   8  24
TORSDOF 6
