REMARK  5 active torsions:
REMARK  status: ('A' for Active; 'I' for Inactive)
REMARK    1  A    between atoms: O1_2  and  C2_3 
REMARK    2  A    between atoms: C7_8  and  O2_9 
REMARK    3  A    between atoms: C9_11  and  C10_12 
REMARK    4  A    between atoms: C11_13  and  N1_14 
REMARK    5  A    between atoms: N1_14  and  C12_15 
ROOT
HETATM    1  C2  UNL     1      -3.968  -0.665   0.298  1.00  0.00     0.102 A 
HETATM    2  C3  UNL     1      -3.334  -1.658   0.999  1.00  0.00     0.050 A 
HETATM    3  C4  UNL     1      -2.050  -1.549   1.467  1.00  0.00    -0.042 A 
HETATM    4  C5  UNL     1      -1.369  -0.416   1.233  1.00  0.00    -0.048 A 
HETATM    5  C6  UNL     1      -1.991   0.596   0.529  1.00  0.00     0.047 A 
HETATM    6  C7  UNL     1      -3.280   0.509   0.048  1.00  0.00     0.102 A 
HETATM    7  C9  UNL     1       0.023  -0.192   1.694  1.00  0.00    -0.001 A 
HETATM    8  B1  UNL     1       0.461  -1.603   2.502  1.00  0.00     0.185 B 
HETATM    9  C18 UNL     1      -1.439  -2.640   2.202  1.00  0.00    -0.075 A 
ENDROOT
BRANCH   7  10
HETATM   10  C10 UNL     1       0.953   0.046   0.562  1.00  0.00    -0.011 C 
HETATM   11  C11 UNL     1       1.709   1.012   0.023  1.00  0.00     0.084 C 
BRANCH  11  12
HETATM   12  N1  UNL     1       2.562   0.980  -1.137  1.00  0.00    -0.366 N 
HETATM   13  H12 UNL     1       2.080   1.253  -2.017  1.00  0.00     0.165 HD
BRANCH  12  14
HETATM   14  C12 UNL     1       3.926   0.594  -0.963  1.00  0.00     0.034 A 
HETATM   15  C13 UNL     1       4.431  -0.681  -1.039  1.00  0.00     0.029 A 
HETATM   16  C14 UNL     1       5.760  -0.943  -0.854  1.00  0.00     0.005 A 
HETATM   17  C15 UNL     1       6.667   0.080  -0.581  1.00  0.00     0.042 A 
HETATM   18  C16 UNL     1       6.138   1.354  -0.509  1.00  0.00     0.118 A 
HETATM   19  F1  UNL     1       7.022   2.342  -0.243  1.00  0.00    -0.206 F 
HETATM   20  C17 UNL     1       4.799   1.635  -0.692  1.00  0.00     0.071 A 
ENDBRANCH  12  14
ENDBRANCH  11  12
ENDBRANCH   7  10
BRANCH   6  21
HETATM   21  O2  UNL     1      -3.935   1.524  -0.671  1.00  0.00    -0.353 OA
HETATM   22  C8  UNL     1      -3.336   2.745  -0.978  1.00  0.00     0.210 C 
ENDBRANCH   6  21
BRANCH   1  23
HETATM   23  O1  UNL     1      -5.288  -0.798  -0.175  1.00  0.00    -0.353 OA
HETATM   24  C1  UNL     1      -5.984  -2.002   0.085  1.00  0.00     0.210 C 
ENDBRANCH   1  23
TORSDOF 5
