REMARK  2 active torsions:
REMARK  status: ('A' for Active; 'I' for Inactive)
REMARK    1  A    between atoms: N1_12  and  C12_13 
REMARK    2  A    between atoms: C20_21  and  N2_22 
ROOT
HETATM    1  C1  UNL     1       7.116  -1.549  -0.413  1.00  0.00     0.046 C 
HETATM    2  C2  UNL     1       6.060  -0.498  -0.458  1.00  0.00    -0.042 A 
HETATM    3  C3  UNL     1       4.772  -0.769  -0.748  1.00  0.00     0.244 A 
HETATM    4  C4  UNL     1       4.637   0.618  -0.558  1.00  0.00     0.245 A 
HETATM    5  C5  UNL     1       5.923   0.955  -0.259  1.00  0.00     0.027 A 
HETATM    6  C6  UNL     1       3.360   1.259  -0.701  1.00  0.00     0.158 A 
HETATM    7  C7  UNL     1       2.183   1.891  -0.736  1.00  0.00     0.014 C 
HETATM    8  C8  UNL     1       1.807   2.589   0.486  1.00  0.00     0.074 C 
HETATM    9  C9  UNL     1       0.449   3.160   0.438  1.00  0.00     0.027 A 
HETATM   10  C10 UNL     1      -0.837   2.755   0.630  1.00  0.00     0.040 A 
HETATM   11  C11 UNL     1      -1.042   1.358   0.991  1.00  0.00     0.168 C 
HETATM   12  N1  UNL     1      -2.220   0.677   0.541  1.00  0.00    -0.376 N 
HETATM   13  C18 UNL     1      -2.260  -0.809   0.890  1.00  0.00     0.127 C 
HETATM   14  C19 UNL     1      -1.094  -1.306   0.288  1.00  0.00     0.084 C 
HETATM   15  C20 UNL     1      -0.533  -2.676  -0.049  1.00  0.00     0.359 C 
HETATM   16  O1  UNL     1       0.734  -2.354  -0.144  1.00  0.00    -0.355 OA
HETATM   17  C23 UNL     1       1.929  -2.051  -0.243  1.00  0.00     0.199 C 
HETATM   18  C24 UNL     1       2.189  -0.746  -1.060  1.00  0.00     0.273 C 
HETATM   19  N3  UNL     1       3.506  -0.214  -0.892  1.00  0.00     0.004 N 
HETATM   20  C25 UNL     1      -1.723   3.869   0.393  1.00  0.00     0.256 A 
HETATM   21  O2  UNL     1      -2.988   3.890   0.474  1.00  0.00    -0.267 OA
HETATM   22  N4  UNL     1      -0.997   5.033   0.035  1.00  0.00    -0.290 N 
HETATM   23  C26 UNL     1       0.358   4.603   0.059  1.00  0.00     0.255 A 
HETATM   24  O3  UNL     1       1.218   5.510  -0.245  1.00  0.00    -0.268 OA
HETATM   25  H30 UNL     1      -1.422   5.970  -0.190  1.00  0.00     0.172 HD
ENDROOT
BRANCH  12  26
HETATM   26  C12 UNL     1      -3.436   1.071  -0.139  1.00  0.00     0.030 A 
HETATM   27  C13 UNL     1      -4.404   1.080   0.893  1.00  0.00     0.029 A 
HETATM   28  C14 UNL     1      -5.723   1.391   0.689  1.00  0.00     0.002 A 
HETATM   29  C15 UNL     1      -6.151   1.724  -0.579  1.00  0.00     0.000 A 
HETATM   30  C16 UNL     1      -5.207   1.714  -1.599  1.00  0.00     0.002 A 
HETATM   31  C17 UNL     1      -3.889   1.397  -1.393  1.00  0.00     0.029 A 
ENDBRANCH  12  26
BRANCH  15  32
HETATM   32  N2  UNL     1      -0.781  -3.615   1.063  1.00  0.00     0.108 N 
HETATM   33  C21 UNL     1      -2.209  -3.799   1.188  1.00  0.00     0.312 C 
HETATM   34  C22 UNL     1      -0.199  -4.876   0.676  1.00  0.00     0.312 C 
ENDBRANCH  15  32
TORSDOF 2
