REMARK  3 active torsions:
REMARK  status: ('A' for Active; 'I' for Inactive)
REMARK    1  A    between atoms: C2_2  and  C3_3 
REMARK    2  A    between atoms: C24_29  and  C25_30 
REMARK    3  A    between atoms: C26_31  and  O3_32 
ROOT
HETATM    1  C3  UNL     1      -3.044  -0.323   0.665  1.00  0.00     0.227 C 
HETATM    2  O1  UNL     1      -2.190  -0.190   1.779  1.00  0.00    -0.365 OA
HETATM    3  C4  UNL     1      -1.204  -1.178   1.695  1.00  0.00     0.190 C 
HETATM    4  C5  UNL     1      -0.159  -0.978   2.744  1.00  0.00     0.146 C 
HETATM    5  N1  UNL     1       0.908  -1.955   2.566  1.00  0.00    -0.387 N 
HETATM    6  C6  UNL     1       1.192  -1.667   1.169  1.00  0.00     0.039 A 
HETATM    7  C7  UNL     1       0.948  -2.865   0.523  1.00  0.00     0.030 A 
HETATM    8  C8  UNL     1       1.097  -3.120  -0.850  1.00  0.00     0.002 A 
HETATM    9  C9  UNL     1       1.532  -2.077  -1.669  1.00  0.00     0.001 A 
HETATM   10  C10 UNL     1       1.768  -0.879  -0.980  1.00  0.00     0.014 A 
HETATM   11  C11 UNL     1       1.618  -0.642   0.365  1.00  0.00    -0.000 A 
HETATM   12  C12 UNL     1       2.004   0.763   0.560  1.00  0.00    -0.007 A 
HETATM   13  C13 UNL     1       1.535   1.980   0.242  1.00  0.00     0.023 A 
HETATM   14  C14 UNL     1       0.479   2.786  -0.421  1.00  0.00     0.086 C 
HETATM   15  C15 UNL     1      -0.716   2.026  -0.780  1.00  0.00    -0.025 A 
HETATM   16  C16 UNL     1      -1.360   1.223   0.113  1.00  0.00     0.102 A 
HETATM   17  N2  UNL     1      -2.460   0.575  -0.391  1.00  0.00    -0.328 N 
HETATM   18  C17 UNL     1      -2.528   0.984  -1.668  1.00  0.00     0.047 A 
HETATM   19  C18 UNL     1      -3.497   0.564  -2.535  1.00  0.00     0.030 A 
HETATM   20  C19 UNL     1      -3.381   1.111  -3.820  1.00  0.00     0.002 A 
HETATM   21  C20 UNL     1      -2.354   2.004  -4.155  1.00  0.00     0.001 A 
HETATM   22  C21 UNL     1      -1.422   2.362  -3.196  1.00  0.00     0.014 A 
HETATM   23  C22 UNL     1      -1.487   1.854  -1.912  1.00  0.00    -0.001 A 
HETATM   24  C23 UNL     1       2.588   2.857   0.827  1.00  0.00     0.249 A 
HETATM   25  O2  UNL     1       2.871   4.093   0.949  1.00  0.00    -0.268 OA
HETATM   26  N3  UNL     1       3.611   2.122   1.450  1.00  0.00    -0.345 N 
HETATM   27  C24 UNL     1       3.289   0.717   1.256  1.00  0.00     0.152 A 
HETATM   28  H11 UNL     1       1.463  -2.696   3.048  1.00  0.00     0.159 HD
HETATM   29  H23 UNL     1       4.489   2.225   1.984  1.00  0.00     0.163 HD
ENDROOT
BRANCH  27  30
HETATM   30  C25 UNL     1       4.383   0.018   0.538  1.00  0.00    -0.018 A 
HETATM   31  C26 UNL     1       4.913  -0.684  -0.532  1.00  0.00     0.052 A 
HETATM   32  C27 UNL     1       5.770  -0.402   0.555  1.00  0.00     0.103 A 
BRANCH  31  33
HETATM   33  O3  UNL     1       4.890  -1.304  -1.779  1.00  0.00    -0.364 OA
HETATM   34  H25 UNL     1       4.788  -2.320  -1.865  1.00  0.00     0.217 HD
ENDBRANCH  31  33
ENDBRANCH  27  30
BRANCH   1  35
HETATM   35  C2  UNL     1      -4.461  -0.135   0.877  1.00  0.00     0.049 C 
HETATM   36  C1  UNL     1      -5.005  -1.142   1.895  1.00  0.00     0.009 C 
ENDBRANCH   1  35
TORSDOF 3
