REMARK  1 active torsions:
REMARK  status: ('A' for Active; 'I' for Inactive)
REMARK    1  A    between atoms: C10_13  and  C11_14 
ROOT
HETATM    1  C1  UNL     1       2.162  -2.303  -3.250  1.00  0.00     0.044 C 
HETATM    2  C2  UNL     1       1.033  -2.240  -2.577  1.00  0.00     0.037 A 
HETATM    3  N1  UNL     1      -0.015  -3.243  -2.725  1.00  0.00    -0.323 N 
HETATM    4  C3  UNL     1      -1.035  -2.774  -1.812  1.00  0.00     0.258 A 
HETATM    5  O1  UNL     1      -2.113  -3.461  -1.718  1.00  0.00    -0.267 OA
HETATM    6  C4  UNL     1      -0.659  -1.553  -1.125  1.00  0.00     0.057 A 
HETATM    7  C5  UNL     1       0.513  -1.311  -1.607  1.00  0.00     0.015 A 
HETATM    8  C6  UNL     1       1.366  -0.158  -1.263  1.00  0.00    -0.013 A 
HETATM    9  C7  UNL     1       1.117   1.117  -1.709  1.00  0.00     0.096 A 
HETATM   10  N2  UNL     1       2.129   1.799  -1.169  1.00  0.00    -0.373 N 
HETATM   11  C8  UNL     1       3.115   1.128  -0.355  1.00  0.00     0.081 A 
HETATM   12  C9  UNL     1       4.430   1.514   0.461  1.00  0.00     0.062 A 
HETATM   13  C10 UNL     1       4.074   0.454   0.442  1.00  0.00    -0.038 A 
HETATM   14  C11 UNL     1       3.735  -0.494   0.412  1.00  0.00    -0.051 A 
HETATM   15  C12 UNL     1       3.339  -1.540   0.363  1.00  0.00     0.046 A 
HETATM   16  C13 UNL     1       2.586  -0.346  -0.395  1.00  0.00     0.051 A 
HETATM   17  C14 UNL     1       2.068   3.178  -1.514  1.00  0.00     0.133 C 
HETATM   18  C15 UNL     1       0.635   3.636  -1.647  1.00  0.00     0.131 C 
HETATM   19  C16 UNL     1      -0.042   3.436  -0.355  1.00  0.00     0.260 C 
HETATM   20  O2  UNL     1       0.994   3.021   0.257  1.00  0.00    -0.265 OA
HETATM   21  O3  UNL     1      -1.297   3.576   0.203  1.00  0.00    -0.320 OA
HETATM   22  C17 UNL     1      -1.439   3.227   1.561  1.00  0.00     0.198 C 
HETATM   23  C18 UNL     1      -1.122   1.792   1.817  1.00  0.00     0.149 C 
HETATM   24  N3  UNL     1      -1.961   0.850   1.099  1.00  0.00    -0.383 N 
HETATM   25  C19 UNL     1      -1.928   0.369  -0.248  1.00  0.00     0.099 C 
HETATM   26  C20 UNL     1      -1.475  -0.897  -0.146  1.00  0.00     0.007 C 
HETATM   27  C21 UNL     1      -1.833  -1.741   1.023  1.00  0.00    -0.016 A 
HETATM   28  C22 UNL     1      -1.368  -3.031   1.154  1.00  0.00     0.013 A 
HETATM   29  C23 UNL     1      -1.731  -3.756   2.261  1.00  0.00     0.001 A 
HETATM   30  C24 UNL     1      -2.549  -3.288   3.291  1.00  0.00     0.001 A 
HETATM   31  C25 UNL     1      -3.011  -1.987   3.152  1.00  0.00     0.010 A 
HETATM   32  C26 UNL     1      -2.653  -1.255   2.047  1.00  0.00    -0.029 A 
HETATM   33  C27 UNL     1      -3.058   0.183   1.799  1.00  0.00     0.161 C 
HETATM   34  H3  UNL     1      -0.023  -4.080  -3.336  1.00  0.00     0.169 HD
ENDROOT
TORSDOF 1
