REMARK  2 active torsions:
REMARK  status: ('A' for Active; 'I' for Inactive)
REMARK    1  A    between atoms: C2_2  and  C3_3 
REMARK    2  A    between atoms: C3_3  and  C4_4 
ROOT
HETATM    1  C4  UNL     1       2.490  -0.871   0.241  1.00  0.00    -0.023 C 
HETATM    2  C5  UNL     1       1.546  -1.562  -0.373  1.00  0.00     0.091 C 
HETATM    3  N1  UNL     1       0.769  -1.154  -1.471  1.00  0.00    -0.396 N 
HETATM    4  C6  UNL     1      -0.123  -1.809  -2.389  1.00  0.00     0.145 C 
HETATM    5  C7  UNL     1      -1.362  -2.315  -1.655  1.00  0.00     0.187 C 
HETATM    6  O1  UNL     1      -1.917  -1.223  -1.046  1.00  0.00    -0.389 OA
HETATM    7  C8  UNL     1      -3.063  -1.595  -0.333  1.00  0.00     0.171 C 
HETATM    8  C9  UNL     1      -3.468  -0.330   0.404  1.00  0.00     0.005 C 
HETATM    9  C10 UNL     1      -4.701  -0.615   1.242  1.00  0.00     0.012 C 
HETATM   10  C11 UNL     1      -3.761   0.732  -0.639  1.00  0.00     0.010 C 
HETATM   11  C12 UNL     1      -3.942   2.077   0.100  1.00  0.00     0.027 C 
HETATM   12  C13 UNL     1      -2.667   2.391   0.815  1.00  0.00    -0.026 C 
HETATM   13  C14 UNL     1      -1.851   2.653   1.851  1.00  0.00     0.007 C 
HETATM   14  C15 UNL     1      -0.416   2.885   1.541  1.00  0.00    -0.035 A 
HETATM   15  C16 UNL     1       0.818   3.244   1.369  1.00  0.00     0.024 A 
HETATM   16  C17 UNL     1       1.190   2.116   0.564  1.00  0.00    -0.018 A 
HETATM   17  C18 UNL     1      -0.034   1.713   0.710  1.00  0.00     0.024 A 
HETATM   18  C19 UNL     1       2.361   1.662  -0.114  1.00  0.00     0.059 A 
HETATM   19  C20 UNL     1       2.835   0.446  -0.210  1.00  0.00     0.056 A 
HETATM   20  C21 UNL     1       4.060   0.536  -1.033  1.00  0.00     0.260 A 
HETATM   21  O2  UNL     1       4.938  -0.287  -1.468  1.00  0.00    -0.267 OA
HETATM   22  N2  UNL     1       4.283   1.908  -1.423  1.00  0.00    -0.289 N 
HETATM   23  C22 UNL     1       3.192   2.617  -0.830  1.00  0.00     0.260 A 
HETATM   24  O3  UNL     1       3.110   3.871  -0.998  1.00  0.00    -0.267 OA
HETATM   25  H7  UNL     1       0.894  -0.110  -1.636  1.00  0.00     0.158 HD
HETATM   26  H26 UNL     1       5.063   2.329  -2.013  1.00  0.00     0.172 HD
ENDROOT
BRANCH   1  27
HETATM   27  C3  UNL     1       3.171  -1.524   1.389  1.00  0.00     0.067 C 
BRANCH  27  28
HETATM   28  C2  UNL     1       4.628  -1.664   1.241  1.00  0.00    -0.032 C 
HETATM   29  C1  UNL     1       5.455  -2.703   1.192  1.00  0.00     0.007 C 
ENDBRANCH  27  28
ENDBRANCH   1  27
TORSDOF 2
