REMARK  4 active torsions:
REMARK  status: ('A' for Active; 'I' for Inactive)
REMARK    1  A    between atoms: N1_2  and  C3_4 
REMARK    2  A    between atoms: C3_4  and  C4_5 
REMARK    3  A    between atoms: N3_26  and  O2_27 
REMARK    4  A    between atoms: C24_31  and  O4_32 
ROOT
HETATM    1  C4  UNL     1      -2.460   0.440   0.295  1.00  0.00     0.151 C 
HETATM    2  C5  UNL     1      -2.397  -1.015  -0.003  1.00  0.00     0.053 C 
HETATM    3  C6  UNL     1      -1.287  -1.485  -0.873  1.00  0.00     0.125 C 
HETATM    4  N2  UNL     1      -1.406  -2.920  -1.047  1.00  0.00    -0.384 N 
HETATM    5  C7  UNL     1      -2.575  -3.282  -1.861  1.00  0.00     0.149 C 
HETATM    6  C8  UNL     1      -0.428  -3.778  -0.427  1.00  0.00     0.041 A 
HETATM    7  C9  UNL     1      -0.159  -4.991   0.110  1.00  0.00     0.044 A 
HETATM    8  C10 UNL     1       0.835  -3.955   0.026  1.00  0.00    -0.007 A 
HETATM    9  C11 UNL     1       1.859  -3.132   0.034  1.00  0.00     0.013 C 
HETATM   10  C12 UNL     1       3.237  -3.163   0.470  1.00  0.00    -0.003 C 
HETATM   11  C13 UNL     1       4.246  -2.324   0.469  1.00  0.00    -0.022 C 
HETATM   12  C14 UNL     1       4.131  -0.959  -0.075  1.00  0.00     0.071 C 
HETATM   13  C15 UNL     1       4.390  -0.002   1.026  1.00  0.00     0.014 A 
HETATM   14  C16 UNL     1       3.470   0.930   1.188  1.00  0.00     0.047 A 
HETATM   15  C17 UNL     1       2.291   1.024   0.358  1.00  0.00     0.045 C 
HETATM   16  C18 UNL     1       1.725   1.273  -0.806  1.00  0.00     0.041 C 
HETATM   17  C19 UNL     1       0.587   1.388  -1.697  1.00  0.00     0.060 C 
HETATM   18  C20 UNL     1      -0.562   2.229  -1.306  1.00  0.00     0.038 C 
HETATM   19  C21 UNL     1      -0.940   2.229   0.136  1.00  0.00     0.169 C 
HETATM   20  O1  UNL     1      -1.365   1.093   0.697  1.00  0.00    -0.384 OA
HETATM   21  C22 UNL     1       1.520   2.186  -2.621  1.00  0.00     0.166 C 
HETATM   22  N3  UNL     1       2.614   1.603  -1.897  1.00  0.00    -0.264 N 
HETATM   23  C23 UNL     1       3.751   1.853   2.276  1.00  0.00     0.280 A 
HETATM   24  O3  UNL     1       3.008   2.831   2.622  1.00  0.00    -0.265 OA
HETATM   25  N4  UNL     1       4.967   1.367   2.762  1.00  0.00    -0.185 NA
HETATM   26  C24 UNL     1       5.316   0.355   2.080  1.00  0.00     0.173 A 
ENDROOT
BRANCH   1  27
HETATM   27  C3  UNL     1      -3.664   0.597   1.239  1.00  0.00     0.303 C 
BRANCH  27  28
HETATM   28  N1  UNL     1      -4.060   1.987   1.369  1.00  0.00     0.082 N 
HETATM   29  C1  UNL     1      -4.601   2.382   0.080  1.00  0.00     0.309 C 
HETATM   30  C2  UNL     1      -5.189   1.999   2.282  1.00  0.00     0.309 C 
ENDBRANCH  27  28
ENDBRANCH   1  27
BRANCH  22  31
HETATM   31  O2  UNL     1       3.881   1.540  -2.349  1.00  0.00    -0.287 OA
HETATM   32  H31 UNL     1       4.324   2.399  -2.466  1.00  0.00     0.244 HD
ENDBRANCH  22  31
BRANCH  26  33
HETATM   33  O4  UNL     1       6.480  -0.427   2.247  1.00  0.00    -0.344 OA
HETATM   34  H32 UNL     1       7.167  -0.158   2.940  1.00  0.00     0.219 HD
ENDBRANCH  26  33
TORSDOF 4
