REMARK  3 active torsions:
REMARK  status: ('A' for Active; 'I' for Inactive)
REMARK    1  A    between atoms: O1_1  and  C1_2 
REMARK    2  A    between atoms: C13_17  and  C14_18 
REMARK    3  A    between atoms: C19_24  and  O2_25 
ROOT
HETATM    1  C1  UNL     1       0.871   1.845  -0.371  1.00  0.00     0.113 C 
HETATM    2  C2  UNL     1       1.965   2.429   0.070  1.00  0.00     0.040 C 
HETATM    3  C3  UNL     1       2.534   3.641  -0.486  1.00  0.00    -0.003 C 
HETATM    4  C4  UNL     1       3.468   3.682  -1.383  1.00  0.00    -0.106 C 
HETATM    5  B1  UNL     1       4.946   2.790  -0.691  1.00  0.00     0.210 B 
HETATM    6  C5  UNL     1       4.487   1.041  -0.110  1.00  0.00    -0.084 C 
HETATM    7  C6  UNL     1       4.379   0.046   0.800  1.00  0.00    -0.042 C 
HETATM    8  C7  UNL     1       3.781  -1.231   0.251  1.00  0.00     0.026 C 
HETATM    9  C8  UNL     1       2.481  -1.527   0.972  1.00  0.00     0.004 C 
HETATM   10  C9  UNL     1       1.804  -2.607   0.191  1.00  0.00     0.006 C 
HETATM   11  C10 UNL     1       0.390  -2.778   0.623  1.00  0.00     0.062 C 
HETATM   12  C11 UNL     1      -0.350  -1.518   0.265  1.00  0.00     0.072 A 
HETATM   13  N1  UNL     1       0.351  -0.434   0.072  1.00  0.00    -0.229 NA
HETATM   14  C12 UNL     1      -0.064   0.764  -0.239  1.00  0.00     0.184 A 
HETATM   15  N2  UNL     1      -1.385   0.938  -0.391  1.00  0.00    -0.223 NA
HETATM   16  C13 UNL     1      -2.234  -0.101  -0.221  1.00  0.00     0.106 A 
HETATM   17  C19 UNL     1      -1.732  -1.353   0.111  1.00  0.00     0.120 A 
ENDROOT
BRANCH  16  18
HETATM   18  C14 UNL     1      -3.673   0.028  -0.370  1.00  0.00     0.013 A 
HETATM   19  C15 UNL     1      -4.248   1.146   0.242  1.00  0.00     0.017 A 
HETATM   20  C16 UNL     1      -5.616   1.373   0.166  1.00  0.00     0.020 A 
HETATM   21  C17 UNL     1      -6.342   0.439  -0.538  1.00  0.00     0.116 A 
HETATM   22  N3  UNL     1      -5.759  -0.637  -1.122  1.00  0.00    -0.272 NA
HETATM   23  C18 UNL     1      -4.440  -0.884  -1.066  1.00  0.00     0.130 A 
ENDBRANCH  16  18
BRANCH  17  24
HETATM   24  O2  UNL     1      -2.491  -2.508   0.316  1.00  0.00    -0.357 OA
HETATM   25  H18 UNL     1      -2.823  -2.652   1.263  1.00  0.00     0.218 HD
ENDBRANCH  17  24
BRANCH   1  26
HETATM   26  O1  UNL     1       0.692   2.794  -1.346  1.00  0.00    -0.357 OA
HETATM   27  H1  UNL     1      -0.167   3.146  -1.690  1.00  0.00     0.218 HD
ENDBRANCH   1  26
TORSDOF 3
