REMARK  3 active torsions:
REMARK  status: ('A' for Active; 'I' for Inactive)
REMARK    1  A    between atoms: O1_1  and  C1_2 
REMARK    2  A    between atoms: C5_6  and  C6_7 
REMARK    3  A    between atoms: C7_9  and  N2_10 
ROOT
HETATM    1  C6  UNL     1       1.502   0.510  -0.083  1.00  0.00     0.162 A 
HETATM    2  N1  UNL     1       0.844  -0.664  -0.094  1.00  0.00    -0.208 NA
HETATM    3  C7  UNL     1      -0.504  -0.732  -0.029  1.00  0.00     0.165 A 
HETATM    4  C12 UNL     1      -1.222   0.445   0.052  1.00  0.00     0.153 A 
HETATM    5  O3  UNL     1      -2.503   0.726   0.127  1.00  0.00    -0.285 OA
HETATM    6  C13 UNL     1      -2.697   2.022   0.186  1.00  0.00     0.182 A 
HETATM    7  N3  UNL     1      -3.835   2.771   0.272  1.00  0.00    -0.236 NA
HETATM    8  C14 UNL     1      -3.737   4.118   0.318  1.00  0.00     0.119 A 
HETATM    9  C15 UNL     1      -2.534   4.812   0.283  1.00  0.00     0.020 A 
HETATM   10  C16 UNL     1      -1.413   4.011   0.196  1.00  0.00     0.020 A 
HETATM   11  C17 UNL     1      -1.451   2.631   0.146  1.00  0.00     0.049 A 
HETATM   12  C18 UNL     1      -0.507   1.626   0.061  1.00  0.00     0.111 A 
HETATM   13  N4  UNL     1       0.837   1.694  -0.004  1.00  0.00    -0.225 NA
ENDROOT
BRANCH   1  14
HETATM   14  C5  UNL     1       2.958   0.504  -0.156  1.00  0.00     0.014 A 
HETATM   15  C4  UNL     1       3.654   1.695  -0.146  1.00  0.00     0.015 A 
HETATM   16  C3  UNL     1       5.028   1.638  -0.218  1.00  0.00     0.004 A 
HETATM   17  C2  UNL     1       5.707   0.450  -0.297  1.00  0.00     0.036 A 
HETATM   18  C1  UNL     1       4.978  -0.729  -0.305  1.00  0.00     0.066 A 
HETATM   19  C19 UNL     1       3.607  -0.713  -0.235  1.00  0.00     0.051 A 
BRANCH  18  20
HETATM   20  O1  UNL     1       5.748  -1.895  -0.388  1.00  0.00    -0.361 OA
HETATM   21  H1  UNL     1       5.979  -2.404   0.463  1.00  0.00     0.217 HD
ENDBRANCH  18  20
ENDBRANCH   1  14
BRANCH   3  22
HETATM   22  N2  UNL     1      -1.263  -1.936  -0.036  1.00  0.00    -0.359 N 
HETATM   23  C8  UNL     1      -2.228  -2.139  -1.105  1.00  0.00     0.151 C 
HETATM   24  C9  UNL     1      -3.460  -2.871  -0.676  1.00  0.00     0.187 C 
HETATM   25  O2  UNL     1      -3.434  -3.104   0.675  1.00  0.00    -0.388 OA
HETATM   26  C10 UNL     1      -2.281  -3.841   0.960  1.00  0.00     0.187 C 
HETATM   27  C11 UNL     1      -1.061  -2.922   1.010  1.00  0.00     0.151 C 
ENDBRANCH   3  22
TORSDOF 3
