REMARK  4 active torsions:
REMARK  status: ('A' for Active; 'I' for Inactive)
REMARK    1  A    between atoms: N1_1  and  C1_2 
REMARK    2  A    between atoms: C1_2  and  C2_3 
REMARK    3  A    between atoms: C6_7  and  O1_8 
REMARK    4  A    between atoms: C9_12  and  N3_13 
ROOT
HETATM    1  C1  UNL     1      -1.294  -0.025  -1.368  1.00  0.00     0.229 C 
HETATM    2  C8  UNL     1      -0.391  -1.219  -1.680  1.00  0.00     0.139 C 
HETATM    3  N2  UNL     1       0.850  -1.458  -1.331  1.00  0.00    -0.242 NA
HETATM    4  C9  UNL     1       1.452  -0.431  -0.556  1.00  0.00     0.156 C 
HETATM    5  C14 UNL     1       0.791   0.655  -0.284  1.00  0.00     0.113 C 
HETATM    6  O3  UNL     1       1.203   1.735   0.483  1.00  0.00    -0.291 OA
HETATM    7  C15 UNL     1       0.075   2.538   0.746  1.00  0.00     0.176 A 
HETATM    8  N4  UNL     1       0.000   3.676   1.507  1.00  0.00    -0.236 NA
HETATM    9  C16 UNL     1      -1.201   4.291   1.673  1.00  0.00     0.119 A 
HETATM   10  C17 UNL     1      -2.361   3.778   1.077  1.00  0.00     0.020 A 
HETATM   11  C18 UNL     1      -2.328   2.620   0.287  1.00  0.00     0.014 A 
HETATM   12  C19 UNL     1      -1.093   2.045   0.150  1.00  0.00     0.009 A 
HETATM   13  C20 UNL     1      -0.543   1.051  -0.733  1.00  0.00     0.133 C 
ENDROOT
BRANCH   1  14
HETATM   14  N1  UNL     1      -1.852   0.396  -2.637  1.00  0.00     0.099 N 
HETATM   15  H1  UNL     1      -2.068   1.420  -2.633  1.00  0.00     0.314 HD
HETATM   16  H2  UNL     1      -1.174   0.216  -3.390  1.00  0.00     0.314 HD
ENDBRANCH   1  14
BRANCH   1  17
HETATM   17  C2  UNL     1      -2.408  -0.603  -0.514  1.00  0.00    -0.011 A 
HETATM   18  C3  UNL     1      -3.773  -0.458  -0.588  1.00  0.00     0.010 A 
HETATM   19  C4  UNL     1      -4.577  -1.098   0.324  1.00  0.00     0.003 A 
HETATM   20  C5  UNL     1      -4.100  -1.890   1.328  1.00  0.00     0.036 A 
HETATM   21  C6  UNL     1      -2.734  -2.049   1.421  1.00  0.00     0.066 A 
HETATM   22  C7  UNL     1      -1.906  -1.413   0.513  1.00  0.00     0.046 A 
BRANCH  21  23
HETATM   23  O1  UNL     1      -2.273  -2.858   2.449  1.00  0.00    -0.361 OA
HETATM   24  H6  UNL     1      -2.593  -3.807   2.609  1.00  0.00     0.217 HD
ENDBRANCH  21  23
ENDBRANCH   1  17
BRANCH   4  25
HETATM   25  N3  UNL     1       2.783  -0.638  -0.099  1.00  0.00    -0.360 N 
HETATM   26  C10 UNL     1       3.795   0.307  -0.544  1.00  0.00     0.151 C 
HETATM   27  C11 UNL     1       5.125  -0.397  -0.734  1.00  0.00     0.187 C 
HETATM   28  O2  UNL     1       5.440  -0.987   0.490  1.00  0.00    -0.388 OA
HETATM   29  C12 UNL     1       4.611  -2.101   0.632  1.00  0.00     0.187 C 
HETATM   30  C13 UNL     1       3.165  -1.726   0.770  1.00  0.00     0.151 C 
ENDBRANCH   4  25
TORSDOF 4
