REMARK  0 active torsions:
REMARK  status: ('A' for Active; 'I' for Inactive)
ROOT
HETATM    1  C1  UNL     1      -4.334  -0.137   1.417  1.00  0.00     0.013 C 
HETATM    2  C2  UNL     1      -3.056   0.025   0.734  1.00  0.00    -0.023 C 
HETATM    3  C3  UNL     1      -3.510   0.700  -0.381  1.00  0.00     0.057 C 
HETATM    4  C4  UNL     1      -2.975   1.279  -1.618  1.00  0.00    -0.024 C 
HETATM    5  C5  UNL     1      -2.126   1.666  -2.603  1.00  0.00    -0.023 C 
HETATM    6  C6  UNL     1      -0.720   1.672  -3.070  1.00  0.00     0.107 C 
HETATM    7  C7  UNL     1       0.277   0.993  -2.270  1.00  0.00     0.132 A 
HETATM    8  N1  UNL     1      -0.342   0.777  -1.149  1.00  0.00    -0.213 NA
HETATM    9  C8  UNL     1       0.157   0.174  -0.128  1.00  0.00     0.165 A 
HETATM   10  C9  UNL     1       1.444  -0.284  -0.210  1.00  0.00     0.153 A 
HETATM   11  O1  UNL     1       2.152  -0.925   0.717  1.00  0.00    -0.285 OA
HETATM   12  C10 UNL     1       3.354  -1.165   0.177  1.00  0.00     0.182 A 
HETATM   13  N2  UNL     1       4.510  -1.744   0.528  1.00  0.00    -0.236 NA
HETATM   14  C11 UNL     1       5.598  -1.844  -0.249  1.00  0.00     0.119 A 
HETATM   15  C12 UNL     1       5.581  -1.325  -1.525  1.00  0.00     0.020 A 
HETATM   16  C13 UNL     1       4.432  -0.692  -2.015  1.00  0.00     0.020 A 
HETATM   17  C14 UNL     1       3.376  -0.648  -1.126  1.00  0.00     0.049 A 
HETATM   18  C15 UNL     1       2.155  -0.086  -1.371  1.00  0.00     0.111 A 
HETATM   19  N3  UNL     1       1.539   0.565  -2.403  1.00  0.00    -0.229 NA
HETATM   20  N4  UNL     1      -0.604  -0.019   1.040  1.00  0.00    -0.354 N 
HETATM   21  C16 UNL     1       0.173   0.539   2.138  1.00  0.00     0.151 C 
HETATM   22  C17 UNL     1       0.230  -0.484   3.241  1.00  0.00     0.187 C 
HETATM   23  O2  UNL     1      -1.026  -0.605   3.757  1.00  0.00    -0.387 OA
HETATM   24  C18 UNL     1      -2.075  -0.242   2.964  1.00  0.00     0.193 C 
HETATM   25  C19 UNL     1      -1.880  -0.577   1.547  1.00  0.00     0.114 C 
ENDROOT
TORSDOF 0
