REMARK  4 active torsions:
REMARK  status: ('A' for Active; 'I' for Inactive)
REMARK    1  A    between atoms: O1_1  and  C1_2 
REMARK    2  A    between atoms: C5_6  and  C6_7 
REMARK    3  A    between atoms: C7_9  and  N2_10 
REMARK    4  A    between atoms: N2_10  and  C8_11 
ROOT
HETATM    1  C6  UNL     1      -1.664  -0.149   0.050  1.00  0.00     0.162 A 
HETATM    2  N1  UNL     1      -0.696  -0.637   0.848  1.00  0.00    -0.208 NA
HETATM    3  C7  UNL     1       0.372   0.132   1.190  1.00  0.00     0.167 A 
HETATM    4  C12 UNL     1       0.471   1.428   0.718  1.00  0.00     0.153 A 
HETATM    5  O3  UNL     1       1.369   2.387   0.877  1.00  0.00    -0.285 OA
HETATM    6  C13 UNL     1       1.018   3.456   0.220  1.00  0.00     0.182 A 
HETATM    7  N3  UNL     1       1.629   4.649   0.106  1.00  0.00    -0.236 NA
HETATM    8  C14 UNL     1       1.069   5.626  -0.642  1.00  0.00     0.119 A 
HETATM    9  C15 UNL     1      -0.135   5.392  -1.288  1.00  0.00     0.020 A 
HETATM   10  C16 UNL     1      -0.784   4.170  -1.185  1.00  0.00     0.020 A 
HETATM   11  C17 UNL     1      -0.185   3.190  -0.412  1.00  0.00     0.049 A 
HETATM   12  C18 UNL     1      -0.560   1.887  -0.107  1.00  0.00     0.111 A 
HETATM   13  N4  UNL     1      -1.608   1.106  -0.432  1.00  0.00    -0.225 NA
ENDROOT
BRANCH   1  14
HETATM   14  C5  UNL     1      -2.797  -0.996  -0.300  1.00  0.00     0.014 A 
HETATM   15  C4  UNL     1      -3.806  -0.533  -1.112  1.00  0.00     0.015 A 
HETATM   16  C3  UNL     1      -4.853  -1.372  -1.413  1.00  0.00     0.004 A 
HETATM   17  C2  UNL     1      -4.897  -2.654  -0.912  1.00  0.00     0.036 A 
HETATM   18  C1  UNL     1      -3.913  -3.171  -0.093  1.00  0.00     0.066 A 
HETATM   19  C19 UNL     1      -2.894  -2.286   0.171  1.00  0.00     0.051 A 
BRANCH  18  20
HETATM   20  O1  UNL     1      -3.942  -4.459   0.420  1.00  0.00    -0.361 OA
HETATM   21  H1  UNL     1      -4.276  -4.606   1.368  1.00  0.00     0.217 HD
ENDBRANCH  18  20
ENDBRANCH   1  14
BRANCH   3  22
HETATM   22  N2  UNL     1       1.424  -0.341   2.033  1.00  0.00    -0.341 N 
HETATM   23  H5  UNL     1       1.619  -0.352   3.055  1.00  0.00     0.167 HD
BRANCH  22  24
HETATM   24  C8  UNL     1       2.409  -0.933   1.170  1.00  0.00     0.024 C 
HETATM   25  P1  UNL     1       2.842  -0.455  -0.361  1.00  0.00    -0.009 P 
HETATM   26  C9  UNL     1       4.170  -1.485  -1.163  1.00  0.00     0.212 C 
HETATM   27  O2  UNL     1       4.183  -2.671  -0.429  1.00  0.00    -0.386 OA
HETATM   28  C10 UNL     1       4.415  -2.316   0.895  1.00  0.00     0.174 C 
HETATM   29  C11 UNL     1       3.149  -2.118   1.674  1.00  0.00     0.084 C 
ENDBRANCH  22  24
ENDBRANCH   3  22
TORSDOF 4
