REMARK  1 active torsions:
REMARK  status: ('A' for Active; 'I' for Inactive)
REMARK    1  A    between atoms: O1_1  and  C1_2 
ROOT
HETATM    1  C1  UNL     1      -2.277   0.211  -0.889  1.00  0.00     0.046 C 
HETATM    2  C2  UNL     1      -2.204  -1.163  -0.874  1.00  0.00     0.099 C 
HETATM    3  C3  UNL     1      -1.378  -2.239  -0.340  1.00  0.00     0.040 C 
HETATM    4  C4  UNL     1      -0.188  -2.127   0.516  1.00  0.00     0.163 C 
HETATM    5  N1  UNL     1       1.104  -2.640   0.117  1.00  0.00    -0.291 NA
HETATM    6  C5  UNL     1       2.232  -2.218  -0.412  1.00  0.00     0.126 C 
HETATM    7  C6  UNL     1       2.575  -0.826  -0.631  1.00  0.00     0.032 A 
HETATM    8  C7  UNL     1       3.534   0.158  -0.871  1.00  0.00     0.016 A 
HETATM    9  C8  UNL     1       2.850   1.429  -0.848  1.00  0.00     0.010 A 
HETATM   10  C9  UNL     1       1.775   2.343  -0.733  1.00  0.00     0.105 A 
HETATM   11  N2  UNL     1       1.024   1.265  -0.533  1.00  0.00    -0.335 N 
HETATM   12  C10 UNL     1       1.543   0.095  -0.529  1.00  0.00     0.156 A 
HETATM   13  O2  UNL     1       0.171  -0.128  -0.261  1.00  0.00    -0.301 OA
HETATM   14  C11 UNL     1      -0.279  -0.752   0.995  1.00  0.00     0.292 C 
HETATM   15  O3  UNL     1      -1.271  -0.152   1.609  1.00  0.00    -0.358 OA
HETATM   16  C12 UNL     1      -0.819   1.201   1.815  1.00  0.00     0.183 C 
HETATM   17  C13 UNL     1      -0.698   1.597   0.355  1.00  0.00     0.019 C 
HETATM   18  C14 UNL     1       0.408   1.979  -0.331  1.00  0.00     0.134 A 
HETATM   19  C15 UNL     1      -1.798   1.669  -0.528  1.00  0.00     0.047 C 
ENDROOT
BRANCH   1  20
HETATM   20  O1  UNL     1      -3.452   0.373  -1.683  1.00  0.00    -0.395 OA
HETATM   21  H1  UNL     1      -4.326   0.658  -1.287  1.00  0.00     0.210 HD
ENDBRANCH   1  20
TORSDOF 1
