REMARK  6 active torsions:
REMARK  status: ('A' for Active; 'I' for Inactive)
REMARK    1  A    between atoms: C2_2  and  O1_3 
REMARK    2  A    between atoms: C2_2  and  C3_4 
REMARK    3  A    between atoms: C4_5  and  C5_6 
REMARK    4  A    between atoms: C6_7  and  C7_8 
REMARK    5  A    between atoms: C11_14  and  N3_15 
REMARK    6  A    between atoms: C13_19  and  C14_20 
ROOT
HETATM    1  C7  UNL     1      -0.213   0.377  -0.152  1.00  0.00     0.089 A 
HETATM    2  N1  UNL     1      -0.178  -0.793   0.502  1.00  0.00    -0.241 NA
HETATM    3  C8  UNL     1      -1.300  -1.196   1.165  1.00  0.00     0.130 A 
HETATM    4  C9  UNL     1      -1.325  -2.389   1.854  1.00  0.00     0.082 A 
HETATM    5  C10 UNL     1      -0.129  -3.262   1.888  1.00  0.00     0.074 C 
HETATM    6  N2  UNL     1      -2.489  -2.676   2.468  1.00  0.00    -0.066 NA
HETATM    7  C11 UNL     1      -3.574  -1.880   2.435  1.00  0.00     0.722 A 
HETATM    8  N4  UNL     1      -3.520  -0.721   1.754  1.00  0.00    -0.041 NA
HETATM    9  C12 UNL     1      -2.393  -0.359   1.112  1.00  0.00     0.200 A 
HETATM   10  N5  UNL     1      -2.375   0.803   0.443  1.00  0.00    -0.222 NA
HETATM   11  C13 UNL     1      -1.293   1.226  -0.217  1.00  0.00     0.121 A 
ENDROOT
BRANCH   1  12
HETATM   12  C6  UNL     1       1.030   0.721  -0.828  1.00  0.00     0.034 C 
HETATM   13  C5  UNL     1       2.077  -0.107  -0.763  1.00  0.00     0.002 C 
BRANCH  13  14
HETATM   14  C4  UNL     1       3.388   0.059  -1.364  1.00  0.00     0.003 C 
HETATM   15  C3  UNL     1       4.361  -0.811  -1.247  1.00  0.00     0.035 C 
BRANCH  15  16
HETATM   16  C2  UNL     1       4.312  -2.054  -0.520  1.00  0.00     0.056 C 
HETATM   17  C1  UNL     1       5.288  -2.961  -0.381  1.00  0.00     0.050 C 
BRANCH  16  18
HETATM   18  O1  UNL     1       3.443  -2.788   0.235  1.00  0.00    -0.362 OA
HETATM   19  H3  UNL     1       3.304  -2.614   1.215  1.00  0.00     0.217 HD
ENDBRANCH  16  18
ENDBRANCH  15  16
ENDBRANCH  13  14
ENDBRANCH   1  12
BRANCH  11  20
HETATM   20  C14 UNL     1      -1.281   2.489  -0.941  1.00  0.00     0.100 A 
HETATM   21  C15 UNL     1      -2.405   3.186  -0.902  1.00  0.00     0.039 A 
HETATM   22  C16 UNL     1      -2.665   4.470  -1.532  1.00  0.00     0.001 A 
HETATM   23  C17 UNL     1      -1.675   5.005  -2.220  1.00  0.00    -0.000 A 
HETATM   24  C18 UNL     1      -0.383   4.303  -2.320  1.00  0.00     0.203 A 
HETATM   25  O2  UNL     1      -0.303   3.083  -1.657  1.00  0.00    -0.345 OA
ENDBRANCH  11  20
BRANCH   7  26
HETATM   26  N3  UNL     1      -4.743  -2.298   3.126  1.00  0.00    -0.231 N 
HETATM   27  H11 UNL     1      -5.160  -3.210   2.849  1.00  0.00     0.174 HD
HETATM   28  H12 UNL     1      -5.352  -1.933   3.886  1.00  0.00     0.174 HD
ENDBRANCH   7  26
TORSDOF 6
