REMARK  7 active torsions:
REMARK  status: ('A' for Active; 'I' for Inactive)
REMARK    1  A    between atoms: N1_1  and  C1_2 
REMARK    2  A    between atoms: C2_3  and  N2_4 
REMARK    3  A    between atoms: C3_5  and  C4_6 
REMARK    4  A    between atoms: C3_5  and  C11_14 
REMARK    5  A    between atoms: C4_6  and  C5_7 
REMARK    6  A    between atoms: C9_11  and  O1_12 
REMARK    7  A    between atoms: C15_18  and  O2_19 
ROOT
HETATM    1  N2  UNL     1      -0.413   0.496   0.816  1.00  0.00    -0.263 NA
HETATM    2  C3  UNL     1      -0.385  -0.456  -0.055  1.00  0.00     0.048 C 
ENDROOT
BRANCH   2   3
HETATM    3  C4  UNL     1       0.764  -0.976  -0.874  1.00  0.00     0.098 C 
BRANCH   3   4
HETATM    4  C5  UNL     1       2.027  -0.249  -0.588  1.00  0.00    -0.050 A 
HETATM    5  C6  UNL     1       2.770  -0.851   0.433  1.00  0.00     0.007 A 
HETATM    6  C7  UNL     1       3.978  -0.313   0.836  1.00  0.00     0.003 A 
HETATM    7  C8  UNL     1       4.405   0.845   0.177  1.00  0.00     0.036 A 
HETATM    8  C9  UNL     1       3.660   1.407  -0.812  1.00  0.00     0.066 A 
HETATM    9  C10 UNL     1       2.453   0.893  -1.234  1.00  0.00     0.044 A 
BRANCH   8  10
HETATM   10  O1  UNL     1       4.071   2.572  -1.487  1.00  0.00    -0.361 OA
HETATM   11  H10 UNL     1       4.506   3.268  -0.904  1.00  0.00     0.217 HD
ENDBRANCH   8  10
ENDBRANCH   3   4
ENDBRANCH   2   3
BRANCH   2  12
HETATM   12  C11 UNL     1      -1.664  -1.123  -0.276  1.00  0.00    -0.009 A 
HETATM   13  C12 UNL     1      -1.838  -2.165  -1.168  1.00  0.00     0.013 A 
HETATM   14  C13 UNL     1      -3.020  -2.824  -1.410  1.00  0.00     0.004 A 
HETATM   15  C14 UNL     1      -4.141  -2.425  -0.714  1.00  0.00     0.036 A 
HETATM   16  C15 UNL     1      -4.051  -1.392   0.195  1.00  0.00     0.066 A 
HETATM   17  C16 UNL     1      -2.828  -0.789   0.375  1.00  0.00     0.050 A 
BRANCH  16  18
HETATM   18  O2  UNL     1      -5.185  -0.987   0.902  1.00  0.00    -0.361 OA
HETATM   19  H15 UNL     1      -5.734  -0.218   0.488  1.00  0.00     0.217 HD
ENDBRANCH  16  18
ENDBRANCH   2  12
BRANCH   1  20
HETATM   20  C2  UNL     1       0.668   1.295   1.212  1.00  0.00     0.133 C 
HETATM   21  C1  UNL     1       0.108   2.515   1.187  1.00  0.00     0.099 C 
BRANCH  21  22
HETATM   22  N1  UNL     1      -1.269   2.656   0.809  1.00  0.00    -0.407 N 
HETATM   23  H1  UNL     1      -2.127   2.792   0.262  1.00  0.00     0.155 HD
HETATM   24  H2  UNL     1      -2.307   2.700   0.929  1.00  0.00     0.155 HD
ENDBRANCH  21  22
ENDBRANCH   1  20
TORSDOF 7
