REMARK  7 active torsions:
REMARK  status: ('A' for Active; 'I' for Inactive)
REMARK    1  A    between atoms: C3_4  and  C4_5 
REMARK    2  A    between atoms: C4_5  and  N2_6 
REMARK    3  A    between atoms: C4_5  and  N3_7 
REMARK    4  A    between atoms: N5_15  and  C10_16 
REMARK    5  A    between atoms: C11_18  and  C12_19 
REMARK    6  A    between atoms: C13_20  and  C14_21 
REMARK    7  A    between atoms: C14_21  and  C15_22 
ROOT
HETATM    1  C15 UNL     1       6.776   0.320   0.956  1.00  0.00    -0.011 C 
HETATM    2  C16 UNL     1       5.830  -0.566   1.330  1.00  0.00     0.214 C 
HETATM    3 CL1  UNL     1       4.519  -1.688   1.608  1.00  0.00    -0.230 Cl
ENDROOT
BRANCH   1   4
HETATM    4  C14 UNL     1       6.586   0.795  -0.457  1.00  0.00     0.054 C 
BRANCH   4   5
HETATM    5  C13 UNL     1       5.371   0.093  -0.961  1.00  0.00    -0.024 C 
HETATM    6  C12 UNL     1       4.164   0.436  -1.436  1.00  0.00     0.001 C 
BRANCH   6   7
HETATM    7  C11 UNL     1       3.035  -0.447  -1.910  1.00  0.00     0.255 A 
HETATM    8  C10 UNL     1       1.805  -0.286  -1.179  1.00  0.00     0.152 A 
HETATM    9  O2  UNL     1       2.672   0.542  -0.717  1.00  0.00    -0.328 OA
BRANCH   8  10
HETATM   10  N5  UNL     1       0.559  -0.220  -0.538  1.00  0.00    -0.290 N 
HETATM   11  C2  UNL     1      -0.378  -1.068  -0.990  1.00  0.00     0.108 A 
HETATM   12  C1  UNL     1      -0.416  -2.092  -2.034  1.00  0.00     0.092 C 
HETATM   13  N1  UNL     1      -1.452  -0.803  -0.227  1.00  0.00    -0.234 NA
HETATM   14  C3  UNL     1      -1.103   0.180   0.633  1.00  0.00     0.104 A 
HETATM   15  C9  UNL     1       0.201   0.588   0.463  1.00  0.00     0.131 A 
BRANCH  14  16
HETATM   16  C4  UNL     1      -2.048   0.743   1.637  1.00  0.00     0.376 C 
BRANCH  16  17
HETATM   17  N2  UNL     1      -1.895   2.179   1.595  1.00  0.00     0.107 N 
HETATM   18  H5  UNL     1      -1.150   2.441   2.276  1.00  0.00     0.316 HD
HETATM   19  H6  UNL     1      -2.751   2.697   1.856  1.00  0.00     0.316 HD
ENDBRANCH  16  17
BRANCH  16  20
HETATM   20  N3  UNL     1      -3.421   0.412   1.295  1.00  0.00    -0.299 N 
HETATM   21  C5  UNL     1      -3.946   0.830   0.013  1.00  0.00     0.132 C 
HETATM   22  C6  UNL     1      -5.198   0.017  -0.285  1.00  0.00     0.040 C 
HETATM   23  C7  UNL     1      -6.198   0.135   0.843  1.00  0.00     0.126 C 
HETATM   24  N4  UNL     1      -5.595  -0.318   2.077  1.00  0.00    -0.343 N 
HETATM   25  C8  UNL     1      -4.183  -0.324   2.272  1.00  0.00     0.320 C 
HETATM   26  H13 UNL     1      -6.199  -0.656   2.865  1.00  0.00     0.164 HD
HETATM   27  O1  UNL     1      -3.606  -0.911   3.207  1.00  0.00    -0.247 OA
ENDBRANCH  16  20
ENDBRANCH  14  16
ENDBRANCH   8  10
ENDBRANCH   6   7
ENDBRANCH   4   5
ENDBRANCH   1   4
TORSDOF 7
