REMARK  2 active torsions:
REMARK  status: ('A' for Active; 'I' for Inactive)
REMARK    1  A    between atoms: N1_1  and  O1_2 
REMARK    2  A    between atoms: O1_2  and  C1_3 
ROOT
HETATM    1  C1  UNL     1       3.785  -0.303  -0.293  1.00  0.00     0.092 A 
HETATM    2  C2  UNL     1       3.854  -1.604   0.158  1.00  0.00     0.039 A 
HETATM    3  C3  UNL     1       2.672  -2.227   0.498  1.00  0.00     0.004 A 
HETATM    4  C4  UNL     1       1.435  -1.580   0.397  1.00  0.00     0.014 A 
HETATM    5  C5  UNL     1       1.354  -0.305  -0.044  1.00  0.00    -0.006 A 
HETATM    6  C6  UNL     1       0.062   0.340  -0.139  1.00  0.00     0.073 C 
HETATM    7  N2  UNL     1      -0.896  -0.444   0.236  1.00  0.00    -0.228 NA
HETATM    8  C7  UNL     1      -2.307  -0.131   0.270  1.00  0.00     0.195 C 
HETATM    9  N3  UNL     1      -2.952  -1.224   0.488  1.00  0.00    -0.246 NA
HETATM   10  C8  UNL     1      -4.358  -1.511   0.621  1.00  0.00     0.301 C 
HETATM   11  N4  UNL     1      -5.236  -0.653  -0.118  1.00  0.00    -0.261 NA
HETATM   12  C9  UNL     1      -5.142   0.580  -0.474  1.00  0.00     0.231 C 
HETATM   13  N5  UNL     1      -4.090   1.545  -0.245  1.00  0.00    -0.219 NA
HETATM   14  C10 UNL     1      -2.854   1.237   0.080  1.00  0.00     0.197 C 
HETATM   15  N6  UNL     1      -2.130   2.456   0.211  1.00  0.00    -0.245 N 
HETATM   16  O2  UNL     1      -0.764   2.553   0.332  1.00  0.00    -0.273 OA
HETATM   17  C11 UNL     1      -0.116   1.734  -0.614  1.00  0.00     0.261 C 
HETATM   18  C12 UNL     1       2.544   0.297  -0.377  1.00  0.00     0.052 A 
HETATM   19  H9  UNL     1      -2.793   3.275   0.203  1.00  0.00     0.196 HD
ENDROOT
BRANCH   1  20
HETATM   20  O1  UNL     1       4.962   0.312  -0.629  1.00  0.00    -0.267 OA
BRANCH  20  21
HETATM   21  N1  UNL     1       5.923   0.460   0.351  1.00  0.00    -0.209 NA
HETATM   22  H1  UNL     1       5.476   0.985   1.139  1.00  0.00     0.150 HD
HETATM   23  H2  UNL     1       6.265  -0.446   0.732  1.00  0.00     0.150 HD
ENDBRANCH  20  21
ENDBRANCH   1  20
TORSDOF 2
