REMARK  8 active torsions:
REMARK  status: ('A' for Active; 'I' for Inactive)
REMARK    1  A    between atoms: N1_2  and  C2_3 
REMARK    2  A    between atoms: C5_8  and  C6_9 
REMARK    3  A    between atoms: C6_9  and  C7_10 
REMARK    4  A    between atoms: C7_10  and  C8_11 
REMARK    5  A    between atoms: C8_11  and  C9_12 
REMARK    6  A    between atoms: C9_12  and  O1_13 
REMARK    7  A    between atoms: C10_14  and  C11_15 
REMARK    8  A    between atoms: C15_19  and  O2_20 
ROOT
HETATM    1  C2  UNL     1       4.070   0.391  -0.087  1.00  0.00     0.446 C 
HETATM    2  N2  UNL     1       3.816   0.867   1.281  1.00  0.00    -0.232 NA
HETATM    3  C3  UNL     1       2.603   1.215   1.554  1.00  0.00     0.191 C 
HETATM    4  N3  UNL     1       1.212   1.416   1.224  1.00  0.00    -0.399 NA
HETATM    5  C4  UNL     1       0.461   0.453   0.926  1.00  0.00     0.340 C 
HETATM    6  C5  UNL     1      -0.854   0.018   0.544  1.00  0.00    -0.002 C 
HETATM    7  C10 UNL     1      -0.965  -1.395   0.316  1.00  0.00     0.075 C 
HETATM    8  N4  UNL     1       0.129  -1.976   0.476  1.00  0.00    -0.258 NA
HETATM    9  C17 UNL     1       1.404  -1.682   0.803  1.00  0.00     0.134 C 
HETATM   10  C18 UNL     1       2.513  -1.369   0.161  1.00  0.00     0.106 C 
HETATM   11  N5  UNL     1       3.851  -1.020  -0.143  1.00  0.00    -0.351 N 
HETATM   12  H21 UNL     1       4.518  -1.810  -0.368  1.00  0.00     0.162 HD
ENDROOT
BRANCH   7  13
HETATM   13  C11 UNL     1      -2.068  -2.210  -0.069  1.00  0.00    -0.004 A 
HETATM   14  C12 UNL     1      -3.395  -2.003  -0.292  1.00  0.00     0.014 A 
HETATM   15  C13 UNL     1      -4.392  -2.844  -0.704  1.00  0.00     0.004 A 
HETATM   16  C14 UNL     1      -3.982  -4.136  -0.936  1.00  0.00     0.036 A 
HETATM   17  C15 UNL     1      -2.681  -4.522  -0.762  1.00  0.00     0.066 A 
HETATM   18  C16 UNL     1      -1.791  -3.558  -0.342  1.00  0.00     0.050 A 
BRANCH  17  19
HETATM   19  O2  UNL     1      -2.340  -5.827  -1.011  1.00  0.00    -0.361 OA
HETATM   20  H17 UNL     1      -1.961  -6.450  -0.286  1.00  0.00     0.217 HD
ENDBRANCH  17  19
ENDBRANCH   7  13
BRANCH   6  21
HETATM   21  C6  UNL     1      -1.996   0.584   0.320  1.00  0.00     0.011 C 
BRANCH  21  22
HETATM   22  C7  UNL     1      -1.916   2.023   0.501  1.00  0.00    -0.001 C 
BRANCH  22  23
HETATM   23  C8  UNL     1      -2.581   3.149   0.459  1.00  0.00    -0.001 C 
BRANCH  23  24
HETATM   24  C9  UNL     1      -3.058   4.505   0.491  1.00  0.00     0.191 C 
BRANCH  24  25
HETATM   25  O1  UNL     1      -3.545   4.898  -0.764  1.00  0.00    -0.397 OA
HETATM   26  H13 UNL     1      -3.655   5.885  -0.812  1.00  0.00     0.209 HD
ENDBRANCH  24  25
ENDBRANCH  23  24
ENDBRANCH  22  23
ENDBRANCH  21  22
ENDBRANCH   6  21
BRANCH   1  27
HETATM   27  N1  UNL     1       5.436   0.751  -0.392  1.00  0.00     0.123 N 
HETATM   28  C1  UNL     1       5.672   2.163  -0.326  1.00  0.00     0.312 C 
HETATM   29  H4  UNL     1       6.131   0.170   0.089  1.00  0.00     0.320 HD
ENDBRANCH   1  27
TORSDOF 8
