REMARK  1 active torsions:
REMARK  status: ('A' for Active; 'I' for Inactive)
REMARK    1  A    between atoms: O1_2  and  C2_3 
ROOT
HETATM    1  C2  UNL     1      -3.009  -0.291   1.306  1.00  0.00     0.101 C 
HETATM    2  C3  UNL     1      -2.803  -1.395   2.035  1.00  0.00     0.040 C 
HETATM    3  C4  UNL     1      -1.712  -2.378   1.836  1.00  0.00     0.013 C 
HETATM    4  C5  UNL     1      -0.597  -2.185   1.154  1.00  0.00    -0.020 C 
HETATM    5  C6  UNL     1      -0.189  -1.144   0.141  1.00  0.00     0.071 C 
HETATM    6  C7  UNL     1      -1.439  -0.686  -0.520  1.00  0.00     0.018 C 
HETATM    7  C8  UNL     1      -2.172   0.195   0.224  1.00  0.00     0.099 C 
HETATM    8  O2  UNL     1      -2.106   1.596  -0.070  1.00  0.00    -0.345 OA
HETATM    9  C9  UNL     1      -1.030   1.889  -0.955  1.00  0.00     0.203 C 
HETATM   10  C10 UNL     1      -0.367   3.175  -0.755  1.00  0.00     0.003 C 
HETATM   11  C11 UNL     1       0.884   3.458  -0.445  1.00  0.00     0.040 C 
HETATM   12  C12 UNL     1       2.109   2.735  -0.162  1.00  0.00     0.114 C 
HETATM   13  F1  UNL     1       3.363   3.090   0.130  1.00  0.00    -0.206 F 
HETATM   14  C13 UNL     1       2.598   1.518  -0.047  1.00  0.00     0.034 C 
HETATM   15  C14 UNL     1       3.288   0.190   0.114  1.00  0.00     0.146 C 
HETATM   16  N1  UNL     1       3.161  -0.622  -1.063  1.00  0.00    -0.402 N 
HETATM   17  C15 UNL     1       3.599  -1.953  -0.963  1.00  0.00     0.258 C 
HETATM   18  N2  UNL     1       2.853  -2.745   0.021  1.00  0.00    -0.297 N 
HETATM   19  N3  UNL     1       2.167  -3.472   0.924  1.00  0.00    -0.181 NA
HETATM   20  P1  UNL     1       0.719  -3.378   1.513  1.00  0.00     0.117 P 
HETATM   21  H16 UNL     1       2.315  -0.409  -1.596  1.00  0.00     0.155 HD
HETATM   22  H19 UNL     1       3.385  -3.138   0.858  1.00  0.00     0.184 HD
ENDROOT
BRANCH   1  23
HETATM   23  O1  UNL     1      -4.075   0.567   1.482  1.00  0.00    -0.353 OA
HETATM   24  C1  UNL     1      -4.885   1.092   0.469  1.00  0.00     0.210 C 
ENDBRANCH   1  23
TORSDOF 1
