REMARK  7 active torsions:
REMARK  status: ('A' for Active; 'I' for Inactive)
REMARK    1  A    between atoms: C6_8  and  C7_9 
REMARK    2  A    between atoms: C8_10  and  C9_11 
REMARK    3  A    between atoms: C9_11  and  N2_12 
REMARK    4  A    between atoms: C9_11  and  C10_13 
REMARK    5  A    between atoms: N3_14  and  C11_15 
REMARK    6  A    between atoms: C13_17  and  N4_18 
REMARK    7  A    between atoms: C14_20  and  N6_21 
ROOT
HETATM    1  C9  UNL     1       0.333   0.510   0.346  1.00  0.00     0.281 C 
ENDROOT
BRANCH   1   2
HETATM    2  C8  UNL     1      -0.664   0.536  -0.726  1.00  0.00     0.014 C 
HETATM    3  C7  UNL     1      -1.959   0.589  -0.782  1.00  0.00     0.014 C 
BRANCH   3   4
HETATM    4  C6  UNL     1      -3.197   0.653  -0.027  1.00  0.00     0.012 C 
HETATM    5  C1  UNL     1      -3.182   0.692   1.451  1.00  0.00     0.167 C 
HETATM    6  N1  UNL     1      -2.171   1.391   1.896  1.00  0.00    -0.277 NA
HETATM    7  O1  UNL     1      -4.127   0.065   2.278  1.00  0.00    -0.334 OA
HETATM    8  H1  UNL     1      -2.041   1.501   2.918  1.00  0.00     0.189 HD
HETATM    9  C2  UNL     1      -5.538   0.005   2.138  1.00  0.00     0.178 C 
HETATM   10  C3  UNL     1      -6.007  -0.358   0.771  1.00  0.00     0.030 C 
HETATM   11  C4  UNL     1      -5.764   0.748  -0.263  1.00  0.00     0.030 C 
HETATM   12  C5  UNL     1      -4.333   0.681  -0.705  1.00  0.00    -0.011 C 
ENDBRANCH   3   4
ENDBRANCH   1   2
BRANCH   1  13
HETATM   13  N2  UNL     1       0.113  -0.632   1.257  1.00  0.00     0.091 N 
HETATM   14  H12 UNL     1       0.553  -1.483   0.840  1.00  0.00     0.314 HD
HETATM   15  H13 UNL     1       0.719  -0.416   2.099  1.00  0.00     0.314 HD
ENDBRANCH   1  13
BRANCH   1  16
HETATM   16  C10 UNL     1       1.728   0.305  -0.144  1.00  0.00     0.131 C 
HETATM   17  N3  UNL     1       2.664   0.202   0.732  1.00  0.00    -0.242 NA
BRANCH  17  18
HETATM   18  C11 UNL     1       3.988   0.006   0.198  1.00  0.00     0.171 A 
HETATM   19  C12 UNL     1       4.205  -1.287  -0.282  1.00  0.00     0.103 A 
HETATM   20  C13 UNL     1       5.411  -1.696  -0.842  1.00  0.00     0.144 A 
HETATM   21  N5  UNL     1       6.388  -0.749  -0.896  1.00  0.00    -0.046 NA
HETATM   22  C14 UNL     1       6.145   0.496  -0.421  1.00  0.00     0.724 A 
HETATM   23  N7  UNL     1       4.986   0.908   0.122  1.00  0.00    -0.043 NA
BRANCH  20  24
HETATM   24  N4  UNL     1       5.588  -3.024  -1.319  1.00  0.00    -0.383 N 
HETATM   25  H16 UNL     1       5.265  -3.713  -0.601  1.00  0.00     0.157 HD
HETATM   26  H17 UNL     1       5.998  -3.088  -2.275  1.00  0.00     0.157 HD
ENDBRANCH  20  24
BRANCH  22  27
HETATM   27  N6  UNL     1       7.209   1.424  -0.513  1.00  0.00    -0.231 N 
HETATM   28  H18 UNL     1       7.463   1.968  -1.372  1.00  0.00     0.174 HD
HETATM   29  H19 UNL     1       7.885   1.707   0.223  1.00  0.00     0.174 HD
ENDBRANCH  22  27
ENDBRANCH  17  18
ENDBRANCH   1  16
TORSDOF 7
