REMARK  3 active torsions:
REMARK  status: ('A' for Active; 'I' for Inactive)
REMARK    1  A    between atoms: N3_11  and  C8_12 
REMARK    2  A    between atoms: C8_12  and  C9_13 
REMARK    3  A    between atoms: C9_13  and  O1_14 
ROOT
HETATM    1  C1  UNL     1      -2.151   4.202  -0.802  1.00  0.00     0.022 C 
HETATM    2  C2  UNL     1      -2.238   3.978   0.678  1.00  0.00     0.062 C 
HETATM    3  B1  UNL     1      -0.710   4.607   1.464  1.00  0.00     0.232 B 
HETATM    4  C3  UNL     1       0.540   3.358   1.212  1.00  0.00    -0.053 C 
HETATM    5  C4  UNL     1       0.100   2.007   0.928  1.00  0.00     0.117 C 
HETATM    6  C5  UNL     1      -1.365   1.768   0.993  1.00  0.00     0.104 C 
HETATM    7  N1  UNL     1      -2.349   2.563   1.038  1.00  0.00    -0.282 NA
HETATM    8  N2  UNL     1      -2.069   0.513   0.981  1.00  0.00    -0.335 N 
HETATM    9  C6  UNL     1      -3.334   0.047   1.421  1.00  0.00     0.160 C 
HETATM   10  C7  UNL     1      -4.059  -0.358   0.114  1.00  0.00     0.293 C 
HETATM   11  N3  UNL     1      -3.111  -0.860  -0.813  1.00  0.00     0.097 N 
HETATM   12  C10 UNL     1      -1.861  -0.137  -0.919  1.00  0.00     0.329 C 
HETATM   13  C11 UNL     1      -1.060  -0.152   0.331  1.00  0.00     0.041 C 
HETATM   14  C12 UNL     1       0.061  -0.809   0.229  1.00  0.00     0.027 C 
HETATM   15  C13 UNL     1       1.123  -1.323   1.073  1.00  0.00     0.000 C 
HETATM   16  C14 UNL     1       2.266  -1.949   1.090  1.00  0.00     0.003 C 
HETATM   17  C15 UNL     1       3.035  -2.449  -0.110  1.00  0.00     0.044 C 
HETATM   18  C16 UNL     1       4.159  -3.341   0.341  1.00  0.00     0.042 C 
HETATM   19  C17 UNL     1       2.192  -3.070  -1.160  1.00  0.00     0.042 C 
HETATM   20  N4  UNL     1       3.655  -1.196  -0.601  1.00  0.00    -0.345 N 
HETATM   21  C18 UNL     1       4.241  -0.017  -1.067  1.00  0.00     0.261 C 
HETATM   22  O2  UNL     1       4.884  -0.224  -2.095  1.00  0.00    -0.267 OA
HETATM   23  C19 UNL     1       4.267   1.400  -0.615  1.00  0.00     0.093 A 
HETATM   24  C20 UNL     1       4.879   2.597  -0.535  1.00  0.00     0.144 A 
HETATM   25  N5  UNL     1       4.203   3.526   0.098  1.00  0.00    -0.235 NA
HETATM   26  C21 UNL     1       3.145   3.466   0.605  1.00  0.00     0.170 A 
HETATM   27  S1  UNL     1       2.708   1.675   0.249  1.00  0.00    -0.045 SA
HETATM   28  N6  UNL     1       1.894   3.652   1.291  1.00  0.00    -0.353 N 
HETATM   29  H27 UNL     1       3.390  -0.502   0.119  1.00  0.00     0.163 HD
HETATM   30  H29 UNL     1       2.195   4.204   2.116  1.00  0.00     0.166 HD
ENDROOT
BRANCH  11  31
HETATM   31  C8  UNL     1      -2.964  -2.281  -0.722  1.00  0.00     0.298 C 
BRANCH  31  32
HETATM   32  C9  UNL     1      -4.202  -2.964  -1.239  1.00  0.00     0.194 C 
BRANCH  32  33
HETATM   33  O1  UNL     1      -4.041  -4.355  -1.129  1.00  0.00    -0.399 OA
HETATM   34  H15 UNL     1      -3.952  -4.545  -0.149  1.00  0.00     0.209 HD
ENDBRANCH  32  33
ENDBRANCH  31  32
ENDBRANCH  11  31
TORSDOF 3
