REMARK  6 active torsions:
REMARK  status: ('A' for Active; 'I' for Inactive)
REMARK    1  A    between atoms: C2_2  and  N1_3 
REMARK    2  A    between atoms: N1_3  and  C3_4 
REMARK       I    between atoms: N1_3  and  C22_27 
REMARK    3  A    between atoms: C3_4  and  C4_5 
REMARK    4  A    between atoms: C4_5  and  C5_6 
REMARK    5  A    between atoms: C5_6  and  C6_7 
REMARK    6  A    between atoms: C22_27  and  C23_29 
ROOT
HETATM    1  C6  UNL     1      -0.543   0.068   0.513  1.00  0.00    -0.050 C 
HETATM    2  C7  UNL     1      -1.549   0.847   0.997  1.00  0.00    -0.002 C 
HETATM    3  C8  UNL     1      -2.278   1.817   0.171  1.00  0.00     0.134 C 
HETATM    4  C9  UNL     1      -1.367   1.981  -1.033  1.00  0.00     0.053 C 
HETATM    5  C10 UNL     1      -1.024   3.188  -1.462  1.00  0.00     0.047 C 
HETATM    6  O1  UNL     1      -0.890   0.819  -1.691  1.00  0.00    -0.342 OA
HETATM    7  C11 UNL     1      -0.879  -0.387  -0.904  1.00  0.00     0.180 C 
HETATM    8  C12 UNL     1      -2.213  -1.024  -0.903  1.00  0.00     0.006 C 
HETATM    9  C13 UNL     1      -2.466  -2.046  -0.102  1.00  0.00    -0.028 C 
HETATM   10  C14 UNL     1      -3.884  -2.573  -0.206  1.00  0.00     0.027 C 
HETATM   11  C15 UNL     1      -4.404  -2.488   1.227  1.00  0.00     0.005 C 
HETATM   12  C16 UNL     1      -4.219  -1.229   1.935  1.00  0.00     0.021 C 
HETATM   13  C17 UNL     1      -4.791   0.046   1.622  1.00  0.00     0.131 C 
HETATM   14  N2  UNL     1      -4.638   0.744   0.404  1.00  0.00    -0.324 N 
HETATM   15  C18 UNL     1      -5.672   0.810  -0.496  1.00  0.00     0.135 A 
HETATM   16  C19 UNL     1      -7.006   0.221  -0.438  1.00  0.00     0.119 C 
HETATM   17  N3  UNL     1      -8.063  -0.258  -0.375  1.00  0.00    -0.190 NA
HETATM   18  C20 UNL     1      -5.350   1.546  -1.587  1.00  0.00     0.160 A 
HETATM   19  N4  UNL     1      -4.099   1.950  -1.378  1.00  0.00    -0.243 NA
HETATM   20  C21 UNL     1      -3.659   1.480  -0.196  1.00  0.00     0.121 A 
ENDROOT
BRANCH   1  21
HETATM   21  C5  UNL     1       0.732  -0.382   1.082  1.00  0.00     0.038 C 
BRANCH  21  22
HETATM   22  C4  UNL     1       1.947   0.072   0.269  1.00  0.00     0.025 C 
BRANCH  22  23
HETATM   23  C3  UNL     1       3.164  -0.486   1.010  1.00  0.00     0.131 C 
BRANCH  23  24
HETATM   24  N1  UNL     1       4.391  -0.137   0.349  1.00  0.00    -0.332 N 
HETATM   25  C22 UNL     1       5.105   1.055   0.654  1.00  0.00     0.226 C 
HETATM   26  O2  UNL     1       4.619   1.818   1.548  1.00  0.00    -0.273 OA
BRANCH  24  27
HETATM   27  C2  UNL     1       4.883  -1.032  -0.639  1.00  0.00     0.067 C 
HETATM   28  C1  UNL     1       4.266  -2.145  -0.961  1.00  0.00     0.050 C 
ENDBRANCH  24  27
BRANCH  25  29
HETATM   29  C23 UNL     1       6.360   1.395  -0.036  1.00  0.00     0.070 C 
HETATM   30  C24 UNL     1       6.032   1.510  -1.508  1.00  0.00     0.019 C 
HETATM   31  C25 UNL     1       7.423   0.357   0.187  1.00  0.00     0.019 C 
ENDBRANCH  25  29
ENDBRANCH  23  24
ENDBRANCH  22  23
ENDBRANCH  21  22
ENDBRANCH   1  21
TORSDOF 6
