REMARK  4 active torsions:
REMARK  status: ('A' for Active; 'I' for Inactive)
REMARK    1  A    between atoms: C3_6  and  C4_7 
REMARK    2  A    between atoms: C4_7  and  C5_8 
REMARK    3  A    between atoms: C5_8  and  C6_9 
REMARK    4  A    between atoms: C8_12  and  S1_13 
ROOT
HETATM    1  O1  UNL     1       2.919  -1.544   0.616  1.00  0.00    -0.270 OA
HETATM    2  C1  UNL     1       2.149  -1.937  -0.336  1.00  0.00     0.259 C 
HETATM    3  C2  UNL     1       2.320  -1.946  -1.867  1.00  0.00     0.216 C 
HETATM    4  N1  UNL     1       1.128  -1.187  -2.374  1.00  0.00    -0.223 NA
HETATM    5  N2  UNL     1       0.586  -0.803  -1.101  1.00  0.00    -0.262 N 
HETATM    6  C3  UNL     1       0.966   0.441  -0.567  1.00  0.00     0.057 C 
HETATM    7  C7  UNL     1       0.324   1.338   0.336  1.00  0.00    -0.028 A 
HETATM    8  C8  UNL     1      -0.367   2.025   1.160  1.00  0.00     0.179 A 
HETATM    9  C9  UNL     1      -0.678   0.580   1.133  1.00  0.00     0.058 A 
HETATM   10  C10 UNL     1      -1.675   0.356   2.030  1.00  0.00    -0.020 C 
HETATM   11  C11 UNL     1      -2.663  -0.373   2.819  1.00  0.00    -0.024 C 
HETATM   12  C12 UNL     1      -3.909  -0.312   2.467  1.00  0.00    -0.019 C 
HETATM   13  C13 UNL     1      -4.225  -0.628   1.234  1.00  0.00     0.063 C 
HETATM   14  C14 UNL     1      -3.174  -0.758   0.245  1.00  0.00     0.116 A 
HETATM   15  C15 UNL     1      -2.614  -1.963  -0.086  1.00  0.00    -0.001 A 
HETATM   16 CL1  UNL     1      -3.823  -2.330   1.114  1.00  0.00    -0.180 Cl
HETATM   17  C16 UNL     1      -1.609  -1.655  -1.084  1.00  0.00     0.127 C 
HETATM   18  C17 UNL     1      -0.185  -1.934  -0.703  1.00  0.00     0.129 C 
HETATM   19  N3  UNL     1       0.867  -2.499  -0.226  1.00  0.00    -0.198 NA
HETATM   20  H3  UNL     1       1.415  -0.412  -2.959  1.00  0.00     0.147 HD
ENDROOT
BRANCH   6  21
HETATM   21  C4  UNL     1       2.027   1.156  -0.842  1.00  0.00     0.033 C 
BRANCH  21  22
HETATM   22  C5  UNL     1       3.059   2.201  -0.881  1.00  0.00     0.032 C 
BRANCH  22  23
HETATM   23  C6  UNL     1       4.124   2.147  -1.704  1.00  0.00     0.188 C 
HETATM   24  F1  UNL     1       5.040   3.112  -1.708  1.00  0.00    -0.219 F 
ENDBRANCH  22  23
ENDBRANCH  21  22
ENDBRANCH   6  21
BRANCH   8  25
HETATM   25  S1  UNL     1      -0.021   3.681   1.815  1.00  0.00    -0.244 SA
HETATM   26  H8  UNL     1      -0.754   3.787   3.039  1.00  0.00     0.082 HD
ENDBRANCH   8  25
TORSDOF 4
