REMARK  3 active torsions:
REMARK  status: ('A' for Active; 'I' for Inactive)
REMARK    1  A    between atoms: C3_7  and  S1_8 
REMARK    2  A    between atoms: S1_8  and  C4_9 
REMARK    3  A    between atoms: C13_20  and  C14_21 
ROOT
HETATM    1  O1  UNL     1      -4.034   2.608   0.844  1.00  0.00    -0.265 OA
HETATM    2  C1  UNL     1      -2.970   1.983   0.630  1.00  0.00     0.281 A 
HETATM    3  N1  UNL     1      -1.866   2.684   0.883  1.00  0.00    -0.203 NA
HETATM    4  C2  UNL     1      -0.656   2.147   0.701  1.00  0.00     0.239 A 
HETATM    5  N2  UNL     1      -0.525   0.886   0.260  1.00  0.00    -0.225 N 
HETATM    6  N3  UNL     1       0.633   0.326   0.083  1.00  0.00    -0.159 NA
HETATM    7  C3  UNL     1       0.845  -0.916  -0.336  1.00  0.00     0.119 A 
HETATM    8  C10 UNL     1      -0.305  -1.670  -0.605  1.00  0.00     0.043 A 
HETATM    9  C11 UNL     1      -1.555  -1.117  -0.432  1.00  0.00     0.036 A 
HETATM   10  C12 UNL     1      -1.637   0.181   0.006  1.00  0.00     0.076 A 
HETATM   11  C13 UNL     1      -2.888   0.687   0.175  1.00  0.00     0.076 A 
ENDROOT
BRANCH   7  12
HETATM   12  S1  UNL     1       2.377  -1.778  -0.610  1.00  0.00    -0.066 SA
BRANCH  12  13
HETATM   13  C4  UNL     1       3.785  -0.750  -0.247  1.00  0.00     0.045 A 
HETATM   14  C5  UNL     1       3.860   0.554   0.193  1.00  0.00     0.025 A 
HETATM   15  C6  UNL     1       5.077   1.160   0.411  1.00  0.00     0.044 A 
HETATM   16  C7  UNL     1       6.281   0.492   0.199  1.00  0.00     0.119 A 
HETATM   17  F1  UNL     1       7.402   1.198   0.449  1.00  0.00    -0.206 F 
HETATM   18  C8  UNL     1       6.205  -0.810  -0.240  1.00  0.00     0.086 A 
HETATM   19  C9  UNL     1       4.979  -1.432  -0.464  1.00  0.00     0.136 A 
HETATM   20  F2  UNL     1       5.126  -2.719  -0.895  1.00  0.00    -0.205 F 
ENDBRANCH  12  13
ENDBRANCH   7  12
BRANCH  11  21
HETATM   21  C14 UNL     1      -4.182   0.063  -0.050  1.00  0.00     0.026 A 
HETATM   22  C15 UNL     1      -4.718  -0.563  -1.098  1.00  0.00     0.048 A 
HETATM   23 CL1  UNL     1      -4.288  -1.015  -2.740  1.00  0.00    -0.083 Cl
HETATM   24  C16 UNL     1      -6.072  -0.987  -0.731  1.00  0.00     0.038 A 
HETATM   25  C17 UNL     1      -6.285  -0.550   0.503  1.00  0.00     0.000 A 
HETATM   26  C18 UNL     1      -5.212   0.038   1.012  1.00  0.00     0.058 A 
HETATM   27 CL2  UNL     1      -5.063   0.659   2.641  1.00  0.00    -0.082 Cl
ENDBRANCH  11  21
TORSDOF 3
