REMARK  2 active torsions:
REMARK  status: ('A' for Active; 'I' for Inactive)
REMARK    1  A    between atoms: C2_2  and  N1_4 
REMARK    2  A    between atoms: C12_15  and  O1_16 
ROOT
HETATM    1  N1  UNL     1      -2.652  -0.517   0.131  1.00  0.00    -0.280 N 
HETATM    2  C4  UNL     1      -2.383   0.321   1.278  1.00  0.00     0.228 C 
HETATM    3  N2  UNL     1      -1.991   1.280   0.506  1.00  0.00    -0.236 NA
HETATM    4  C5  UNL     1      -1.560   2.491   1.116  1.00  0.00     0.228 C 
HETATM    5  N3  UNL     1      -0.346   2.498   0.678  1.00  0.00    -0.282 NA
HETATM    6  C6  UNL     1       0.246   1.503  -0.168  1.00  0.00     0.158 C 
HETATM    7  C7  UNL     1       1.073   0.504   0.637  1.00  0.00     0.028 C 
HETATM    8  C8  UNL     1       2.405   1.078   0.998  1.00  0.00     0.045 C 
HETATM    9  C9  UNL     1       3.559   0.452   0.344  1.00  0.00    -0.065 A 
HETATM   10  C10 UNL     1       4.642   0.775  -0.345  1.00  0.00     0.006 A 
HETATM   11  C11 UNL     1       5.382  -0.446  -0.697  1.00  0.00     0.033 A 
HETATM   12  C12 UNL     1       4.710  -1.473  -0.203  1.00  0.00     0.055 A 
HETATM   13  C13 UNL     1       3.492  -1.020   0.505  1.00  0.00     0.093 A 
HETATM   14  C14 UNL     1       2.252  -1.453  -0.207  1.00  0.00    -0.018 C 
HETATM   15  C15 UNL     1       1.142  -0.737  -0.135  1.00  0.00    -0.093 C 
HETATM   16  B1  UNL     1      -0.289  -1.311  -1.005  1.00  0.00     0.368 B 
HETATM   17  N4  UNL     1      -1.791  -1.152  -0.793  1.00  0.00    -0.288 NA
ENDROOT
BRANCH   1  18
HETATM   18  C2  UNL     1      -4.071  -0.625   0.053  1.00  0.00     0.101 C 
HETATM   19  C1  UNL     1      -4.540  -1.477  -1.104  1.00  0.00     0.034 C 
HETATM   20  C3  UNL     1      -4.800   0.678  -0.025  1.00  0.00     0.034 C 
ENDBRANCH   1  18
BRANCH  12  21
HETATM   21  O1  UNL     1       5.314  -2.679  -0.474  1.00  0.00    -0.364 OA
HETATM   22  H17 UNL     1       5.335  -3.044  -1.412  1.00  0.00     0.217 HD
ENDBRANCH  12  21
TORSDOF 2
