REMARK  1 active torsions:
REMARK  status: ('A' for Active; 'I' for Inactive)
REMARK    1  A    between atoms: O1_1  and  C1_2 
ROOT
HETATM    1  C1  UNL     1       4.272  -1.242   0.476  1.00  0.00     0.066 A 
HETATM    2  C2  UNL     1       3.401  -2.309   0.511  1.00  0.00     0.039 A 
HETATM    3  C3  UNL     1       2.096  -2.142   0.026  1.00  0.00     0.033 A 
HETATM    4  C4  UNL     1       1.598  -0.968  -0.496  1.00  0.00     0.044 A 
HETATM    5  C5  UNL     1       2.423   0.117  -0.552  1.00  0.00    -0.007 A 
HETATM    6  C6  UNL     1       3.723  -0.069  -0.064  1.00  0.00     0.050 A 
HETATM    7  C7  UNL     1       2.296   1.486  -1.013  1.00  0.00     0.010 C 
HETATM    8  C8  UNL     1       1.516   2.499  -0.683  1.00  0.00    -0.026 C 
HETATM    9  C9  UNL     1       0.512   2.243   0.402  1.00  0.00     0.029 C 
HETATM   10  C10 UNL     1      -0.860   2.517  -0.081  1.00  0.00     0.025 C 
HETATM   11  C11 UNL     1      -2.012   2.145   0.785  1.00  0.00     0.146 C 
HETATM   12  N1  UNL     1      -2.180   0.689   0.885  1.00  0.00    -0.289 N 
HETATM   13  N2  UNL     1      -0.937  -0.007   0.836  1.00  0.00    -0.157 NA
HETATM   14  C12 UNL     1      -0.929  -0.822  -0.144  1.00  0.00     0.158 C 
HETATM   15  N3  UNL     1       0.260  -1.239  -0.847  1.00  0.00    -0.338 N 
HETATM   16  C13 UNL     1      -2.329  -1.168  -0.349  1.00  0.00     0.036 A 
HETATM   17  C14 UNL     1      -3.032  -1.763  -1.279  1.00  0.00     0.122 A 
HETATM   18  N4  UNL     1      -4.446  -1.853  -0.999  1.00  0.00    -0.289 N 
HETATM   19  N5  UNL     1      -4.927  -1.320   0.200  1.00  0.00    -0.189 NA
HETATM   20  C15 UNL     1      -4.202  -0.750   1.102  1.00  0.00     0.143 A 
HETATM   21  C16 UNL     1      -2.765  -0.595   0.995  1.00  0.00     0.184 A 
HETATM   22  H13 UNL     1       0.194  -1.816  -1.709  1.00  0.00     0.167 HD
HETATM   23  H15 UNL     1      -5.027  -2.319  -1.721  1.00  0.00     0.188 HD
ENDROOT
BRANCH   1  24
HETATM   24  O1  UNL     1       5.549  -1.367   0.939  1.00  0.00    -0.361 OA
HETATM   25  H1  UNL     1       6.348  -0.981   0.481  1.00  0.00     0.217 HD
ENDBRANCH   1  24
TORSDOF 1
