REMARK  2 active torsions:
REMARK  status: ('A' for Active; 'I' for Inactive)
REMARK    1  A    between atoms: N5_22  and  C17_23 
REMARK    2  A    between atoms: C17_23  and  C19_25 
ROOT
HETATM    1  C1  UNL     1      -3.799   3.503   0.820  1.00  0.00     0.043 C 
HETATM    2  C2  UNL     1      -3.349   2.093   0.453  1.00  0.00    -0.084 C 
HETATM    3  C3  UNL     1      -2.116   1.989   0.077  1.00  0.00     0.005 C 
HETATM    4  C4  UNL     1      -0.856   1.438  -0.373  1.00  0.00    -0.075 C 
HETATM    5  C5  UNL     1      -1.233   0.124  -0.370  1.00  0.00     0.029 C 
HETATM    6  C6  UNL     1      -2.173  -1.021  -0.164  1.00  0.00     0.035 C 
HETATM    7  C7  UNL     1      -2.122  -2.363  -0.315  1.00  0.00     0.009 C 
HETATM    8  C8  UNL     1      -3.464  -2.428   0.143  1.00  0.00     0.057 C 
HETATM    9  C9  UNL     1      -4.009  -1.162   0.742  1.00  0.00     0.006 C 
HETATM   10  C10 UNL     1      -4.536  -0.090  -0.111  1.00  0.00     0.005 C 
HETATM   11  C11 UNL     1      -4.599   1.302   0.480  1.00  0.00     0.034 C 
HETATM   12  N1  UNL     1      -0.834  -2.495  -0.763  1.00  0.00    -0.324 N 
HETATM   13  C12 UNL     1       0.466  -2.629  -1.216  1.00  0.00     0.293 C 
HETATM   14  O1  UNL     1       0.002  -2.949  -2.306  1.00  0.00    -0.264 OA
HETATM   15  C13 UNL     1       1.736  -2.412  -0.479  1.00  0.00     0.219 A 
HETATM   16  N2  UNL     1       2.161  -3.616  -0.201  1.00  0.00    -0.234 NA
HETATM   17  C14 UNL     1       3.310  -3.543   0.493  1.00  0.00     0.162 A 
HETATM   18  C15 UNL     1       3.494  -2.156   0.580  1.00  0.00     0.155 A 
HETATM   19  C16 UNL     1       4.703  -1.745   1.295  1.00  0.00     0.121 C 
HETATM   20  N3  UNL     1       5.685  -1.426   1.868  1.00  0.00    -0.190 NA
HETATM   21  N4  UNL     1       2.500  -1.429  -0.033  1.00  0.00    -0.223 N 
HETATM   22  N5  UNL     1       2.718  -0.027   0.086  1.00  0.00    -0.311 N 
HETATM   23  C20 UNL     1       2.151   1.093   0.852  1.00  0.00     0.144 C 
HETATM   24  C21 UNL     1       1.548   2.161  -0.031  1.00  0.00     0.026 C 
HETATM   25  C22 UNL     1       0.452   1.710  -0.882  1.00  0.00     0.036 C 
HETATM   26  H15 UNL     1      -0.582  -2.390   0.269  1.00  0.00     0.169 HD
ENDROOT
BRANCH  22  27
HETATM   27  C17 UNL     1       3.839   0.458  -0.708  1.00  0.00     0.132 C 
HETATM   28  C18 UNL     1       4.470  -0.571  -1.586  1.00  0.00     0.036 C 
BRANCH  27  29
HETATM   29  C19 UNL     1       4.851   1.197   0.070  1.00  0.00     0.417 C 
HETATM   30  O2  UNL     1       5.914   1.739  -0.243  1.00  0.00    -0.428 OA
ENDBRANCH  27  29
ENDBRANCH  22  27
TORSDOF 2
