REMARK  4 active torsions:
REMARK  status: ('A' for Active; 'I' for Inactive)
REMARK    1  A    between atoms: C7_8  and  S1_9 
REMARK    2  A    between atoms: S1_9  and  C8_10 
REMARK    3  A    between atoms: N3_14  and  C10_15 
REMARK    4  A    between atoms: C12_18  and  C13_19 
ROOT
HETATM    1  C8  UNL     1      -0.982   0.151  -0.055  1.00  0.00     0.100 A 
HETATM    2  N1  UNL     1      -1.097   0.483   1.169  1.00  0.00    -0.170 NA
HETATM    3  N2  UNL     1       0.029   0.710   2.002  1.00  0.00    -0.260 N 
HETATM    4  C9  UNL     1       1.278   0.527   1.354  1.00  0.00     0.153 A 
HETATM    5  N3  UNL     1       2.300   0.765   2.070  1.00  0.00    -0.202 NA
HETATM    6  C11 UNL     1       1.466   0.135  -0.032  1.00  0.00    -0.004 A 
HETATM    7  C12 UNL     1       2.576  -0.134  -0.638  1.00  0.00     0.026 C 
HETATM    8  C19 UNL     1       0.228  -0.022  -0.876  1.00  0.00     0.111 A 
HETATM    9  H7  UNL     1      -0.086   0.983   2.986  1.00  0.00     0.191 HD
ENDROOT
BRANCH   1  10
HETATM   10  S1  UNL     1      -2.306  -0.169  -1.207  1.00  0.00    -0.072 SA
BRANCH  10  11
HETATM   11  C7  UNL     1      -3.898  -0.026  -0.448  1.00  0.00     0.013 A 
HETATM   12  C2  UNL     1      -4.909  -0.285  -1.375  1.00  0.00    -0.042 A 
HETATM   13  C1  UNL     1      -4.738  -0.640  -2.830  1.00  0.00     0.049 C 
HETATM   14  C3  UNL     1      -6.261  -0.237  -1.020  1.00  0.00     0.050 A 
HETATM   15  C4  UNL     1      -6.629   0.075   0.280  1.00  0.00     0.117 A 
HETATM   16  F1  UNL     1      -7.886   0.155   0.756  1.00  0.00    -0.206 F 
HETATM   17  C5  UNL     1      -5.609   0.326   1.173  1.00  0.00     0.043 A 
HETATM   18  C6  UNL     1      -4.277   0.282   0.837  1.00  0.00     0.022 A 
ENDBRANCH  10  11
ENDBRANCH   1  10
BRANCH   7  19
HETATM   19  C13 UNL     1       3.990  -0.200  -0.360  1.00  0.00     0.008 A 
HETATM   20  C14 UNL     1       5.007   0.528  -0.957  1.00  0.00     0.045 A 
HETATM   21 CL1  UNL     1       4.486   1.688  -2.148  1.00  0.00    -0.083 Cl
HETATM   22  C15 UNL     1       6.342   0.373  -0.655  1.00  0.00     0.025 A 
HETATM   23  C16 UNL     1       6.692  -0.557   0.293  1.00  0.00     0.003 A 
HETATM   24  C17 UNL     1       5.724  -1.314   0.922  1.00  0.00     0.025 A 
HETATM   25  C18 UNL     1       4.374  -1.138   0.597  1.00  0.00     0.045 A 
HETATM   26 CL2  UNL     1       3.373  -2.267   1.506  1.00  0.00    -0.083 Cl
ENDBRANCH   7  19
BRANCH   5  27
HETATM   27  C10 UNL     1       2.332   1.181   3.405  1.00  0.00     0.378 C 
HETATM   28  O1  UNL     1       2.168   0.474   4.457  1.00  0.00    -0.281 OA
ENDBRANCH   5  27
TORSDOF 4
