REMARK  9 active torsions:
REMARK  status: ('A' for Active; 'I' for Inactive)
REMARK    1  A    between atoms: C2_2  and  O1_3 
REMARK    2  A    between atoms: O1_3  and  C3_4 
REMARK    3  A    between atoms: C3_4  and  C4_5 
REMARK    4  A    between atoms: C5_6  and  N1_7 
REMARK    5  A    between atoms: C6_8  and  C7_9 
REMARK    6  A    between atoms: C7_9  and  C8_10 
REMARK    7  A    between atoms: C8_10  and  C9_11 
REMARK    8  A    between atoms: N3_13  and  C10_14 
REMARK    9  A    between atoms: C15_21  and  N6_22 
ROOT
HETATM    1  C9  UNL     1      -0.967  -0.664  -0.940  1.00  0.00     0.102 A 
HETATM    2  N2  UNL     1      -1.192   0.679  -0.884  1.00  0.00    -0.169 NA
HETATM    3  N3  UNL     1      -2.350   0.926  -0.332  1.00  0.00    -0.247 N 
HETATM    4  C13 UNL     1      -2.958  -0.239   0.010  1.00  0.00     0.164 A 
HETATM    5  N4  UNL     1      -4.143  -0.477   0.595  1.00  0.00    -0.222 NA
HETATM    6  C14 UNL     1      -4.513  -1.771   0.827  1.00  0.00     0.237 A 
HETATM    7  N5  UNL     1      -3.695  -2.778   0.470  1.00  0.00    -0.224 NA
HETATM    8  C15 UNL     1      -2.491  -2.575  -0.123  1.00  0.00     0.139 A 
HETATM    9  C16 UNL     1      -2.095  -1.261  -0.368  1.00  0.00     0.088 A 
ENDROOT
BRANCH   1  10
HETATM   10  C8  UNL     1       0.121  -1.497  -1.435  1.00  0.00     0.091 C 
BRANCH  10  11
HETATM   11  C7  UNL     1       1.144  -1.759  -0.677  1.00  0.00    -0.111 C 
BRANCH  11  12
HETATM   12  C6  UNL     1       2.190  -1.748   0.129  1.00  0.00     0.047 A 
HETATM   13  C4  UNL     1       3.424  -1.352   0.613  1.00  0.00     0.013 A 
HETATM   14  C5  UNL     1       2.753  -2.339   1.283  1.00  0.00     0.054 A 
BRANCH  13  15
HETATM   15  C3  UNL     1       4.678  -0.558   0.629  1.00  0.00     0.210 C 
BRANCH  15  16
HETATM   16  O1  UNL     1       4.411   0.779   0.744  1.00  0.00    -0.387 OA
BRANCH  16  17
HETATM   17  C2  UNL     1       3.644   1.192  -0.337  1.00  0.00     0.163 C 
HETATM   18  C1  UNL     1       3.340   2.681  -0.229  1.00  0.00     0.033 C 
ENDBRANCH  16  17
ENDBRANCH  15  16
ENDBRANCH  13  15
BRANCH  14  19
HETATM   19  N1  UNL     1       2.696  -3.280   2.375  1.00  0.00    -0.397 N 
HETATM   20  H8  UNL     1       2.785  -4.330   2.250  1.00  0.00     0.156 HD
HETATM   21  H9  UNL     1       2.557  -2.731   3.252  1.00  0.00     0.156 HD
ENDBRANCH  14  19
ENDBRANCH  11  12
ENDBRANCH  10  11
ENDBRANCH   1  10
BRANCH   3  22
HETATM   22  C10 UNL     1      -2.921   2.242  -0.107  1.00  0.00     0.104 C 
HETATM   23  C11 UNL     1      -1.874   3.102   0.542  1.00  0.00     0.034 C 
HETATM   24  C12 UNL     1      -3.300   2.879  -1.431  1.00  0.00     0.034 C 
ENDBRANCH   3  22
BRANCH   8  25
HETATM   25  N6  UNL     1      -1.620  -3.637  -0.503  1.00  0.00    -0.383 N 
HETATM   26  H19 UNL     1      -1.373  -3.533  -1.526  1.00  0.00     0.157 HD
HETATM   27  H20 UNL     1      -1.378  -4.313   0.248  1.00  0.00     0.157 HD
ENDBRANCH   8  25
TORSDOF 9
