REMARK  7 active torsions:
REMARK  status: ('A' for Active; 'I' for Inactive)
REMARK    1  A    between atoms: C2_2  and  N1_3 
REMARK    2  A    between atoms: C3_4  and  N2_5 
REMARK    3  A    between atoms: C5_7  and  N3_8 
REMARK    4  A    between atoms: C7_12  and  C8_13 
REMARK    5  A    between atoms: C8_13  and  C9_14 
REMARK    6  A    between atoms: C9_14  and  N6_15 
REMARK    7  A    between atoms: C13_19  and  O1_20 
ROOT
HETATM    1  N1  UNL     1      -3.970   0.757  -1.139  1.00  0.00    -0.292 N 
HETATM    2  C3  UNL     1      -3.014   0.167  -0.399  1.00  0.00     0.210 A 
HETATM    3  C4  UNL     1      -2.115   0.945  -1.331  1.00  0.00     0.326 A 
HETATM    4  C5  UNL     1      -2.412   1.836  -2.427  1.00  0.00     0.360 A 
HETATM    5  N4  UNL     1      -2.744   1.102  -1.536  1.00  0.00     0.000 N 
HETATM    6  N5  UNL     1      -1.331   1.382  -1.846  1.00  0.00     0.183 N 
HETATM    7  C7  UNL     1      -0.680   0.703  -1.001  1.00  0.00     0.180 A 
ENDROOT
BRANCH   7   8
HETATM    8  C8  UNL     1       0.368   0.041  -0.221  1.00  0.00     0.086 C 
BRANCH   8   9
HETATM    9  C9  UNL     1       1.741   0.483  -0.618  1.00  0.00     0.128 C 
BRANCH   9  10
HETATM   10  N6  UNL     1       2.663  -0.256   0.222  1.00  0.00    -0.385 N 
HETATM   11  C10 UNL     1       3.566  -1.251  -0.246  1.00  0.00     0.098 A 
HETATM   12  C11 UNL     1       4.259  -1.693   0.780  1.00  0.00    -0.010 A 
HETATM   13  C12 UNL     1       5.301  -2.698   0.851  1.00  0.00     0.050 A 
HETATM   14  C15 UNL     1       3.853  -1.024   2.000  1.00  0.00    -0.028 A 
HETATM   15  C13 UNL     1       5.984  -3.137   1.884  1.00  0.00     0.070 A 
HETATM   16  P1  UNL     1       5.603  -2.403   3.516  1.00  0.00    -0.046 P 
HETATM   17  C14 UNL     1       4.284  -1.172   3.233  1.00  0.00     0.020 A 
HETATM   18  H18 UNL     1       6.792  -1.686   3.954  1.00  0.00     0.068 HD
HETATM   19  C16 UNL     1       2.769  -0.046   1.653  1.00  0.00     0.161 A 
BRANCH  15  20
HETATM   20  O1  UNL     1       6.961  -4.109   1.813  1.00  0.00    -0.360 OA
HETATM   21  H17 UNL     1       7.913  -3.866   1.524  1.00  0.00     0.217 HD
ENDBRANCH  15  20
ENDBRANCH   9  10
ENDBRANCH   8   9
ENDBRANCH   7   8
BRANCH   2  22
HETATM   22  N2  UNL     1      -3.208  -0.752   0.719  1.00  0.00    -0.399 N 
HETATM   23  H6  UNL     1      -3.145  -1.781   0.439  1.00  0.00     0.152 HD
HETATM   24  H7  UNL     1      -3.383  -0.243   1.641  1.00  0.00     0.152 HD
ENDBRANCH   2  22
BRANCH   4  25
HETATM   25  N3  UNL     1      -2.598   2.635  -3.398  1.00  0.00    -0.287 NA
HETATM   26  C6  UNL     1      -3.700   3.090  -4.081  1.00  0.00     0.174 C 
ENDBRANCH   4  25
BRANCH   1  27
HETATM   27  C2  UNL     1      -5.323   0.447  -0.786  1.00  0.00     0.141 C 
HETATM   28  C1  UNL     1      -5.796   1.443   0.245  1.00  0.00     0.028 C 
ENDBRANCH   1  27
TORSDOF 7
