REMARK  3 active torsions:
REMARK  status: ('A' for Active; 'I' for Inactive)
REMARK    1  A    between atoms: C2_2  and  N1_4 
REMARK    2  A    between atoms: C4_6  and  C5_7 
REMARK    3  A    between atoms: C9_11  and  O1_12 
ROOT
HETATM    1  N1  UNL     1      -1.730   0.433   0.763  1.00  0.00    -0.245 N 
HETATM    2  N2  UNL     1      -0.749  -0.426   0.534  1.00  0.00    -0.167 NA
HETATM    3  C4  UNL     1       0.083   0.076  -0.405  1.00  0.00     0.120 A 
HETATM    4  C13 UNL     1      -0.422   1.309  -0.766  1.00  0.00     0.131 A 
HETATM    5  C14 UNL     1      -1.560   1.509  -0.018  1.00  0.00     0.178 A 
HETATM    6  N3  UNL     1      -2.351   2.490  -0.008  1.00  0.00    -0.221 NA
HETATM    7  C15 UNL     1      -2.347   3.705  -0.746  1.00  0.00     0.231 A 
HETATM    8  N4  UNL     1      -1.452   4.013  -1.615  1.00  0.00    -0.261 NA
HETATM    9  C16 UNL     1      -0.281   3.400  -2.139  1.00  0.00     0.299 A 
HETATM   10  N5  UNL     1       0.065   2.119  -1.627  1.00  0.00    -0.262 NA
ENDROOT
BRANCH   3  11
HETATM   11  C5  UNL     1       1.288  -0.546  -0.949  1.00  0.00     0.009 A 
HETATM   12  C6  UNL     1       2.200  -0.181  -1.865  1.00  0.00     0.027 A 
HETATM   13  C7  UNL     1       2.909  -1.446  -1.642  1.00  0.00    -0.021 A 
HETATM   14  C8  UNL     1       3.946  -2.351  -1.887  1.00  0.00     0.048 A 
HETATM   15  C12 UNL     1       1.972  -1.811  -0.706  1.00  0.00    -0.013 A 
HETATM   16  C9  UNL     1       3.962  -3.537  -1.181  1.00  0.00     0.066 A 
HETATM   17  C10 UNL     1       3.021  -3.903  -0.241  1.00  0.00     0.037 A 
HETATM   18  C11 UNL     1       1.996  -2.999  -0.005  1.00  0.00     0.016 A 
BRANCH  16  19
HETATM   19  O1  UNL     1       5.013  -4.435  -1.441  1.00  0.00    -0.361 OA
HETATM   20  H10 UNL     1       5.829  -4.373  -0.847  1.00  0.00     0.217 HD
ENDBRANCH  16  19
ENDBRANCH   3  11
BRANCH   1  21
HETATM   21  C2  UNL     1      -2.775   0.236   1.682  1.00  0.00     0.104 C 
HETATM   22  C1  UNL     1      -2.125  -0.202   2.991  1.00  0.00     0.034 C 
HETATM   23  C3  UNL     1      -3.685   1.347   1.971  1.00  0.00     0.034 C 
ENDBRANCH   1  21
TORSDOF 3
