REMARK  4 active torsions:
REMARK  status: ('A' for Active; 'I' for Inactive)
REMARK    1  A    between atoms: C2_2  and  N1_4 
REMARK    2  A    between atoms: C4_6  and  C5_7 
REMARK    3  A    between atoms: C8_10  and  O1_11 
REMARK    4  A    between atoms: C13_17  and  N4_18 
ROOT
HETATM    1  N1  UNL     1      -2.033   0.252   0.681  1.00  0.00    -0.247 N 
HETATM    2  N2  UNL     1      -0.775   0.547   0.724  1.00  0.00    -0.167 NA
HETATM    3  C4  UNL     1      -0.040  -0.226  -0.140  1.00  0.00     0.121 A 
HETATM    4  C12 UNL     1      -1.016  -0.998  -0.688  1.00  0.00     0.084 A 
HETATM    5  C13 UNL     1      -0.834  -1.947  -1.655  1.00  0.00     0.118 A 
HETATM    6  N5  UNL     1      -1.871  -2.642  -2.144  1.00  0.00    -0.229 NA
HETATM    7  C14 UNL     1      -3.117  -2.377  -1.654  1.00  0.00     0.237 A 
HETATM    8  N6  UNL     1      -3.309  -1.428  -0.690  1.00  0.00    -0.222 NA
HETATM    9  C15 UNL     1      -2.274  -0.729  -0.199  1.00  0.00     0.163 A 
ENDROOT
BRANCH   3  10
HETATM   10  C5  UNL     1       1.390   0.021  -0.222  1.00  0.00     0.061 C 
HETATM   11  C6  UNL     1       2.069   1.096   0.206  1.00  0.00     0.022 C 
HETATM   12  C7  UNL     1       3.408   0.751  -0.194  1.00  0.00     0.117 A 
HETATM   13  C8  UNL     1       4.594   1.404   0.265  1.00  0.00     0.057 A 
HETATM   14  C11 UNL     1       3.567  -0.666  -0.009  1.00  0.00     0.024 A 
HETATM   15  C9  UNL     1       5.437   0.442   0.680  1.00  0.00     0.035 A 
HETATM   16  C10 UNL     1       4.794  -0.878   0.507  1.00  0.00     0.028 A 
HETATM   17  N3  UNL     1       2.251  -1.148  -0.410  1.00  0.00    -0.357 N 
HETATM   18  H13 UNL     1       2.341  -2.145  -0.675  1.00  0.00     0.166 HD
BRANCH  13  19
HETATM   19  O1  UNL     1       4.888   2.763   0.306  1.00  0.00    -0.364 OA
HETATM   20  H10 UNL     1       4.196   3.456   0.620  1.00  0.00     0.217 HD
ENDBRANCH  13  19
ENDBRANCH   3  10
BRANCH   1  21
HETATM   21  C2  UNL     1      -3.074   0.881   1.469  1.00  0.00     0.104 C 
HETATM   22  C1  UNL     1      -3.477   2.228   0.880  1.00  0.00     0.034 C 
HETATM   23  C3  UNL     1      -4.305   0.040   1.563  1.00  0.00     0.034 C 
ENDBRANCH   1  21
BRANCH   5  24
HETATM   24  N4  UNL     1       0.408  -2.235  -2.252  1.00  0.00    -0.286 NA
HETATM   25  H14 UNL     1       0.507  -1.411  -2.911  1.00  0.00     0.125 HD
HETATM   26  H15 UNL     1       1.111  -1.917  -2.937  1.00  0.00     0.125 HD
ENDBRANCH   5  24
TORSDOF 4
