REMARK  7 active torsions:
REMARK  status: ('A' for Active; 'I' for Inactive)
REMARK    1  A    between atoms: C1_1  and  C7_8 
REMARK    2  A    between atoms: C2_2  and  N1_3 
REMARK    3  A    between atoms: N1_3  and  C3_4 
REMARK    4  A    between atoms: C7_8  and  N2_9 
REMARK    5  A    between atoms: C10_13  and  N4_14 
REMARK    6  A    between atoms: N4_14  and  C11_15 
REMARK    7  A    between atoms: C11_15  and  C12_16 
ROOT
HETATM    1  N2  UNL     1       2.377  -0.593  -0.746  1.00  0.00    -0.248 N 
HETATM    2  N3  UNL     1       1.600  -0.739  -1.816  1.00  0.00    -0.182 NA
HETATM    3  C8  UNL     1       0.313  -0.486  -1.490  1.00  0.00     0.158 A 
HETATM    4  C9  UNL     1       0.314  -0.172  -0.159  1.00  0.00     0.076 A 
HETATM    5  C10 UNL     1      -0.717   0.173   0.702  1.00  0.00     0.140 A 
HETATM    6  N5  UNL     1      -0.427   0.437   1.994  1.00  0.00    -0.224 NA
HETATM    7  C19 UNL     1       0.845   0.370   2.446  1.00  0.00     0.237 A 
HETATM    8  N6  UNL     1       1.863   0.034   1.615  1.00  0.00    -0.222 NA
HETATM    9  C20 UNL     1       1.606  -0.237   0.319  1.00  0.00     0.163 A 
ENDROOT
BRANCH   5  10
HETATM   10  N4  UNL     1      -2.082   0.253   0.250  1.00  0.00    -0.370 N 
HETATM   11  H10 UNL     1      -2.263   0.041  -0.756  1.00  0.00     0.161 HD
BRANCH  10  12
HETATM   12  C11 UNL     1      -3.181   0.610   1.122  1.00  0.00     0.160 C 
BRANCH  12  13
HETATM   13  C12 UNL     1      -4.459   0.602   0.346  1.00  0.00    -0.038 A 
HETATM   14  C13 UNL     1      -4.940   1.720  -0.304  1.00  0.00     0.012 A 
HETATM   15  C14 UNL     1      -6.129   1.623  -0.997  1.00  0.00     0.040 A 
HETATM   16  C15 UNL     1      -6.826   0.427  -1.040  1.00  0.00     0.105 A 
HETATM   17  C16 UNL     1      -6.311  -0.683  -0.372  1.00  0.00     0.105 A 
HETATM   18  O2  UNL     1      -8.034   0.096  -1.670  1.00  0.00    -0.323 OA
HETATM   19  C17 UNL     1      -5.128  -0.600   0.323  1.00  0.00     0.048 A 
HETATM   20  O1  UNL     1      -7.227  -1.721  -0.598  1.00  0.00    -0.323 OA
HETATM   21  C18 UNL     1      -8.441  -1.128  -1.075  1.00  0.00     0.352 C 
ENDBRANCH  12  13
ENDBRANCH  10  12
ENDBRANCH   5  10
BRANCH   1  22
HETATM   22  C7  UNL     1       3.804  -0.778  -0.699  1.00  0.00     0.181 C 
BRANCH  22  23
HETATM   23  C1  UNL     1       4.484   0.507  -1.000  1.00  0.00     0.012 C 
HETATM   24  C2  UNL     1       5.314   1.175  -0.222  1.00  0.00     0.085 C 
BRANCH  24  25
HETATM   25  N1  UNL     1       5.586   0.593   1.048  1.00  0.00    -0.375 N 
HETATM   26  H3  UNL     1       5.052   1.131   1.760  1.00  0.00     0.164 HD
BRANCH  25  27
HETATM   27  C3  UNL     1       6.408  -0.503   1.359  1.00  0.00     0.099 C 
HETATM   28  C4  UNL     1       7.388  -0.893   0.562  1.00  0.00    -0.021 A 
HETATM   29  C5  UNL     1       8.201  -0.794  -0.638  1.00  0.00     0.013 A 
HETATM   30  C6  UNL     1       8.485  -1.791   0.259  1.00  0.00     0.013 A 
ENDBRANCH  25  27
ENDBRANCH  24  25
ENDBRANCH  22  23
ENDBRANCH   1  22
TORSDOF 7
