REMARK  3 active torsions:
REMARK  status: ('A' for Active; 'I' for Inactive)
REMARK    1  A    between atoms: C2_2  and  N1_4 
REMARK    2  A    between atoms: C4_6  and  C5_7 
REMARK    3  A    between atoms: C14_17  and  N4_18 
ROOT
HETATM    1  N1  UNL     1       2.159  -0.229  -0.767  1.00  0.00    -0.247 N 
HETATM    2  N2  UNL     1       0.914  -0.592  -0.704  1.00  0.00    -0.167 NA
HETATM    3  C4  UNL     1       0.323  -0.198   0.402  1.00  0.00     0.121 A 
HETATM    4  C13 UNL     1       1.314   0.461   1.052  1.00  0.00     0.084 A 
HETATM    5  C14 UNL     1       1.490   1.160   2.228  1.00  0.00     0.118 A 
HETATM    6  N5  UNL     1       2.628   1.750   2.631  1.00  0.00    -0.229 NA
HETATM    7  C15 UNL     1       3.742   1.685   1.842  1.00  0.00     0.237 A 
HETATM    8  N6  UNL     1       3.664   1.023   0.672  1.00  0.00    -0.222 NA
HETATM    9  C16 UNL     1       2.513   0.459   0.326  1.00  0.00     0.163 A 
ENDROOT
BRANCH   3  10
HETATM   10  C5  UNL     1      -1.021  -0.360   0.816  1.00  0.00     0.063 C 
HETATM   11  C6  UNL     1      -1.864  -0.234   1.899  1.00  0.00     0.040 C 
HETATM   12  C7  UNL     1      -3.258  -0.359   1.307  1.00  0.00    -0.042 C 
HETATM   13  C8  UNL     1      -4.274   0.462   1.328  1.00  0.00    -0.018 C 
HETATM   14  C12 UNL     1      -2.951  -1.668   0.502  1.00  0.00     0.161 C 
HETATM   15  C9  UNL     1      -4.600   0.843  -0.107  1.00  0.00     0.029 C 
HETATM   16  C10 UNL     1      -4.044   0.182  -1.244  1.00  0.00     0.023 C 
HETATM   17  C11 UNL     1      -2.559  -0.157  -1.443  1.00  0.00     0.123 C 
HETATM   18  N3  UNL     1      -2.044  -0.644  -0.180  1.00  0.00    -0.375 N 
ENDBRANCH   3  10
BRANCH   1  19
HETATM   19  C2  UNL     1       2.950  -0.580  -1.914  1.00  0.00     0.104 C 
HETATM   20  C1  UNL     1       3.766  -1.849  -1.676  1.00  0.00     0.034 C 
HETATM   21  C3  UNL     1       3.955   0.535  -2.142  1.00  0.00     0.034 C 
ENDBRANCH   1  19
BRANCH   5  22
HETATM   22  N4  UNL     1       0.417   1.336   3.119  1.00  0.00    -0.286 NA
HETATM   23  H18 UNL     1       0.575   0.594   3.820  1.00  0.00     0.125 HD
HETATM   24  H19 UNL     1       0.472   0.616   3.899  1.00  0.00     0.125 HD
ENDBRANCH   5  22
TORSDOF 3
