REMARK  4 active torsions:
REMARK  status: ('A' for Active; 'I' for Inactive)
REMARK    1  A    between atoms: C2_2  and  N1_3 
REMARK    2  A    between atoms: N1_3  and  C3_4 
REMARK    3  A    between atoms: C9_10  and  C10_11 
REMARK    4  A    between atoms: C12_13  and  N2_14 
ROOT
HETATM    1  C10 UNL     1       0.835  -0.350   0.322  1.00  0.00     0.068 C 
HETATM    2  C11 UNL     1       1.525  -0.416   1.527  1.00  0.00     0.079 C 
HETATM    3  C12 UNL     1       2.871  -0.103   1.599  1.00  0.00     0.124 C 
HETATM    4  N3  UNL     1       3.984  -0.707   1.148  1.00  0.00    -0.225 NA
HETATM    5  C13 UNL     1       4.837  -0.083   0.347  1.00  0.00     0.236 C 
HETATM    6  N4  UNL     1       4.379   0.676  -0.649  1.00  0.00    -0.235 NA
HETATM    7  C14 UNL     1       3.272   0.374  -1.352  1.00  0.00     0.229 C 
HETATM    8  N5  UNL     1       2.394  -0.670  -1.373  1.00  0.00    -0.268 N 
HETATM    9  C15 UNL     1       2.904  -1.683  -2.272  1.00  0.00     0.181 C 
HETATM   10  N6  UNL     1       1.225  -0.960  -0.780  1.00  0.00    -0.176 NA
ENDROOT
BRANCH   1  11
HETATM   11  C9  UNL     1      -0.363   0.486   0.415  1.00  0.00     0.095 C 
HETATM   12  C3  UNL     1      -1.582  -0.005  -0.273  1.00  0.00     0.234 C 
HETATM   13  C4  UNL     1      -2.755   0.758   0.313  1.00  0.00     0.044 C 
HETATM   14  C5  UNL     1      -2.569   2.217   0.018  1.00  0.00     0.006 C 
HETATM   15  C6  UNL     1      -3.572   2.578  -1.059  1.00  0.00     0.014 C 
HETATM   16  C7  UNL     1      -1.190   2.584  -0.397  1.00  0.00    -0.026 C 
HETATM   17  C8  UNL     1      -0.094   1.839  -0.252  1.00  0.00    -0.017 C 
BRANCH  12  18
HETATM   18  N1  UNL     1      -1.831  -1.402  -0.316  1.00  0.00     0.088 N 
HETATM   19  H6  UNL     1      -2.586  -1.570  -0.992  1.00  0.00     0.316 HD
BRANCH  18  20
HETATM   20  C2  UNL     1      -2.125  -2.032   0.930  1.00  0.00     0.265 C 
HETATM   21  C1  UNL     1      -2.599  -3.451   0.596  1.00  0.00     0.037 C 
ENDBRANCH  18  20
ENDBRANCH  12  18
ENDBRANCH   1  11
BRANCH   3  22
HETATM   22  N2  UNL     1       3.108   1.129   2.310  1.00  0.00    -0.384 N 
HETATM   23  H18 UNL     1       3.116   2.140   2.004  1.00  0.00     0.157 HD
HETATM   24  H19 UNL     1       3.315   0.960   3.340  1.00  0.00     0.157 HD
ENDBRANCH   3  22
TORSDOF 4
