REMARK  11 active torsions:
REMARK  status: ('A' for Active; 'I' for Inactive)
REMARK    1  A    between atoms: N1_1  and  C1_2 
REMARK    2  A    between atoms: C2_3  and  C3_4 
REMARK    3  A    between atoms: C3_4  and  C4_5 
REMARK    4  A    between atoms: N2_6  and  C5_7 
REMARK    5  A    between atoms: C5_7  and  C15_19 
REMARK    6  A    between atoms: C6_8  and  C7_9 
REMARK    7  A    between atoms: C12_15  and  C13_16 
REMARK    8  A    between atoms: C13_16  and  C14_17 
REMARK    9  A    between atoms: C14_17  and  N3_18 
REMARK   10  A    between atoms: C15_19  and  C16_20 
REMARK   11  A    between atoms: C16_20  and  O2_21 
ROOT
HETATM    1  C5  UNL     1       0.652  -1.278  -0.866  1.00  0.00     0.036 C 
HETATM    2  C6  UNL     1      -0.438  -0.720  -0.306  1.00  0.00     0.035 C 
ENDROOT
BRANCH   1   3
HETATM    3  N2  UNL     1       1.826  -0.490  -1.186  1.00  0.00    -0.269 NA
HETATM    4  C4  UNL     1       2.266   0.432  -0.403  1.00  0.00     0.093 C 
BRANCH   4   5
HETATM    5  C3  UNL     1       3.458   1.317  -0.606  1.00  0.00     0.075 C 
BRANCH   5   6
HETATM    6  C2  UNL     1       4.424   1.011   0.455  1.00  0.00    -0.005 C 
HETATM    7  C1  UNL     1       4.834   1.907   1.315  1.00  0.00     0.076 C 
BRANCH   7   8
HETATM    8  N1  UNL     1       4.384   3.250   1.303  1.00  0.00    -0.408 N 
HETATM    9  H1  UNL     1       3.867   4.138   1.216  1.00  0.00     0.155 HD
HETATM   10  H2  UNL     1       4.941   4.067   1.597  1.00  0.00     0.155 HD
ENDBRANCH   7   8
ENDBRANCH   5   6
ENDBRANCH   4   5
ENDBRANCH   1   3
BRANCH   1  11
HETATM   11  C15 UNL     1       1.212  -2.552  -1.352  1.00  0.00     0.085 C 
BRANCH  11  12
HETATM   12  C16 UNL     1       2.483  -2.984  -0.656  1.00  0.00     0.170 C 
BRANCH  12  13
HETATM   13  O2  UNL     1       3.489  -2.008  -0.832  1.00  0.00    -0.400 OA
HETATM   14  H23 UNL     1       3.839  -2.030  -1.741  1.00  0.00     0.209 HD
ENDBRANCH  12  13
ENDBRANCH  11  12
ENDBRANCH   1  11
BRANCH   2  15
HETATM   15  C7  UNL     1      -1.755  -1.126   0.150  1.00  0.00    -0.045 C 
HETATM   16  C8  UNL     1      -2.246  -2.348   0.103  1.00  0.00     0.008 C 
HETATM   17  C9  UNL     1      -3.547  -2.820   0.545  1.00  0.00     0.004 C 
HETATM   18  C10 UNL     1      -4.379  -1.943   1.077  1.00  0.00     0.051 C 
HETATM   19  C11 UNL     1      -3.874  -0.583   1.162  1.00  0.00     0.157 C 
HETATM   20  O1  UNL     1      -4.642   0.220   1.757  1.00  0.00    -0.293 OA
HETATM   21  C12 UNL     1      -2.624  -0.011   0.668  1.00  0.00     0.094 C 
BRANCH  21  22
HETATM   22  C13 UNL     1      -2.822   1.041  -0.371  1.00  0.00     0.047 C 
BRANCH  22  23
HETATM   23  C14 UNL     1      -3.673   2.209   0.029  1.00  0.00     0.268 C 
BRANCH  23  24
HETATM   24  N3  UNL     1      -3.693   3.102  -1.145  1.00  0.00     0.078 N 
HETATM   25  H17 UNL     1      -4.646   3.173  -1.550  1.00  0.00     0.312 HD
HETATM   26  H18 UNL     1      -3.318   4.038  -0.935  1.00  0.00     0.312 HD
ENDBRANCH  23  24
ENDBRANCH  22  23
ENDBRANCH  21  22
ENDBRANCH   2  15
TORSDOF 11
