REMARK  8 active torsions:
REMARK  status: ('A' for Active; 'I' for Inactive)
REMARK    1  A    between atoms: C4_5  and  N2_6 
REMARK    2  A    between atoms: C7_9  and  O1_10 
REMARK    3  A    between atoms: O1_10  and  C8_11 
REMARK    4  A    between atoms: C8_11  and  C9_12 
REMARK    5  A    between atoms: C9_12  and  N3_13 
REMARK    6  A    between atoms: C13_17  and  N4_18 
REMARK    7  A    between atoms: C18_23  and  S1_24 
REMARK    8  A    between atoms: S1_24  and  C19_26 
ROOT
HETATM    1  C1  UNL     1      -6.060  -3.659   0.049  1.00  0.00     0.020 C 
HETATM    2  C2  UNL     1      -5.623  -2.257   0.164  1.00  0.00     0.007 C 
HETATM    3  C3  UNL     1      -4.266  -2.171   0.204  1.00  0.00     0.146 C 
HETATM    4  N1  UNL     1      -2.905  -1.769   0.270  1.00  0.00    -0.267 NA
HETATM    5  C4  UNL     1      -2.520  -0.525  -0.059  1.00  0.00     0.113 C 
HETATM    6  C16 UNL     1      -3.754   0.340  -0.402  1.00  0.00     0.058 A 
HETATM    7  C17 UNL     1      -3.580   1.354   0.545  1.00  0.00     0.030 C 
HETATM    8  C18 UNL     1      -4.653   2.067  -0.439  1.00  0.00     0.122 C 
HETATM    9  C20 UNL     1      -5.187   0.721  -0.653  1.00  0.00     0.062 A 
HETATM   10  C21 UNL     1      -4.798  -0.237  -1.360  1.00  0.00     0.042 A 
HETATM   11  N5  UNL     1      -6.162   0.083   0.201  1.00  0.00    -0.409 N 
HETATM   12  C22 UNL     1      -6.791  -1.249   0.104  1.00  0.00     0.127 C 
HETATM   13  H27 UNL     1      -6.529   0.606   1.059  1.00  0.00     0.154 HD
ENDROOT
BRANCH   5  14
HETATM   14  N2  UNL     1      -1.129  -0.306   0.056  1.00  0.00    -0.341 N 
HETATM   15  C5  UNL     1      -0.506   0.172   1.242  1.00  0.00     0.095 A 
HETATM   16  C6  UNL     1       0.802   0.360   1.170  1.00  0.00     0.053 A 
HETATM   17  C7  UNL     1       1.593   0.097  -0.042  1.00  0.00     0.068 A 
HETATM   18  C14 UNL     1       0.964  -0.353  -1.109  1.00  0.00     0.030 A 
HETATM   19  C15 UNL     1      -0.494  -0.625  -1.199  1.00  0.00     0.160 A 
BRANCH  17  20
HETATM   20  O1  UNL     1       2.958   0.344   0.021  1.00  0.00    -0.350 OA
BRANCH  20  21
HETATM   21  C8  UNL     1       3.746   0.207  -1.167  1.00  0.00     0.206 C 
BRANCH  21  22
HETATM   22  C9  UNL     1       5.121   0.720  -0.867  1.00  0.00     0.301 C 
BRANCH  22  23
HETATM   23  N3  UNL     1       5.741  -0.022   0.209  1.00  0.00     0.123 N 
HETATM   24  C10 UNL     1       6.045  -1.362  -0.174  1.00  0.00     0.275 C 
HETATM   25  C11 UNL     1       7.542  -1.515  -0.270  1.00  0.00     0.034 C 
HETATM   26  C12 UNL     1       8.080  -0.279   0.395  1.00  0.00     0.070 C 
HETATM   27  C13 UNL     1       6.935   0.651   0.623  1.00  0.00     0.451 C 
BRANCH  27  28
HETATM   28  N4  UNL     1       7.128   1.866  -0.158  1.00  0.00     0.112 N 
HETATM   29  H18 UNL     1       8.139   2.086  -0.234  1.00  0.00     0.315 HD
HETATM   30  H19 UNL     1       6.661   2.642   0.361  1.00  0.00     0.315 HD
ENDBRANCH  27  28
ENDBRANCH  22  23
ENDBRANCH  21  22
ENDBRANCH  20  21
ENDBRANCH  17  20
ENDBRANCH   5  14
BRANCH   8  31
HETATM   31  S1  UNL     1      -5.670   3.130   0.506  1.00  0.00     0.084 S 
HETATM   32  O2  UNL     1      -6.703   3.763  -0.412  1.00  0.00    -0.250 OA
BRANCH  31  33
HETATM   33  C19 UNL     1      -4.692   4.357   1.292  1.00  0.00     0.337 C 
HETATM   34  O3  UNL     1      -5.143   4.954   2.281  1.00  0.00    -0.293 OA
ENDBRANCH  31  33
ENDBRANCH   8  31
TORSDOF 8
