REMARK  0 active torsions:
REMARK  status: ('A' for Active; 'I' for Inactive)
ROOT
HETATM    1  C1  UNL     1      -0.821   4.562  -0.538  1.00  0.00     0.054 C 
HETATM    2  C2  UNL     1      -1.643   3.302  -0.562  1.00  0.00     0.002 A 
HETATM    3  C3  UNL     1      -3.007   3.456  -0.314  1.00  0.00     0.146 A 
HETATM    4  N1  UNL     1      -3.699   2.309  -0.345  1.00  0.00    -0.075 NA
HETATM    5  C4  UNL     1      -3.130   1.114  -0.594  1.00  0.00     0.724 A 
HETATM    6  N2  UNL     1      -1.814   1.006  -0.829  1.00  0.00    -0.045 NA
HETATM    7  C5  UNL     1      -1.005   2.091  -0.825  1.00  0.00     0.150 A 
HETATM    8  N3  UNL     1       0.369   2.122  -1.048  1.00  0.00    -0.370 N 
HETATM    9  C6  UNL     1       1.251   1.047  -0.601  1.00  0.00     0.149 C 
HETATM   10  C7  UNL     1       0.964   0.990   0.851  1.00  0.00     0.007 C 
HETATM   11  C8  UNL     1       2.071   0.866   1.569  1.00  0.00    -0.004 C 
HETATM   12  C9  UNL     1       2.948   0.132   0.896  1.00  0.00     0.018 C 
HETATM   13  C10 UNL     1       4.405   0.200   0.825  1.00  0.00     0.059 C 
HETATM   14  C11 UNL     1       4.684   0.141  -0.660  1.00  0.00     0.026 C 
HETATM   15  C12 UNL     1       3.652  -0.841  -1.104  1.00  0.00     0.123 C 
HETATM   16  N4  UNL     1       2.685  -0.974   0.030  1.00  0.00    -0.381 N 
HETATM   17  C13 UNL     1       1.823  -2.183  -0.005  1.00  0.00     0.149 C 
HETATM   18  C14 UNL     1       1.054  -2.444   1.231  1.00  0.00     0.187 C 
HETATM   19  O1  UNL     1       0.358  -3.607   1.062  1.00  0.00    -0.386 OA
HETATM   20  C15 UNL     1      -0.562  -3.704   0.074  1.00  0.00     0.194 C 
HETATM   21  C16 UNL     1      -1.724  -2.833   0.135  1.00  0.00    -0.003 C 
HETATM   22  C17 UNL     1      -2.590  -1.917  -0.214  1.00  0.00    -0.004 C 
HETATM   23  C18 UNL     1      -3.836  -1.198   0.168  1.00  0.00     0.118 C 
HETATM   24  C19 UNL     1      -3.848  -0.827   1.635  1.00  0.00     0.037 C 
HETATM   25  N5  UNL     1      -3.999   0.002  -0.587  1.00  0.00    -0.215 N 
HETATM   26  H5  UNL     1       0.707   2.964  -1.557  1.00  0.00     0.161 HD
HETATM   27  H27 UNL     1      -4.824   0.125  -1.213  1.00  0.00     0.178 HD
ENDROOT
TORSDOF 0
