REMARK  6 active torsions:
REMARK  status: ('A' for Active; 'I' for Inactive)
REMARK    1  A    between atoms: O1_1  and  C1_2 
REMARK    2  A    between atoms: C1_2  and  C2_3 
REMARK    3  A    between atoms: C2_3  and  N1_4 
REMARK    4  A    between atoms: C4_6  and  C5_7 
REMARK    5  A    between atoms: C13_15  and  N2_16 
REMARK    6  A    between atoms: C14_18  and  C15_19 
ROOT
HETATM    1  N1  UNL     1       2.970  -1.418  -0.108  1.00  0.00    -0.277 N 
HETATM    2  C3  UNL     1       1.657  -1.612   0.129  1.00  0.00     0.127 A 
HETATM    3  C4  UNL     1       0.954  -0.411   0.010  1.00  0.00     0.023 A 
HETATM    4  C14 UNL     1       1.934   0.497  -0.310  1.00  0.00     0.100 A 
HETATM    5  N4  UNL     1       3.134  -0.115  -0.379  1.00  0.00    -0.171 NA
ENDROOT
BRANCH   3   6
HETATM    6  C5  UNL     1      -0.467  -0.346   0.212  1.00  0.00    -0.022 A 
HETATM    7  C6  UNL     1      -0.922  -0.612   1.501  1.00  0.00     0.013 A 
HETATM    8  C7  UNL     1      -2.265  -0.586   1.823  1.00  0.00     0.011 A 
HETATM    9  C8  UNL     1      -3.231  -0.286   0.854  1.00  0.00    -0.026 A 
HETATM   10  C9  UNL     1      -2.788  -0.020  -0.427  1.00  0.00    -0.049 A 
HETATM   11  C13 UNL     1      -4.714  -0.180   0.882  1.00  0.00     0.151 C 
HETATM   12  C10 UNL     1      -1.440  -0.055  -0.717  1.00  0.00     0.020 A 
HETATM   13  C11 UNL     1      -3.980   0.271  -1.283  1.00  0.00     0.041 C 
HETATM   14  C12 UNL     1      -4.945   0.825  -0.248  1.00  0.00     0.037 C 
BRANCH  11  15
HETATM   15  N2  UNL     1      -5.325  -1.402   0.425  1.00  0.00    -0.235 NA
HETATM   16  S1  UNL     1      -4.826  -2.663   0.676  1.00  0.00     0.063 SA
ENDBRANCH  11  15
ENDBRANCH   3   6
BRANCH   4  17
HETATM   17  C15 UNL     1       1.650   1.910  -0.532  1.00  0.00    -0.002 A 
HETATM   18  C16 UNL     1       0.907   2.546  -1.497  1.00  0.00     0.033 A 
HETATM   19  C17 UNL     1       0.798   3.920  -1.474  1.00  0.00     0.117 A 
HETATM   20  N3  UNL     1       1.402   4.674  -0.530  1.00  0.00    -0.273 NA
HETATM   21  C18 UNL     1       2.129   4.076   0.416  1.00  0.00     0.117 A 
HETATM   22  C19 UNL     1       2.280   2.685   0.451  1.00  0.00     0.033 A 
ENDBRANCH   4  17
BRANCH   1  23
HETATM   23  C2  UNL     1       4.048  -2.388  -0.092  1.00  0.00     0.176 C 
BRANCH  23  24
HETATM   24  C1  UNL     1       4.221  -2.985  -1.462  1.00  0.00     0.185 C 
BRANCH  24  25
HETATM   25  O1  UNL     1       5.265  -3.908  -1.393  1.00  0.00    -0.399 OA
HETATM   26  H1  UNL     1       5.703  -3.913  -0.504  1.00  0.00     0.209 HD
ENDBRANCH  24  25
ENDBRANCH  23  24
ENDBRANCH   1  23
TORSDOF 6
