REMARK  5 active torsions:
REMARK  status: ('A' for Active; 'I' for Inactive)
REMARK    1  A    between atoms: C6_6  and  N1_7 
REMARK    2  A    between atoms: C9_11  and  N3_12 
REMARK    3  A    between atoms: N3_12  and  C10_13 
REMARK    4  A    between atoms: C10_13  and  C11_14 
REMARK    5  A    between atoms: O1_20  and  C17_21 
ROOT
HETATM    1  N1  UNL     1      -2.494  -0.276  -0.200  1.00  0.00    -0.215 N 
HETATM    2  N2  UNL     1      -1.968  -1.436  -0.592  1.00  0.00    -0.177 NA
HETATM    3  C7  UNL     1      -0.685  -1.489  -0.194  1.00  0.00     0.158 A 
HETATM    4  C8  UNL     1      -0.302  -0.338   0.494  1.00  0.00     0.077 A 
HETATM    5  C9  UNL     1       0.801   0.242   1.141  1.00  0.00     0.140 A 
HETATM    6  N4  UNL     1       0.644   1.453   1.681  1.00  0.00    -0.224 NA
HETATM    7  C18 UNL     1      -0.513   2.119   1.624  1.00  0.00     0.237 A 
HETATM    8  N5  UNL     1      -1.561   1.573   1.011  1.00  0.00    -0.221 NA
HETATM    9  C19 UNL     1      -1.508   0.371   0.441  1.00  0.00     0.168 A 
ENDROOT
BRANCH   5  10
HETATM   10  N3  UNL     1       1.837  -0.684   1.034  1.00  0.00    -0.370 N 
HETATM   11  H8  UNL     1       2.515  -0.043   1.576  1.00  0.00     0.161 HD
BRANCH  10  12
HETATM   12  C10 UNL     1       2.884  -1.619   0.926  1.00  0.00     0.159 C 
BRANCH  12  13
HETATM   13  C11 UNL     1       4.005  -1.090   0.178  1.00  0.00    -0.046 A 
HETATM   14  C12 UNL     1       4.881  -0.399   0.961  1.00  0.00    -0.007 A 
HETATM   15  C13 UNL     1       5.863   0.015   0.160  1.00  0.00    -0.004 A 
HETATM   16  C14 UNL     1       6.607   0.148  -1.279  1.00  0.00     0.014 A 
HETATM   17  C17 UNL     1       7.146   0.760   0.015  1.00  0.00     0.022 A 
HETATM   18  C15 UNL     1       5.565  -0.454  -1.188  1.00  0.00     0.006 A 
HETATM   19  O1  UNL     1       6.933   0.325  -1.386  1.00  0.00     0.000 OA
HETATM   20  C16 UNL     1       4.369  -1.155  -1.132  1.00  0.00    -0.006 A 
ENDBRANCH  12  13
ENDBRANCH  10  12
ENDBRANCH   5  10
BRANCH   1  21
HETATM   21  C6  UNL     1      -3.822   0.193  -0.408  1.00  0.00     0.061 A 
HETATM   22  C5  UNL     1      -3.909   1.511  -0.800  1.00  0.00     0.032 A 
HETATM   23  C4  UNL     1      -5.158   2.094  -1.035  1.00  0.00     0.003 A 
HETATM   24  C3  UNL     1      -6.285   1.282  -0.852  1.00  0.00     0.007 A 
HETATM   25  C2  UNL     1      -6.157  -0.048  -0.454  1.00  0.00    -0.060 A 
HETATM   26  C1  UNL     1      -7.349  -0.915  -0.258  1.00  0.00     0.048 C 
HETATM   27  C20 UNL     1      -4.924  -0.618  -0.225  1.00  0.00     0.038 A 
ENDBRANCH   1  21
TORSDOF 5
