REMARK  5 active torsions:
REMARK  status: ('A' for Active; 'I' for Inactive)
REMARK    1  A    between atoms: N1_2  and  C1_3 
REMARK    2  A    between atoms: C11_15  and  C12_16 
REMARK    3  A    between atoms: C12_16  and  C13_17 
REMARK    4  A    between atoms: C13_17  and  C14_18 
REMARK    5  A    between atoms: C14_18  and  O2_19 
ROOT
HETATM    1  C1  UNL     1       5.005  -0.324  -0.813  1.00  0.00     0.172 C 
HETATM    2  C2  UNL     1       5.453   0.230   0.499  1.00  0.00     0.039 C 
HETATM    3  C3  UNL     1       4.344   1.185   0.857  1.00  0.00     0.042 C 
HETATM    4  C4  UNL     1       3.128   0.600   0.246  1.00  0.00    -0.049 A 
HETATM    5  C5  UNL     1       1.759   0.752   0.446  1.00  0.00     0.020 A 
HETATM    6  C6  UNL     1       0.829   0.036  -0.317  1.00  0.00    -0.024 A 
HETATM    7  C7  UNL     1      -0.506   0.366   0.021  1.00  0.00    -0.007 A 
HETATM    8  C8  UNL     1      -1.610   1.156   0.283  1.00  0.00     0.091 A 
HETATM    9  N2  UNL     1      -2.758   0.534   0.596  1.00  0.00    -0.216 NA
HETATM   10  N3  UNL     1      -2.563  -0.750   0.581  1.00  0.00     0.000 N 
HETATM   11  C9  UNL     1      -1.261  -0.813   0.248  1.00  0.00    -0.033 A 
HETATM   12  C10 UNL     1      -1.776  -2.230   0.418  1.00  0.00     0.035 A 
HETATM   13  C11 UNL     1      -3.081  -1.880   0.738  1.00  0.00     0.021 A 
HETATM   14  C12 UNL     1      -3.719  -0.498   0.882  1.00  0.00     0.087 A 
HETATM   15  C15 UNL     1       1.213  -0.847  -1.293  1.00  0.00     0.013 A 
HETATM   16  C16 UNL     1       2.572  -0.950  -1.440  1.00  0.00     0.011 A 
HETATM   17  C17 UNL     1       3.510  -0.275  -0.724  1.00  0.00    -0.025 A 
ENDROOT
BRANCH  14  18
HETATM   18  C13 UNL     1      -4.778  -0.448  -0.226  1.00  0.00     0.048 C 
BRANCH  18  19
HETATM   19  C14 UNL     1      -5.465   0.875  -0.275  1.00  0.00     0.165 C 
BRANCH  19  20
HETATM   20  O2  UNL     1      -6.103   1.130   0.944  1.00  0.00    -0.401 OA
HETATM   21  H15 UNL     1      -5.850   2.028   1.297  1.00  0.00     0.209 HD
ENDBRANCH  19  20
ENDBRANCH  18  19
ENDBRANCH  14  18
BRANCH   1  22
HETATM   22  N1  UNL     1       5.473  -1.684  -0.903  1.00  0.00    -0.131 NA
HETATM   23  O1  UNL     1       6.109  -2.115  -1.816  1.00  0.00    -0.066 OA
ENDBRANCH   1  22
TORSDOF 5
