REMARK  6 active torsions:
REMARK  status: ('A' for Active; 'I' for Inactive)
REMARK       I    between atoms: N1_2  and  C2_3 
REMARK    1  A    between atoms: C2_3  and  C3_5 
REMARK    2  A    between atoms: C8_10  and  S1_11 
REMARK    3  A    between atoms: S1_11  and  C9_12 
REMARK    4  A    between atoms: C9_12  and  C10_13 
REMARK    5  A    between atoms: C11_14  and  N2_15 
REMARK    6  A    between atoms: N2_15  and  N3_16 
ROOT
HETATM    1  C10 UNL     1      -0.808  -1.409   0.246  1.00  0.00     0.002 C 
HETATM    2  C11 UNL     1       0.402  -1.022  -0.118  1.00  0.00     0.106 C 
ENDROOT
BRANCH   1   3
HETATM    3  C9  UNL     1      -1.139  -1.223   1.682  1.00  0.00     0.108 C 
BRANCH   3   4
HETATM    4  S1  UNL     1      -2.575  -0.136   1.929  1.00  0.00    -0.125 SA
BRANCH   4   5
HETATM    5  C8  UNL     1      -4.031  -0.912   1.264  1.00  0.00     0.016 A 
HETATM    6  C3  UNL     1      -4.523  -0.662   0.020  1.00  0.00     0.048 A 
HETATM    7  C4  UNL     1      -5.672  -1.343  -0.345  1.00  0.00     0.018 A 
HETATM    8  C5  UNL     1      -6.340  -2.251   0.472  1.00  0.00     0.001 A 
HETATM    9  C6  UNL     1      -5.819  -2.489   1.742  1.00  0.00     0.001 A 
HETATM   10  C7  UNL     1      -4.676  -1.805   2.090  1.00  0.00     0.019 A 
BRANCH   6  11
HETATM   11  C2  UNL     1      -3.925   0.292  -0.886  1.00  0.00     0.252 C 
HETATM   12  N1  UNL     1      -4.414   1.590  -1.155  1.00  0.00    -0.361 N 
HETATM   13  C1  UNL     1      -4.241   2.823  -1.877  1.00  0.00     0.149 C 
HETATM   14  H4  UNL     1      -5.309   1.793  -0.608  1.00  0.00     0.162 HD
HETATM   15  O1  UNL     1      -2.861   0.169  -1.609  1.00  0.00    -0.268 OA
ENDBRANCH   6  11
ENDBRANCH   4   5
ENDBRANCH   3   4
ENDBRANCH   1   3
BRANCH   2  16
HETATM   16  N2  UNL     1       1.290  -0.478   0.833  1.00  0.00    -0.288 N 
HETATM   17  H13 UNL     1       1.498  -1.292   1.479  1.00  0.00     0.188 HD
BRANCH  16  18
HETATM   18  N3  UNL     1       1.614   0.854   0.702  1.00  0.00    -0.154 NA
HETATM   19  C12 UNL     1       2.576   1.245  -0.029  1.00  0.00     0.167 C 
HETATM   20  C13 UNL     1       3.400   2.380  -0.580  1.00  0.00     0.115 C 
HETATM   21  O2  UNL     1       3.292   0.287  -0.691  1.00  0.00    -0.306 OA
HETATM   22  C14 UNL     1       4.841   2.236  -0.271  1.00  0.00    -0.017 C 
HETATM   23  C15 UNL     1       6.110   2.305   0.067  1.00  0.00     0.015 C 
HETATM   24  C16 UNL     1       6.937   1.089  -0.091  1.00  0.00     0.110 C 
HETATM   25  N4  UNL     1       6.919  -0.178  -0.317  1.00  0.00    -0.298 NA
HETATM   26  C17 UNL     1       5.764  -0.835  -0.492  1.00  0.00     0.177 C 
HETATM   27  C18 UNL     1       4.537  -1.548  -0.701  1.00  0.00     0.019 C 
HETATM   28  C19 UNL     1       3.218  -1.082  -0.815  1.00  0.00     0.142 C 
ENDBRANCH  16  18
ENDBRANCH   2  16
TORSDOF 6
