REMARK  3 active torsions:
REMARK  status: ('A' for Active; 'I' for Inactive)
REMARK    1  A    between atoms: S1_9  and  C7_10 
REMARK    2  A    between atoms: C13_18  and  C14_19 
REMARK    3  A    between atoms: C14_19  and  O2_20 
ROOT
HETATM    1  O1  UNL     1      -2.240   1.571   3.608  1.00  0.00    -0.341 OA
HETATM    2  B1  UNL     1      -1.920   1.436   1.950  1.00  0.00     0.386 B 
HETATM    3  C1  UNL     1      -1.633   1.148   0.224  1.00  0.00     0.005 C 
HETATM    4  C2  UNL     1      -1.297   2.470  -0.413  1.00  0.00     0.034 C 
HETATM    5  C3  UNL     1      -0.231   3.223   0.236  1.00  0.00    -0.030 C 
HETATM    6  C4  UNL     1       0.956   2.756   0.576  1.00  0.00    -0.026 C 
HETATM    7  C5  UNL     1       1.594   1.448   0.449  1.00  0.00     0.074 C 
HETATM    8  C6  UNL     1       0.697   0.323   0.132  1.00  0.00    -0.003 C 
HETATM    9  S1  UNL     1       1.644  -1.182  -0.191  1.00  0.00    -0.148 SA
HETATM   10  C12 UNL     1      -0.592   0.128   0.023  1.00  0.00     0.020 C 
HETATM   11  N2  UNL     1      -0.763  -1.245  -0.320  1.00  0.00    -0.377 N 
HETATM   12  C13 UNL     1      -1.918  -2.083  -0.410  1.00  0.00     0.105 C 
HETATM   13  C15 UNL     1      -3.072  -1.535  -1.175  1.00  0.00     0.027 C 
HETATM   14  C16 UNL     1      -2.742  -0.121  -1.591  1.00  0.00     0.002 C 
HETATM   15  C17 UNL     1      -2.973   0.736  -0.364  1.00  0.00     0.008 C 
HETATM   16  H11 UNL     1       0.186  -1.676  -0.541  1.00  0.00     0.232 HD
ENDROOT
BRANCH   9  17
HETATM   17  C7  UNL     1       3.384  -0.791  -0.014  1.00  0.00    -0.004 A 
HETATM   18  C8  UNL     1       4.162  -0.862   1.124  1.00  0.00     0.037 A 
HETATM   19  C9  UNL     1       5.477  -0.515   1.038  1.00  0.00     0.117 A 
HETATM   20  N1  UNL     1       6.022  -0.111  -0.115  1.00  0.00    -0.273 NA
HETATM   21  C10 UNL     1       5.303  -0.026  -1.250  1.00  0.00     0.117 A 
HETATM   22  C11 UNL     1       3.965  -0.371  -1.199  1.00  0.00     0.037 A 
ENDBRANCH   9  17
BRANCH  12  23
HETATM   23  C14 UNL     1      -2.352  -2.635   0.950  1.00  0.00     0.189 C 
BRANCH  23  24
HETATM   24  O2  UNL     1      -3.477  -3.440   0.805  1.00  0.00    -0.399 OA
HETATM   25  H15 UNL     1      -4.252  -2.970   1.195  1.00  0.00     0.209 HD
ENDBRANCH  23  24
ENDBRANCH  12  23
TORSDOF 3
