REMARK  2 active torsions:
REMARK  status: ('A' for Active; 'I' for Inactive)
REMARK    1  A    between atoms: C10_13  and  C11_14 
REMARK    2  A    between atoms: C12_15  and  C13_16 
ROOT
HETATM    1  C1  UNL     1      -5.202   2.195  -0.341  1.00  0.00    -0.003 C 
HETATM    2  C2  UNL     1      -5.450   0.932  -0.653  1.00  0.00    -0.026 C 
HETATM    3  C3  UNL     1      -4.602  -0.187  -1.158  1.00  0.00     0.038 C 
HETATM    4  C4  UNL     1      -3.289  -0.003  -0.659  1.00  0.00     0.052 C 
HETATM    5  C5  UNL     1      -2.112  -0.874  -0.772  1.00  0.00     0.063 A 
HETATM    6  C6  UNL     1      -1.578  -1.722   0.201  1.00  0.00    -0.001 A 
HETATM    7  C7  UNL     1      -0.813  -0.507  -0.368  1.00  0.00     0.091 A 
HETATM    8  S1  UNL     1      -1.313   0.659  -1.507  1.00  0.00    -0.174 SA
HETATM    9  C8  UNL     1      -1.540  -0.280  -3.087  1.00  0.00     0.042 A 
HETATM   10  C9  UNL     1      -1.139  -1.049  -2.023  1.00  0.00     0.113 A 
HETATM   11  N1  UNL     1       0.167  -1.881  -2.094  1.00  0.00    -0.290 N 
HETATM   12  N2  UNL     1       1.169  -1.240  -1.198  1.00  0.00    -0.180 NA
HETATM   13  C10 UNL     1       0.726  -0.546  -0.087  1.00  0.00     0.078 C 
HETATM   14  C18 UNL     1      -2.867   1.435  -0.991  1.00  0.00    -0.032 C 
HETATM   15  C19 UNL     1      -3.727   2.404  -0.577  1.00  0.00     0.013 C 
HETATM   16  H8  UNL     1       0.486  -2.787  -2.612  1.00  0.00     0.184 HD
ENDROOT
BRANCH  13  17
HETATM   17  C11 UNL     1       1.840  -0.168   0.809  1.00  0.00     0.033 C 
HETATM   18  C12 UNL     1       2.949  -0.613   0.282  1.00  0.00     0.034 C 
BRANCH  18  19
HETATM   19  C13 UNL     1       4.026  -0.253   1.140  1.00  0.00     0.056 A 
HETATM   20  C14 UNL     1       4.034   0.431   2.327  1.00  0.00     0.031 A 
HETATM   21  C15 UNL     1       5.130   0.732   3.088  1.00  0.00     0.004 A 
HETATM   22  C16 UNL     1       6.346   0.307   2.617  1.00  0.00     0.019 A 
HETATM   23  C17 UNL     1       6.359  -0.381   1.428  1.00  0.00     0.117 A 
HETATM   24  N3  UNL     1       5.259  -0.650   0.722  1.00  0.00    -0.261 NA
ENDBRANCH  18  19
ENDBRANCH  13  17
TORSDOF 2
