REMARK  2 active torsions:
REMARK  status: ('A' for Active; 'I' for Inactive)
REMARK    1  A    between atoms: N1_2  and  N2_3 
REMARK    2  A    between atoms: N2_3  and  C2_4 
ROOT
HETATM    1  C2  UNL     1      -2.871  -0.311  -0.853  1.00  0.00     0.168 C 
HETATM    2  C3  UNL     1      -1.624  -0.916  -0.339  1.00  0.00     0.046 C 
HETATM    3  C4  UNL     1      -0.962  -1.935  -1.292  1.00  0.00     0.042 C 
HETATM    4  C5  UNL     1       0.409  -2.153  -0.668  1.00  0.00    -0.058 A 
HETATM    5  C6  UNL     1       1.402  -1.419  -1.331  1.00  0.00     0.010 A 
HETATM    6  C7  UNL     1       2.634  -1.487  -0.712  1.00  0.00     0.037 A 
HETATM    7  C8  UNL     1       2.858  -2.217   0.459  1.00  0.00     0.069 A 
HETATM    8  C9  UNL     1       1.851  -2.923   1.059  1.00  0.00     0.037 A 
HETATM    9  C10 UNL     1       0.620  -2.875   0.470  1.00  0.00     0.010 A 
HETATM   10  O1  UNL     1       4.239  -1.876   0.580  1.00  0.00    -0.347 OA
HETATM   11  C11 UNL     1       4.515  -0.760   1.477  1.00  0.00     0.214 C 
HETATM   12  C12 UNL     1       3.683   0.358   0.951  1.00  0.00    -0.034 A 
HETATM   13  C13 UNL     1       3.877   1.359   0.031  1.00  0.00     0.012 A 
HETATM   14  C14 UNL     1       2.856   2.205  -0.305  1.00  0.00     0.038 A 
HETATM   15  C15 UNL     1       1.581   2.164   0.206  1.00  0.00     0.074 A 
HETATM   16  C16 UNL     1       1.357   1.173   1.137  1.00  0.00     0.038 A 
HETATM   17  C17 UNL     1       2.382   0.317   1.480  1.00  0.00     0.012 A 
HETATM   18  O2  UNL     1       0.509   3.016  -0.129  1.00  0.00    -0.322 OA
HETATM   19  C18 UNL     1      -0.710   2.419  -0.552  1.00  0.00     0.159 C 
HETATM   20  C19 UNL     1      -1.467   1.532  -1.237  1.00  0.00     0.109 C 
HETATM   21  N3  UNL     1      -2.428   0.669  -1.891  1.00  0.00    -0.380 N 
HETATM   22  H23 UNL     1      -2.547   0.961  -2.886  1.00  0.00     0.160 HD
ENDROOT
BRANCH   1  23
HETATM   23  N2  UNL     1      -3.409   0.551   0.200  1.00  0.00    -0.239 NA
HETATM   24  H5  UNL     1      -3.610   0.005   1.073  1.00  0.00     0.142 HD
BRANCH  23  25
HETATM   25  N1  UNL     1      -4.589   1.150  -0.231  1.00  0.00    -0.264 NA
HETATM   26  C1  UNL     1      -5.134   1.933   0.859  1.00  0.00     0.126 C 
HETATM   27  H4  UNL     1      -5.271   0.482  -0.604  1.00  0.00     0.140 HD
ENDBRANCH  23  25
ENDBRANCH   1  23
TORSDOF 2
