REMARK  9 active torsions:
REMARK  status: ('A' for Active; 'I' for Inactive)
REMARK    1  A    between atoms: O1_2  and  C2_3 
REMARK    2  A    between atoms: C2_3  and  C11_16 
REMARK    3  A    between atoms: C3_4  and  C4_5 
REMARK    4  A    between atoms: C9_11  and  N2_12 
REMARK    5  A    between atoms: C10_14  and  N4_15 
REMARK    6  A    between atoms: C11_16  and  O2_17 
REMARK    7  A    between atoms: O2_17  and  C12_18 
REMARK    8  A    between atoms: C12_18  and  C13_19 
REMARK    9  A    between atoms: C16_22  and  O3_23 
ROOT
HETATM    1  C4  UNL     1      -2.542  -0.722  -0.020  1.00  0.00    -0.057 C 
HETATM    2  C5  UNL     1      -2.870   0.389  -0.637  1.00  0.00    -0.017 C 
HETATM    3  C6  UNL     1      -4.314   0.399  -1.040  1.00  0.00     0.070 C 
HETATM    4  C7  UNL     1      -4.869  -0.634  -0.093  1.00  0.00     0.139 A 
HETATM    5  C8  UNL     1      -3.736  -1.616   0.072  1.00  0.00     0.080 C 
HETATM    6  N1  UNL     1      -5.999  -1.334  -0.633  1.00  0.00    -0.086 NA
HETATM    7  C9  UNL     1      -6.974  -1.201   0.192  1.00  0.00     0.718 A 
HETATM    8  N3  UNL     1      -6.598  -0.419   1.335  1.00  0.00    -0.048 NA
HETATM    9  C10 UNL     1      -5.347  -0.080   1.168  1.00  0.00     0.148 A 
ENDROOT
BRANCH   1  10
HETATM   10  C3  UNL     1      -1.238  -1.086   0.512  1.00  0.00     0.041 C 
HETATM   11  C2  UNL     1      -0.187  -0.289   0.425  1.00  0.00     0.070 C 
BRANCH  11  12
HETATM   12  O1  UNL     1      -0.069   0.971  -0.138  1.00  0.00    -0.358 OA
HETATM   13  C1  UNL     1       0.946   1.382  -1.012  1.00  0.00     0.209 C 
ENDBRANCH  11  12
BRANCH  11  14
HETATM   14  C11 UNL     1       1.151  -0.643   0.962  1.00  0.00     0.232 C 
BRANCH  14  15
HETATM   15  O2  UNL     1       1.522   0.287   1.909  1.00  0.00    -0.380 OA
BRANCH  15  16
HETATM   16  C12 UNL     1       2.754   0.057   2.482  1.00  0.00     0.206 C 
BRANCH  16  17
HETATM   17  C13 UNL     1       3.800   0.070   1.437  1.00  0.00    -0.034 A 
HETATM   18  C14 UNL     1       4.422   1.283   1.118  1.00  0.00     0.012 A 
HETATM   19  C15 UNL     1       5.404   1.389   0.163  1.00  0.00     0.037 A 
HETATM   20  C16 UNL     1       5.827   0.281  -0.537  1.00  0.00     0.068 A 
HETATM   21  C18 UNL     1       5.228  -0.937  -0.241  1.00  0.00     0.037 A 
HETATM   22  C19 UNL     1       4.252  -1.026   0.712  1.00  0.00     0.012 A 
BRANCH  20  23
HETATM   23  O3  UNL     1       6.810   0.325  -1.508  1.00  0.00    -0.356 OA
HETATM   24  C17 UNL     1       7.447   1.533  -1.844  1.00  0.00     0.210 C 
ENDBRANCH  20  23
ENDBRANCH  16  17
ENDBRANCH  15  16
ENDBRANCH  14  15
ENDBRANCH  11  14
ENDBRANCH   1  10
BRANCH   9  25
HETATM   25  N4  UNL     1      -4.703   0.711   2.163  1.00  0.00    -0.385 N 
HETATM   26  H12 UNL     1      -4.248   0.275   3.001  1.00  0.00     0.157 HD
HETATM   27  H13 UNL     1      -4.584   1.765   2.224  1.00  0.00     0.157 HD
ENDBRANCH   9  25
BRANCH   7  28
HETATM   28  N2  UNL     1      -8.272  -1.760   0.002  1.00  0.00    -0.231 N 
HETATM   29  H10 UNL     1      -8.488  -2.767  -0.083  1.00  0.00     0.174 HD
HETATM   30  H11 UNL     1      -9.229  -1.343  -0.089  1.00  0.00     0.174 HD
ENDBRANCH   7  28
TORSDOF 9
