REMARK  4 active torsions:
REMARK  status: ('A' for Active; 'I' for Inactive)
REMARK    1  A    between atoms: O1_2  and  C2_3 
REMARK    2  A    between atoms: C3_4  and  C4_5 
REMARK    3  A    between atoms: C9_11  and  O3_12 
REMARK    4  A    between atoms: C14_19  and  N3_20 
ROOT
HETATM    1  C2  UNL     1      -1.485  -2.175   0.922  1.00  0.00     0.134 A 
HETATM    2  C3  UNL     1      -0.248  -2.564   0.508  1.00  0.00     0.074 A 
HETATM    3  C4  UNL     1       0.413  -2.283  -0.635  1.00  0.00    -0.015 A 
HETATM    4  C5  UNL     1       0.598  -1.725  -1.875  1.00  0.00     0.009 A 
HETATM    5  C6  UNL     1      -0.627  -1.342  -1.444  1.00  0.00     0.039 A 
HETATM    6  C7  UNL     1      -1.269  -1.634  -0.288  1.00  0.00     0.108 A 
HETATM    7  O2  UNL     1      -2.423  -0.730  -0.628  1.00  0.00    -0.373 OA
HETATM    8  C8  UNL     1      -1.886   0.491  -0.266  1.00  0.00     0.205 C 
HETATM    9  C9  UNL     1      -2.324   1.849  -0.299  1.00  0.00     0.168 C 
HETATM   10  C11 UNL     1      -0.994   2.579   0.156  1.00  0.00     0.024 C 
HETATM   11  C12 UNL     1       0.116   1.907   0.537  1.00  0.00     0.088 C 
HETATM   12  N1  UNL     1       0.832   0.736   0.784  1.00  0.00    -0.350 N 
HETATM   13  C13 UNL     1       2.012   0.174   0.219  1.00  0.00     0.154 A 
HETATM   14  N2  UNL     1       2.848   1.228   0.179  1.00  0.00    -0.045 NA
HETATM   15  C14 UNL     1       4.123   1.212  -0.272  1.00  0.00     0.721 A 
HETATM   16  N4  UNL     1       4.674   0.068  -0.740  1.00  0.00    -0.075 NA
HETATM   17  C15 UNL     1       3.809  -0.974  -0.688  1.00  0.00     0.147 A 
HETATM   18  C16 UNL     1       2.493  -1.061  -0.247  1.00  0.00     0.007 A 
HETATM   19  C17 UNL     1       1.859  -2.420  -0.362  1.00  0.00     0.055 C 
HETATM   20  H15 UNL     1       0.664  -0.023   1.477  1.00  0.00     0.166 HD
ENDROOT
BRANCH  15  21
HETATM   21  N3  UNL     1       5.027   2.336  -0.319  1.00  0.00    -0.231 N 
HETATM   22  H16 UNL     1       5.825   2.372   0.360  1.00  0.00     0.174 HD
HETATM   23  H17 UNL     1       4.947   3.135  -0.993  1.00  0.00     0.174 HD
ENDBRANCH  15  21
BRANCH   9  24
HETATM   24  O3  UNL     1      -2.695   2.424  -1.501  1.00  0.00    -0.385 OA
HETATM   25  C10 UNL     1      -3.843   3.229  -1.321  1.00  0.00     0.202 C 
ENDBRANCH   9  24
BRANCH   1  26
HETATM   26  O1  UNL     1      -2.623  -2.009   1.659  1.00  0.00    -0.378 OA
HETATM   27  C1  UNL     1      -2.770  -2.608   2.913  1.00  0.00     0.202 C 
ENDBRANCH   1  26
TORSDOF 4
