REMARK  9 active torsions:
REMARK  status: ('A' for Active; 'I' for Inactive)
REMARK    1  A    between atoms: O1_2  and  C2_3 
REMARK    2  A    between atoms: C5_6  and  C6_7 
REMARK    3  A    between atoms: C6_7  and  O2_8 
REMARK    4  A    between atoms: O2_8  and  C7_9 
REMARK    5  A    between atoms: C10_12  and  C11_13 
REMARK    6  A    between atoms: C14_18  and  N3_19 
REMARK    7  A    between atoms: C16_21  and  O3_22 
REMARK    8  A    between atoms: O3_22  and  C17_23 
REMARK    9  A    between atoms: C17_23  and  N4_24 
ROOT
HETATM    1  C7  UNL     1      -0.335   0.404   0.970  1.00  0.00     0.102 A 
HETATM    2  C8  UNL     1      -0.679   1.438   0.121  1.00  0.00     0.040 A 
HETATM    3  C9  UNL     1      -1.867   1.485  -0.619  1.00  0.00     0.015 A 
HETATM    4  C10 UNL     1      -2.702   0.401  -0.445  1.00  0.00    -0.018 A 
HETATM    5  C15 UNL     1      -2.406  -0.656   0.388  1.00  0.00     0.052 A 
HETATM    6  C16 UNL     1      -1.226  -0.671   1.104  1.00  0.00     0.105 A 
ENDROOT
BRANCH   1   7
HETATM    7  O2  UNL     1       0.775   0.465   1.595  1.00  0.00    -0.344 OA
BRANCH   7   8
HETATM    8  C6  UNL     1       1.937   0.681   2.154  1.00  0.00     0.214 C 
BRANCH   8   9
HETATM    9  C5  UNL     1       3.079   0.816   1.183  1.00  0.00    -0.034 A 
HETATM   10  C4  UNL     1       3.425   2.042   0.672  1.00  0.00     0.012 A 
HETATM   11  C3  UNL     1       4.471   2.242  -0.230  1.00  0.00     0.037 A 
HETATM   12  C2  UNL     1       5.207   1.123  -0.634  1.00  0.00     0.068 A 
HETATM   13  C19 UNL     1       4.866  -0.114  -0.125  1.00  0.00     0.037 A 
HETATM   14  C18 UNL     1       3.829  -0.261   0.760  1.00  0.00     0.012 A 
BRANCH  12  15
HETATM   15  O1  UNL     1       6.218   1.397  -1.522  1.00  0.00    -0.356 OA
HETATM   16  C1  UNL     1       7.075   0.420  -2.051  1.00  0.00     0.210 C 
ENDBRANCH  12  15
ENDBRANCH   8   9
ENDBRANCH   7   8
ENDBRANCH   1   7
BRANCH   6  17
HETATM   17  O3  UNL     1      -0.825  -1.677   1.968  1.00  0.00    -0.330 OA
BRANCH  17  18
HETATM   18  C17 UNL     1      -1.684  -2.784   2.135  1.00  0.00     0.290 C 
BRANCH  18  19
HETATM   19  N4  UNL     1      -1.939  -3.511   0.918  1.00  0.00    -0.410 N 
HETATM   20  H17 UNL     1      -2.173  -4.497   1.057  1.00  0.00     0.151 HD
HETATM   21  H18 UNL     1      -1.339  -3.270   0.123  1.00  0.00     0.151 HD
ENDBRANCH  18  19
ENDBRANCH  17  18
ENDBRANCH   6  17
BRANCH   4  22
HETATM   22  C11 UNL     1      -3.946   0.360  -1.165  1.00  0.00     0.037 A 
HETATM   23  C12 UNL     1      -4.137   0.651  -2.522  1.00  0.00     0.134 A 
HETATM   24  N1  UNL     1      -5.383   0.565  -3.060  1.00  0.00    -0.253 NA
HETATM   25  C13 UNL     1      -6.437   0.205  -2.317  1.00  0.00     0.234 A 
HETATM   26  N2  UNL     1      -6.315  -0.088  -1.007  1.00  0.00    -0.224 NA
HETATM   27  C14 UNL     1      -5.076  -0.011  -0.434  1.00  0.00     0.135 A 
BRANCH  27  28
HETATM   28  N3  UNL     1      -5.116  -0.347   0.945  1.00  0.00    -0.383 N 
HETATM   29  H12 UNL     1      -4.689   0.012   1.847  1.00  0.00     0.157 HD
HETATM   30  H13 UNL     1      -5.672  -1.133   1.319  1.00  0.00     0.157 HD
ENDBRANCH  27  28
ENDBRANCH   4  22
TORSDOF 9
