REMARK  4 active torsions:
REMARK  status: ('A' for Active; 'I' for Inactive)
REMARK    1  A    between atoms: N1_6  and  C6_7 
REMARK    2  A    between atoms: C8_9  and  N2_10 
REMARK    3  A    between atoms: N2_10  and  C9_11 
REMARK    4  A    between atoms: C9_11  and  C10_12 
ROOT
HETATM    1  C6  UNL     1      -0.936  -1.546  -0.355  1.00  0.00     0.134 A 
HETATM    2  C7  UNL     1       0.406  -1.289  -0.440  1.00  0.00     0.100 A 
HETATM    3  C8  UNL     1       1.445  -2.169  -0.198  1.00  0.00     0.128 A 
HETATM    4  N3  UNL     1       1.097  -3.417   0.165  1.00  0.00    -0.225 NA
HETATM    5  C16 UNL     1      -0.230  -3.729   0.267  1.00  0.00     0.237 A 
HETATM    6  N4  UNL     1      -1.192  -2.823   0.015  1.00  0.00    -0.224 NA
ENDROOT
BRANCH   3   7
HETATM    7  N2  UNL     1       2.800  -1.727  -0.339  1.00  0.00    -0.374 N 
HETATM    8  H8  UNL     1       2.848  -1.494  -1.377  1.00  0.00     0.161 HD
BRANCH   7   9
HETATM    9  C9  UNL     1       3.938  -1.577   0.557  1.00  0.00     0.134 C 
BRANCH   9  10
HETATM   10  C10 UNL     1       5.002  -0.883  -0.293  1.00  0.00     0.054 A 
HETATM   11  C11 UNL     1       6.252  -0.650   0.442  1.00  0.00     0.023 A 
HETATM   12  C12 UNL     1       6.438   0.644   0.655  1.00  0.00     0.101 A 
HETATM   13  O1  UNL     1       7.325   1.554   1.239  1.00  0.00    -0.323 OA
HETATM   14  C14 UNL     1       5.340   1.457   0.092  1.00  0.00     0.101 A 
HETATM   15  C13 UNL     1       7.095   2.847   0.692  1.00  0.00     0.352 C 
HETATM   16  O2  UNL     1       5.705   2.777   0.411  1.00  0.00    -0.323 OA
HETATM   17  C15 UNL     1       4.527   0.546  -0.450  1.00  0.00     0.023 A 
ENDBRANCH   9  10
ENDBRANCH   7   9
ENDBRANCH   3   7
BRANCH   1  18
HETATM   18  N1  UNL     1      -2.043  -0.700  -0.584  1.00  0.00    -0.338 N 
HETATM   19  C5  UNL     1      -1.828   0.699  -0.651  1.00  0.00     0.093 C 
HETATM   20  C4  UNL     1      -2.373   1.903  -0.549  1.00  0.00     0.018 C 
HETATM   21  C3  UNL     1      -3.771   2.281  -0.249  1.00  0.00     0.008 C 
HETATM   22  C2  UNL     1      -4.876   1.623   0.150  1.00  0.00    -0.056 C 
HETATM   23  C1  UNL     1      -6.074   2.451   0.322  1.00  0.00     0.049 C 
HETATM   24  C19 UNL     1      -5.051   0.187   0.439  1.00  0.00    -0.058 C 
HETATM   25  C18 UNL     1      -4.406  -0.908   0.066  1.00  0.00     0.000 C 
HETATM   26  C20 UNL     1      -6.222  -0.002   1.344  1.00  0.00     0.048 C 
HETATM   27  C17 UNL     1      -3.278  -1.420  -0.739  1.00  0.00     0.158 C 
ENDBRANCH   1  18
TORSDOF 4
