REMARK  6 active torsions:
REMARK  status: ('A' for Active; 'I' for Inactive)
REMARK    1  A    between atoms: O1_2  and  C2_3 
REMARK    2  A    between atoms: C5_6  and  C6_7 
REMARK    3  A    between atoms: C6_7  and  C7_8 
REMARK    4  A    between atoms: C7_8  and  O2_9 
REMARK    5  A    between atoms: C11_14  and  N2_15 
REMARK    6  A    between atoms: C12_16  and  N3_17 
ROOT
HETATM    1  C2  UNL     1      -3.122  -0.026   0.317  1.00  0.00     0.064 C 
HETATM    2  C3  UNL     1      -2.879   1.280   0.631  1.00  0.00     0.080 C 
HETATM    3  C4  UNL     1      -1.649   2.052   0.335  1.00  0.00    -0.011 C 
HETATM    4  C5  UNL     1      -0.402   2.324  -0.145  1.00  0.00    -0.070 C 
HETATM    5  C8  UNL     1       0.352   1.362  -0.973  1.00  0.00     0.088 C 
HETATM    6  C9  UNL     1       1.636   0.873  -0.436  1.00  0.00     0.009 C 
HETATM    7  C10 UNL     1       2.739   1.780  -0.036  1.00  0.00     0.065 C 
HETATM    8  N1  UNL     1       1.708  -0.395  -0.376  1.00  0.00    -0.258 NA
HETATM    9  C11 UNL     1       2.781  -1.189   0.080  1.00  0.00     0.390 C 
HETATM   10  C12 UNL     1       2.557  -2.640  -0.032  1.00  0.00     0.080 C 
HETATM   11  C13 UNL     1       1.675  -3.587  -0.376  1.00  0.00     0.171 C 
HETATM   12  O3  UNL     1       0.396  -3.935  -0.856  1.00  0.00    -0.321 OA
HETATM   13  C14 UNL     1      -0.631  -2.962  -0.715  1.00  0.00     0.075 A 
HETATM   14  C15 UNL     1      -1.474  -2.670  -1.753  1.00  0.00     0.038 A 
HETATM   15  C16 UNL     1      -2.449  -1.714  -1.599  1.00  0.00     0.017 A 
HETATM   16  C17 UNL     1      -2.418  -1.175  -0.358  1.00  0.00    -0.006 A 
HETATM   17  C18 UNL     1      -1.595  -1.439   0.716  1.00  0.00     0.017 A 
HETATM   18  C19 UNL     1      -0.618  -2.403   0.552  1.00  0.00     0.038 A 
ENDROOT
BRANCH   4  19
HETATM   19  C6  UNL     1       0.311   3.561  -0.027  1.00  0.00     0.115 C 
BRANCH  19  20
HETATM   20  C7  UNL     1       0.685   4.774   0.241  1.00  0.00     0.105 C 
BRANCH  20  21
HETATM   21  O2  UNL     1       1.025   6.071   0.557  1.00  0.00    -0.400 OA
HETATM   22  H8  UNL     1       0.275   6.667   0.930  1.00  0.00     0.209 HD
ENDBRANCH  20  21
ENDBRANCH  19  20
ENDBRANCH   4  19
BRANCH   1  23
HETATM   23  O1  UNL     1      -4.410  -0.097   0.857  1.00  0.00    -0.359 OA
HETATM   24  C1  UNL     1      -5.550  -0.061   0.016  1.00  0.00     0.209 C 
ENDBRANCH   1  23
BRANCH   9  25
HETATM   25  N2  UNL     1       3.034  -0.827   1.484  1.00  0.00     0.109 N 
HETATM   26  H15 UNL     1       2.905  -1.649   2.108  1.00  0.00     0.316 HD
HETATM   27  H16 UNL     1       3.916  -0.313   1.598  1.00  0.00     0.316 HD
ENDBRANCH   9  25
BRANCH  10  28
HETATM   28  N3  UNL     1       3.777  -3.269   0.431  1.00  0.00    -0.398 N 
HETATM   29  H17 UNL     1       4.699  -3.683   0.688  1.00  0.00     0.156 HD
HETATM   30  H18 UNL     1       3.978  -3.869   1.258  1.00  0.00     0.156 HD
ENDBRANCH  10  28
TORSDOF 6
