REMARK  6 active torsions:
REMARK  status: ('A' for Active; 'I' for Inactive)
REMARK    1  A    between atoms: C3_3  and  C4_4 
REMARK    2  A    between atoms: C5_5  and  N1_6 
REMARK    3  A    between atoms: C8_10  and  N3_11 
REMARK    4  A    between atoms: N3_11  and  C9_12 
REMARK    5  A    between atoms: C9_12  and  C10_13 
REMARK    6  A    between atoms: C15_19  and  O2_20 
ROOT
HETATM    1  N1  UNL     1       3.729  -0.465  -0.463  1.00  0.00    -0.226 N 
HETATM    2  N2  UNL     1       3.302  -0.689   0.769  1.00  0.00    -0.178 NA
HETATM    3  C6  UNL     1       2.009  -0.271   0.911  1.00  0.00     0.158 A 
HETATM    4  C7  UNL     1       1.659   0.228  -0.312  1.00  0.00     0.076 A 
HETATM    5  C8  UNL     1       0.606   0.809  -0.985  1.00  0.00     0.140 A 
HETATM    6  N4  UNL     1       0.666   1.181  -2.272  1.00  0.00    -0.224 NA
HETATM    7  C18 UNL     1       1.762   1.022  -3.026  1.00  0.00     0.237 A 
HETATM    8  N5  UNL     1       2.821   0.452  -2.399  1.00  0.00    -0.221 NA
HETATM    9  C19 UNL     1       2.743   0.085  -1.111  1.00  0.00     0.167 A 
ENDROOT
BRANCH   5  10
HETATM   10  N3  UNL     1      -0.594   0.991  -0.211  1.00  0.00    -0.373 N 
HETATM   11  H9  UNL     1      -0.692   0.717   0.783  1.00  0.00     0.161 HD
BRANCH  10  12
HETATM   12  C9  UNL     1      -1.720   1.596  -0.889  1.00  0.00     0.134 C 
BRANCH  12  13
HETATM   13  C10 UNL     1      -2.936   1.739  -0.016  1.00  0.00     0.051 C 
HETATM   14  C11 UNL     1      -4.047   2.365  -0.783  1.00  0.00    -0.018 C 
HETATM   15  C12 UNL     1      -5.287   2.606  -0.339  1.00  0.00    -0.004 C 
HETATM   16  C13 UNL     1      -6.168   2.463   0.865  1.00  0.00     0.195 C 
HETATM   17  O1  UNL     1      -5.562   1.719   1.854  1.00  0.00    -0.381 OA
HETATM   18  C14 UNL     1      -5.652   0.354   1.691  1.00  0.00     0.232 C 
HETATM   19  C15 UNL     1      -4.406  -0.213   1.086  1.00  0.00     0.066 C 
HETATM   20  C17 UNL     1      -3.410   0.405   0.443  1.00  0.00     0.018 C 
BRANCH  19  21
HETATM   21  O2  UNL     1      -4.273  -1.579   1.214  1.00  0.00    -0.358 OA
HETATM   22  C16 UNL     1      -4.757  -2.547   0.329  1.00  0.00     0.209 C 
ENDBRANCH  19  21
ENDBRANCH  12  13
ENDBRANCH  10  12
ENDBRANCH   5  10
BRANCH   1  23
HETATM   23  C5  UNL     1       5.083  -0.905  -0.626  1.00  0.00     0.120 C 
HETATM   24  C4  UNL     1       6.050  -1.477   0.139  1.00  0.00     0.019 C 
BRANCH  24  25
HETATM   25  C3  UNL     1       7.167  -1.613  -0.791  1.00  0.00    -0.003 C 
HETATM   26  C2  UNL     1       8.260  -2.146  -0.329  1.00  0.00    -0.031 C 
HETATM   27  C1  UNL     1       8.214  -2.552   1.121  1.00  0.00     0.036 C 
ENDBRANCH  24  25
ENDBRANCH   1  23
TORSDOF 6
