REMARK  8 active torsions:
REMARK  status: ('A' for Active; 'I' for Inactive)
REMARK    1  A    between atoms: O1_2  and  C2_3 
REMARK    2  A    between atoms: C5_6  and  C6_7 
REMARK    3  A    between atoms: C6_7  and  C7_8 
REMARK    4  A    between atoms: C10_11  and  C11_12 
REMARK    5  A    between atoms: C13_15  and  N2_16 
REMARK    6  A    between atoms: C14_18  and  N4_19 
REMARK    7  A    between atoms: C15_20  and  O2_21 
REMARK    8  A    between atoms: C15_20  and  O3_22 
ROOT
HETATM    1  C7  UNL     1       0.127  -0.525   0.373  1.00  0.00    -0.009 A 
HETATM    2  C8  UNL     1       0.015   0.680   0.855  1.00  0.00     0.010 A 
HETATM    3  C9  UNL     1      -1.389   1.063   0.848  1.00  0.00     0.014 A 
HETATM    4  C10 UNL     1      -2.173   0.117   0.367  1.00  0.00     0.024 A 
HETATM    5  C15 UNL     1      -1.243  -0.982   0.026  1.00  0.00     0.217 A 
ENDROOT
BRANCH   4   6
HETATM    6  C11 UNL     1      -3.596   0.064   0.179  1.00  0.00     0.040 A 
HETATM    7  C12 UNL     1      -4.207  -1.059  -0.355  1.00  0.00     0.152 A 
HETATM    8  N1  UNL     1      -5.509  -1.177  -0.556  1.00  0.00    -0.074 NA
HETATM    9  C13 UNL     1      -6.356  -0.165  -0.237  1.00  0.00     0.721 A 
HETATM   10  N3  UNL     1      -5.786   0.935   0.284  1.00  0.00    -0.045 NA
HETATM   11  C14 UNL     1      -4.475   1.054   0.486  1.00  0.00     0.153 A 
BRANCH   9  12
HETATM   12  N2  UNL     1      -7.754  -0.281  -0.447  1.00  0.00    -0.231 N 
HETATM   13  H11 UNL     1      -8.109  -0.582  -1.396  1.00  0.00     0.174 HD
HETATM   14  H12 UNL     1      -8.541  -0.099   0.246  1.00  0.00     0.174 HD
ENDBRANCH   9  12
BRANCH  11  15
HETATM   15  N4  UNL     1      -4.010   2.274   1.044  1.00  0.00    -0.383 N 
HETATM   16  H13 UNL     1      -3.775   2.927   0.255  1.00  0.00     0.157 HD
HETATM   17  H14 UNL     1      -3.908   2.510   2.074  1.00  0.00     0.157 HD
ENDBRANCH  11  15
ENDBRANCH   4   6
BRANCH   5  18
HETATM   18  O2  UNL     1      -1.506  -2.098   0.824  1.00  0.00    -0.358 OA
HETATM   19  H15 UNL     1      -1.146  -2.011   1.736  1.00  0.00     0.213 HD
ENDBRANCH   5  18
BRANCH   5  20
HETATM   20  O3  UNL     1      -1.374  -1.406  -1.283  1.00  0.00    -0.352 OA
HETATM   21  C16 UNL     1      -1.155  -0.450  -2.240  1.00  0.00     0.206 C 
ENDBRANCH   5  20
BRANCH   1  22
HETATM   22  C6  UNL     1       1.234  -1.479   0.111  1.00  0.00     0.079 C 
BRANCH  22  23
HETATM   23  C5  UNL     1       2.551  -0.935   0.491  1.00  0.00    -0.048 A 
HETATM   24  C4  UNL     1       3.128  -1.404   1.675  1.00  0.00     0.011 A 
HETATM   25  C3  UNL     1       4.367  -0.944   2.105  1.00  0.00     0.037 A 
HETATM   26  C2  UNL     1       5.012   0.004   1.308  1.00  0.00     0.068 A 
HETATM   27  C19 UNL     1       4.464   0.481   0.137  1.00  0.00     0.044 A 
HETATM   28  C17 UNL     1       3.215   0.000  -0.271  1.00  0.00    -0.053 A 
HETATM   29  C18 UNL     1       2.610   0.507  -1.533  1.00  0.00     0.049 C 
BRANCH  26  30
HETATM   30  O1  UNL     1       6.238   0.394   1.826  1.00  0.00    -0.356 OA
HETATM   31  C1  UNL     1       7.039   1.363   1.134  1.00  0.00     0.210 C 
ENDBRANCH  26  30
ENDBRANCH  22  23
ENDBRANCH   1  22
TORSDOF 8
