REMARK  10 active torsions:
REMARK  status: ('A' for Active; 'I' for Inactive)
REMARK    1  A    between atoms: B1_1  and  O1_2 
REMARK    2  A    between atoms: O1_2  and  C1_3 
REMARK    3  A    between atoms: C4_6  and  C5_7 
REMARK    4  A    between atoms: C5_7  and  O2_8 
REMARK    5  A    between atoms: O2_8  and  C6_9 
REMARK    6  A    between atoms: C9_12  and  C10_13 
REMARK    7  A    between atoms: C10_13  and  C11_14 
REMARK    8  A    between atoms: C13_17  and  N2_18 
REMARK    9  A    between atoms: C14_20  and  N4_21 
REMARK   10  A    between atoms: C16_23  and  O3_24 
ROOT
HETATM    1  C6  UNL     1       0.405   0.210   0.625  1.00  0.00     0.102 A 
HETATM    2  C7  UNL     1      -0.302  -0.245   1.720  1.00  0.00     0.040 A 
HETATM    3  C8  UNL     1      -1.608   0.148   1.929  1.00  0.00     0.010 A 
HETATM    4  C9  UNL     1      -2.215   1.004   1.035  1.00  0.00    -0.051 A 
HETATM    5  C15 UNL     1      -1.496   1.465  -0.074  1.00  0.00     0.047 A 
HETATM    6  C16 UNL     1      -0.171   1.068  -0.288  1.00  0.00     0.102 A 
ENDROOT
BRANCH   4   7
HETATM    7  C10 UNL     1      -3.596   1.555   1.049  1.00  0.00     0.082 C 
BRANCH   7   8
HETATM    8  C11 UNL     1      -4.557   0.735   0.266  1.00  0.00     0.010 A 
HETATM    9  C12 UNL     1      -4.928   1.224  -0.992  1.00  0.00     0.147 A 
HETATM   10  N1  UNL     1      -5.790   0.559  -1.788  1.00  0.00    -0.075 NA
HETATM   11  C13 UNL     1      -6.326  -0.612  -1.386  1.00  0.00     0.721 A 
HETATM   12  N3  UNL     1      -5.986  -1.104  -0.182  1.00  0.00    -0.045 NA
HETATM   13  C14 UNL     1      -5.128  -0.463   0.635  1.00  0.00     0.148 A 
BRANCH  11  14
HETATM   14  N2  UNL     1      -7.211  -1.201  -2.311  1.00  0.00    -0.231 N 
HETATM   15  H12 UNL     1      -8.232  -1.093  -2.504  1.00  0.00     0.174 HD
HETATM   16  H13 UNL     1      -7.024  -1.919  -3.049  1.00  0.00     0.174 HD
ENDBRANCH  11  14
BRANCH  13  17
HETATM   17  N4  UNL     1      -4.766  -0.966   1.898  1.00  0.00    -0.383 N 
HETATM   18  H14 UNL     1      -5.027  -0.864   2.913  1.00  0.00     0.157 HD
HETATM   19  H15 UNL     1      -4.000  -1.625   1.571  1.00  0.00     0.157 HD
ENDBRANCH  13  17
ENDBRANCH   7   8
ENDBRANCH   4   7
BRANCH   6  20
HETATM   20  O3  UNL     1       0.568   1.507  -1.378  1.00  0.00    -0.353 OA
HETATM   21  C17 UNL     1      -0.046   2.385  -2.299  1.00  0.00     0.210 C 
ENDBRANCH   6  20
BRANCH   1  22
HETATM   22  O2  UNL     1       1.720  -0.178   0.403  1.00  0.00    -0.344 OA
BRANCH  22  23
HETATM   23  C5  UNL     1       2.462  -1.035   1.217  1.00  0.00     0.214 C 
BRANCH  23  24
HETATM   24  C4  UNL     1       3.825  -1.180   0.609  1.00  0.00    -0.034 A 
HETATM   25  C3  UNL     1       4.838  -0.303   0.969  1.00  0.00     0.012 A 
HETATM   26  C2  UNL     1       6.125  -0.340   0.480  1.00  0.00     0.035 A 
HETATM   27  C1  UNL     1       6.431  -1.324  -0.439  1.00  0.00     0.049 A 
HETATM   28  C19 UNL     1       5.442  -2.210  -0.815  1.00  0.00     0.035 A 
HETATM   29  C18 UNL     1       4.157  -2.161  -0.316  1.00  0.00     0.012 A 
BRANCH  27  30
HETATM   30  O1  UNL     1       7.733  -1.376  -0.947  1.00  0.00    -0.428 OA
BRANCH  30  31
HETATM   31  B1  UNL     1       8.576  -0.184  -0.915  1.00  0.00     0.300 B 
HETATM   32  H1  UNL     1       9.441  -0.050  -0.117  1.00  0.00     0.002 HD
HETATM   33  H2  UNL     1       8.358   0.686  -1.672  1.00  0.00     0.002 HD
ENDBRANCH  30  31
ENDBRANCH  27  30
ENDBRANCH  23  24
ENDBRANCH  22  23
ENDBRANCH   1  22
TORSDOF 10
