REMARK  5 active torsions:
REMARK  status: ('A' for Active; 'I' for Inactive)
REMARK    1  A    between atoms: O1_2  and  C2_3 
REMARK    2  A    between atoms: C10_12  and  C11_13 
REMARK    3  A    between atoms: C11_13  and  C12_14 
REMARK    4  A    between atoms: C14_17  and  N2_18 
REMARK    5  A    between atoms: C15_20  and  N4_21 
ROOT
HETATM    1  C2  UNL     1       4.584   0.773   0.965  1.00  0.00     0.067 C 
HETATM    2  C3  UNL     1       3.878  -0.197   0.270  1.00  0.00     0.134 C 
HETATM    3  C4  UNL     1       4.479  -1.476  -0.274  1.00  0.00    -0.020 C 
HETATM    4  C5  UNL     1       3.576  -2.259  -0.908  1.00  0.00    -0.004 C 
HETATM    5  C6  UNL     1       2.317  -2.792  -1.489  1.00  0.00     0.203 C 
HETATM    6  O2  UNL     1       1.205  -2.100  -1.372  1.00  0.00    -0.345 OA
HETATM    7  C7  UNL     1       0.174  -1.373  -1.301  1.00  0.00     0.102 A 
HETATM    8  C8  UNL     1      -0.981  -1.893  -1.900  1.00  0.00     0.040 A 
HETATM    9  C9  UNL     1      -2.214  -1.245  -1.926  1.00  0.00     0.010 A 
HETATM   10  C10 UNL     1      -2.205  -0.014  -1.297  1.00  0.00    -0.051 A 
HETATM   11  C16 UNL     1      -1.101   0.568  -0.681  1.00  0.00     0.047 A 
HETATM   12  C17 UNL     1       0.098  -0.165  -0.708  1.00  0.00     0.102 A 
HETATM   13  O3  UNL     1       1.191   0.436  -0.086  1.00  0.00    -0.345 OA
HETATM   14  C18 UNL     1       1.076   1.687   0.564  1.00  0.00     0.203 C 
HETATM   15  C19 UNL     1       2.287   2.220   1.161  1.00  0.00    -0.002 C 
HETATM   16  C20 UNL     1       3.578   1.831   1.281  1.00  0.00     0.004 C 
ENDROOT
BRANCH  10  17
HETATM   17  C11 UNL     1      -3.444   0.794  -1.243  1.00  0.00     0.082 C 
BRANCH  17  18
HETATM   18  C12 UNL     1      -4.195   0.653   0.028  1.00  0.00     0.010 A 
HETATM   19  C13 UNL     1      -4.095   1.699   0.942  1.00  0.00     0.147 A 
HETATM   20  N1  UNL     1      -4.737   1.665   2.120  1.00  0.00    -0.075 NA
HETATM   21  C14 UNL     1      -5.516   0.610   2.478  1.00  0.00     0.721 A 
HETATM   22  N3  UNL     1      -5.622  -0.408   1.605  1.00  0.00    -0.045 NA
HETATM   23  C15 UNL     1      -4.988  -0.403   0.411  1.00  0.00     0.148 A 
BRANCH  21  24
HETATM   24  N2  UNL     1      -6.177   0.621   3.738  1.00  0.00    -0.231 N 
HETATM   25  H14 UNL     1      -5.499   0.452   4.533  1.00  0.00     0.174 HD
HETATM   26  H15 UNL     1      -7.178   0.804   3.473  1.00  0.00     0.174 HD
ENDBRANCH  21  24
BRANCH  23  27
HETATM   27  N4  UNL     1      -5.109  -1.474  -0.493  1.00  0.00    -0.383 N 
HETATM   28  H16 UNL     1      -5.332  -1.205  -1.492  1.00  0.00     0.157 HD
HETATM   29  H17 UNL     1      -5.029  -2.533  -0.437  1.00  0.00     0.157 HD
ENDBRANCH  23  27
ENDBRANCH  17  18
ENDBRANCH  10  17
BRANCH   1  30
HETATM   30  O1  UNL     1       5.781   1.332   1.559  1.00  0.00    -0.386 OA
HETATM   31  C1  UNL     1       7.036   0.996   0.975  1.00  0.00     0.202 C 
ENDBRANCH   1  30
TORSDOF 5
