REMARK  2 active torsions:
REMARK  status: ('A' for Active; 'I' for Inactive)
REMARK    1  A    between atoms: O1_2  and  C2_3 
REMARK    2  A    between atoms: C8_10  and  N2_11 
ROOT
HETATM    1  C2  UNL     1      -1.106   1.209   1.392  1.00  0.00     0.071 C 
HETATM    2  C3  UNL     1       0.175   1.621   1.279  1.00  0.00     0.068 C 
HETATM    3  C4  UNL     1       0.940   1.126   0.105  1.00  0.00     0.090 C 
HETATM    4  C5  UNL     1       0.972   2.047  -0.848  1.00  0.00     0.021 C 
HETATM    5  C6  UNL     1       1.966   2.790  -1.071  1.00  0.00     0.008 C 
HETATM    6  C7  UNL     1       3.129   2.464  -1.501  1.00  0.00     0.149 C 
HETATM    7  N1  UNL     1       4.156   1.478  -1.265  1.00  0.00    -0.075 NA
HETATM    8  C8  UNL     1       4.048   0.306  -0.687  1.00  0.00     0.714 C 
HETATM    9  N3  UNL     1       2.942  -0.418  -0.095  1.00  0.00    -0.109 N 
HETATM   10  N4  UNL     1       1.543  -0.187   0.062  1.00  0.00    -0.182 N 
HETATM   11  N5  UNL     1       1.153  -1.553   0.138  1.00  0.00    -0.290 N 
HETATM   12  C9  UNL     1       0.341  -2.318  -0.739  1.00  0.00     0.110 C 
HETATM   13  C10 UNL     1      -0.847  -2.761  -1.094  1.00  0.00     0.030 C 
HETATM   14  C11 UNL     1      -2.186  -2.571  -0.550  1.00  0.00    -0.026 A 
HETATM   15  C12 UNL     1      -2.969  -3.375   0.196  1.00  0.00     0.012 A 
HETATM   16  C13 UNL     1      -3.991  -2.350   0.199  1.00  0.00     0.011 A 
HETATM   17  C14 UNL     1      -3.227  -1.557  -0.534  1.00  0.00    -0.024 A 
HETATM   18  C15 UNL     1      -3.013  -0.269  -1.236  1.00  0.00     0.207 C 
HETATM   19  O2  UNL     1      -2.778   0.796  -0.317  1.00  0.00    -0.380 OA
HETATM   20  C16 UNL     1      -1.661   0.323   0.376  1.00  0.00     0.232 C 
HETATM   21  H8  UNL     1       3.257  -1.327   0.312  1.00  0.00     0.208 HD
HETATM   22  H9  UNL     1       1.593  -1.930   1.007  1.00  0.00     0.188 HD
ENDROOT
BRANCH   8  23
HETATM   23  N2  UNL     1       5.294  -0.379  -0.643  1.00  0.00    -0.231 N 
HETATM   24  H6  UNL     1       5.825  -0.376   0.262  1.00  0.00     0.174 HD
HETATM   25  H7  UNL     1       5.284  -0.701  -1.629  1.00  0.00     0.174 HD
ENDBRANCH   8  23
BRANCH   1  26
HETATM   26  O1  UNL     1      -1.144   1.955   2.534  1.00  0.00    -0.358 OA
HETATM   27  C1  UNL     1      -1.767   3.241   2.600  1.00  0.00     0.209 C 
ENDBRANCH   1  26
TORSDOF 2
