REMARK  0 active torsions:
REMARK  status: ('A' for Active; 'I' for Inactive)
ROOT
HETATM    1  C1  UNL     1      -3.273  -2.930   1.109  1.00  0.00     0.047 C 
HETATM    2  O1  UNL     1      -2.167  -2.387   0.368  1.00  0.00     0.000 OA
HETATM    3  C2  UNL     1      -1.817  -0.988   0.299  1.00  0.00     0.045 A 
HETATM    4  C3  UNL     1      -1.684   0.182   0.354  1.00  0.00     0.061 A 
HETATM    5  C4  UNL     1      -1.951   1.442   0.248  1.00  0.00     0.062 A 
HETATM    6  C5  UNL     1      -2.612   2.586  -0.025  1.00  0.00     0.035 A 
HETATM    7  N1  UNL     1      -3.814   2.636  -0.522  1.00  0.00    -0.238 NA
HETATM    8  C6  UNL     1      -4.684   1.738  -0.883  1.00  0.00     0.292 A 
HETATM    9  N2  UNL     1      -3.813   0.928  -0.520  1.00  0.00    -0.430 NA
HETATM   10  C7  UNL     1      -2.807   0.276  -0.101  1.00  0.00     0.100 A 
HETATM   11  C8  UNL     1      -3.010  -1.147  -0.182  1.00  0.00     0.077 A 
HETATM   12  C9  UNL     1      -1.979  -2.178   0.232  1.00  0.00     0.077 A 
HETATM   13  O2  UNL     1      -0.992  -3.132   0.628  1.00  0.00    -0.379 OA
HETATM   14  C10 UNL     1       0.188  -3.258  -0.109  1.00  0.00     0.168 C 
HETATM   15  C11 UNL     1       1.114  -2.060  -0.196  1.00  0.00     0.028 C 
HETATM   16  C12 UNL     1       2.335  -2.435  -1.033  1.00  0.00     0.021 C 
HETATM   17  C13 UNL     1       3.242  -1.289  -1.266  1.00  0.00     0.117 C 
HETATM   18  N3  UNL     1       3.831  -0.629  -0.139  1.00  0.00    -0.413 N 
HETATM   19  C14 UNL     1       4.795  -0.768   0.915  1.00  0.00     0.143 C 
HETATM   20  C15 UNL     1       3.019   0.629  -0.121  1.00  0.00     0.086 C 
HETATM   21  C16 UNL     1       2.001   1.357   0.352  1.00  0.00     0.050 C 
HETATM   22  C17 UNL     1       1.219   2.618   0.327  1.00  0.00     0.017 C 
HETATM   23  C18 UNL     1       1.596   3.564  -0.494  1.00  0.00     0.013 C 
HETATM   24 BR1  UNL     1       3.019   3.699  -1.699  1.00  0.00    -0.051 Br
HETATM   25  C19 UNL     1       0.326   4.271  -0.219  1.00  0.00     0.057 C 
HETATM   26  C20 UNL     1      -0.363   3.480   0.668  1.00  0.00     0.100 C 
HETATM   27  F1  UNL     1      -1.101   2.775   1.529  1.00  0.00    -0.210 F 
HETATM   28  C21 UNL     1      -1.778   3.784   0.316  1.00  0.00     0.126 C 
ENDROOT
TORSDOF 0
