REMARK  2 active torsions:
REMARK  status: ('A' for Active; 'I' for Inactive)
REMARK    1  A    between atoms: O1_2  and  C2_3 
REMARK    2  A    between atoms: C6_9  and  N3_10 
ROOT
HETATM    1  C2  UNL     1      -0.079   0.869   0.420  1.00  0.00     0.164 C 
HETATM    2  C3  UNL     1       0.483   1.561  -0.763  1.00  0.00     0.046 A 
HETATM    3  C4  UNL     1       0.057   2.625  -1.501  1.00  0.00     0.072 A 
HETATM    4  N1  UNL     1       0.727   3.070  -2.570  1.00  0.00    -0.241 NA
HETATM    5  C5  UNL     1       1.849   2.549  -3.025  1.00  0.00     0.235 A 
HETATM    6  N2  UNL     1       2.287   1.509  -2.318  1.00  0.00    -0.223 NA
HETATM    7  C6  UNL     1       1.674   1.007  -1.239  1.00  0.00     0.144 A 
HETATM    8  C13 UNL     1      -1.092   3.486  -1.346  1.00  0.00     0.056 C 
HETATM    9  C14 UNL     1      -2.360   3.567  -1.041  1.00  0.00     0.137 C 
HETATM   10  O2  UNL     1      -2.575   2.233  -0.776  1.00  0.00    -0.363 OA
HETATM   11  C15 UNL     1      -3.609   1.922   0.162  1.00  0.00     0.174 C 
HETATM   12  C16 UNL     1      -3.063   1.076   1.289  1.00  0.00     0.033 C 
HETATM   13  C17 UNL     1      -2.389  -0.157   0.864  1.00  0.00     0.022 C 
HETATM   14  C18 UNL     1      -3.430  -0.967   0.104  1.00  0.00     0.274 C 
HETATM   15  N4  UNL     1      -3.557  -2.328   0.648  1.00  0.00     0.083 N 
HETATM   16  C19 UNL     1      -2.467  -3.053   0.023  1.00  0.00     0.269 C 
HETATM   17  C20 UNL     1      -1.206  -2.581   0.664  1.00  0.00     0.030 C 
HETATM   18  C21 UNL     1      -0.509  -1.452  -0.028  1.00  0.00     0.010 C 
HETATM   19  C22 UNL     1      -1.167  -0.097   0.046  1.00  0.00     0.025 C 
HETATM   20  H22 UNL     1      -4.493  -2.669   0.280  1.00  0.00     0.315 HD
ENDROOT
BRANCH   7  21
HETATM   21  N3  UNL     1       2.560  -0.032  -0.830  1.00  0.00    -0.306 N 
HETATM   22  C7  UNL     1       2.416  -1.210  -1.665  1.00  0.00     0.096 A 
HETATM   23  C8  UNL     1       3.024  -2.363  -1.587  1.00  0.00     0.018 A 
HETATM   24  C9  UNL     1       4.002  -2.544  -0.525  1.00  0.00     0.008 A 
HETATM   25  C10 UNL     1       4.169  -1.494   0.252  1.00  0.00    -0.030 A 
HETATM   26  C11 UNL     1       5.163  -1.616   1.370  1.00  0.00     0.048 C 
HETATM   27  C12 UNL     1       3.560  -0.166   0.210  1.00  0.00     0.306 A 
HETATM   28  F1  UNL     1       3.211   0.232   1.451  1.00  0.00    -0.221 F 
ENDBRANCH   7  21
BRANCH   1  29
HETATM   29  O1  UNL     1      -0.454   1.863   1.315  1.00  0.00    -0.385 OA
HETATM   30  C1  UNL     1       0.271   1.811   2.469  1.00  0.00     0.202 C 
ENDBRANCH   1  29
TORSDOF 2
