REMARK  6 active torsions:
REMARK  status: ('A' for Active; 'I' for Inactive)
REMARK    1  A    between atoms: C2_2  and  C3_3 
REMARK    2  A    between atoms: C3_3  and  C4_4 
REMARK    3  A    between atoms: C4_4  and  O1_5 
REMARK    4  A    between atoms: O1_5  and  C5_6 
REMARK    5  A    between atoms: C8_9  and  N1_10 
REMARK    6  A    between atoms: N1_10  and  C9_11 
ROOT
HETATM    1  C5  UNL     1       1.432   0.622   0.924  1.00  0.00     0.159 C 
HETATM    2  C6  UNL     1       0.454   1.423   0.493  1.00  0.00     0.035 C 
HETATM    3  C7  UNL     1      -0.636   2.052   1.282  1.00  0.00     0.107 C 
HETATM    4  C8  UNL     1      -1.956   1.667   0.688  1.00  0.00     0.212 C 
HETATM    5  N2  UNL     1      -1.967   1.991  -0.717  1.00  0.00    -0.259 NA
HETATM    6  C15 UNL     1      -0.905   2.021  -1.405  1.00  0.00     0.203 C 
HETATM    7  N3  UNL     1       0.411   1.749  -0.911  1.00  0.00    -0.353 N 
HETATM    8  H19 UNL     1       1.287   1.777  -1.500  1.00  0.00     0.166 HD
ENDROOT
BRANCH   4   9
HETATM    9  N1  UNL     1      -2.225   0.247   0.798  1.00  0.00    -0.364 N 
HETATM   10  H14 UNL     1      -1.538  -0.407   1.254  1.00  0.00     0.162 HD
BRANCH   9  11
HETATM   11  C9  UNL     1      -3.432  -0.358   0.298  1.00  0.00     0.068 A 
HETATM   12  C10 UNL     1      -4.386   0.426  -0.314  1.00  0.00     0.034 A 
HETATM   13  C11 UNL     1      -5.570  -0.071  -0.821  1.00  0.00     0.021 A 
HETATM   14  C12 UNL     1      -5.827  -1.427  -0.716  1.00  0.00     0.014 A 
HETATM   15 BR1  UNL     1      -7.453  -2.149  -1.405  1.00  0.00    -0.051 Br
HETATM   16  C13 UNL     1      -4.884  -2.221  -0.107  1.00  0.00     0.063 A 
HETATM   17  C14 UNL     1      -3.687  -1.709   0.403  1.00  0.00     0.144 A 
HETATM   18  F1  UNL     1      -2.784  -2.513   0.994  1.00  0.00    -0.204 F 
ENDBRANCH   9  11
ENDBRANCH   4   9
BRANCH   1  19
HETATM   19  O1  UNL     1       2.384   0.112   0.049  1.00  0.00    -0.361 OA
BRANCH  19  20
HETATM   20  C4  UNL     1       2.983  -1.163   0.280  1.00  0.00     0.174 C 
BRANCH  20  21
HETATM   21  C3  UNL     1       3.958  -1.463  -0.800  1.00  0.00     0.026 C 
BRANCH  21  22
HETATM   22  C2  UNL     1       5.085  -0.494  -0.941  1.00  0.00    -0.002 C 
HETATM   23  C1  UNL     1       5.953  -0.345   0.247  1.00  0.00     0.005 C 
ENDBRANCH  21  22
ENDBRANCH  20  21
ENDBRANCH  19  20
ENDBRANCH   1  19
TORSDOF 6
