REMARK  6 active torsions:
REMARK  status: ('A' for Active; 'I' for Inactive)
REMARK    1  A    between atoms: C4_5  and  C5_6 
REMARK    2  A    between atoms: C5_6  and  O1_7 
REMARK    3  A    between atoms: O1_7  and  C6_8 
REMARK    4  A    between atoms: C10_14  and  C11_15 
REMARK    5  A    between atoms: C19_25  and  O2_26 
REMARK    6  A    between atoms: O2_26  and  N4_27 
ROOT
HETATM    1  C6  UNL     1       0.128   0.237  -0.814  1.00  0.00     0.106 A 
HETATM    2  C7  UNL     1       0.558   1.488  -0.481  1.00  0.00     0.072 A 
HETATM    3  C8  UNL     1       1.838   1.799  -0.133  1.00  0.00     0.073 A 
HETATM    4  N2  UNL     1       2.157   3.058   0.172  1.00  0.00    -0.241 NA
HETATM    5  C9  UNL     1       3.411   3.428   0.520  1.00  0.00     0.234 A 
HETATM    6  N3  UNL     1       4.318   2.438   0.540  1.00  0.00    -0.240 NA
HETATM    7  C10 UNL     1       4.050   1.166   0.245  1.00  0.00     0.084 A 
HETATM    8  C17 UNL     1       2.774   0.790  -0.110  1.00  0.00     0.025 A 
HETATM    9  C18 UNL     1       2.444  -0.494  -0.427  1.00  0.00     0.057 A 
HETATM   10  C19 UNL     1       1.113  -0.758  -0.778  1.00  0.00     0.126 A 
ENDROOT
BRANCH   1  11
HETATM   11  O1  UNL     1      -1.060  -0.303  -1.181  1.00  0.00    -0.348 OA
BRANCH  11  12
HETATM   12  C5  UNL     1      -2.315   0.218  -1.346  1.00  0.00     0.180 C 
BRANCH  12  13
HETATM   13  C4  UNL     1      -2.962   0.814  -0.112  1.00  0.00     0.013 C 
HETATM   14  C3  UNL     1      -3.106  -0.233   0.982  1.00  0.00     0.037 C 
HETATM   15  C2  UNL     1      -4.344  -1.041   0.667  1.00  0.00     0.272 C 
HETATM   16  N1  UNL     1      -5.458  -0.109   0.892  1.00  0.00     0.084 N 
HETATM   17  C1  UNL     1      -6.740  -0.790   0.897  1.00  0.00     0.309 C 
HETATM   18  C21 UNL     1      -5.499   0.875  -0.158  1.00  0.00     0.272 C 
HETATM   19  C20 UNL     1      -4.213   1.547  -0.433  1.00  0.00     0.037 C 
ENDBRANCH  12  13
ENDBRANCH  11  12
ENDBRANCH   1  11
BRANCH  10  20
HETATM   20  O2  UNL     1       0.916  -2.121  -1.079  1.00  0.00    -0.264 OA
BRANCH  20  21
HETATM   21  N4  UNL     1      -0.355  -2.491  -1.436  1.00  0.00    -0.209 NA
HETATM   22  H17 UNL     1      -0.771  -3.003  -0.632  1.00  0.00     0.150 HD
HETATM   23  H18 UNL     1      -0.335  -3.134  -2.258  1.00  0.00     0.150 HD
ENDBRANCH  20  21
ENDBRANCH  10  20
BRANCH   7  24
HETATM   24  C11 UNL     1       5.136   0.199   0.312  1.00  0.00     0.032 A 
HETATM   25  C12 UNL     1       5.091  -0.926   1.121  1.00  0.00     0.018 A 
HETATM   26  C13 UNL     1       6.084  -1.870   1.243  1.00  0.00     0.020 A 
HETATM   27  C14 UNL     1       7.232  -1.698   0.501  1.00  0.00     0.013 A 
HETATM   28 BR1  UNL     1       8.627  -2.982   0.641  1.00  0.00    -0.051 Br
HETATM   29  C15 UNL     1       7.306  -0.587  -0.314  1.00  0.00     0.062 A 
HETATM   30  C16 UNL     1       6.305   0.343  -0.422  1.00  0.00     0.130 A 
HETATM   31  F1  UNL     1       6.458   1.416  -1.253  1.00  0.00    -0.205 F 
ENDBRANCH   7  24
TORSDOF 6
