REMARK  8 active torsions:
REMARK  status: ('A' for Active; 'I' for Inactive)
REMARK    1  A    between atoms: C2_2  and  C3_3 
REMARK    2  A    between atoms: C4_4  and  C6_6 
REMARK    3  A    between atoms: C7_7  and  N1_8 
REMARK    4  A    between atoms: C9_11  and  N3_12 
REMARK    5  A    between atoms: N3_12  and  C10_13 
REMARK    6  A    between atoms: C10_13  and  C11_14 
REMARK    7  A    between atoms: C15_18  and  O1_19 
REMARK    8  A    between atoms: O1_19  and  C16_20 
ROOT
HETATM    1  N1  UNL     1      -0.903   0.588   1.321  1.00  0.00    -0.226 N 
HETATM    2  N2  UNL     1       0.274   1.085   0.782  1.00  0.00    -0.178 NA
HETATM    3  C8  UNL     1       1.347   0.475   1.100  1.00  0.00     0.186 C 
HETATM    4  C9  UNL     1       0.869  -0.590   1.873  1.00  0.00     0.348 A 
HETATM    5  N4  UNL     1       1.482  -1.526   2.695  1.00  0.00    -0.229 NA
HETATM    6  C18 UNL     1       0.507  -2.068   3.391  1.00  0.00     0.233 A 
HETATM    7  N5  UNL     1      -0.765  -1.454   3.076  1.00  0.00    -0.222 NA
HETATM    8  C19 UNL     1      -0.542  -0.503   2.200  1.00  0.00     0.195 A 
ENDROOT
BRANCH   4   9
HETATM    9  N3  UNL     1       0.690  -1.701   0.625  1.00  0.00     0.132 N 
HETATM   10  H13 UNL     1       0.316  -1.039  -0.057  1.00  0.00     0.320 HD
BRANCH   9  11
HETATM   11  C10 UNL     1       2.008  -2.154   0.373  1.00  0.00     0.312 C 
BRANCH  11  12
HETATM   12  C11 UNL     1       3.050  -1.183   0.031  1.00  0.00    -0.028 A 
HETATM   13  C12 UNL     1       3.062  -0.773  -1.302  1.00  0.00     0.009 A 
HETATM   14  C13 UNL     1       3.978   0.099  -1.845  1.00  0.00     0.003 A 
HETATM   15  C14 UNL     1       4.962   0.614  -1.028  1.00  0.00     0.037 A 
HETATM   16  C15 UNL     1       4.980   0.234   0.284  1.00  0.00     0.079 A 
HETATM   17  C17 UNL     1       4.065  -0.639   0.833  1.00  0.00     0.046 A 
BRANCH  16  18
HETATM   18  O1  UNL     1       5.953   0.729   1.140  1.00  0.00    -0.286 OA
BRANCH  18  19
HETATM   19  C16 UNL     1       5.680   1.919   1.837  1.00  0.00     0.403 C 
HETATM   20  O2  UNL     1       4.977   2.905   2.165  1.00  0.00    -0.276 OA
ENDBRANCH  18  19
ENDBRANCH  16  18
ENDBRANCH  11  12
ENDBRANCH   9  11
ENDBRANCH   4   9
BRANCH   1  21
HETATM   21  C7  UNL     1      -2.302   0.942   1.178  1.00  0.00     0.121 C 
HETATM   22  C6  UNL     1      -3.230   0.764   0.262  1.00  0.00     0.025 C 
BRANCH  22  23
HETATM   23  C4  UNL     1      -3.389   0.156  -1.045  1.00  0.00    -0.064 C 
HETATM   24  C3  UNL     1      -4.457   0.088  -1.826  1.00  0.00    -0.020 C 
HETATM   25  C5  UNL     1      -2.093  -0.462  -1.491  1.00  0.00     0.048 C 
BRANCH  24  26
HETATM   26  C2  UNL     1      -5.819   0.622  -1.588  1.00  0.00     0.023 C 
HETATM   27  C1  UNL     1      -6.225   1.614  -2.634  1.00  0.00     0.009 C 
ENDBRANCH  24  26
ENDBRANCH  22  23
ENDBRANCH   1  21
TORSDOF 8
