REMARK  5 active torsions:
REMARK  status: ('A' for Active; 'I' for Inactive)
REMARK    1  A    between atoms: C2_2  and  O1_3 
REMARK    2  A    between atoms: O1_3  and  C3_4 
REMARK    3  A    between atoms: C4_5  and  C5_6 
REMARK    4  A    between atoms: C13_16  and  N2_17 
REMARK    5  A    between atoms: N2_17  and  C14_18 
ROOT
HETATM    1  C3  UNL     1      -0.219  -0.190  -0.846  1.00  0.00     0.202 C 
HETATM    2  C4  UNL     1      -1.268   0.784  -0.558  1.00  0.00     0.167 C 
HETATM    3  O2  UNL     1      -1.632   1.632  -1.705  1.00  0.00    -0.353 OA
HETATM    4  C10 UNL     1      -0.792   1.638  -2.871  1.00  0.00     0.160 C 
HETATM    5  C11 UNL     1       0.534   1.371  -2.747  1.00  0.00     0.036 C 
HETATM    6  C12 UNL     1       1.290   1.702  -1.441  1.00  0.00     0.117 C 
HETATM    7  C13 UNL     1       1.228   0.257  -0.883  1.00  0.00     0.160 C 
HETATM    8  N3  UNL     1       2.061  -0.481  -1.799  1.00  0.00    -0.249 NA
HETATM    9  C20 UNL     1       2.121  -0.326  -3.111  1.00  0.00     0.204 C 
HETATM   10  N4  UNL     1       1.301   0.693  -3.796  1.00  0.00    -0.353 N 
HETATM   11  H26 UNL     1       1.008   1.130  -4.675  1.00  0.00     0.166 HD
ENDROOT
BRANCH   7  12
HETATM   12  N2  UNL     1       1.869   0.319   0.378  1.00  0.00    -0.357 N 
HETATM   13  H21 UNL     1       1.082   0.218   1.091  1.00  0.00     0.162 HD
BRANCH  12  14
HETATM   14  C14 UNL     1       3.097   0.461   1.103  1.00  0.00     0.069 A 
HETATM   15  C15 UNL     1       3.195   0.511   2.492  1.00  0.00     0.034 A 
HETATM   16  C16 UNL     1       4.433   0.625   3.028  1.00  0.00     0.021 A 
HETATM   17  C17 UNL     1       5.560   0.691   2.269  1.00  0.00     0.014 A 
HETATM   18 BR1  UNL     1       7.184   0.849   3.252  1.00  0.00    -0.051 Br
HETATM   19  C18 UNL     1       5.493   0.643   0.891  1.00  0.00     0.063 A 
HETATM   20  C19 UNL     1       4.233   0.527   0.344  1.00  0.00     0.144 A 
HETATM   21  F1  UNL     1       4.369   0.479  -1.012  1.00  0.00    -0.204 F 
ENDBRANCH  12  14
ENDBRANCH   7  12
BRANCH   1  22
HETATM   22  O1  UNL     1      -0.217  -1.219   0.082  1.00  0.00    -0.379 OA
BRANCH  22  23
HETATM   23  C2  UNL     1      -0.309  -2.489  -0.482  1.00  0.00     0.164 C 
HETATM   24  C1  UNL     1      -0.317  -3.493   0.639  1.00  0.00     0.033 C 
ENDBRANCH  22  23
ENDBRANCH   1  22
BRANCH   2  25
HETATM   25  C5  UNL     1      -2.543   0.405   0.008  1.00  0.00     0.048 C 
HETATM   26  C6  UNL     1      -3.481  -0.519  -0.663  1.00  0.00     0.039 C 
HETATM   27  C7  UNL     1      -4.648  -0.371   0.346  1.00  0.00     0.272 C 
HETATM   28  N1  UNL     1      -3.994  -0.246   1.638  1.00  0.00     0.084 N 
HETATM   29  C8  UNL     1      -4.437   0.995   2.232  1.00  0.00     0.309 C 
HETATM   30  C9  UNL     1      -2.540  -0.235   1.382  1.00  0.00     0.279 C 
ENDBRANCH   2  25
TORSDOF 5
