REMARK  7 active torsions:
REMARK  status: ('A' for Active; 'I' for Inactive)
REMARK    1  A    between atoms: O1_2  and  C2_3 
REMARK    2  A    between atoms: C3_4  and  C4_5 
REMARK    3  A    between atoms: C5_6  and  N1_7 
REMARK    4  A    between atoms: N1_7  and  C6_8 
REMARK    5  A    between atoms: C14_20  and  O2_21 
REMARK    6  A    between atoms: O2_21  and  C15_22 
REMARK    7  A    between atoms: C15_22  and  C16_23 
ROOT
HETATM    1  C4  UNL     1      -2.068   0.372   0.845  1.00  0.00     0.040 A 
HETATM    2  C5  UNL     1      -2.886   1.348   1.193  1.00  0.00     0.142 A 
HETATM    3  N2  UNL     1      -2.290   2.618   1.398  1.00  0.00    -0.225 NA
HETATM    4  C12 UNL     1      -1.033   2.856   1.266  1.00  0.00     0.209 A 
HETATM    5  N3  UNL     1      -0.058   1.860   0.890  1.00  0.00    -0.348 N 
HETATM    6  C13 UNL     1      -0.642   0.582   0.681  1.00  0.00     0.069 A 
HETATM    7  C14 UNL     1       0.187  -0.374   0.333  1.00  0.00     0.165 C 
HETATM    8  H11 UNL     1       0.933   2.144   0.809  1.00  0.00     0.167 HD
ENDROOT
BRANCH   2   9
HETATM    9  N1  UNL     1      -4.253   1.057   1.331  1.00  0.00    -0.338 N 
HETATM   10  H6  UNL     1      -4.720   0.952   2.258  1.00  0.00     0.167 HD
BRANCH   9  11
HETATM   11  C6  UNL     1      -5.023   0.901   0.154  1.00  0.00     0.072 A 
HETATM   12  C7  UNL     1      -4.400   1.039  -1.082  1.00  0.00     0.034 A 
HETATM   13  C8  UNL     1      -5.068   0.905  -2.304  1.00  0.00     0.021 A 
HETATM   14  C9  UNL     1      -6.418   0.620  -2.256  1.00  0.00     0.014 A 
HETATM   15 BR1  UNL     1      -7.366   0.429  -3.898  1.00  0.00    -0.051 Br
HETATM   16  C10 UNL     1      -7.033   0.483  -1.029  1.00  0.00     0.063 A 
HETATM   17  C11 UNL     1      -6.377   0.615   0.177  1.00  0.00     0.144 A 
HETATM   18  F1  UNL     1      -7.000   0.477   1.370  1.00  0.00    -0.204 F 
ENDBRANCH   9  11
ENDBRANCH   2   9
BRANCH   1  19
HETATM   19  C3  UNL     1      -2.669  -0.935   0.634  1.00  0.00     0.041 C 
HETATM   20  C2  UNL     1      -2.198  -2.103   0.293  1.00  0.00     0.135 C 
BRANCH  20  21
HETATM   21  O1  UNL     1      -2.680  -3.362   0.076  1.00  0.00    -0.368 OA
HETATM   22  C1  UNL     1      -3.965  -3.775   0.510  1.00  0.00     0.208 C 
ENDBRANCH  20  21
ENDBRANCH   1  19
BRANCH   7  23
HETATM   23  O2  UNL     1       1.558  -0.242   0.160  1.00  0.00    -0.360 OA
BRANCH  23  24
HETATM   24  C15 UNL     1       2.488  -0.331   1.201  1.00  0.00     0.179 C 
BRANCH  24  25
HETATM   25  C16 UNL     1       3.911  -0.154   0.728  1.00  0.00     0.013 C 
HETATM   26  C17 UNL     1       4.342  -1.174  -0.282  1.00  0.00     0.026 C 
HETATM   27  C18 UNL     1       5.398  -0.705  -1.222  1.00  0.00     0.117 C 
HETATM   28  N4  UNL     1       6.095   0.467  -0.896  1.00  0.00    -0.417 N 
HETATM   29  C19 UNL     1       7.506   0.293  -0.645  1.00  0.00     0.143 C 
HETATM   30  C20 UNL     1       5.478   1.461  -0.109  1.00  0.00     0.117 C 
HETATM   31  C21 UNL     1       4.024   1.222   0.110  1.00  0.00     0.026 C 
ENDBRANCH  24  25
ENDBRANCH  23  24
ENDBRANCH   7  23
TORSDOF 7
