REMARK  2 active torsions:
REMARK  status: ('A' for Active; 'I' for Inactive)
REMARK    1  A    between atoms: N1_2  and  C2_3 
REMARK    2  A    between atoms: C12_15  and  C13_16 
ROOT
HETATM    1  C2  UNL     1      -0.771   0.349   0.127  1.00  0.00     0.062 C 
HETATM    2  C3  UNL     1      -1.661   0.917   1.246  1.00  0.00     0.053 C 
HETATM    3  C4  UNL     1      -3.100   0.634   1.015  1.00  0.00     0.119 C 
HETATM    4  N2  UNL     1      -3.312  -0.707   0.659  1.00  0.00    -0.414 N 
HETATM    5  C5  UNL     1      -4.249  -1.016  -0.342  1.00  0.00     0.143 C 
HETATM    6  C6  UNL     1      -2.228  -1.607   0.852  1.00  0.00     0.151 C 
HETATM    7  C7  UNL     1      -0.916  -1.157   0.314  1.00  0.00     0.173 C 
HETATM    8  O1  UNL     1      -0.703  -1.903  -0.908  1.00  0.00    -0.352 OA
HETATM    9  C8  UNL     1       0.532  -2.362  -1.476  1.00  0.00     0.160 C 
HETATM   10  C9  UNL     1       1.564  -1.501  -1.633  1.00  0.00     0.031 C 
HETATM   11  C10 UNL     1       1.543   0.035  -1.883  1.00  0.00     0.094 C 
HETATM   12  C11 UNL     1       1.666   0.303  -0.372  1.00  0.00    -0.060 C 
HETATM   13  C12 UNL     1       2.868  -0.098   0.005  1.00  0.00    -0.037 C 
HETATM   14  C15 UNL     1       3.794  -0.909  -0.840  1.00  0.00     0.158 C 
HETATM   15  N3  UNL     1       2.930  -1.987  -1.435  1.00  0.00    -0.387 N 
HETATM   16  C16 UNL     1       0.627   0.789   0.503  1.00  0.00     0.042 C 
HETATM   17  C17 UNL     1       0.800   2.231   0.803  1.00  0.00     0.017 C 
HETATM   18  H22 UNL     1       2.832  -3.001  -1.788  1.00  0.00     0.159 HD
ENDROOT
BRANCH   1  19
HETATM   19  N1  UNL     1      -1.293   0.710  -1.093  1.00  0.00    -0.414 N 
HETATM   20  C1  UNL     1      -1.547   2.020  -1.498  1.00  0.00     0.141 C 
HETATM   21  H4  UNL     1      -1.679  -0.033  -1.718  1.00  0.00     0.153 HD
ENDBRANCH   1  19
BRANCH  13  22
HETATM   22  C13 UNL     1       3.056   0.385   1.366  1.00  0.00     0.016 C 
HETATM   23  C14 UNL     1       4.071   0.261   2.199  1.00  0.00     0.056 C 
HETATM   24 BR1  UNL     1       4.751   0.667   3.926  1.00  0.00    -0.064 Br
ENDBRANCH  13  22
TORSDOF 2
