REMARK  5 active torsions:
REMARK  status: ('A' for Active; 'I' for Inactive)
REMARK    1  A    between atoms: C2_2  and  O1_3 
REMARK    2  A    between atoms: O1_3  and  C3_4 
REMARK    3  A    between atoms: C5_6  and  N1_7 
REMARK    4  A    between atoms: N1_7  and  C6_8 
REMARK    5  A    between atoms: C15_21  and  C16_22 
ROOT
HETATM    1  C3  UNL     1      -0.097  -0.080  -0.051  1.00  0.00     0.184 C 
HETATM    2  C4  UNL     1       0.783  -0.691  -1.089  1.00  0.00     0.002 C 
HETATM    3  C5  UNL     1       2.083  -0.898  -1.187  1.00  0.00     0.133 C 
HETATM    4  N2  UNL     1       2.675  -2.207  -1.470  1.00  0.00    -0.242 NA
HETATM    5  C12 UNL     1       1.724  -3.162  -1.600  1.00  0.00     0.128 C 
HETATM    6  C13 UNL     1       0.292  -2.710  -1.473  1.00  0.00    -0.015 C 
HETATM    7  C14 UNL     1      -0.640  -3.205  -0.673  1.00  0.00     0.144 C 
HETATM    8  O2  UNL     1      -1.430  -2.249   0.017  1.00  0.00    -0.354 OA
HETATM    9  C15 UNL     1      -1.321  -0.869   0.217  1.00  0.00     0.165 C 
HETATM   10  C21 UNL     1       0.039  -1.394  -2.277  1.00  0.00     0.082 C 
ENDROOT
BRANCH   3  11
HETATM   11  N1  UNL     1       2.654   0.344  -0.862  1.00  0.00    -0.338 N 
HETATM   12  H7  UNL     1       2.542   1.326  -1.114  1.00  0.00     0.167 HD
BRANCH  11  13
HETATM   13  C6  UNL     1       3.749   0.402   0.066  1.00  0.00     0.072 A 
HETATM   14  C7  UNL     1       4.892   0.119  -0.700  1.00  0.00     0.034 A 
HETATM   15  C8  UNL     1       6.168   0.092  -0.121  1.00  0.00     0.021 A 
HETATM   16  C9  UNL     1       6.305   0.347   1.225  1.00  0.00     0.014 A 
HETATM   17 BR1  UNL     1       7.925   0.365   2.221  1.00  0.00    -0.051 Br
HETATM   18  C10 UNL     1       5.174   0.621   1.955  1.00  0.00     0.063 A 
HETATM   19  C11 UNL     1       3.915   0.651   1.398  1.00  0.00     0.144 A 
HETATM   20  F1  UNL     1       2.741   0.905   1.986  1.00  0.00    -0.204 F 
ENDBRANCH  11  13
ENDBRANCH   3  11
BRANCH   1  21
HETATM   21  O1  UNL     1      -0.462   1.153  -0.576  1.00  0.00    -0.379 OA
BRANCH  21  22
HETATM   22  C2  UNL     1      -0.049   2.244   0.145  1.00  0.00     0.164 C 
HETATM   23  C1  UNL     1      -0.427   3.563  -0.519  1.00  0.00     0.033 C 
ENDBRANCH  21  22
ENDBRANCH   1  21
BRANCH   9  24
HETATM   24  C16 UNL     1      -2.613  -0.203  -0.225  1.00  0.00     0.021 C 
HETATM   25  C17 UNL     1      -3.019   0.953   0.643  1.00  0.00     0.037 C 
HETATM   26  C18 UNL     1      -4.457   0.732   1.137  1.00  0.00     0.270 C 
HETATM   27  N3  UNL     1      -5.372   0.543   0.062  1.00  0.00     0.083 N 
HETATM   28  C19 UNL     1      -4.983  -0.537  -0.796  1.00  0.00     0.270 C 
HETATM   29  H19 UNL     1      -6.310   0.301   0.502  1.00  0.00     0.315 HD
HETATM   30  C20 UNL     1      -3.745  -1.196  -0.250  1.00  0.00     0.037 C 
ENDBRANCH   9  24
TORSDOF 5
