REMARK  2 active torsions:
REMARK  status: ('A' for Active; 'I' for Inactive)
REMARK    1  A    between atoms: C7_7  and  N1_8 
REMARK    2  A    between atoms: N4_16  and  C13_17 
ROOT
HETATM    1  N1  UNL     1      -1.681   0.886  -0.225  1.00  0.00    -0.217 N 
HETATM    2  N2  UNL     1      -1.117   1.485  -1.354  1.00  0.00    -0.180 NA
HETATM    3  C8  UNL     1       0.130   1.669  -1.204  1.00  0.00     0.145 A 
HETATM    4  C9  UNL     1       0.578   1.212   0.110  1.00  0.00     0.203 A 
HETATM    5  C10 UNL     1      -0.642   0.653   0.753  1.00  0.00     0.156 A 
HETATM    6  N3  UNL     1      -0.357   0.377   1.974  1.00  0.00    -0.242 NA
HETATM    7  C11 UNL     1       0.924   0.198   2.537  1.00  0.00     0.136 C 
HETATM    8  C12 UNL     1       1.974   0.298   1.704  1.00  0.00     0.112 C 
HETATM    9  N4  UNL     1       1.777   0.559   0.293  1.00  0.00    -0.338 N 
ENDROOT
BRANCH   9  10
HETATM   10  C13 UNL     1       2.848   0.071  -0.502  1.00  0.00     0.038 A 
HETATM   11  C14 UNL     1       3.016   0.392  -1.833  1.00  0.00     0.032 A 
HETATM   12  C15 UNL     1       4.011  -0.050  -2.649  1.00  0.00     0.042 A 
HETATM   13  C16 UNL     1       4.957  -0.890  -2.155  1.00  0.00     0.105 A 
HETATM   14  C17 UNL     1       4.857  -1.259  -0.826  1.00  0.00     0.107 A 
HETATM   15  O2  UNL     1       6.080  -1.533  -2.637  1.00  0.00    -0.323 OA
HETATM   16  C18 UNL     1       3.825  -0.775  -0.059  1.00  0.00     0.069 A 
HETATM   17  O1  UNL     1       5.919  -2.124  -0.507  1.00  0.00    -0.323 OA
HETATM   18  C19 UNL     1       6.862  -1.970  -1.551  1.00  0.00     0.352 C 
ENDBRANCH   9  10
BRANCH   1  19
HETATM   19  C7  UNL     1      -2.979   0.439   0.243  1.00  0.00     0.066 A 
HETATM   20  C5  UNL     1      -3.802   1.336   0.927  1.00  0.00    -0.033 A 
HETATM   21  C4  UNL     1      -5.055   0.987   1.407  1.00  0.00     0.009 A 
HETATM   22  C6  UNL     1      -3.273   2.710   1.126  1.00  0.00     0.050 C 
HETATM   23  C3  UNL     1      -5.440  -0.311   1.164  1.00  0.00     0.007 A 
HETATM   24  C2  UNL     1      -4.663  -1.237   0.492  1.00  0.00    -0.060 A 
HETATM   25  C1  UNL     1      -5.193  -2.620   0.290  1.00  0.00     0.048 C 
HETATM   26  C20 UNL     1      -3.434  -0.850   0.036  1.00  0.00     0.039 A 
ENDBRANCH   1  19
TORSDOF 2
