REMARK  4 active torsions:
REMARK  status: ('A' for Active; 'I' for Inactive)
REMARK    1  A    between atoms: C2_2  and  N1_3 
REMARK    2  A    between atoms: N1_3  and  C4_5 
REMARK    3  A    between atoms: C4_5  and  C5_6 
REMARK    4  A    between atoms: C15_19  and  O1_20 
ROOT
HETATM    1  C5  UNL     1       0.932   0.071  -0.127  1.00  0.00     0.065 C 
HETATM    2  N2  UNL     1       0.370  -1.150   0.004  1.00  0.00    -0.252 NA
HETATM    3  C6  UNL     1      -0.958  -1.362  -0.464  1.00  0.00     0.076 C 
HETATM    4  C7  UNL     1      -1.432  -1.995  -1.662  1.00  0.00     0.032 A 
HETATM    5  C8  UNL     1      -0.883  -1.639  -2.865  1.00  0.00     0.018 A 
HETATM    6  C9  UNL     1      -1.307  -2.245  -4.025  1.00  0.00     0.020 A 
HETATM    7  C10 UNL     1      -2.285  -3.228  -4.073  1.00  0.00     0.013 A 
HETATM    8 BR1  UNL     1      -2.867  -4.059  -5.673  1.00  0.00    -0.051 Br
HETATM    9  C11 UNL     1      -2.845  -3.597  -2.874  1.00  0.00     0.062 A 
HETATM   10  C12 UNL     1      -2.418  -2.988  -1.716  1.00  0.00     0.130 A 
HETATM   11  F1  UNL     1      -2.982  -3.393  -0.547  1.00  0.00    -0.205 F 
HETATM   12  C13 UNL     1      -1.797  -0.916   0.456  1.00  0.00    -0.022 C 
HETATM   13  C14 UNL     1      -2.072  -0.285   1.810  1.00  0.00     0.049 C 
HETATM   14  C15 UNL     1      -1.278   0.608   1.261  1.00  0.00     0.101 C 
HETATM   15  C17 UNL     1      -2.045   1.315   0.188  1.00  0.00     0.099 C 
HETATM   16  C18 UNL     1      -3.342   0.894   0.061  1.00  0.00     0.017 C 
HETATM   17  C19 UNL     1      -3.204  -0.645  -0.059  1.00  0.00     0.071 C 
HETATM   18  O2  UNL     1      -0.701   1.849   0.217  1.00  0.00    -0.343 OA
HETATM   19  C20 UNL     1       0.192   1.218  -0.748  1.00  0.00     0.232 C 
ENDROOT
BRANCH   1  20
HETATM   20  C4  UNL     1       2.310   0.102   0.414  1.00  0.00     0.328 C 
BRANCH  20  21
HETATM   21  N1  UNL     1       2.584   1.029   1.441  1.00  0.00     0.089 N 
HETATM   22  C3  UNL     1       3.754   0.686   2.230  1.00  0.00     0.310 C 
BRANCH  21  23
HETATM   23  C2  UNL     1       2.616   2.411   1.143  1.00  0.00     0.268 C 
HETATM   24  C1  UNL     1       3.729   2.797   0.180  1.00  0.00     0.037 C 
ENDBRANCH  21  23
ENDBRANCH  20  21
ENDBRANCH   1  20
BRANCH  14  25
HETATM   25  O1  UNL     1      -0.373   0.070   2.223  1.00  0.00    -0.353 OA
HETATM   26  C16 UNL     1      -0.073   0.850   3.373  1.00  0.00     0.210 C 
ENDBRANCH  14  25
TORSDOF 4
