REMARK  2 active torsions:
REMARK  status: ('A' for Active; 'I' for Inactive)
REMARK    1  A    between atoms: C3_4  and  N1_8 
REMARK    2  A    between atoms: C4_5  and  C5_6 
ROOT
HETATM    1  N1  UNL     1       1.084   0.159   0.103  1.00  0.00    -0.366 N 
HETATM    2  C6  UNL     1       0.166  -0.910   0.483  1.00  0.00     0.128 C 
HETATM    3  C7  UNL     1      -0.996  -0.429   1.319  1.00  0.00     0.054 C 
HETATM    4  C8  UNL     1      -2.185  -0.082   0.468  1.00  0.00    -0.070 C 
HETATM    5  C9  UNL     1      -2.826  -0.082  -0.791  1.00  0.00    -0.034 C 
HETATM    6  C10 UNL     1      -1.699  -0.688  -1.463  1.00  0.00     0.125 C 
HETATM    7  N2  UNL     1      -0.738  -0.312  -2.115  1.00  0.00    -0.254 NA
HETATM    8  C11 UNL     1      -0.170   0.840  -2.582  1.00  0.00     0.228 C 
HETATM    9  N3  UNL     1       0.488   1.623  -1.825  1.00  0.00    -0.263 NA
HETATM   10  C12 UNL     1       0.677   1.385  -0.465  1.00  0.00     0.274 C 
HETATM   11  C13 UNL     1      -4.061   0.540  -0.219  1.00  0.00     0.020 C 
HETATM   12  C14 UNL     1      -5.035  -0.537   0.261  1.00  0.00     0.015 C 
HETATM   13  C15 UNL     1      -3.149   1.037   0.775  1.00  0.00     0.043 C 
ENDROOT
BRANCH   1  14
HETATM   14  C3  UNL     1       2.299  -0.455   0.369  1.00  0.00     0.034 A 
HETATM   15  C2  UNL     1       3.559  -1.003   0.654  1.00  0.00     0.135 A 
HETATM   16  C1  UNL     1       3.550  -2.371   0.702  1.00  0.00     0.224 A 
HETATM   17  F1  UNL     1       4.748  -1.512   0.923  1.00  0.00    -0.388 F 
HETATM   18  C4  UNL     1       3.300   0.454   0.629  1.00  0.00     0.089 A 
BRANCH  18  19
HETATM   19  C5  UNL     1       4.611   1.145   0.962  1.00  0.00     0.099 C 
HETATM   20 BR1  UNL     1       5.104   2.345  -0.452  1.00  0.00    -0.096 Br
ENDBRANCH  18  19
ENDBRANCH   1  14
TORSDOF 2
