REMARK  4 active torsions:
REMARK  status: ('A' for Active; 'I' for Inactive)
REMARK    1  A    between atoms: C15_21  and  C16_22 
REMARK    2  A    between atoms: C16_22  and  C17_23 
REMARK    3  A    between atoms: C17_23  and  C18_24 
REMARK    4  A    between atoms: C18_24  and  N4_25 
ROOT
HETATM    1  C1  UNL     1      -0.544  -3.387   0.220  1.00  0.00     0.000 C 
HETATM    2  O1  UNL     1      -0.114  -2.421  -0.679  1.00  0.00     0.000 OA
HETATM    3  C2  UNL     1       0.288  -1.146  -0.488  1.00  0.00    -0.038 A 
HETATM    4  C3  UNL     1       1.375  -1.795  -0.803  1.00  0.00     0.051 A 
HETATM    5  C4  UNL     1       2.520  -2.582  -1.157  1.00  0.00     0.111 C 
HETATM    6  N1  UNL     1       3.698  -2.126  -1.240  1.00  0.00    -0.196 NA
HETATM    7  C5  UNL     1       4.847  -2.797  -1.564  1.00  0.00     0.232 A 
HETATM    8  N2  UNL     1       4.912  -1.910  -0.651  1.00  0.00    -0.302 N 
HETATM    9  C6  UNL     1       6.110  -1.596   0.034  1.00  0.00     0.261 C 
HETATM   10  N3  UNL     1       6.265  -0.145   0.256  1.00  0.00    -0.373 N 
HETATM   11  C7  UNL     1       5.207   0.578   0.922  1.00  0.00     0.031 A 
HETATM   12  C8  UNL     1       5.197   1.032   2.224  1.00  0.00     0.056 A 
HETATM   13  C9  UNL     1       4.100   1.692   2.738  1.00  0.00     0.075 A 
HETATM   14 CL1  UNL     1       4.226   2.208   4.402  1.00  0.00    -0.081 Cl
HETATM   15  C10 UNL     1       2.980   1.923   1.974  1.00  0.00     0.144 A 
HETATM   16  F1  UNL     1       1.917   2.557   2.458  1.00  0.00    -0.204 F 
HETATM   17  C11 UNL     1       2.887   1.514   0.667  1.00  0.00    -0.012 A 
HETATM   18  C12 UNL     1       4.049   0.846   0.211  1.00  0.00     0.039 A 
HETATM   19  C13 UNL     1       1.835   1.619  -0.292  1.00  0.00     0.069 C 
HETATM   20  C14 UNL     1       0.465   1.303  -0.064  1.00  0.00    -0.014 C 
HETATM   21  C15 UNL     1      -0.233   0.152  -0.142  1.00  0.00    -0.054 C 
HETATM   22  H9  UNL     1       6.833   0.724   0.163  1.00  0.00     0.161 HD
ENDROOT
BRANCH  21  23
HETATM   23  C16 UNL     1      -1.656  -0.006   0.131  1.00  0.00     0.040 C 
BRANCH  23  24
HETATM   24  C17 UNL     1      -2.468  -0.498  -1.041  1.00  0.00     0.035 C 
BRANCH  24  25
HETATM   25  C18 UNL     1      -3.906  -0.601  -0.573  1.00  0.00     0.273 C 
BRANCH  25  26
HETATM   26  N4  UNL     1      -4.447   0.633  -0.126  1.00  0.00     0.092 N 
HETATM   27  C19 UNL     1      -5.814   0.426   0.308  1.00  0.00     0.298 C 
HETATM   28  C20 UNL     1      -6.519   1.707   0.688  1.00  0.00     0.198 C 
HETATM   29  O2  UNL     1      -6.543   2.631  -0.358  1.00  0.00    -0.388 OA
HETATM   30  C21 UNL     1      -5.195   2.913  -0.635  1.00  0.00     0.198 C 
HETATM   31  C22 UNL     1      -4.471   1.674  -1.114  1.00  0.00     0.298 C 
ENDBRANCH  25  26
ENDBRANCH  24  25
ENDBRANCH  23  24
ENDBRANCH  21  23
TORSDOF 4
