REMARK  5 active torsions:
REMARK  status: ('A' for Active; 'I' for Inactive)
REMARK    1  A    between atoms: C6_8  and  C7_9 
REMARK    2  A    between atoms: C7_9  and  C8_10 
REMARK    3  A    between atoms: C8_10  and  N1_11 
REMARK    4  A    between atoms: N1_11  and  C9_12 
REMARK    5  A    between atoms: N5_20  and  C14_21 
ROOT
HETATM    1  C9  UNL     1      -0.226   0.754   0.458  1.00  0.00     0.140 A 
HETATM    2  N2  UNL     1      -0.112   2.099   0.280  1.00  0.00    -0.224 NA
HETATM    3  C10 UNL     1      -1.217   2.833  -0.044  1.00  0.00     0.237 A 
HETATM    4  N3  UNL     1      -2.418   2.227  -0.186  1.00  0.00    -0.221 NA
HETATM    5  C11 UNL     1      -2.560   0.899  -0.016  1.00  0.00     0.168 A 
HETATM    6  C12 UNL     1      -1.456   0.147   0.310  1.00  0.00     0.077 A 
HETATM    7  C13 UNL     1      -1.807  -1.186   0.441  1.00  0.00     0.158 A 
HETATM    8  N4  UNL     1      -3.142  -1.215   0.186  1.00  0.00    -0.177 NA
HETATM    9  N5  UNL     1      -3.573   0.016  -0.081  1.00  0.00    -0.215 N 
ENDROOT
BRANCH   1  10
HETATM   10  N1  UNL     1       0.956   0.005   0.799  1.00  0.00    -0.374 N 
HETATM   11  H12 UNL     1       0.833  -1.033   0.930  1.00  0.00     0.161 HD
BRANCH  10  12
HETATM   12  C8  UNL     1       2.283   0.535   0.977  1.00  0.00     0.125 C 
BRANCH  12  13
HETATM   13  C7  UNL     1       3.285  -0.548   1.333  1.00  0.00     0.049 C 
BRANCH  13  14
HETATM   14  C6  UNL     1       4.598   0.083   1.493  1.00  0.00     0.014 C 
HETATM   15  C5  UNL     1       5.817   0.052   1.007  1.00  0.00     0.101 C 
HETATM   16  C3  UNL     1       6.364  -0.778  -0.054  1.00  0.00     0.100 C 
HETATM   17  O2  UNL     1       6.864   0.854   1.443  1.00  0.00    -0.323 OA
HETATM   18  C2  UNL     1       5.802  -1.702  -0.796  1.00  0.00     0.009 C 
HETATM   19  O1  UNL     1       7.708  -0.429  -0.197  1.00  0.00    -0.323 OA
HETATM   20  C1  UNL     1       6.638  -2.392  -1.819  1.00  0.00     0.039 C 
HETATM   21  C4  UNL     1       7.884   0.836   0.433  1.00  0.00     0.352 C 
ENDBRANCH  13  14
ENDBRANCH  12  13
ENDBRANCH  10  12
ENDBRANCH   1  10
BRANCH   9  22
HETATM   22  C14 UNL     1      -4.930   0.346  -0.393  1.00  0.00     0.061 A 
HETATM   23  C15 UNL     1      -5.265   1.491  -1.086  1.00  0.00     0.032 A 
HETATM   24  C16 UNL     1      -6.606   1.707  -1.331  1.00  0.00     0.003 A 
HETATM   25  C17 UNL     1      -7.642   0.886  -0.948  1.00  0.00     0.007 A 
HETATM   26  C18 UNL     1      -7.273  -0.266  -0.247  1.00  0.00    -0.060 A 
HETATM   27  C19 UNL     1      -8.340  -1.221   0.211  1.00  0.00     0.048 C 
HETATM   28  C20 UNL     1      -5.943  -0.516   0.016  1.00  0.00     0.038 A 
ENDBRANCH   9  22
TORSDOF 5
