REMARK  7 active torsions:
REMARK  status: ('A' for Active; 'I' for Inactive)
REMARK    1  A    between atoms: C1_2  and  C2_3 
REMARK    2  A    between atoms: C2_3  and  C3_4 
REMARK    3  A    between atoms: C4_5  and  N1_6 
REMARK    4  A    between atoms: N1_6  and  C5_7 
REMARK    5  A    between atoms: C12_16  and  C13_17 
REMARK    6  A    between atoms: C13_17  and  C14_18 
REMARK    7  A    between atoms: C14_18  and  C15_19 
ROOT
HETATM    1  C5  UNL     1       1.335   0.308  -0.317  1.00  0.00     0.032 C 
HETATM    2  C6  UNL     1       0.451  -0.646   0.075  1.00  0.00    -0.040 C 
HETATM    3  C7  UNL     1       0.539  -1.512   1.265  1.00  0.00     0.066 C 
HETATM    4  C8  UNL     1       0.379  -2.978   0.852  1.00  0.00     0.002 C 
HETATM    5  C9  UNL     1       0.552  -3.564  -0.373  1.00  0.00     0.140 C 
HETATM    6  O1  UNL     1       0.268  -2.936  -1.650  1.00  0.00    -0.308 OA
HETATM    7  C10 UNL     1       0.424  -1.549  -1.894  1.00  0.00     0.148 C 
HETATM    8  N2  UNL     1       1.025  -0.575  -2.502  1.00  0.00    -0.264 NA
HETATM    9  C11 UNL     1       1.370   0.690  -1.790  1.00  0.00     0.208 C 
HETATM   10  C12 UNL     1      -0.594  -0.784  -1.027  1.00  0.00     0.093 C 
ENDROOT
BRANCH  10  11
HETATM   11  C13 UNL     1      -1.811  -1.523  -0.701  1.00  0.00     0.020 C 
BRANCH  11  12
HETATM   12  C14 UNL     1      -2.683  -1.006   0.384  1.00  0.00     0.039 C 
BRANCH  12  13
HETATM   13  C15 UNL     1      -3.192   0.412   0.075  1.00  0.00     0.244 C 
HETATM   14  C16 UNL     1      -4.081   0.913   1.202  1.00  0.00     0.203 C 
HETATM   15  O2  UNL     1      -4.344   2.251   0.953  1.00  0.00    -0.387 OA
HETATM   16  C17 UNL     1      -5.084   2.402  -0.206  1.00  0.00     0.197 C 
HETATM   17  C18 UNL     1      -4.500   1.693  -1.393  1.00  0.00     0.296 C 
HETATM   18  N3  UNL     1      -4.064   0.352  -1.099  1.00  0.00     0.092 N 
HETATM   19  H26 UNL     1      -4.911  -0.208  -0.779  1.00  0.00     0.316 HD
ENDBRANCH  12  13
ENDBRANCH  11  12
ENDBRANCH  10  11
BRANCH   1  20
HETATM   20  N1  UNL     1       2.058   0.693   0.885  1.00  0.00    -0.368 N 
HETATM   21  H7  UNL     1       1.615   1.283   1.618  1.00  0.00     0.165 HD
BRANCH  20  22
HETATM   22  C4  UNL     1       3.378   0.163   0.887  1.00  0.00     0.084 C 
HETATM   23  C3  UNL     1       4.474   0.905   0.919  1.00  0.00    -0.009 C 
BRANCH  23  24
HETATM   24  C2  UNL     1       5.959   0.710   0.931  1.00  0.00     0.043 C 
BRANCH  24  25
HETATM   25  C1  UNL     1       6.556   1.398  -0.304  1.00  0.00     0.118 C 
HETATM   26 CL1  UNL     1       8.311   1.224  -0.380  1.00  0.00    -0.130 Cl
ENDBRANCH  24  25
ENDBRANCH  23  24
ENDBRANCH  20  22
ENDBRANCH   1  20
TORSDOF 7
