REMARK  2 active torsions:
REMARK  status: ('A' for Active; 'I' for Inactive)
REMARK    1  A    between atoms: C4_5  and  N1_6 
REMARK    2  A    between atoms: N1_6  and  C5_7 
ROOT
HETATM    1  C5  UNL     1       1.442  -1.275   1.528  1.00  0.00     0.142 A 
HETATM    2  N2  UNL     1       1.862  -2.453   2.000  1.00  0.00    -0.224 NA
HETATM    3  C6  UNL     1       1.449  -3.597   1.459  1.00  0.00     0.236 A 
HETATM    4  N3  UNL     1       0.592  -3.486   0.417  1.00  0.00    -0.241 NA
HETATM    5  C7  UNL     1       0.186  -2.295  -0.038  1.00  0.00     0.070 A 
HETATM    6  C8  UNL     1       0.578  -1.093   0.481  1.00  0.00     0.039 A 
HETATM    7  C9  UNL     1       0.158   0.219   0.046  1.00  0.00     0.025 C 
HETATM    8  C10 UNL     1      -1.019   0.788  -0.126  1.00  0.00    -0.022 C 
HETATM    9  C11 UNL     1      -0.770   2.200  -0.603  1.00  0.00     0.206 C 
HETATM   10  O1  UNL     1      -1.950   2.816  -0.973  1.00  0.00    -0.358 OA
HETATM   11  C12 UNL     1      -2.835   2.954   0.095  1.00  0.00     0.438 C 
HETATM   12  N4  UNL     1      -3.000   1.696   0.803  1.00  0.00     0.115 N 
HETATM   13  C13 UNL     1      -2.491   0.628  -0.051  1.00  0.00     0.256 C 
HETATM   14  C14 UNL     1      -3.159   0.711  -1.377  1.00  0.00     0.069 C 
HETATM   15  C15 UNL     1      -4.173  -0.440  -1.477  1.00  0.00     0.204 C 
HETATM   16  O2  UNL     1      -3.561  -1.673  -1.245  1.00  0.00    -0.278 OA
HETATM   17  N5  UNL     1      -2.613  -2.300  -1.915  1.00  0.00    -0.258 N 
HETATM   18  C16 UNL     1      -2.501  -2.861  -2.998  1.00  0.00     0.122 A 
HETATM   19  C17 UNL     1      -1.228  -2.920  -2.289  1.00  0.00     0.179 A 
HETATM   20  C18 UNL     1      -0.716  -2.540  -1.148  1.00  0.00     0.038 C 
HETATM   21  H10 UNL     1      -4.006   1.569   1.050  1.00  0.00     0.319 HD
ENDROOT
BRANCH   1  22
HETATM   22  N1  UNL     1       1.919  -0.063   2.156  1.00  0.00    -0.340 N 
HETATM   23  H3  UNL     1       1.414   0.451   2.910  1.00  0.00     0.167 HD
BRANCH  22  24
HETATM   24  C4  UNL     1       3.166   0.442   1.694  1.00  0.00     0.035 A 
HETATM   25  C3  UNL     1       3.889  -0.238   0.732  1.00  0.00     0.032 A 
HETATM   26  C2  UNL     1       5.102   0.267   0.296  1.00  0.00     0.046 A 
HETATM   27  C1  UNL     1       5.577   1.446   0.829  1.00  0.00     0.138 A 
HETATM   28  F1  UNL     1       6.777   1.976   0.420  1.00  0.00    -0.204 F 
HETATM   29  C20 UNL     1       4.894   2.153   1.785  1.00  0.00     0.074 A 
HETATM   30  C19 UNL     1       3.701   1.616   2.184  1.00  0.00     0.056 A 
HETATM   31 CL1  UNL     1       5.421   3.655   2.514  1.00  0.00    -0.081 Cl
ENDBRANCH  22  24
ENDBRANCH   1  22
TORSDOF 2
