REMARK  7 active torsions:
REMARK  status: ('A' for Active; 'I' for Inactive)
REMARK    1  A    between atoms: O1_2  and  C2_3 
REMARK    2  A    between atoms: C6_9  and  N3_10 
REMARK    3  A    between atoms: C14_20  and  O2_21 
REMARK    4  A    between atoms: O2_21  and  C15_22 
REMARK    5  A    between atoms: C15_22  and  C16_23 
REMARK    6  A    between atoms: C16_23  and  C17_24 
REMARK    7  A    between atoms: C17_24  and  N4_25 
ROOT
HETATM    1  C2  UNL     1       0.922  -2.860  -0.786  1.00  0.00     0.103 A 
HETATM    2  C3  UNL     1       2.115  -3.502  -0.546  1.00  0.00     0.072 A 
HETATM    3  C4  UNL     1       3.202  -2.808  -0.091  1.00  0.00     0.075 A 
HETATM    4  N1  UNL     1       4.420  -3.326   0.172  1.00  0.00    -0.241 NA
HETATM    5  C5  UNL     1       5.411  -2.523   0.613  1.00  0.00     0.236 A 
HETATM    6  N2  UNL     1       5.267  -1.186   0.818  1.00  0.00    -0.223 NA
HETATM    7  C6  UNL     1       4.055  -0.635   0.564  1.00  0.00     0.144 A 
HETATM    8  C12 UNL     1       3.045  -1.457   0.113  1.00  0.00     0.042 A 
HETATM    9  C13 UNL     1       1.862  -0.801  -0.121  1.00  0.00     0.057 A 
HETATM   10  C14 UNL     1       0.768  -1.501  -0.580  1.00  0.00     0.103 A 
ENDROOT
BRANCH  10  11
HETATM   11  O2  UNL     1      -0.466  -0.896  -0.838  1.00  0.00    -0.348 OA
BRANCH  11  12
HETATM   12  C15 UNL     1      -0.538   0.493  -0.601  1.00  0.00     0.177 C 
BRANCH  12  13
HETATM   13  C16 UNL     1      -1.942   1.031  -0.926  1.00  0.00     0.057 C 
BRANCH  13  14
HETATM   14  C17 UNL     1      -2.903   0.311  -0.041  1.00  0.00     0.274 C 
BRANCH  14  15
HETATM   15  N4  UNL     1      -4.247   0.739  -0.275  1.00  0.00     0.092 N 
HETATM   16  C18 UNL     1      -5.164  -0.010   0.584  1.00  0.00     0.298 C 
HETATM   17  C19 UNL     1      -6.565   0.534   0.489  1.00  0.00     0.198 C 
HETATM   18  O3  UNL     1      -6.693   1.508  -0.481  1.00  0.00    -0.388 OA
HETATM   19  C20 UNL     1      -5.804   2.550  -0.364  1.00  0.00     0.198 C 
HETATM   20  C21 UNL     1      -4.421   2.129   0.109  1.00  0.00     0.298 C 
ENDBRANCH  14  15
ENDBRANCH  13  14
ENDBRANCH  12  13
ENDBRANCH  11  12
ENDBRANCH  10  11
BRANCH   1  21
HETATM   21  O1  UNL     1      -0.168  -3.579  -1.246  1.00  0.00    -0.353 OA
HETATM   22  C1  UNL     1      -0.049  -4.992  -1.472  1.00  0.00     0.210 C 
ENDBRANCH   1  21
BRANCH   7  23
HETATM   23  N3  UNL     1       4.059   0.752   0.854  1.00  0.00    -0.336 N 
HETATM   24  C7  UNL     1       4.870   1.427  -0.128  1.00  0.00     0.120 A 
HETATM   25  C8  UNL     1       5.081   2.747  -0.168  1.00  0.00     0.087 A 
HETATM   26 CL1  UNL     1       6.066   3.605  -1.355  1.00  0.00    -0.080 Cl
HETATM   27  C9  UNL     1       4.467   3.609   0.845  1.00  0.00     0.137 A 
HETATM   28  F1  UNL     1       4.603   4.953   0.913  1.00  0.00    -0.205 F 
HETATM   29  C10 UNL     1       3.737   2.978   1.736  1.00  0.00     0.037 A 
HETATM   30  C11 UNL     1       3.430   1.534   1.886  1.00  0.00     0.160 A 
ENDBRANCH   7  23
TORSDOF 7
