REMARK  3 active torsions:
REMARK  status: ('A' for Active; 'I' for Inactive)
REMARK    1  A    between atoms: O1_2  and  C2_3 
REMARK    2  A    between atoms: C6_7  and  N1_8 
REMARK    3  A    between atoms: N1_8  and  C7_9 
ROOT
HETATM    1  C2  UNL     1       2.625   0.776  -0.264  1.00  0.00     0.070 A 
HETATM    2  C3  UNL     1       1.452   1.193  -0.867  1.00  0.00     0.038 A 
HETATM    3  C4  UNL     1       0.389   0.308  -0.940  1.00  0.00     0.020 A 
HETATM    4  C5  UNL     1       0.412  -0.989  -0.443  1.00  0.00     0.039 A 
HETATM    5  C6  UNL     1      -0.672  -1.836  -0.530  1.00  0.00     0.142 A 
HETATM    6  N2  UNL     1      -0.508  -3.073   0.004  1.00  0.00    -0.224 NA
HETATM    7  C13 UNL     1       0.680  -3.409   0.583  1.00  0.00     0.236 A 
HETATM    8  N3  UNL     1       1.732  -2.558   0.657  1.00  0.00    -0.241 NA
HETATM    9  C14 UNL     1       1.626  -1.300   0.135  1.00  0.00     0.074 A 
HETATM   10  C15 UNL     1       2.737  -0.509   0.261  1.00  0.00     0.069 A 
ENDROOT
BRANCH   5  11
HETATM   11  N1  UNL     1      -1.798  -1.254  -1.194  1.00  0.00    -0.340 N 
HETATM   12  H6  UNL     1      -2.077  -1.518  -2.159  1.00  0.00     0.167 HD
BRANCH  11  13
HETATM   13  C7  UNL     1      -2.500  -0.289  -0.391  1.00  0.00     0.035 A 
HETATM   14  C8  UNL     1      -2.289  -0.236   0.964  1.00  0.00     0.032 A 
HETATM   15  C9  UNL     1      -2.935   0.730   1.739  1.00  0.00     0.046 A 
HETATM   16  C10 UNL     1      -3.766   1.588   1.051  1.00  0.00     0.138 A 
HETATM   17  F1  UNL     1      -4.391   2.534   1.823  1.00  0.00    -0.204 F 
HETATM   18  C11 UNL     1      -4.003   1.566  -0.306  1.00  0.00     0.074 A 
HETATM   19 CL1  UNL     1      -5.068   2.698  -1.084  1.00  0.00    -0.081 Cl
HETATM   20  C12 UNL     1      -3.350   0.598  -1.046  1.00  0.00     0.056 A 
ENDBRANCH  11  13
ENDBRANCH   5  11
BRANCH   1  21
HETATM   21  O1  UNL     1       3.663   1.667  -0.206  1.00  0.00    -0.356 OA
HETATM   22  C1  UNL     1       4.911   1.409   0.367  1.00  0.00     0.210 C 
ENDBRANCH   1  21
TORSDOF 3
