REMARK  1 active torsions:
REMARK  status: ('A' for Active; 'I' for Inactive)
REMARK    1  A    between atoms: O1_2  and  C2_3 
ROOT
HETATM    1  C2  UNL     1       3.187   0.773   0.306  1.00  0.00     0.071 C 
HETATM    2  C3  UNL     1       2.466   1.864   0.120  1.00  0.00     0.065 C 
HETATM    3  C4  UNL     1       1.011   2.038   0.024  1.00  0.00     0.053 C 
HETATM    4  N1  UNL     1       0.397   2.050  -1.109  1.00  0.00    -0.287 NA
HETATM    5  C5  UNL     1      -1.029   1.904  -1.318  1.00  0.00     0.197 C 
HETATM    6  C6  UNL     1      -1.553   1.131  -0.068  1.00  0.00     0.210 C 
HETATM    7  C7  UNL     1      -1.206   2.266   0.913  1.00  0.00     0.020 C 
HETATM    8  C8  UNL     1       0.109   2.164   1.199  1.00  0.00     0.030 C 
HETATM    9  N2  UNL     1      -2.958   1.069  -0.037  1.00  0.00     0.101 N 
HETATM   10  C9  UNL     1      -3.575   0.171  -0.966  1.00  0.00     0.301 C 
HETATM   11  C10 UNL     1      -3.582  -1.205  -0.336  1.00  0.00     0.299 C 
HETATM   12  N3  UNL     1      -2.734  -2.028  -1.166  1.00  0.00     0.085 N 
HETATM   13  C11 UNL     1      -1.500  -2.387  -0.557  1.00  0.00     0.278 C 
HETATM   14  C12 UNL     1      -0.953  -1.430   0.438  1.00  0.00     0.059 C 
HETATM   15  C13 UNL     1       0.570  -1.892   0.534  1.00  0.00     0.175 C 
HETATM   16  O2  UNL     1       1.356  -0.782   0.437  1.00  0.00    -0.384 OA
HETATM   17  C14 UNL     1       2.624  -0.600   0.469  1.00  0.00     0.232 C 
HETATM   18  C15 UNL     1      -0.744  -0.032  -0.006  1.00  0.00     0.134 C 
HETATM   19 CL1  UNL     1       0.209  -0.296  -1.501  1.00  0.00    -0.121 Cl
HETATM   20  H9  UNL     1      -3.378   2.006  -0.009  1.00  0.00     0.317 HD
HETATM   21  H14 UNL     1      -2.672  -1.677  -2.150  1.00  0.00     0.315 HD
ENDROOT
BRANCH   1  22
HETATM   22  O1  UNL     1       4.580   0.833   0.366  1.00  0.00    -0.358 OA
HETATM   23  C1  UNL     1       5.335  -0.172  -0.236  1.00  0.00     0.209 C 
ENDBRANCH   1  22
TORSDOF 1
