REMARK  6 active torsions:
REMARK  status: ('A' for Active; 'I' for Inactive)
REMARK    1  A    between atoms: C5_7  and  C6_8 
REMARK    2  A    between atoms: C6_8  and  C7_9 
REMARK    3  A    between atoms: C7_9  and  O2_10 
REMARK    4  A    between atoms: O2_10  and  C8_11 
REMARK    5  A    between atoms: N2_13  and  C10_14 
REMARK    6  A    between atoms: C19_26  and  O3_27 
ROOT
HETATM    1  C8  UNL     1      -0.795  -0.585  -0.680  1.00  0.00     0.188 C 
HETATM    2  C9  UNL     1      -1.199   0.274   0.471  1.00  0.00     0.310 C 
HETATM    3  N2  UNL     1      -2.550   0.676   0.627  1.00  0.00     0.122 NA
HETATM    4  C15 UNL     1      -3.360  -0.251   1.435  1.00  0.00     0.423 C 
HETATM    5  N3  UNL     1      -3.493  -1.546   0.950  1.00  0.00    -0.253 NA
HETATM    6  C16 UNL     1      -4.507  -2.332   0.938  1.00  0.00     0.228 C 
HETATM    7  N4  UNL     1      -4.291  -3.617   0.350  1.00  0.00    -0.258 NA
HETATM    8  C17 UNL     1      -3.216  -3.769  -0.352  1.00  0.00     0.099 C 
HETATM    9  C18 UNL     1      -2.337  -2.631  -0.477  1.00  0.00     0.079 C 
HETATM   10  C19 UNL     1      -1.317  -1.918  -0.845  1.00  0.00     0.131 C 
ENDROOT
BRANCH   1  11
HETATM   11  O2  UNL     1       0.640  -0.756  -0.549  1.00  0.00    -0.381 OA
BRANCH  11  12
HETATM   12  C7  UNL     1       1.312  -0.066  -1.531  1.00  0.00     0.170 C 
BRANCH  12  13
HETATM   13  C6  UNL     1       2.810  -0.212  -1.446  1.00  0.00     0.069 C 
BRANCH  13  14
HETATM   14  C5  UNL     1       3.416   0.259  -0.175  1.00  0.00     0.277 C 
HETATM   15  C2  UNL     1       4.887   0.033  -0.293  1.00  0.00     0.070 C 
HETATM   16  C1  UNL     1       5.430  -0.647  -1.273  1.00  0.00     0.048 C 
HETATM   17  O1  UNL     1       5.691   0.595   0.718  1.00  0.00    -0.352 OA
HETATM   18  C3  UNL     1       4.921   1.079   1.822  1.00  0.00     0.205 C 
HETATM   19  C4  UNL     1       3.934   2.069   1.297  1.00  0.00     0.297 C 
HETATM   20  N1  UNL     1       3.217   1.643   0.117  1.00  0.00     0.096 N 
HETATM   21  H7  UNL     1       2.226   1.970   0.101  1.00  0.00     0.316 HD
ENDBRANCH  13  14
ENDBRANCH  12  13
ENDBRANCH  11  12
ENDBRANCH   1  11
BRANCH  10  22
HETATM   22  O3  UNL     1      -0.165  -2.175  -1.647  1.00  0.00    -0.378 OA
HETATM   23  C20 UNL     1      -0.077  -3.251  -2.531  1.00  0.00     0.202 C 
ENDBRANCH  10  22
BRANCH   3  24
HETATM   24  C10 UNL     1      -2.611   1.895   1.499  1.00  0.00     0.274 A 
HETATM   25  C11 UNL     1      -1.888   2.993   0.793  1.00  0.00     0.016 A 
HETATM   26  C12 UNL     1      -2.752   3.983   0.507  1.00  0.00     0.040 A 
HETATM   27  C13 UNL     1      -4.098   3.613   1.001  1.00  0.00     0.114 A 
HETATM   28  F1  UNL     1      -5.149   4.474   0.823  1.00  0.00    -0.206 F 
HETATM   29  C14 UNL     1      -3.992   2.418   1.564  1.00  0.00     0.055 A 
ENDBRANCH   3  24
TORSDOF 6
