REMARK  5 active torsions:
REMARK  status: ('A' for Active; 'I' for Inactive)
REMARK    1  A    between atoms: C6_6  and  N1_7 
REMARK    2  A    between atoms: N1_7  and  C7_8 
REMARK    3  A    between atoms: C9_10  and  N2_11 
REMARK    4  A    between atoms: N2_11  and  C10_12 
REMARK    5  A    between atoms: C10_12  and  C11_13 
ROOT
HETATM    1  C7  UNL     1       2.429   0.994  -0.240  1.00  0.00     0.121 A 
HETATM    2  C8  UNL     1       1.226   0.553  -0.161  1.00  0.00     0.071 A 
HETATM    3  C9  UNL     1       0.277   0.817  -1.009  1.00  0.00     0.140 A 
HETATM    4  N4  UNL     1       0.515   1.526  -2.226  1.00  0.00    -0.226 NA
HETATM    5  C20 UNL     1       1.709   1.982  -2.480  1.00  0.00     0.211 A 
HETATM    6  N5  UNL     1       2.679   1.700  -1.447  1.00  0.00    -0.336 N 
HETATM    7  H22 UNL     1       3.646   2.036  -1.646  1.00  0.00     0.168 HD
ENDROOT
BRANCH   3   8
HETATM    8  N2  UNL     1      -1.055   0.373  -0.670  1.00  0.00    -0.373 N 
HETATM    9  H8  UNL     1      -1.825   0.352  -1.348  1.00  0.00     0.161 HD
BRANCH   8  10
HETATM   10  C10 UNL     1      -1.190  -0.045   0.740  1.00  0.00     0.131 C 
BRANCH  10  11
HETATM   11  C11 UNL     1      -2.446  -0.749   1.035  1.00  0.00     0.048 C 
HETATM   12  C12 UNL     1      -3.650  -0.003   0.806  1.00  0.00     0.021 C 
HETATM   13  C13 UNL     1      -4.716   0.738   0.603  1.00  0.00     0.101 C 
HETATM   14  O1  UNL     1      -4.668   2.096   0.656  1.00  0.00    -0.323 OA
HETATM   15  C15 UNL     1      -6.109   0.350   0.258  1.00  0.00     0.101 C 
HETATM   16  C14 UNL     1      -5.752   2.564  -0.204  1.00  0.00     0.352 C 
HETATM   17  O2  UNL     1      -6.719   1.596   0.201  1.00  0.00    -0.323 OA
HETATM   18  C16 UNL     1      -6.867  -0.739  -0.045  1.00  0.00     0.018 C 
HETATM   19  C17 UNL     1      -6.312  -2.171  -0.145  1.00  0.00     0.076 C 
HETATM   20  C18 UNL     1      -4.841  -2.029  -0.175  1.00  0.00     0.087 C 
HETATM   21  N3  UNL     1      -3.761  -2.530   0.288  1.00  0.00    -0.305 NA
HETATM   22  C19 UNL     1      -2.467  -1.926  -0.072  1.00  0.00     0.158 C 
ENDBRANCH  10  11
ENDBRANCH   8  10
ENDBRANCH   3   8
BRANCH   1  23
HETATM   23  N1  UNL     1       3.351   0.835   0.800  1.00  0.00    -0.342 N 
HETATM   24  H7  UNL     1       3.085   1.139   1.769  1.00  0.00     0.167 HD
BRANCH  23  25
HETATM   25  C6  UNL     1       4.636   0.266   0.560  1.00  0.00     0.034 A 
HETATM   26  C5  UNL     1       4.851  -0.211  -0.705  1.00  0.00     0.029 A 
HETATM   27  C4  UNL     1       6.116  -0.757  -1.012  1.00  0.00     0.003 A 
HETATM   28  C3  UNL     1       7.090  -0.785  -0.022  1.00  0.00     0.007 A 
HETATM   29  C2  UNL     1       6.806  -0.280   1.248  1.00  0.00    -0.060 A 
HETATM   30  C1  UNL     1       7.827  -0.302   2.304  1.00  0.00     0.048 C 
HETATM   31  C21 UNL     1       5.574   0.261   1.574  1.00  0.00     0.036 A 
ENDBRANCH  23  25
ENDBRANCH   1  23
TORSDOF 5
