REMARK  5 active torsions:
REMARK  status: ('A' for Active; 'I' for Inactive)
REMARK    1  A    between atoms: O1_2  and  C2_3 
REMARK    2  A    between atoms: C3_4  and  N1_5 
REMARK       I    between atoms: N1_5  and  C4_6 
REMARK       I    between atoms: C4_6  and  N2_8 
REMARK    3  A    between atoms: N2_8  and  C5_9 
REMARK    4  A    between atoms: C5_9  and  C7_11 
REMARK    5  A    between atoms: C16_22  and  O3_23 
ROOT
HETATM    1  C2  UNL     1      -0.819   0.580  -0.511  1.00  0.00     0.108 A 
HETATM    2  C3  UNL     1       0.532   0.742  -0.804  1.00  0.00     0.070 A 
HETATM    3  C10 UNL     1       0.911   1.825  -1.604  1.00  0.00     0.035 A 
HETATM    4  C11 UNL     1       0.012   2.755  -2.129  1.00  0.00     0.040 A 
HETATM    5  C12 UNL     1      -1.331   2.571  -1.817  1.00  0.00     0.088 A 
HETATM    6  C13 UNL     1      -1.664   1.516  -1.037  1.00  0.00     0.044 A 
HETATM    7  C14 UNL     1      -3.062   1.370  -0.731  1.00  0.00    -0.008 A 
HETATM    8  C15 UNL     1      -3.281   0.488   0.222  1.00  0.00     0.022 C 
HETATM    9  C16 UNL     1      -4.218  -0.251   1.087  1.00  0.00     0.168 C 
HETATM   10  C18 UNL     1      -5.619   0.146   0.925  1.00  0.00     0.028 C 
HETATM   11  C19 UNL     1      -6.556   0.906   0.377  1.00  0.00     0.115 C 
HETATM   12  N4  UNL     1      -6.491   1.963  -0.571  1.00  0.00    -0.272 NA
HETATM   13  C20 UNL     1      -5.515   2.508  -1.211  1.00  0.00     0.130 C 
HETATM   14  C21 UNL     1      -4.079   2.273  -1.232  1.00  0.00     0.015 A 
HETATM   15  C22 UNL     1      -3.669   3.296  -2.011  1.00  0.00     0.156 A 
HETATM   16  O4  UNL     1      -2.315   3.427  -2.285  1.00  0.00    -0.321 OA
ENDROOT
BRANCH   2  17
HETATM   17  N1  UNL     1       1.545  -0.121  -0.315  1.00  0.00    -0.306 N 
HETATM   18  C4  UNL     1       2.944  -0.214  -0.466  1.00  0.00     0.321 C 
HETATM   19  O2  UNL     1       3.404   0.679  -1.211  1.00  0.00    -0.247 OA
HETATM   20  N2  UNL     1       3.810  -1.161   0.110  1.00  0.00    -0.333 N 
HETATM   21  H5  UNL     1       3.374  -1.885   0.723  1.00  0.00     0.165 HD
HETATM   22  H4  UNL     1       1.244  -0.909   0.337  1.00  0.00     0.171 HD
BRANCH  20  23
HETATM   23  C5  UNL     1       5.214  -1.076  -0.174  1.00  0.00     0.141 C 
HETATM   24  C6  UNL     1       5.593  -2.301  -0.965  1.00  0.00     0.039 C 
BRANCH  23  25
HETATM   25  C7  UNL     1       6.037  -0.846   1.022  1.00  0.00     0.097 A 
HETATM   26  N3  UNL     1       5.959  -0.103   2.001  1.00  0.00    -0.256 NA
HETATM   27  C8  UNL     1       6.865  -0.101   2.958  1.00  0.00     0.124 A 
HETATM   28  C9  UNL     1       8.025  -1.034   2.846  1.00  0.00     0.071 A 
HETATM   29  S1  UNL     1       7.570  -1.851   1.200  1.00  0.00    -0.083 SA
ENDBRANCH  23  25
ENDBRANCH  20  23
ENDBRANCH   2  17
BRANCH   1  30
HETATM   30  O1  UNL     1      -0.992  -0.555   0.270  1.00  0.00    -0.353 OA
HETATM   31  C1  UNL     1      -1.118  -1.847  -0.360  1.00  0.00     0.210 C 
ENDBRANCH   1  30
BRANCH   9  32
HETATM   32  O3  UNL     1      -4.137  -1.595   0.722  1.00  0.00    -0.383 OA
HETATM   33  C17 UNL     1      -3.707  -2.261   1.893  1.00  0.00     0.202 C 
ENDBRANCH   9  32
TORSDOF 5
