REMARK  6 active torsions:
REMARK  status: ('A' for Active; 'I' for Inactive)
REMARK    1  A    between atoms: C15_18  and  N2_20 
REMARK    2  A    between atoms: N2_20  and  C16_21 
REMARK    3  A    between atoms: C16_21  and  C18_23 
REMARK    4  A    between atoms: C23_30  and  O4_31 
REMARK    5  A    between atoms: O4_31  and  C24_32 
REMARK    6  A    between atoms: C24_32  and  N4_33 
ROOT
HETATM    1  C1  UNL     1      -4.774   0.348   3.549  1.00  0.00     0.056 A 
HETATM    2  O1  UNL     1      -3.797  -0.619   2.931  1.00  0.00     0.000 OA
HETATM    3  C2  UNL     1      -3.046   0.010   1.806  1.00  0.00    -0.010 A 
HETATM    4  C3  UNL     1      -2.464   0.723   0.830  1.00  0.00     0.026 C 
HETATM    5  C4  UNL     1      -3.280   0.171  -0.011  1.00  0.00     0.006 A 
HETATM    6  C5  UNL     1      -3.124   0.377  -1.309  1.00  0.00     0.008 A 
HETATM    7  C6  UNL     1      -3.891  -0.242  -2.329  1.00  0.00     0.034 A 
HETATM    8  C7  UNL     1      -4.898  -1.164  -1.916  1.00  0.00     0.118 A 
HETATM    9  N1  UNL     1      -5.046  -1.387  -0.557  1.00  0.00    -0.261 NA
HETATM   10  C8  UNL     1      -4.250  -0.733   0.291  1.00  0.00     0.067 A 
HETATM   11  C9  UNL     1      -4.409  -1.134   1.591  1.00  0.00     0.048 C 
HETATM   12  C10 UNL     1      -3.617  -0.689   2.755  1.00  0.00     0.105 A 
HETATM   13  O2  UNL     1      -2.587   0.055   3.535  1.00  0.00    -0.371 OA
HETATM   14  C11 UNL     1      -1.356   0.304   3.185  1.00  0.00     0.177 C 
HETATM   15  C12 UNL     1      -0.030  -0.142   2.936  1.00  0.00     0.053 C 
HETATM   16  C13 UNL     1       0.817  -0.214   1.859  1.00  0.00     0.174 A 
HETATM   17  C14 UNL     1       0.892   0.043   0.355  1.00  0.00     0.019 A 
HETATM   18  C15 UNL     1       2.293  -0.394   0.618  1.00  0.00     0.148 A 
HETATM   19  O3  UNL     1       2.308  -0.632   1.878  1.00  0.00    -0.325 OA
HETATM   20  C21 UNL     1       0.558   0.314  -0.927  1.00  0.00    -0.000 C 
HETATM   21  C22 UNL     1      -0.861   0.487  -1.404  1.00  0.00     0.081 C 
HETATM   22  C23 UNL     1      -1.920   0.748  -2.177  1.00  0.00     0.068 C 
ENDROOT
BRANCH  18  23
HETATM   23  N2  UNL     1       3.501  -0.594  -0.108  1.00  0.00    -0.360 N 
HETATM   24  H12 UNL     1       3.304  -0.373  -1.088  1.00  0.00     0.162 HD
BRANCH  23  25
HETATM   25  C16 UNL     1       4.691  -1.049   0.546  1.00  0.00     0.139 C 
HETATM   26  C17 UNL     1       5.044  -2.478   0.164  1.00  0.00     0.039 C 
BRANCH  25  27
HETATM   27  C18 UNL     1       5.870  -0.199   0.290  1.00  0.00     0.097 A 
HETATM   28  N3  UNL     1       7.026  -0.523  -0.030  1.00  0.00    -0.256 NA
HETATM   29  C19 UNL     1       7.929   0.475  -0.192  1.00  0.00     0.124 A 
HETATM   30  C20 UNL     1       7.486   1.917   0.020  1.00  0.00     0.071 A 
HETATM   31  S1  UNL     1       5.683   1.635   0.459  1.00  0.00    -0.083 SA
ENDBRANCH  25  27
ENDBRANCH  23  25
ENDBRANCH  18  23
BRANCH  22  32
HETATM   32  O4  UNL     1      -2.037   1.248  -3.485  1.00  0.00    -0.325 OA
BRANCH  32  33
HETATM   33  C24 UNL     1      -1.391   0.538  -4.504  1.00  0.00     0.441 C 
BRANCH  33  34
HETATM   34  N4  UNL     1      -1.598   1.244  -5.760  1.00  0.00     0.101 N 
HETATM   35  H23 UNL     1      -0.997   2.091  -5.729  1.00  0.00     0.315 HD
HETATM   36  H24 UNL     1      -1.446   0.643  -6.596  1.00  0.00     0.315 HD
ENDBRANCH  33  34
ENDBRANCH  32  33
ENDBRANCH  22  32
TORSDOF 6
