REMARK  5 active torsions:
REMARK  status: ('A' for Active; 'I' for Inactive)
REMARK    1  A    between atoms: C4_5  and  N2_6 
REMARK    2  A    between atoms: C13_17  and  O2_18 
REMARK    3  A    between atoms: O2_18  and  C14_19 
REMARK    4  A    between atoms: C14_19  and  C15_20 
REMARK    5  A    between atoms: C15_20  and  N4_21 
ROOT
HETATM    1  C1  UNL     1      -3.510   0.616  -0.592  1.00  0.00     0.053 A 
HETATM    2  C2  UNL     1      -4.048   0.381   0.590  1.00  0.00    -0.078 A 
HETATM    3  C3  UNL     1      -3.069   1.419   0.884  1.00  0.00     0.131 A 
HETATM    4  N1  UNL     1      -2.169   1.715  -0.135  1.00  0.00    -0.391 N 
HETATM    5  C4  UNL     1      -0.996   1.084  -0.452  1.00  0.00     0.335 C 
HETATM    6  C5  UNL     1      -0.594  -0.279  -0.710  1.00  0.00     0.123 A 
HETATM    7  O1  UNL     1      -0.479  -1.225   0.344  1.00  0.00     0.000 OA
HETATM    8  C6  UNL     1       0.073  -0.984   1.527  1.00  0.00    -0.024 A 
HETATM    9  C7  UNL     1      -1.142  -1.445   1.592  1.00  0.00     0.023 A 
HETATM   10  C8  UNL     1      -1.969  -1.788   0.497  1.00  0.00     0.041 C 
HETATM   11  C9  UNL     1      -2.866  -2.151  -0.397  1.00  0.00     0.116 C 
HETATM   12  C10 UNL     1      -2.919  -2.230  -1.865  1.00  0.00     0.190 C 
HETATM   13  N3  UNL     1      -1.717  -1.788  -2.544  1.00  0.00    -0.290 NA
HETATM   14  C11 UNL     1      -0.868  -1.001  -1.946  1.00  0.00     0.052 A 
HETATM   15  C12 UNL     1       0.450  -0.818  -2.583  1.00  0.00     0.061 A 
HETATM   16  C13 UNL     1       0.781  -0.154  -1.456  1.00  0.00     0.068 A 
HETATM   17  O3  UNL     1      -4.167  -2.600  -0.081  1.00  0.00    -0.374 OA
HETATM   18  C20 UNL     1      -5.275  -1.701  -0.085  1.00  0.00     0.177 C 
HETATM   19  C21 UNL     1      -5.085  -0.594   0.915  1.00  0.00     0.032 C 
HETATM   20  C22 UNL     1      -6.394  -0.008   1.356  1.00  0.00     0.016 C 
HETATM   21  H5  UNL     1      -2.055   2.752  -0.210  1.00  0.00     0.155 HD
ENDROOT
BRANCH  16  22
HETATM   22  O2  UNL     1       1.903   0.511  -0.903  1.00  0.00    -0.352 OA
BRANCH  22  23
HETATM   23  C14 UNL     1       3.123  -0.156  -0.645  1.00  0.00     0.205 C 
BRANCH  23  24
HETATM   24  C15 UNL     1       4.140   0.961  -0.411  1.00  0.00     0.299 C 
BRANCH  24  25
HETATM   25  N4  UNL     1       5.464   0.467  -0.132  1.00  0.00     0.090 N 
HETATM   26  C16 UNL     1       6.347   1.618   0.010  1.00  0.00     0.272 C 
HETATM   27  C17 UNL     1       7.485   1.088   0.871  1.00  0.00     0.032 C 
HETATM   28  C18 UNL     1       6.695   0.306   1.911  1.00  0.00     0.032 C 
HETATM   29  C19 UNL     1       5.511  -0.218   1.145  1.00  0.00     0.272 C 
ENDBRANCH  24  25
ENDBRANCH  23  24
ENDBRANCH  22  23
ENDBRANCH  16  22
BRANCH   5  30
HETATM   30  N2  UNL     1      -0.488   1.865  -1.666  1.00  0.00     0.102 N 
HETATM   31  H7  UNL     1      -0.688   2.856  -1.458  1.00  0.00     0.315 HD
HETATM   32  H8  UNL     1      -1.079   1.575  -2.467  1.00  0.00     0.315 HD
ENDBRANCH   5  30
TORSDOF 5
