REMARK  6 active torsions:
REMARK  status: ('A' for Active; 'I' for Inactive)
REMARK    1  A    between atoms: O1_2  and  C2_3 
REMARK    2  A    between atoms: C4_5  and  O2_6 
REMARK    3  A    between atoms: O2_6  and  C5_7 
REMARK    4  A    between atoms: C9_12  and  N1_13 
REMARK       I    between atoms: N1_13  and  C10_14 
REMARK       I    between atoms: C10_14  and  N2_16 
REMARK    5  A    between atoms: N2_16  and  C11_17 
REMARK    6  A    between atoms: C11_17  and  C13_19 
ROOT
HETATM    1  N1  UNL     1      -0.006  -0.909   1.159  1.00  0.00    -0.306 N 
HETATM    2  C10 UNL     1      -1.012  -0.914   0.138  1.00  0.00     0.321 C 
HETATM    3  O3  UNL     1      -0.737  -0.681  -1.069  1.00  0.00    -0.247 OA
HETATM    4  N2  UNL     1      -2.384  -1.179   0.411  1.00  0.00    -0.333 N 
HETATM    5  H9  UNL     1      -0.330  -1.116   2.150  1.00  0.00     0.171 HD
HETATM    6  H10 UNL     1      -2.678  -1.377   1.376  1.00  0.00     0.165 HD
ENDROOT
BRANCH   1   7
HETATM    7  C9  UNL     1       1.303  -0.616   0.645  1.00  0.00     0.070 A 
HETATM    8  C2  UNL     1       1.802   0.665   0.553  1.00  0.00     0.097 A 
HETATM    9  C3  UNL     1       3.073   0.849   0.044  1.00  0.00     0.076 A 
HETATM   10  C4  UNL     1       3.832  -0.232  -0.365  1.00  0.00     0.077 A 
HETATM   11  C7  UNL     1       3.296  -1.494  -0.255  1.00  0.00     0.039 A 
HETATM   12  C8  UNL     1       2.017  -1.741   0.250  1.00  0.00     0.035 A 
BRANCH   8  13
HETATM   13  O1  UNL     1       1.021   1.731   0.969  1.00  0.00    -0.354 OA
HETATM   14  C1  UNL     1       1.540   3.047   0.872  1.00  0.00     0.210 C 
ENDBRANCH   8  13
BRANCH  10  15
HETATM   15  O2  UNL     1       5.123  -0.100  -0.886  1.00  0.00    -0.322 OA
BRANCH  15  16
HETATM   16  C5  UNL     1       5.729   1.134  -1.027  1.00  0.00     0.154 C 
HETATM   17  C6  UNL     1       6.887   0.607  -0.655  1.00  0.00     0.109 C 
HETATM   18 CL1  UNL     1       6.789  -1.105  -0.297  1.00  0.00    -0.095 Cl
ENDBRANCH  15  16
ENDBRANCH  10  15
ENDBRANCH   1   7
BRANCH   4  19
HETATM   19  C11 UNL     1      -3.395  -1.182  -0.628  1.00  0.00     0.141 C 
HETATM   20  C12 UNL     1      -3.947  -2.611  -0.654  1.00  0.00     0.039 C 
BRANCH  19  21
HETATM   21  C13 UNL     1      -4.460  -0.191  -0.286  1.00  0.00     0.097 A 
HETATM   22  N3  UNL     1      -5.077   0.106   0.668  1.00  0.00    -0.256 NA
HETATM   23  C14 UNL     1      -6.008   1.064   0.719  1.00  0.00     0.124 A 
HETATM   24  C15 UNL     1      -6.279   1.796  -0.503  1.00  0.00     0.071 A 
HETATM   25  S1  UNL     1      -5.046   0.927  -1.657  1.00  0.00    -0.083 SA
ENDBRANCH  19  21
ENDBRANCH   4  19
TORSDOF 6
