REMARK  7 active torsions:
REMARK  status: ('A' for Active; 'I' for Inactive)
REMARK    1  A    between atoms: C2_2  and  C3_3 
REMARK    2  A    between atoms: C3_3  and  O1_4 
REMARK    3  A    between atoms: C5_6  and  C6_7 
REMARK    4  A    between atoms: C5_6  and  O4_26 
REMARK    5  A    between atoms: C9_11  and  C10_12 
REMARK       I    between atoms: C10_12  and  N2_14 
REMARK    6  A    between atoms: N2_14  and  C11_15 
REMARK    7  A    between atoms: C11_15  and  C13_17 
ROOT
HETATM    1  C6  UNL     1      -2.676  -0.960   0.769  1.00  0.00     0.078 C 
HETATM    2  C7  UNL     1      -1.608  -1.662   0.480  1.00  0.00     0.095 C 
HETATM    3  C8  UNL     1      -0.375  -1.329   1.163  1.00  0.00     0.154 C 
HETATM    4  N1  UNL     1       0.869  -1.244   0.833  1.00  0.00    -0.253 NA
HETATM    5  C9  UNL     1       1.638  -1.440  -0.373  1.00  0.00     0.124 C 
HETATM    6  C16 UNL     1       1.330  -2.163  -1.417  1.00  0.00     0.039 C 
HETATM    7  C17 UNL     1       0.247  -3.020  -1.878  1.00  0.00     0.027 C 
HETATM    8  C18 UNL     1      -1.012  -3.228  -1.507  1.00  0.00     0.142 C 
HETATM    9  O3  UNL     1      -1.810  -2.672  -0.482  1.00  0.00    -0.321 OA
ENDROOT
BRANCH   5  10
HETATM   10  C10 UNL     1       2.869  -0.696  -0.291  1.00  0.00     0.270 C 
HETATM   11  O2  UNL     1       3.157   0.008   0.740  1.00  0.00    -0.266 OA
HETATM   12  N2  UNL     1       3.918  -0.584  -1.219  1.00  0.00    -0.345 N 
HETATM   13  H9  UNL     1       3.822  -1.107  -2.115  1.00  0.00     0.163 HD
BRANCH  12  14
HETATM   14  C11 UNL     1       5.118   0.174  -1.077  1.00  0.00     0.140 C 
HETATM   15  C12 UNL     1       6.370  -0.634  -1.150  1.00  0.00     0.039 C 
BRANCH  14  16
HETATM   16  C13 UNL     1       5.215   1.287  -2.068  1.00  0.00     0.097 A 
HETATM   17  N3  UNL     1       5.978   1.818  -2.835  1.00  0.00    -0.256 NA
HETATM   18  C14 UNL     1       5.619   2.852  -3.575  1.00  0.00     0.124 A 
HETATM   19  C15 UNL     1       4.338   3.384  -3.508  1.00  0.00     0.071 A 
HETATM   20  S1  UNL     1       3.628   2.246  -2.244  1.00  0.00    -0.083 SA
ENDBRANCH  14  16
ENDBRANCH  12  14
ENDBRANCH   5  10
BRANCH   1  21
HETATM   21  C5  UNL     1      -3.327   0.101   1.506  1.00  0.00     0.103 C 
HETATM   22  C3  UNL     1      -4.538   0.619   1.615  1.00  0.00     0.097 C 
BRANCH  22  23
HETATM   23  C2  UNL     1      -4.600   1.708   2.541  1.00  0.00     0.013 C 
HETATM   24  C1  UNL     1      -5.818   2.210   2.633  1.00  0.00     0.034 C 
ENDBRANCH  22  23
BRANCH  22  25
HETATM   25  O1  UNL     1      -5.566   0.085   0.862  1.00  0.00    -0.353 OA
HETATM   26  C4  UNL     1      -6.529  -0.807   1.407  1.00  0.00     0.210 C 
ENDBRANCH  22  25
BRANCH  21  27
HETATM   27  O4  UNL     1      -2.190   0.501   2.172  1.00  0.00    -0.353 OA
HETATM   28  C19 UNL     1      -2.058   1.600   3.013  1.00  0.00     0.210 C 
ENDBRANCH  21  27
ENDBRANCH   1  21
TORSDOF 7
