REMARK  1 active torsions:
REMARK  status: ('A' for Active; 'I' for Inactive)
REMARK    1  A    between atoms: O1_2  and  C2_3 
ROOT
HETATM    1  C2  UNL     1      -4.370  -0.506  -0.608  1.00  0.00     0.196 A 
HETATM    2  C3  UNL     1      -3.975   0.756  -0.813  1.00  0.00    -0.001 A 
HETATM    3  O2  UNL     1      -5.334   0.749  -0.708  1.00  0.00     0.000 OA
HETATM    4  C4  UNL     1      -6.035   1.987  -0.524  1.00  0.00     0.000 C 
HETATM    5  C5  UNL     1      -2.547   1.041  -0.957  1.00  0.00     0.186 C 
HETATM    6  N1  UNL     1      -1.943   1.911  -0.049  1.00  0.00    -0.299 NA
HETATM    7  C6  UNL     1      -1.998   3.150   0.094  1.00  0.00     0.110 C 
HETATM    8  C7  UNL     1      -1.149   3.596   1.223  1.00  0.00     0.220 C 
HETATM    9  O3  UNL     1       0.115   4.070   0.742  1.00  0.00    -0.358 OA
HETATM   10  C8  UNL     1       1.143   4.009   1.700  1.00  0.00     0.135 C 
HETATM   11  C9  UNL     1       2.317   3.445   1.882  1.00  0.00     0.025 C 
HETATM   12  C10 UNL     1       3.561   3.102   2.548  1.00  0.00     0.019 C 
HETATM   13  C11 UNL     1       4.509   2.343   2.132  1.00  0.00     0.084 C 
HETATM   14  N2  UNL     1       5.451   1.504   1.559  1.00  0.00    -0.383 N 
HETATM   15  C12 UNL     1       5.051   0.145   1.163  1.00  0.00     0.237 C 
HETATM   16  N3  UNL     1       4.171   0.201   0.042  1.00  0.00    -0.402 N 
HETATM   17  C13 UNL     1       3.638  -1.041  -0.413  1.00  0.00     0.083 C 
HETATM   18  C14 UNL     1       4.664  -2.109  -0.728  1.00  0.00     0.032 C 
HETATM   19  C15 UNL     1       2.902  -0.716  -1.732  1.00  0.00     0.103 C 
HETATM   20  S1  UNL     1       2.198  -2.211  -2.459  1.00  0.00    -0.138 SA
HETATM   21  C16 UNL     1       0.900  -2.785  -1.438  1.00  0.00     0.062 C 
HETATM   22  C17 UNL     1       0.033  -3.160  -0.534  1.00  0.00     0.105 C 
HETATM   23  N4  UNL     1      -1.197  -3.728  -0.176  1.00  0.00    -0.326 N 
HETATM   24  C18 UNL     1      -1.353  -5.086   0.262  1.00  0.00     0.165 C 
HETATM   25  S2  UNL     1      -2.399  -2.521  -0.365  1.00  0.00     0.031 SA
HETATM   26  C19 UNL     1      -3.417  -1.490  -0.501  1.00  0.00    -0.042 C 
HETATM   27  H16 UNL     1       6.457   1.763   1.364  1.00  0.00     0.160 HD
HETATM   28  H19 UNL     1       4.397   0.885  -0.689  1.00  0.00     0.155 HD
ENDROOT
BRANCH   1  29
HETATM   29  O1  UNL     1      -5.328  -1.482  -0.409  1.00  0.00    -0.364 OA
HETATM   30  C1  UNL     1      -5.968  -2.080  -1.522  1.00  0.00     0.204 C 
ENDBRANCH   1  29
TORSDOF 1
