REMARK  6 active torsions:
REMARK  status: ('A' for Active; 'I' for Inactive)
REMARK    1  A    between atoms: C2_3  and  C3_4 
REMARK    2  A    between atoms: C4_5  and  C5_6 
REMARK    3  A    between atoms: C5_6  and  N1_7 
REMARK    4  A    between atoms: C8_11  and  N3_12 
REMARK    5  A    between atoms: N3_12  and  C9_13 
REMARK    6  A    between atoms: C9_13  and  C10_14 
ROOT
HETATM    1 CL1  UNL     1       7.715   1.901  -3.039  1.00  0.00    -0.023 Cl
HETATM    2  C1  UNL     1       7.052   0.880  -1.806  1.00  0.00     0.009 C 
HETATM    3  C2  UNL     1       6.580   0.169  -0.938  1.00  0.00    -0.061 C 
ENDROOT
BRANCH   3   4
HETATM    4  C3  UNL     1       6.026  -0.674   0.082  1.00  0.00     0.063 C 
HETATM    5  C4  UNL     1       5.046  -0.207   0.820  1.00  0.00     0.004 C 
BRANCH   5   6
HETATM    6  C5  UNL     1       4.401   1.130   0.746  1.00  0.00     0.180 C 
BRANCH   6   7
HETATM    7  N1  UNL     1       2.987   0.965   0.459  1.00  0.00    -0.261 N 
HETATM    8  C6  UNL     1       2.791   0.456  -0.874  1.00  0.00     0.222 C 
HETATM    9  N2  UNL     1       1.916  -0.346  -1.386  1.00  0.00    -0.277 NA
HETATM   10  C7  UNL     1       0.780  -1.136  -1.115  1.00  0.00     0.206 C 
HETATM   11  C8  UNL     1       0.085  -0.953   0.147  1.00  0.00     0.026 C 
HETATM   12  C17 UNL     1       0.033  -0.264   1.279  1.00  0.00     0.047 C 
HETATM   13  C18 UNL     1       0.874   0.827   1.767  1.00  0.00     0.141 C 
HETATM   14  N4  UNL     1       2.029   1.292   1.431  1.00  0.00    -0.184 NA
BRANCH  11  15
HETATM   15  N3  UNL     1      -0.939  -1.933   0.098  1.00  0.00    -0.387 N 
HETATM   16  H8  UNL     1      -0.783  -2.567   0.911  1.00  0.00     0.159 HD
BRANCH  15  17
HETATM   17  C9  UNL     1      -2.036  -2.132  -0.825  1.00  0.00     0.158 C 
BRANCH  17  18
HETATM   18  C10 UNL     1      -2.889  -0.921  -0.784  1.00  0.00    -0.038 A 
HETATM   19  C11 UNL     1      -2.769   0.200  -1.581  1.00  0.00     0.012 A 
HETATM   20  C12 UNL     1      -3.641   1.265  -1.434  1.00  0.00     0.040 A 
HETATM   21  C13 UNL     1      -4.662   1.274  -0.502  1.00  0.00     0.105 A 
HETATM   22  C14 UNL     1      -4.785   0.155   0.296  1.00  0.00     0.105 A 
HETATM   23  O2  UNL     1      -5.666   2.164  -0.127  1.00  0.00    -0.323 OA
HETATM   24  C15 UNL     1      -3.922  -0.910   0.157  1.00  0.00     0.048 A 
HETATM   25  O1  UNL     1      -5.876   0.402   1.147  1.00  0.00    -0.323 OA
HETATM   26  C16 UNL     1      -6.687   1.422   0.549  1.00  0.00     0.352 C 
ENDBRANCH  17  18
ENDBRANCH  15  17
ENDBRANCH  11  15
ENDBRANCH   6   7
ENDBRANCH   5   6
ENDBRANCH   3   4
TORSDOF 6
