REMARK  9 active torsions:
REMARK  status: ('A' for Active; 'I' for Inactive)
REMARK    1  A    between atoms: C2_2  and  C3_3 
REMARK    2  A    between atoms: C3_3  and  C4_4 
REMARK    3  A    between atoms: C3_3  and  N3_15 
REMARK    4  A    between atoms: C5_5  and  C6_6 
REMARK    5  A    between atoms: C6_6  and  O1_7 
REMARK    6  A    between atoms: O1_7  and  C7_8 
REMARK    7  A    between atoms: C9_10  and  N1_11 
REMARK       I    between atoms: N3_15  and  C12_16 
REMARK       I    between atoms: C12_16  and  N4_18 
REMARK    8  A    between atoms: N4_18  and  C13_19 
REMARK    9  A    between atoms: C17_24  and  C18_25 
ROOT
HETATM    1  N3  UNL     1      -1.201  -0.483   0.143  1.00  0.00    -0.335 N 
HETATM    2  C12 UNL     1      -2.613  -0.351   0.125  1.00  0.00     0.321 C 
HETATM    3  O2  UNL     1      -3.078   0.737  -0.294  1.00  0.00    -0.247 OA
HETATM    4  N4  UNL     1      -3.513  -1.360   0.545  1.00  0.00    -0.309 N 
HETATM    5  H18 UNL     1      -0.779  -1.368   0.482  1.00  0.00     0.164 HD
HETATM    6  H19 UNL     1      -3.002  -2.210   0.868  1.00  0.00     0.170 HD
ENDROOT
BRANCH   1   7
HETATM    7  C3  UNL     1      -0.361   0.604  -0.306  1.00  0.00     0.108 C 
BRANCH   7   8
HETATM    8  C2  UNL     1       0.440   1.166   0.851  1.00  0.00     0.025 C 
HETATM    9  C1  UNL     1       1.289   2.298   0.368  1.00  0.00     0.007 C 
ENDBRANCH   7   8
BRANCH   7  10
HETATM   10  C4  UNL     1       0.464   0.085  -1.410  1.00  0.00    -0.004 C 
HETATM   11  C5  UNL     1       1.719  -0.296  -1.597  1.00  0.00    -0.002 C 
BRANCH  11  12
HETATM   12  C6  UNL     1       2.990  -0.436  -0.893  1.00  0.00     0.204 C 
BRANCH  12  13
HETATM   13  O1  UNL     1       4.045   0.352  -1.466  1.00  0.00    -0.331 OA
BRANCH  13  14
HETATM   14  C7  UNL     1       5.278   0.225  -0.797  1.00  0.00     0.162 A 
HETATM   15  C8  UNL     1       6.445   0.565  -1.371  1.00  0.00     0.071 A 
HETATM   16  C9  UNL     1       7.561   0.311  -0.399  1.00  0.00     0.287 A 
HETATM   17  C11 UNL     1       6.805  -0.212   0.763  1.00  0.00     0.132 A 
HETATM   18  N2  UNL     1       5.546  -0.256   0.535  1.00  0.00    -0.239 NA
BRANCH  16  19
HETATM   19  N1  UNL     1       8.466  -0.703  -0.914  1.00  0.00     0.092 N 
HETATM   20  C10 UNL     1       9.506  -0.890   0.074  1.00  0.00     0.308 C 
HETATM   21  H13 UNL     1       8.860  -0.289  -1.808  1.00  0.00     0.316 HD
ENDBRANCH  16  19
ENDBRANCH  13  14
ENDBRANCH  12  13
ENDBRANCH  11  12
ENDBRANCH   7  10
ENDBRANCH   1   7
BRANCH   4  22
HETATM   22  C13 UNL     1      -4.926  -1.351   0.575  1.00  0.00     0.037 A 
HETATM   23  C14 UNL     1      -5.582  -2.471   1.034  1.00  0.00     0.032 A 
HETATM   24  C15 UNL     1      -6.956  -2.540   1.094  1.00  0.00     0.045 A 
HETATM   25  C16 UNL     1      -7.751  -1.493   0.698  1.00  0.00     0.128 A 
HETATM   26  F1  UNL     1      -9.096  -1.632   0.785  1.00  0.00    -0.205 F 
HETATM   27  C17 UNL     1      -7.123  -0.358   0.234  1.00  0.00     0.053 A 
HETATM   28  C20 UNL     1      -5.750  -0.322   0.188  1.00  0.00     0.046 A 
BRANCH  27  29
HETATM   29  C18 UNL     1      -7.950   0.797  -0.203  1.00  0.00     0.270 C 
HETATM   30  C19 UNL     1      -7.052   1.936  -0.675  1.00  0.00     0.096 C 
HETATM   31  F2  UNL     1      -8.878   0.455  -1.137  1.00  0.00    -0.201 F 
HETATM   32  F3  UNL     1      -8.617   1.230   0.940  1.00  0.00    -0.201 F 
ENDBRANCH  27  29
ENDBRANCH   4  22
TORSDOF 9
