REMARK  8 active torsions:
REMARK  status: ('A' for Active; 'I' for Inactive)
REMARK    1  A    between atoms: B1_1  and  C1_2 
REMARK    2  A    between atoms: C1_2  and  C2_5 
REMARK    3  A    between atoms: C3_7  and  C4_8 
REMARK    4  A    between atoms: C4_8  and  N1_9 
REMARK       I    between atoms: N1_9  and  C5_10 
REMARK       I    between atoms: C5_10  and  N2_12 
REMARK    5  A    between atoms: N2_12  and  C6_13 
REMARK    6  A    between atoms: C9_16  and  O2_17 
REMARK    7  A    between atoms: O2_17  and  C10_18 
REMARK    8  A    between atoms: C12_20  and  N3_21 
ROOT
HETATM    1  C6  UNL     1       0.256  -0.523  -0.838  1.00  0.00     0.036 A 
HETATM    2  C7  UNL     1      -0.384   0.702  -0.990  1.00  0.00     0.032 A 
HETATM    3  C8  UNL     1      -1.722   0.682  -0.626  1.00  0.00     0.039 A 
HETATM    4  C9  UNL     1      -2.380  -0.433  -0.155  1.00  0.00     0.078 A 
HETATM    5  C15 UNL     1      -1.682  -1.617  -0.028  1.00  0.00     0.039 A 
HETATM    6  C16 UNL     1      -0.332  -1.672  -0.375  1.00  0.00     0.032 A 
ENDROOT
BRANCH   1   7
HETATM    7  N2  UNL     1       1.645  -0.534  -1.205  1.00  0.00    -0.309 N 
HETATM    8  C5  UNL     1       2.726  -0.217  -0.323  1.00  0.00     0.320 C 
HETATM    9  N1  UNL     1       4.078  -0.250  -0.751  1.00  0.00    -0.339 N 
HETATM   10  O1  UNL     1       2.443   0.102   0.881  1.00  0.00    -0.247 OA
HETATM   11  H6  UNL     1       4.216  -0.533  -1.745  1.00  0.00     0.164 HD
HETATM   12  H7  UNL     1       1.860  -0.799  -2.188  1.00  0.00     0.170 HD
BRANCH   9  13
HETATM   13  C4  UNL     1       4.961   0.140   0.346  1.00  0.00     0.154 C 
BRANCH  13  14
HETATM   14  C3  UNL     1       6.358   0.075  -0.181  1.00  0.00     0.036 C 
HETATM   15  C2  UNL     1       7.373  -0.657   0.281  1.00  0.00     0.150 C 
HETATM   16  F3  UNL     1       7.017  -1.355   1.376  1.00  0.00    -0.206 F 
BRANCH  15  17
HETATM   17  C1  UNL     1       8.674  -0.522  -0.449  1.00  0.00     0.246 C 
HETATM   18  F1  UNL     1       8.424  -0.176  -1.749  1.00  0.00    -0.213 F 
HETATM   19  F2  UNL     1       9.396  -1.708  -0.405  1.00  0.00    -0.213 F 
BRANCH  17  20
HETATM   20  B1  UNL     1       9.492   0.622   0.328  1.00  0.00     0.237 B 
HETATM   21  H1  UNL     1       9.180   1.732  -0.034  1.00  0.00    -0.025 HD
HETATM   22  H2  UNL     1       9.492   0.533   1.520  1.00  0.00    -0.025 HD
ENDBRANCH  17  20
ENDBRANCH  15  17
ENDBRANCH  13  14
ENDBRANCH   9  13
ENDBRANCH   1   7
BRANCH   4  23
HETATM   23  O2  UNL     1      -3.686  -0.587   0.235  1.00  0.00    -0.292 OA
BRANCH  23  24
HETATM   24  C10 UNL     1      -4.641   0.401   0.189  1.00  0.00     0.174 A 
HETATM   25  C11 UNL     1      -5.857  -0.089   0.672  1.00  0.00     0.108 A 
HETATM   26  C12 UNL     1      -6.976   0.744   0.719  1.00  0.00     0.128 A 
HETATM   27  N4  UNL     1      -6.869   2.016   0.299  1.00  0.00    -0.225 NA
HETATM   28  C14 UNL     1      -5.713   2.479  -0.158  1.00  0.00     0.238 A 
HETATM   29  N5  UNL     1      -4.646   1.681  -0.204  1.00  0.00    -0.217 NA
BRANCH  26  30
HETATM   30  N3  UNL     1      -8.248   0.307   1.217  1.00  0.00    -0.379 N 
HETATM   31  C13 UNL     1      -8.930  -0.533   0.223  1.00  0.00     0.147 C 
HETATM   32  H11 UNL     1      -8.675   0.534   2.159  1.00  0.00     0.160 HD
ENDBRANCH  26  30
ENDBRANCH  23  24
ENDBRANCH   4  23
TORSDOF 8
