REMARK  1 active torsions:
REMARK  status: ('A' for Active; 'I' for Inactive)
REMARK    1  A    between atoms: N2_12  and  C9_13 
ROOT
HETATM    1  C1  UNL     1       1.918  -3.465   0.644  1.00  0.00     0.055 C 
HETATM    2  C2  UNL     1       1.990  -1.983   0.383  1.00  0.00     0.176 C 
HETATM    3  N1  UNL     1       3.118  -1.657  -0.502  1.00  0.00    -0.378 N 
HETATM    4  C3  UNL     1       3.119  -0.237  -0.600  1.00  0.00     0.085 C 
HETATM    5  C4  UNL     1       3.773   0.907  -0.515  1.00  0.00     0.015 C 
HETATM    6  C5  UNL     1       3.792   2.352  -0.608  1.00  0.00    -0.014 C 
HETATM    7  C6  UNL     1       2.809   3.156  -0.902  1.00  0.00    -0.082 C 
HETATM    8  B1  UNL     1       1.135   2.553  -1.267  1.00  0.00     0.195 B 
HETATM    9  C7  UNL     1      -0.156   3.184  -0.181  1.00  0.00    -0.080 C 
HETATM   10  C8  UNL     1      -1.562   2.742  -0.406  1.00  0.00     0.206 C 
HETATM   11  O1  UNL     1      -1.917   2.040   0.770  1.00  0.00    -0.298 OA
HETATM   12  N2  UNL     1      -2.989   1.236   0.556  1.00  0.00    -0.153 NA
HETATM   13  C10 UNL     1      -2.512   0.035  -0.099  1.00  0.00     0.188 C 
HETATM   14  C11 UNL     1      -3.362  -1.132   0.115  1.00  0.00     0.003 C 
HETATM   15  C12 UNL     1      -2.942  -2.211  -0.568  1.00  0.00     0.000 C 
HETATM   16  C13 UNL     1      -1.491  -2.421  -0.777  1.00  0.00     0.033 C 
HETATM   17  C14 UNL     1      -0.648  -1.531  -0.276  1.00  0.00     0.078 C 
HETATM   18  N3  UNL     1       0.764  -1.622  -0.319  1.00  0.00    -0.366 N 
HETATM   19  C15 UNL     1      -1.139  -0.330   0.398  1.00  0.00     0.199 C 
HETATM   20  O2  UNL     1      -0.495   0.302   1.272  1.00  0.00    -0.289 OA
HETATM   21  H5  UNL     1       3.940  -1.597  -1.135  1.00  0.00     0.161 HD
HETATM   22  H19 UNL     1       0.790  -1.271  -1.294  1.00  0.00     0.162 HD
ENDROOT
BRANCH  12  23
HETATM   23  C9  UNL     1      -3.694   0.972   1.791  1.00  0.00     0.343 C 
HETATM   24  F1  UNL     1      -4.109   2.203   2.290  1.00  0.00    -0.237 F 
ENDBRANCH  12  23
TORSDOF 1
