REMARK  8 active torsions:
REMARK  status: ('A' for Active; 'I' for Inactive)
REMARK    1  A    between atoms: O1_2  and  C2_3 
REMARK    2  A    between atoms: C2_3  and  C3_4 
REMARK    3  A    between atoms: C6_7  and  O2_8 
REMARK    4  A    between atoms: O2_8  and  C7_9 
REMARK    5  A    between atoms: C11_14  and  O3_15 
REMARK    6  A    between atoms: C17_22  and  N2_23 
REMARK       I    between atoms: N2_23  and  C18_24 
REMARK       I    between atoms: C18_24  and  N3_26 
REMARK    7  A    between atoms: N3_26  and  C19_27 
REMARK    8  A    between atoms: C19_27  and  C21_29 
ROOT
HETATM    1  C3  UNL     1      -0.217   3.158   2.226  1.00  0.00    -0.027 A 
HETATM    2  C4  UNL     1       0.885   3.880   1.950  1.00  0.00     0.010 A 
HETATM    3  C5  UNL     1       1.792   3.028   1.159  1.00  0.00     0.036 A 
HETATM    4  C6  UNL     1       1.193   1.842   1.001  1.00  0.00     0.080 A 
HETATM    5  C17 UNL     1      -0.117   1.802   1.648  1.00  0.00     0.175 A 
ENDROOT
BRANCH   4   6
HETATM    6  O2  UNL     1       2.060   1.081   0.266  1.00  0.00    -0.312 OA
BRANCH   6   7
HETATM    7  C7  UNL     1       1.993  -0.294   0.100  1.00  0.00     0.085 A 
HETATM    8  C8  UNL     1       1.510  -1.263   0.863  1.00  0.00     0.057 A 
HETATM    9  C9  UNL     1       1.567  -2.657   0.439  1.00  0.00     0.114 A 
HETATM   10  N1  UNL     1       2.078  -3.011  -0.674  1.00  0.00    -0.285 NA
HETATM   11  C10 UNL     1       2.660  -2.123  -1.659  1.00  0.00     0.201 A 
HETATM   12  C11 UNL     1       4.044  -2.556  -1.919  1.00  0.00     0.097 C 
HETATM   13  C16 UNL     1       2.586  -0.714  -1.189  1.00  0.00     0.005 A 
HETATM   14  C13 UNL     1       4.802  -1.990  -2.834  1.00  0.00     0.169 C 
HETATM   15  O4  UNL     1       4.348  -0.941  -3.619  1.00  0.00    -0.357 OA
HETATM   16  C14 UNL     1       3.746   0.281  -3.293  1.00  0.00     0.202 C 
HETATM   17  C15 UNL     1       3.079   0.259  -1.957  1.00  0.00     0.012 C 
BRANCH  12  18
HETATM   18  O3  UNL     1       4.539  -3.604  -1.156  1.00  0.00    -0.356 OA
HETATM   19  C12 UNL     1       5.903  -3.964  -1.265  1.00  0.00     0.209 C 
ENDBRANCH  12  18
ENDBRANCH   6   7
ENDBRANCH   4   6
BRANCH   5  20
HETATM   20  N2  UNL     1      -1.234   1.450   0.819  1.00  0.00    -0.329 N 
HETATM   21  C18 UNL     1      -2.188   0.420   0.945  1.00  0.00     0.317 C 
HETATM   22  O5  UNL     1      -1.995  -0.286   1.965  1.00  0.00    -0.247 OA
HETATM   23  N3  UNL     1      -3.207   0.294  -0.034  1.00  0.00    -0.333 N 
HETATM   24  H20 UNL     1      -3.248   0.958  -0.838  1.00  0.00     0.165 HD
HETATM   25  H19 UNL     1      -1.227   2.152   0.025  1.00  0.00     0.165 HD
BRANCH  23  26
HETATM   26  C19 UNL     1      -4.181  -0.769   0.108  1.00  0.00     0.141 C 
HETATM   27  C20 UNL     1      -5.592  -0.259   0.163  1.00  0.00     0.039 C 
BRANCH  26  28
HETATM   28  C21 UNL     1      -4.083  -1.733  -1.014  1.00  0.00     0.097 A 
HETATM   29  N4  UNL     1      -4.073  -2.954  -1.182  1.00  0.00    -0.256 NA
HETATM   30  C22 UNL     1      -3.963  -3.472  -2.410  1.00  0.00     0.124 A 
HETATM   31  C23 UNL     1      -3.856  -2.650  -3.546  1.00  0.00     0.071 A 
HETATM   32  S1  UNL     1      -3.928  -0.961  -2.678  1.00  0.00    -0.083 SA
ENDBRANCH  26  28
ENDBRANCH  23  26
ENDBRANCH   5  20
BRANCH   1  33
HETATM   33  C2  UNL     1      -1.487   3.384   2.957  1.00  0.00     0.204 C 
BRANCH  33  34
HETATM   34  O1  UNL     1      -1.553   4.669   3.490  1.00  0.00    -0.392 OA
HETATM   35  C1  UNL     1      -2.766   4.861   4.181  1.00  0.00     0.201 C 
ENDBRANCH  33  34
ENDBRANCH   1  33
TORSDOF 8
