REMARK  5 active torsions:
REMARK  status: ('A' for Active; 'I' for Inactive)
REMARK    1  A    between atoms: O1_2  and  C2_3 
REMARK    2  A    between atoms: C5_8  and  C7_10 
REMARK    3  A    between atoms: C7_10  and  N2_11 
REMARK       I    between atoms: N2_11  and  C8_12 
REMARK    4  A    between atoms: C8_12  and  C9_14 
REMARK    5  A    between atoms: C19_26  and  O4_27 
ROOT
HETATM    1  C9  UNL     1       1.312  -0.289   0.922  1.00  0.00     0.133 C 
HETATM    2  C10 UNL     1       2.102  -1.168  -0.016  1.00  0.00    -0.001 C 
HETATM    3  C11 UNL     1       3.316  -1.448  -0.471  1.00  0.00    -0.052 C 
HETATM    4  C12 UNL     1       3.513  -2.504  -1.475  1.00  0.00     0.049 C 
HETATM    5  C13 UNL     1       4.589  -0.806  -0.089  1.00  0.00    -0.001 A 
HETATM    6  C14 UNL     1       5.543  -1.737  -0.331  1.00  0.00     0.056 A 
HETATM    7  C15 UNL     1       6.870  -1.402  -0.058  1.00  0.00     0.117 A 
HETATM    8  F1  UNL     1       7.833  -2.322  -0.295  1.00  0.00    -0.206 F 
HETATM    9  C16 UNL     1       7.176  -0.138   0.449  1.00  0.00     0.044 A 
HETATM   10  C17 UNL     1       6.223   0.830   0.705  1.00  0.00     0.033 A 
HETATM   11  C18 UNL     1       4.951   0.451   0.422  1.00  0.00     0.045 A 
HETATM   12  N3  UNL     1       4.168   1.614   0.770  1.00  0.00    -0.336 N 
HETATM   13  C19 UNL     1       2.747   1.864   0.728  1.00  0.00     0.143 C 
HETATM   14  C20 UNL     1       1.646   1.133   0.786  1.00  0.00    -0.016 C 
HETATM   15  C21 UNL     1       0.410   1.945   0.690  1.00  0.00     0.049 C 
HETATM   16  H24 UNL     1       4.673   2.438   1.115  1.00  0.00     0.168 HD
ENDROOT
BRANCH   1  17
HETATM   17  C8  UNL     1      -0.117  -0.585   0.855  1.00  0.00     0.229 C 
HETATM   18  N2  UNL     1      -0.925  -0.484  -0.310  1.00  0.00    -0.359 N 
HETATM   19  H15 UNL     1      -0.289  -0.159  -1.113  1.00  0.00     0.162 HD
HETATM   20  O3  UNL     1      -0.733  -0.965   1.888  1.00  0.00    -0.272 OA
BRANCH  18  21
HETATM   21  C7  UNL     1      -2.293  -0.699  -0.633  1.00  0.00     0.138 C 
BRANCH  21  22
HETATM   22  C5  UNL     1      -3.317   0.126   0.043  1.00  0.00     0.048 C 
HETATM   23  C2  UNL     1      -4.678  -0.333  -0.525  1.00  0.00     0.272 C 
HETATM   24  O2  UNL     1      -4.995   0.448  -1.633  1.00  0.00    -0.331 OA
HETATM   25  C3  UNL     1      -5.494   1.659  -1.104  1.00  0.00     0.440 C 
HETATM   26  N1  UNL     1      -4.512   2.241  -0.194  1.00  0.00     0.107 N 
HETATM   27  C4  UNL     1      -3.217   1.586  -0.333  1.00  0.00     0.288 C 
HETATM   28  H7  UNL     1      -4.851   2.227   0.789  1.00  0.00     0.318 HD
HETATM   29  C6  UNL     1      -3.440   0.019   1.518  1.00  0.00     0.024 C 
BRANCH  23  30
HETATM   30  O1  UNL     1      -4.673  -1.690  -0.774  1.00  0.00    -0.365 OA
HETATM   31  C1  UNL     1      -5.682  -2.234   0.034  1.00  0.00     0.204 C 
ENDBRANCH  23  30
ENDBRANCH  21  22
ENDBRANCH  18  21
ENDBRANCH   1  17
BRANCH  13  32
HETATM   32  O4  UNL     1       2.430   3.229   0.589  1.00  0.00    -0.346 OA
HETATM   33  H25 UNL     1       2.980   3.885   1.152  1.00  0.00     0.219 HD
ENDBRANCH  13  32
TORSDOF 5
