REMARK  6 active torsions:
REMARK  status: ('A' for Active; 'I' for Inactive)
REMARK    1  A    between atoms: N1_2  and  C3_4 
REMARK    2  A    between atoms: C3_4  and  C4_5 
REMARK    3  A    between atoms: C5_6  and  C6_7 
REMARK       I    between atoms: C6_7  and  N2_9 
REMARK    4  A    between atoms: N2_9  and  C7_10 
REMARK    5  A    between atoms: C14_19  and  O2_20 
REMARK    6  A    between atoms: O2_20  and  C15_21 
ROOT
HETATM    1  C7  UNL     1      -1.271   1.468  -0.129  1.00  0.00     0.069 A 
HETATM    2  C8  UNL     1      -1.325   2.772   0.360  1.00  0.00     0.047 A 
HETATM    3  C9  UNL     1      -2.531   3.414   0.590  1.00  0.00     0.013 A 
HETATM    4  C10 UNL     1      -2.627   4.701   1.072  1.00  0.00     0.132 A 
HETATM    5  N3  UNL     1      -3.815   5.296   1.284  1.00  0.00    -0.253 NA
HETATM    6  C11 UNL     1      -4.939   4.597   1.011  1.00  0.00     0.233 A 
HETATM    7  N4  UNL     1      -4.849   3.339   0.540  1.00  0.00    -0.241 NA
HETATM    8  C12 UNL     1      -3.675   2.720   0.319  1.00  0.00     0.072 A 
HETATM    9  C13 UNL     1      -3.649   1.427  -0.167  1.00  0.00     0.071 A 
HETATM   10  C14 UNL     1      -2.447   0.770  -0.402  1.00  0.00     0.098 A 
ENDROOT
BRANCH   1  11
HETATM   11  N2  UNL     1       0.036   0.937  -0.316  1.00  0.00    -0.321 N 
HETATM   12  C6  UNL     1       0.905   0.218   0.525  1.00  0.00     0.245 C 
HETATM   13  O1  UNL     1       0.704  -0.142   1.714  1.00  0.00    -0.268 OA
HETATM   14  H11 UNL     1       0.293   1.190  -1.294  1.00  0.00     0.169 HD
BRANCH  12  15
HETATM   15  C5  UNL     1       2.191  -0.156  -0.053  1.00  0.00     0.072 C 
HETATM   16  C4  UNL     1       3.033  -0.834   0.714  1.00  0.00     0.008 C 
BRANCH  16  17
HETATM   17  C3  UNL     1       4.379  -1.266   0.220  1.00  0.00     0.299 C 
BRANCH  17  18
HETATM   18  N1  UNL     1       5.441  -0.681   1.051  1.00  0.00     0.083 N 
HETATM   19  C1  UNL     1       6.747  -1.103   0.568  1.00  0.00     0.309 C 
HETATM   20  C2  UNL     1       5.259  -1.115   2.415  1.00  0.00     0.309 C 
ENDBRANCH  17  18
ENDBRANCH  16  17
ENDBRANCH  12  15
ENDBRANCH   1  11
BRANCH  10  21
HETATM   21  O2  UNL     1      -2.274  -0.493  -0.874  1.00  0.00    -0.341 OA
BRANCH  21  22
HETATM   22  C15 UNL     1      -3.149  -1.472  -1.250  1.00  0.00     0.154 C 
HETATM   23  C16 UNL     1      -3.049  -1.913  -2.688  1.00  0.00     0.061 C 
HETATM   24  C17 UNL     1      -1.999  -3.001  -2.543  1.00  0.00     0.170 C 
HETATM   25  O3  UNL     1      -2.361  -3.657  -1.387  1.00  0.00    -0.389 OA
HETATM   26  C18 UNL     1      -3.029  -2.788  -0.548  1.00  0.00     0.200 C 
ENDBRANCH  21  22
ENDBRANCH  10  21
TORSDOF 6
