REMARK  5 active torsions:
REMARK  status: ('A' for Active; 'I' for Inactive)
REMARK    1  A    between atoms: N1_2  and  C3_4 
REMARK    2  A    between atoms: C3_4  and  C4_5 
REMARK    3  A    between atoms: C5_6  and  C6_7 
REMARK       I    between atoms: C6_7  and  N2_9 
REMARK    4  A    between atoms: C8_11  and  O2_12 
REMARK    5  A    between atoms: O2_12  and  C9_13 
ROOT
HETATM    1  C6  UNL     1      -0.426   1.153   0.592  1.00  0.00     0.263 C 
HETATM    2  O1  UNL     1       0.484   1.923   0.218  1.00  0.00    -0.267 OA
HETATM    3  N2  UNL     1       0.131  -0.036   1.126  1.00  0.00    -0.228 N 
HETATM    4  C7  UNL     1       1.577   0.016   1.063  1.00  0.00     0.219 C 
HETATM    5  C8  UNL     1       2.095  -0.857  -0.026  1.00  0.00     0.068 C 
HETATM    6  C12 UNL     1       1.996  -2.169  -0.262  1.00  0.00     0.053 C 
HETATM    7  C13 UNL     1       1.334  -3.280   0.458  1.00  0.00     0.120 C 
HETATM    8  N3  UNL     1       0.275  -3.331   1.210  1.00  0.00    -0.252 NA
HETATM    9  C14 UNL     1      -0.674  -2.336   1.643  1.00  0.00     0.254 C 
HETATM   10  N4  UNL     1      -0.744  -1.040   1.617  1.00  0.00    -0.162 NA
ENDROOT
BRANCH   1  11
HETATM   11  C5  UNL     1      -1.832   1.484   0.469  1.00  0.00     0.074 C 
HETATM   12  C4  UNL     1      -2.942   0.846   0.786  1.00  0.00     0.008 C 
BRANCH  12  13
HETATM   13  C3  UNL     1      -4.345   1.284   0.614  1.00  0.00     0.299 C 
BRANCH  13  14
HETATM   14  N1  UNL     1      -5.089   0.362  -0.248  1.00  0.00     0.083 N 
HETATM   15  C1  UNL     1      -4.605   0.424  -1.612  1.00  0.00     0.309 C 
HETATM   16  C2  UNL     1      -4.960  -0.993   0.250  1.00  0.00     0.309 C 
ENDBRANCH  13  14
ENDBRANCH  12  13
ENDBRANCH   1  11
BRANCH   5  17
HETATM   17  O2  UNL     1       2.835  -0.335  -1.050  1.00  0.00    -0.347 OA
BRANCH  17  18
HETATM   18  C9  UNL     1       3.626   0.809  -1.046  1.00  0.00     0.143 C 
HETATM   19  C10 UNL     1       4.205   0.950  -2.461  1.00  0.00     0.014 C 
HETATM   20  B1  UNL     1       5.458   1.873  -2.145  1.00  0.00     0.313 B 
HETATM   21  O3  UNL     1       5.794   1.613  -0.769  1.00  0.00    -0.454 OA
HETATM   22  H16 UNL     1       5.624   2.913  -2.683  1.00  0.00     0.008 HD
HETATM   23  C11 UNL     1       4.903   0.692  -0.258  1.00  0.00     0.174 C 
ENDBRANCH  17  18
ENDBRANCH   5  17
TORSDOF 5
