REMARK  3 active torsions:
REMARK  status: ('A' for Active; 'I' for Inactive)
REMARK    1  A    between atoms: C6_9  and  N3_10 
REMARK    2  A    between atoms: C15_21  and  O2_22 
REMARK    3  A    between atoms: O2_22  and  C16_23 
ROOT
HETATM    1  C1  UNL     1      -3.361  -3.596  -0.280  1.00  0.00     0.310 C 
HETATM    2  N1  UNL     1      -2.342  -2.609  -0.337  1.00  0.00     0.093 N 
HETATM    3  C2  UNL     1      -1.452  -2.754   0.821  1.00  0.00     0.300 C 
HETATM    4  C3  UNL     1      -0.611  -3.916   0.713  1.00  0.00     0.008 C 
HETATM    5  C4  UNL     1       0.669  -3.579   0.578  1.00  0.00     0.072 C 
HETATM    6  C5  UNL     1       1.704  -2.518   0.473  1.00  0.00     0.246 C 
HETATM    7  O1  UNL     1       2.938  -2.282   0.358  1.00  0.00    -0.268 OA
HETATM    8  N2  UNL     1       1.757  -1.054   0.436  1.00  0.00    -0.309 N 
HETATM    9  C6  UNL     1       1.853   0.350   0.395  1.00  0.00     0.119 C 
HETATM   10  C12 UNL     1       0.926   1.330   0.457  1.00  0.00     0.022 C 
HETATM   11  C13 UNL     1       0.147   1.151  -0.647  1.00  0.00     0.018 C 
HETATM   12  C14 UNL     1      -0.536  -0.135  -0.674  1.00  0.00     0.035 C 
HETATM   13  C15 UNL     1      -1.830  -0.262  -0.387  1.00  0.00     0.075 C 
HETATM   14  C20 UNL     1      -2.946  -1.280  -0.245  1.00  0.00     0.336 C 
HETATM   15  H8  UNL     1       0.834  -1.017   0.819  1.00  0.00     0.170 HD
ENDROOT
BRANCH   9  16
HETATM   16  N3  UNL     1       3.258   0.353   0.267  1.00  0.00    -0.332 N 
HETATM   17  C7  UNL     1       4.296   0.037   1.212  1.00  0.00     0.156 C 
HETATM   18  C8  UNL     1       5.056   1.301   1.539  1.00  0.00     0.012 C 
HETATM   19  C9  UNL     1       5.379   1.957   0.433  1.00  0.00     0.014 C 
HETATM   20 CL1  UNL     1       6.270   3.446   0.738  1.00  0.00    -0.089 Cl
HETATM   21  C10 UNL     1       5.046   1.523  -0.947  1.00  0.00     0.110 C 
HETATM   22  C11 UNL     1       3.768   0.744  -1.027  1.00  0.00     0.278 C 
HETATM   23  F1  UNL     1       3.970  -0.394  -1.780  1.00  0.00    -0.226 F 
ENDBRANCH   9  16
BRANCH  13  24
HETATM   24  O2  UNL     1      -1.682   1.100  -0.241  1.00  0.00    -0.346 OA
BRANCH  24  25
HETATM   25  C16 UNL     1      -2.670   1.959  -0.724  1.00  0.00     0.154 C 
HETATM   26  C17 UNL     1      -2.365   3.418  -0.437  1.00  0.00     0.061 C 
HETATM   27  C18 UNL     1      -3.753   3.961  -0.288  1.00  0.00     0.170 C 
HETATM   28  O3  UNL     1      -4.543   2.954   0.233  1.00  0.00    -0.389 OA
HETATM   29  C19 UNL     1      -3.936   1.743   0.031  1.00  0.00     0.200 C 
ENDBRANCH  24  25
ENDBRANCH  13  24
TORSDOF 3
