REMARK  6 active torsions:
REMARK  status: ('A' for Active; 'I' for Inactive)
REMARK    1  A    between atoms: N1_2  and  C3_4 
REMARK    2  A    between atoms: C3_4  and  C4_5 
REMARK    3  A    between atoms: C5_6  and  C6_7 
REMARK       I    between atoms: C6_7  and  N2_9 
REMARK    4  A    between atoms: N2_9  and  C7_10 
REMARK    5  A    between atoms: C12_16  and  O2_17 
REMARK    6  A    between atoms: O2_17  and  C13_18 
ROOT
HETATM    1  C7  UNL     1      -0.952  -1.339   0.214  1.00  0.00     0.064 A 
HETATM    2  C8  UNL     1      -0.603  -2.413   0.892  1.00  0.00     0.007 A 
HETATM    3  C9  UNL     1      -1.225  -3.585   1.558  1.00  0.00     0.049 A 
HETATM    4  C10 UNL     1      -2.706  -3.497   1.387  1.00  0.00     0.086 A 
HETATM    5 BR1  UNL     1      -3.304  -5.103   0.450  1.00  0.00    -0.087 Br
HETATM    6  C11 UNL     1      -3.092  -2.285   0.622  1.00  0.00     0.028 A 
HETATM    7  C12 UNL     1      -2.405  -1.300   0.077  1.00  0.00     0.093 A 
ENDROOT
BRANCH   1   8
HETATM    8  N2  UNL     1      -0.161  -0.332  -0.338  1.00  0.00    -0.321 N 
HETATM    9  C6  UNL     1       1.235  -0.155  -0.340  1.00  0.00     0.245 C 
HETATM   10  O1  UNL     1       1.935  -1.021   0.239  1.00  0.00    -0.268 OA
HETATM   11  H11 UNL     1      -0.669   0.429  -0.840  1.00  0.00     0.169 HD
BRANCH   9  12
HETATM   12  C5  UNL     1       1.875   0.983  -0.983  1.00  0.00     0.072 C 
HETATM   13  C4  UNL     1       3.178   1.170  -0.998  1.00  0.00     0.008 C 
BRANCH  13  14
HETATM   14  C3  UNL     1       4.395   0.503  -0.501  1.00  0.00     0.299 C 
BRANCH  14  15
HETATM   15  N1  UNL     1       5.127   1.369   0.406  1.00  0.00     0.083 N 
HETATM   16  C1  UNL     1       6.336   0.699   0.897  1.00  0.00     0.309 C 
HETATM   17  C2  UNL     1       5.615   2.493  -0.400  1.00  0.00     0.309 C 
ENDBRANCH  14  15
ENDBRANCH  13  14
ENDBRANCH   9  12
ENDBRANCH   1   8
BRANCH   7  18
HETATM   18  O2  UNL     1      -3.083  -0.291  -0.588  1.00  0.00    -0.342 OA
BRANCH  18  19
HETATM   19  C13 UNL     1      -3.361   0.982  -0.097  1.00  0.00     0.154 C 
HETATM   20  C14 UNL     1      -4.131   1.829  -1.117  1.00  0.00     0.061 C 
HETATM   21  C15 UNL     1      -5.541   1.376  -0.858  1.00  0.00     0.170 C 
HETATM   22  O3  UNL     1      -5.625   0.844   0.394  1.00  0.00    -0.389 OA
HETATM   23  C16 UNL     1      -4.399   0.910   1.006  1.00  0.00     0.200 C 
ENDBRANCH  18  19
ENDBRANCH   7  18
TORSDOF 6
