REMARK  4 active torsions:
REMARK  status: ('A' for Active; 'I' for Inactive)
REMARK    1  A    between atoms: C4_5  and  N1_6 
REMARK    2  A    between atoms: N1_6  and  C5_7 
REMARK    3  A    between atoms: C5_7  and  S1_8 
REMARK    4  A    between atoms: C14_20  and  C15_21 
ROOT
HETATM    1  F1  UNL     1      -3.026   1.577  -1.327  1.00  0.00    -0.206 F 
HETATM    2  C1  UNL     1      -2.337   0.519  -0.784  1.00  0.00     0.124 A 
HETATM    3  C2  UNL     1      -1.040   0.252  -1.149  1.00  0.00     0.060 A 
HETATM    4  C3  UNL     1      -0.314  -0.778  -0.644  1.00  0.00     0.041 A 
HETATM    5  C4  UNL     1       0.984  -1.045  -1.010  1.00  0.00     0.138 A 
HETATM    6  N2  UNL     1       1.576  -2.095  -0.429  1.00  0.00    -0.224 NA
HETATM    7  C11 UNL     1       0.966  -2.875   0.472  1.00  0.00     0.235 A 
HETATM    8  N3  UNL     1      -0.321  -2.629   0.849  1.00  0.00    -0.241 NA
HETATM    9  C12 UNL     1      -0.951  -1.571   0.279  1.00  0.00     0.072 A 
HETATM   10  C13 UNL     1      -2.251  -1.318   0.657  1.00  0.00     0.043 A 
HETATM   11  C14 UNL     1      -3.000  -0.278   0.154  1.00  0.00    -0.011 A 
ENDROOT
BRANCH   5  12
HETATM   12  N1  UNL     1       1.656  -0.256  -1.971  1.00  0.00    -0.365 N 
HETATM   13  H2  UNL     1       1.187   0.548  -2.437  1.00  0.00     0.162 HD
BRANCH  12  14
HETATM   14  C5  UNL     1       3.001  -0.348  -2.489  1.00  0.00     0.194 C 
BRANCH  14  15
HETATM   15  S1  UNL     1       4.283   0.114  -1.327  1.00  0.00    -0.153 SA
HETATM   16  C6  UNL     1       5.304   1.373  -1.661  1.00  0.00     0.040 A 
HETATM   17  C7  UNL     1       6.296   1.636  -0.628  1.00  0.00     0.008 A 
HETATM   18  C8  UNL     1       6.439   0.976   0.509  1.00  0.00     0.024 A 
HETATM   19  C9  UNL     1       5.616  -0.149   0.937  1.00  0.00     0.039 A 
HETATM   20 CL1  UNL     1       5.971  -0.899   2.502  1.00  0.00    -0.084 Cl
HETATM   21  C10 UNL     1       4.601  -0.675   0.242  1.00  0.00     0.064 A 
ENDBRANCH  14  15
ENDBRANCH  12  14
ENDBRANCH   5  12
BRANCH  11  22
HETATM   22  C15 UNL     1      -4.379   0.052   0.505  1.00  0.00     0.047 C 
HETATM   23  C16 UNL     1      -4.493   1.020   1.686  1.00  0.00     0.038 C 
HETATM   24  C17 UNL     1      -5.965   0.794   2.012  1.00  0.00     0.168 C 
HETATM   25  O1  UNL     1      -6.269  -0.513   1.730  1.00  0.00    -0.390 OA
HETATM   26  C18 UNL     1      -5.208  -1.073   1.025  1.00  0.00     0.177 C 
ENDBRANCH  11  22
TORSDOF 4
