REMARK  6 active torsions:
REMARK  status: ('A' for Active; 'I' for Inactive)
REMARK    1  A    between atoms: C1_2  and  C2_3 
REMARK    2  A    between atoms: C2_3  and  C3_4 
REMARK    3  A    between atoms: C4_5  and  O2_6 
REMARK    4  A    between atoms: O2_6  and  C5_7 
REMARK    5  A    between atoms: C12_16  and  N2_17 
REMARK    6  A    between atoms: N2_17  and  C13_18 
ROOT
HETATM    1  C3  UNL     1       0.589  -0.345   0.693  1.00  0.00     0.086 A 
HETATM    2  C4  UNL     1       1.807  -0.574  -0.089  1.00  0.00     0.058 A 
HETATM    3  C9  UNL     1       1.589  -1.379  -1.117  1.00  0.00     0.064 A 
HETATM    4  C10 UNL     1       0.202  -1.823  -1.197  1.00  0.00     0.062 A 
HETATM    5  N1  UNL     1      -0.677  -2.525  -1.827  1.00  0.00    -0.283 NA
HETATM    6  C11 UNL     1      -1.964  -2.431  -1.203  1.00  0.00     0.207 A 
HETATM    7  C12 UNL     1      -1.717  -1.518  -0.038  1.00  0.00     0.039 A 
HETATM    8  C19 UNL     1      -0.423  -1.156  -0.036  1.00  0.00     0.005 A 
ENDROOT
BRANCH   7   9
HETATM    9  N2  UNL     1      -2.721  -1.133   0.887  1.00  0.00    -0.358 N 
HETATM   10  H15 UNL     1      -2.485  -1.581   1.797  1.00  0.00     0.166 HD
BRANCH   9  11
HETATM   11  C13 UNL     1      -3.864  -0.307   0.718  1.00  0.00     0.034 A 
HETATM   12  C14 UNL     1      -4.170   0.289  -0.486  1.00  0.00     0.032 A 
HETATM   13  C15 UNL     1      -5.309   1.078  -0.558  1.00  0.00     0.046 A 
HETATM   14  C16 UNL     1      -6.139   1.285   0.528  1.00  0.00     0.138 A 
HETATM   15  F1  UNL     1      -7.251   2.035   0.524  1.00  0.00    -0.204 F 
HETATM   16  C17 UNL     1      -5.787   0.667   1.706  1.00  0.00     0.074 A 
HETATM   17 CL1  UNL     1      -6.784   0.877   3.131  1.00  0.00    -0.081 Cl
HETATM   18  C18 UNL     1      -4.671  -0.119   1.816  1.00  0.00     0.056 A 
ENDBRANCH   9  11
ENDBRANCH   7   9
BRANCH   1  19
HETATM   19  C2  UNL     1       0.189   1.096   0.818  1.00  0.00     0.085 C 
BRANCH  19  20
HETATM   20  C1  UNL     1      -0.077   1.748  -0.481  1.00  0.00     0.232 C 
HETATM   21  O1  UNL     1       0.870   2.082  -1.176  1.00  0.00    -0.307 OA
ENDBRANCH  19  20
ENDBRANCH   1  19
BRANCH   2  22
HETATM   22  O2  UNL     1       2.926   0.068   0.368  1.00  0.00    -0.347 OA
BRANCH  22  23
HETATM   23  C5  UNL     1       3.971   0.620  -0.362  1.00  0.00     0.154 C 
HETATM   24  C6  UNL     1       5.018   1.252   0.561  1.00  0.00     0.061 C 
HETATM   25  C7  UNL     1       6.223   0.390   0.183  1.00  0.00     0.170 C 
HETATM   26  O3  UNL     1       6.034   0.191  -1.204  1.00  0.00    -0.389 OA
HETATM   27  C8  UNL     1       4.748  -0.338  -1.199  1.00  0.00     0.200 C 
ENDBRANCH  22  23
ENDBRANCH   2  22
TORSDOF 6
