REMARK  5 active torsions:
REMARK  status: ('A' for Active; 'I' for Inactive)
REMARK    1  A    between atoms: C6_7  and  C7_8 
REMARK    2  A    between atoms: C10_13  and  N2_14 
REMARK       I    between atoms: N2_14  and  C11_15 
REMARK    3  A    between atoms: C11_15  and  C12_17 
REMARK    4  A    between atoms: C13_18  and  C14_19 
REMARK    5  A    between atoms: C14_19  and  N3_20 
ROOT
HETATM    1  C7  UNL     1      -3.267  -0.453   2.555  1.00  0.00    -0.010 C 
HETATM    2  C8  UNL     1      -3.901  -0.375   3.717  1.00  0.00     0.084 C 
HETATM    3  S1  UNL     1      -4.858   0.718   4.141  1.00  0.00     0.024 SA
HETATM    4  N1  UNL     1      -5.654   1.616   4.512  1.00  0.00    -0.104 N 
ENDROOT
BRANCH   1   5
HETATM    5  C6  UNL     1      -2.861   0.003   1.345  1.00  0.00    -0.034 C 
HETATM    6  C5  UNL     1      -3.672  -0.405   0.205  1.00  0.00     0.074 C 
HETATM    7  C2  UNL     1      -3.443  -1.117  -1.084  1.00  0.00     0.137 C 
HETATM    8  C4  UNL     1      -3.661   0.988  -0.469  1.00  0.00     0.024 C 
HETATM    9  C1  UNL     1      -4.662  -1.016  -1.932  1.00  0.00     0.041 C 
HETATM   10  O1  UNL     1      -2.560   0.007  -1.795  1.00  0.00    -0.343 OA
HETATM   11  C3  UNL     1      -2.336   0.597  -0.468  1.00  0.00     0.093 C 
HETATM   12  C10 UNL     1      -1.033   0.501   0.288  1.00  0.00     0.069 C 
HETATM   13  C9  UNL     1      -1.613   0.997   1.416  1.00  0.00     0.041 C 
BRANCH  12  14
HETATM   14  N2  UNL     1       0.259   0.173  -0.041  1.00  0.00    -0.321 N 
HETATM   15  C11 UNL     1       0.778   0.936  -1.125  1.00  0.00     0.245 C 
HETATM   16  O2  UNL     1      -0.113   1.733  -1.506  1.00  0.00    -0.268 OA
HETATM   17  H9  UNL     1       0.809  -0.546   0.423  1.00  0.00     0.169 HD
BRANCH  15  18
HETATM   18  C12 UNL     1       2.112   0.806  -1.686  1.00  0.00     0.072 C 
HETATM   19  C13 UNL     1       3.166   0.077  -1.462  1.00  0.00     0.008 C 
BRANCH  19  20
HETATM   20  C14 UNL     1       3.699  -0.987  -0.608  1.00  0.00     0.299 C 
BRANCH  20  21
HETATM   21  N3  UNL     1       4.872  -0.473   0.092  1.00  0.00     0.083 N 
HETATM   22  C15 UNL     1       5.467  -1.466   0.964  1.00  0.00     0.309 C 
HETATM   23  C16 UNL     1       5.823   0.115  -0.808  1.00  0.00     0.309 C 
ENDBRANCH  20  21
ENDBRANCH  19  20
ENDBRANCH  15  18
ENDBRANCH  12  14
ENDBRANCH   1   5
TORSDOF 5
