REMARK  0 active torsions:
REMARK  status: ('A' for Active; 'I' for Inactive)
ROOT
HETATM    1  C1  UNL     1       1.049   0.668   1.622  1.00  0.00     0.123 C 
HETATM    2  N1  UNL     1      -0.159   1.006   1.235  1.00  0.00    -0.250 NA
HETATM    3  C2  UNL     1      -1.269   0.123   1.472  1.00  0.00     0.140 A 
HETATM    4  N2  UNL     1      -2.270  -0.581   1.823  1.00  0.00    -0.172 NA
HETATM    5  C3  UNL     1      -3.146  -0.822   0.690  1.00  0.00     0.238 A 
HETATM    6  N3  UNL     1      -2.459  -1.972   0.141  1.00  0.00    -0.341 N 
HETATM    7  C4  UNL     1      -1.569  -0.917   0.402  1.00  0.00     0.199 A 
HETATM    8  C5  UNL     1      -0.810  -0.624  -0.615  1.00  0.00     0.007 C 
HETATM    9  C6  UNL     1      -1.920   0.200  -1.224  1.00  0.00     0.051 C 
HETATM   10  C7  UNL     1      -3.039   0.191  -0.422  1.00  0.00     0.119 C 
HETATM   11  O1  UNL     1      -4.234   0.891  -0.293  1.00  0.00    -0.324 OA
HETATM   12  C8  UNL     1      -5.198   0.009   0.304  1.00  0.00     0.349 C 
HETATM   13  O2  UNL     1      -4.447  -0.939   0.996  1.00  0.00    -0.318 OA
HETATM   14  C9  UNL     1       0.165  -0.409  -1.627  1.00  0.00    -0.023 A 
HETATM   15  C10 UNL     1       0.460  -0.205  -2.909  1.00  0.00     0.012 A 
HETATM   16  C11 UNL     1       1.787   0.210  -3.069  1.00  0.00     0.003 A 
HETATM   17  C12 UNL     1       2.741   0.414  -2.093  1.00  0.00     0.031 A 
HETATM   18  C13 UNL     1       2.523   0.230  -0.756  1.00  0.00     0.055 A 
HETATM   19  C14 UNL     1       1.237  -0.158  -0.862  1.00  0.00     0.043 A 
HETATM   20  N4  UNL     1       3.149   0.448   0.479  1.00  0.00    -0.256 N 
HETATM   21  N5  UNL     1       4.448   0.004   0.502  1.00  0.00    -0.183 NA
HETATM   22  C15 UNL     1       4.857  -0.115   1.753  1.00  0.00     0.143 C 
HETATM   23  P1  UNL     1       3.503   0.367   2.957  1.00  0.00    -0.053 P 
HETATM   24  C16 UNL     1       2.438   1.118   1.635  1.00  0.00     0.181 C 
HETATM   25  H2  UNL     1      -3.100  -2.720  -0.043  1.00  0.00     0.160 HD
HETATM   26  H11 UNL     1       2.845  -0.793   3.478  1.00  0.00     0.065 HD
ENDROOT
TORSDOF 0
