REMARK  7 active torsions:
REMARK  status: ('A' for Active; 'I' for Inactive)
REMARK    1  A    between atoms: C2_2  and  O1_3 
REMARK    2  A    between atoms: C2_2  and  C3_4 
REMARK    3  A    between atoms: C5_6  and  C6_7 
REMARK    4  A    between atoms: C7_9  and  N1_10 
REMARK    5  A    between atoms: N1_10  and  C8_11 
REMARK    6  A    between atoms: C14_19  and  C15_20 
REMARK    7  A    between atoms: C15_20  and  O2_21 
ROOT
HETATM    1  C8  UNL     1       1.153  -0.877  -0.095  1.00  0.00     0.062 A 
HETATM    2  C9  UNL     1       0.743  -2.095  -0.409  1.00  0.00     0.088 A 
HETATM    3  C10 UNL     1      -0.634  -2.393  -0.635  1.00  0.00     0.103 C 
HETATM    4  N2  UNL     1      -1.739  -2.615  -0.806  1.00  0.00    -0.191 NA
HETATM    5  C11 UNL     1       1.764  -3.129  -0.515  1.00  0.00     0.135 A 
HETATM    6  N3  UNL     1       3.037  -3.065  -0.352  1.00  0.00    -0.295 NA
HETATM    7  C12 UNL     1       3.635  -1.805  -0.006  1.00  0.00     0.189 A 
HETATM    8  C13 UNL     1       2.598  -0.781   0.095  1.00  0.00    -0.012 A 
HETATM    9  C14 UNL     1       3.134   0.401   0.416  1.00  0.00     0.010 C 
ENDROOT
BRANCH   1  10
HETATM   10  N1  UNL     1       0.272   0.202   0.038  1.00  0.00    -0.363 N 
HETATM   11  H9  UNL     1       0.148   0.649  -0.915  1.00  0.00     0.165 HD
BRANCH  10  12
HETATM   12  C7  UNL     1      -0.376   0.676   1.184  1.00  0.00     0.112 C 
HETATM   13  C6  UNL     1      -1.688   0.839   1.237  1.00  0.00     0.050 C 
HETATM   14 CL1  UNL     1      -2.165   1.449   2.806  1.00  0.00    -0.083 Cl
BRANCH  13  15
HETATM   15  C5  UNL     1      -2.521   0.527   0.089  1.00  0.00     0.034 C 
HETATM   16  C3  UNL     1      -3.831   0.634   0.014  1.00  0.00    -0.028 C 
HETATM   17  C4  UNL     1      -4.487   0.252  -1.287  1.00  0.00     0.051 C 
BRANCH  16  18
HETATM   18  C2  UNL     1      -4.673   1.094   1.103  1.00  0.00     0.062 C 
HETATM   19  C1  UNL     1      -5.993   1.146   0.855  1.00  0.00     0.051 C 
BRANCH  18  20
HETATM   20  O1  UNL     1      -5.168   1.557   2.305  1.00  0.00    -0.361 OA
HETATM   21  H3  UNL     1      -5.074   1.034   3.184  1.00  0.00     0.217 HD
ENDBRANCH  18  20
ENDBRANCH  16  18
ENDBRANCH  13  15
ENDBRANCH  10  12
ENDBRANCH   1  10
BRANCH   9  22
HETATM   22  C15 UNL     1       4.535   0.780   0.663  1.00  0.00     0.195 C 
BRANCH  22  23
HETATM   23  O2  UNL     1       5.018   1.760  -0.203  1.00  0.00    -0.392 OA
HETATM   24  C16 UNL     1       4.963   1.342  -1.532  1.00  0.00     0.201 C 
ENDBRANCH  22  23
ENDBRANCH   9  22
TORSDOF 7
