REMARK  4 active torsions:
REMARK  status: ('A' for Active; 'I' for Inactive)
REMARK    1  A    between atoms: C2_2  and  C3_4 
REMARK    2  A    between atoms: C6_8  and  C7_9 
REMARK    3  A    between atoms: C12_15  and  O3_16 
REMARK    4  A    between atoms: C13_17  and  O4_18 
ROOT
HETATM    1  C3  UNL     1       3.137  -0.571   0.342  1.00  0.00     0.025 C 
HETATM    2  C4  UNL     1       2.258  -0.720   1.345  1.00  0.00     0.147 C 
HETATM    3  O2  UNL     1       1.231  -1.647   1.067  1.00  0.00    -0.351 OA
HETATM    4  C5  UNL     1       1.172  -1.587  -0.371  1.00  0.00     0.178 C 
HETATM    5  C6  UNL     1       0.359  -0.384  -0.715  1.00  0.00    -0.011 C 
HETATM    6  C13 UNL     1       0.482   0.348  -1.774  1.00  0.00     0.056 C 
HETATM    7  C14 UNL     1       1.447   0.124  -2.826  1.00  0.00    -0.049 C 
HETATM    8  B1  UNL     1       2.995  -1.111  -2.302  1.00  0.00     0.212 B 
HETATM    9  C15 UNL     1       2.624  -1.502  -0.693  1.00  0.00     0.065 C 
HETATM   10 CL1  UNL     1       3.316  -3.101  -0.320  1.00  0.00    -0.123 Cl
ENDROOT
BRANCH   5  11
HETATM   11  C7  UNL     1      -0.677   0.030   0.224  1.00  0.00     0.052 C 
HETATM   12  C8  UNL     1      -1.312   1.340   0.180  1.00  0.00     0.031 C 
HETATM   13  C9  UNL     1      -2.660   1.501  -0.427  1.00  0.00     0.117 C 
HETATM   14  N1  UNL     1      -3.570   0.408  -0.233  1.00  0.00    -0.414 N 
HETATM   15  C10 UNL     1      -4.536   0.540   0.784  1.00  0.00     0.143 C 
HETATM   16  C11 UNL     1      -2.964  -0.874  -0.407  1.00  0.00     0.148 C 
HETATM   17  C12 UNL     1      -1.750  -1.023   0.465  1.00  0.00     0.144 C 
BRANCH  17  18
HETATM   18  O3  UNL     1      -1.305  -2.323   0.303  1.00  0.00    -0.393 OA
HETATM   19  H17 UNL     1      -2.054  -2.908   0.094  1.00  0.00     0.210 HD
ENDBRANCH  17  18
ENDBRANCH   5  11
BRANCH   6  20
HETATM   20  O4  UNL     1      -0.147   1.452  -2.250  1.00  0.00    -0.362 OA
HETATM   21  H18 UNL     1       0.175   2.384  -2.358  1.00  0.00     0.217 HD
ENDBRANCH   6  20
BRANCH   1  22
HETATM   22  C2  UNL     1       4.310   0.297   0.290  1.00  0.00     0.154 C 
HETATM   23  C1  UNL     1       4.629   1.145   1.455  1.00  0.00     0.096 C 
HETATM   24  O1  UNL     1       4.998   0.275  -0.762  1.00  0.00    -0.293 OA
ENDBRANCH   1  22
TORSDOF 4
