REMARK  4 active torsions:
REMARK  status: ('A' for Active; 'I' for Inactive)
REMARK    1  A    between atoms: O1_2  and  C2_3 
REMARK    2  A    between atoms: C5_6  and  N1_7 
REMARK    3  A    between atoms: N1_7  and  C6_8 
REMARK    4  A    between atoms: C8_10  and  O2_11 
ROOT
HETATM    1  C2  UNL     1      -3.283   0.360   0.689  1.00  0.00     0.075 A 
HETATM    2  C3  UNL     1      -1.958   0.321   0.321  1.00  0.00     0.053 A 
HETATM    3  C4  UNL     1      -1.599  -0.232  -0.888  1.00  0.00     0.024 A 
HETATM    4  C5  UNL     1      -0.245  -0.208  -1.146  1.00  0.00     0.068 A 
HETATM    5  C13 UNL     1       0.160  -0.753  -2.369  1.00  0.00     0.089 A 
HETATM    6  C14 UNL     1       1.549  -0.803  -2.793  1.00  0.00     0.103 C 
HETATM    7  N2  UNL     1       2.638  -0.852  -3.130  1.00  0.00    -0.191 NA
HETATM    8  C15 UNL     1      -0.758  -1.292  -3.278  1.00  0.00     0.142 A 
HETATM    9  N3  UNL     1      -2.049  -1.268  -2.932  1.00  0.00    -0.259 NA
HETATM   10  C16 UNL     1      -2.503  -0.763  -1.781  1.00  0.00     0.069 A 
HETATM   11  C17 UNL     1      -3.840  -0.727  -1.417  1.00  0.00     0.042 A 
HETATM   12  C18 UNL     1      -4.208  -0.170  -0.196  1.00  0.00    -0.026 A 
HETATM   13  C19 UNL     1      -5.648  -0.143   0.171  1.00  0.00     0.051 C 
ENDROOT
BRANCH   4  14
HETATM   14  N1  UNL     1       0.815   0.256  -0.365  1.00  0.00    -0.353 N 
HETATM   15  H5  UNL     1       0.644   1.278  -0.564  1.00  0.00     0.166 HD
BRANCH  14  16
HETATM   16  C6  UNL     1       1.866  -0.150   0.467  1.00  0.00     0.057 A 
HETATM   17  C7  UNL     1       3.067   0.322  -0.081  1.00  0.00     0.069 A 
HETATM   18  C8  UNL     1       4.299   0.066   0.530  1.00  0.00     0.092 A 
HETATM   19  C10 UNL     1       4.266  -0.672   1.693  1.00  0.00     0.069 A 
HETATM   20 CL1  UNL     1       5.761  -1.045   2.530  1.00  0.00    -0.081 Cl
HETATM   21  C11 UNL     1       3.116  -1.159   2.273  1.00  0.00     0.052 A 
HETATM   22  C12 UNL     1       1.933  -0.879   1.631  1.00  0.00     0.062 A 
HETATM   23 CL2  UNL     1       0.387  -1.422   2.213  1.00  0.00    -0.082 Cl
BRANCH  18  24
HETATM   24  O2  UNL     1       5.525   0.497   0.050  1.00  0.00    -0.354 OA
HETATM   25  C9  UNL     1       5.671   1.251  -1.119  1.00  0.00     0.210 C 
ENDBRANCH  18  24
ENDBRANCH  14  16
ENDBRANCH   4  14
BRANCH   1  26
HETATM   26  O1  UNL     1      -3.732   0.888   1.868  1.00  0.00    -0.355 OA
HETATM   27  C1  UNL     1      -2.918   1.459   2.861  1.00  0.00     0.210 C 
ENDBRANCH   1  26
TORSDOF 4
