REMARK  5 active torsions:
REMARK  status: ('A' for Active; 'I' for Inactive)
REMARK    1  A    between atoms: C3_4  and  C4_5 
REMARK    2  A    between atoms: C11_14  and  C12_15 
REMARK    3  A    between atoms: C16_20  and  O3_21 
REMARK    4  A    between atoms: C17_22  and  O4_23 
REMARK    5  A    between atoms: C19_25  and  O5_26 
ROOT
HETATM    1  O1  UNL     1       2.464  -4.092   0.675  1.00  0.00    -0.287 OA
HETATM    2  C1  UNL     1       1.956  -2.960   0.470  1.00  0.00     0.190 A 
HETATM    3  C2  UNL     1       2.714  -1.881   0.096  1.00  0.00     0.094 A 
HETATM    4  C3  UNL     1       2.269  -0.621  -0.150  1.00  0.00     0.091 A 
HETATM    5  O2  UNL     1       0.975  -0.516   0.010  1.00  0.00    -0.308 OA
HETATM    6  C10 UNL     1       0.179  -1.494   0.364  1.00  0.00     0.102 A 
HETATM    7  C11 UNL     1      -1.181  -1.176   0.481  1.00  0.00     0.017 A 
HETATM    8  C17 UNL     1      -2.007  -2.217   0.855  1.00  0.00     0.077 A 
HETATM    9  C18 UNL     1      -1.584  -3.504   1.110  1.00  0.00     0.074 A 
HETATM   10  C19 UNL     1      -0.243  -3.807   0.993  1.00  0.00     0.085 A 
HETATM   11  C20 UNL     1       0.597  -2.781   0.620  1.00  0.00     0.082 A 
ENDROOT
BRANCH   7  12
HETATM   12  C12 UNL     1      -1.659   0.167   0.222  1.00  0.00     0.056 C 
HETATM   13  C13 UNL     1      -2.034   0.457  -1.211  1.00  0.00     0.031 C 
HETATM   14  C14 UNL     1      -2.361   1.898  -1.400  1.00  0.00     0.114 C 
HETATM   15  N1  UNL     1      -2.538   2.719  -0.293  1.00  0.00    -0.419 N 
HETATM   16  C15 UNL     1      -2.673   2.196   1.013  1.00  0.00     0.146 C 
HETATM   17  H11 UNL     1      -2.031   3.627  -0.278  1.00  0.00     0.153 HD
HETATM   18  C16 UNL     1      -2.787   0.675   1.057  1.00  0.00     0.144 C 
BRANCH  18  19
HETATM   19  O3  UNL     1      -4.058   0.429   0.534  1.00  0.00    -0.393 OA
HETATM   20  H15 UNL     1      -4.341   1.120  -0.113  1.00  0.00     0.210 HD
ENDBRANCH  18  19
ENDBRANCH   7  12
BRANCH   8  21
HETATM   21  O4  UNL     1      -3.374  -2.042   1.008  1.00  0.00    -0.360 OA
HETATM   22  H16 UNL     1      -3.743  -2.104   1.951  1.00  0.00     0.217 HD
ENDBRANCH   8  21
BRANCH   4  23
HETATM   23  C4  UNL     1       2.981   0.570  -0.545  1.00  0.00     0.020 A 
HETATM   24  C5  UNL     1       2.251   1.723  -0.736  1.00  0.00     0.016 A 
HETATM   25  C6  UNL     1       2.797   2.923  -1.110  1.00  0.00     0.001 A 
HETATM   26  C7  UNL     1       4.151   3.039  -1.320  1.00  0.00     0.002 A 
HETATM   27  C8  UNL     1       4.909   1.929  -1.144  1.00  0.00     0.025 A 
HETATM   28  C9  UNL     1       4.318   0.757  -0.771  1.00  0.00     0.047 A 
HETATM   29 CL1  UNL     1       5.405  -0.590  -0.577  1.00  0.00    -0.083 Cl
ENDBRANCH   4  23
BRANCH  10  30
HETATM   30  O5  UNL     1       0.336  -5.049   1.215  1.00  0.00    -0.360 OA
HETATM   31  H18 UNL     1       0.744  -5.183   2.135  1.00  0.00     0.217 HD
ENDBRANCH  10  30
TORSDOF 5
