REMARK  1 active torsions:
REMARK  status: ('A' for Active; 'I' for Inactive)
REMARK    1  A    between atoms: C3_4  and  O1_5 
ROOT
HETATM    1  C1  UNL     1       0.423   0.142   2.092  1.00  0.00     0.144 C 
HETATM    2  N1  UNL     1      -0.271   0.368   0.711  1.00  0.00    -0.400 N 
HETATM    3  C2  UNL     1      -1.543   1.150   1.356  1.00  0.00     0.149 C 
HETATM    4  C3  UNL     1      -2.620   0.278   0.801  1.00  0.00     0.136 C 
HETATM    5  C4  UNL     1      -2.935  -0.074  -0.545  1.00  0.00     0.044 C 
HETATM    6  C5  UNL     1      -1.976  -0.280  -1.709  1.00  0.00    -0.023 A 
HETATM    7  C6  UNL     1      -2.586   0.223  -2.927  1.00  0.00     0.016 C 
HETATM    8  C7  UNL     1      -0.644  -0.446  -1.539  1.00  0.00     0.009 A 
HETATM    9  C8  UNL     1      -0.870   0.777  -2.642  1.00  0.00     0.011 A 
HETATM   10  C9  UNL     1      -0.871   1.024  -1.317  1.00  0.00     0.038 A 
HETATM   11  C10 UNL     1       0.251  -0.163  -0.890  1.00  0.00     0.071 A 
HETATM   12  C11 UNL     1       0.997  -1.020  -0.114  1.00  0.00    -0.007 A 
HETATM   13  C12 UNL     1       2.294  -0.507   0.271  1.00  0.00    -0.005 A 
HETATM   14  C13 UNL     1       2.771   0.745   0.465  1.00  0.00     0.014 A 
HETATM   15  C14 UNL     1       4.072   0.787   0.804  1.00  0.00     0.001 A 
HETATM   16  C15 UNL     1       4.825  -0.341   0.933  1.00  0.00     0.002 A 
HETATM   17  C16 UNL     1       4.391  -1.610   0.749  1.00  0.00     0.024 A 
HETATM   18  C17 UNL     1       3.034  -1.693   0.394  1.00  0.00     0.044 A 
HETATM   19 CL1  UNL     1       2.443  -3.344   0.138  1.00  0.00    -0.083 Cl
HETATM   20  O2  UNL     1      -0.321  -1.517  -0.518  1.00  0.00     0.000 OA
ENDROOT
BRANCH   4  21
HETATM   21  O1  UNL     1      -2.417  -0.972   1.500  1.00  0.00    -0.394 OA
HETATM   22  H7  UNL     1      -2.717  -0.917   2.419  1.00  0.00     0.210 HD
ENDBRANCH   4  21
TORSDOF 1
