REMARK  5 active torsions:
REMARK  status: ('A' for Active; 'I' for Inactive)
REMARK    1  A    between atoms: C2_2  and  C3_3 
REMARK    2  A    between atoms: C17_19  and  O1_20 
REMARK    3  A    between atoms: O1_20  and  O2_21 
REMARK    4  A    between atoms: C19_23  and  O3_24 
REMARK    5  A    between atoms: C21_26  and  O4_27 
ROOT
HETATM    1  C1  UNL     1       1.755   0.515  -3.573  1.00  0.00     0.052 C 
HETATM    2  C2  UNL     1       1.691   0.439  -2.080  1.00  0.00     0.096 C 
HETATM    3  C9  UNL     1       0.801   1.483  -1.451  1.00  0.00     0.087 C 
HETATM    4  C10 UNL     1       0.299   0.732  -0.212  1.00  0.00     0.008 C 
HETATM    5  C11 UNL     1       0.414  -0.592  -0.479  1.00  0.00     0.057 C 
HETATM    6  C12 UNL     1       0.073  -1.826   0.357  1.00  0.00     0.072 C 
HETATM    7  C13 UNL     1      -1.393  -1.696   0.492  1.00  0.00     0.024 C 
HETATM    8  C14 UNL     1      -2.024  -1.179  -0.789  1.00  0.00     0.027 C 
HETATM    9  C15 UNL     1      -3.292  -0.463  -0.345  1.00  0.00     0.123 C 
HETATM   10  N1  UNL     1      -3.422  -0.677   1.109  1.00  0.00    -0.385 N 
HETATM   11  C16 UNL     1      -3.351   0.435   1.987  1.00  0.00     0.125 C 
HETATM   12  C17 UNL     1      -2.512   1.389   2.247  1.00  0.00     0.124 C 
HETATM   13  C18 UNL     1      -1.213   1.742   1.699  1.00  0.00     0.078 C 
HETATM   14  C19 UNL     1      -0.166   1.621   0.898  1.00  0.00     0.077 C 
HETATM   15  C20 UNL     1      -3.578  -2.139   1.309  1.00  0.00     0.154 C 
HETATM   16  C21 UNL     1      -2.249  -2.851   0.905  1.00  0.00     0.140 C 
HETATM   17  O5  UNL     1       0.938  -0.739  -1.749  1.00  0.00    -0.339 OA
ENDROOT
BRANCH   2  18
HETATM   18  C3  UNL     1       3.035   0.405  -1.457  1.00  0.00    -0.002 A 
HETATM   19  C4  UNL     1       3.477  -0.637  -0.667  1.00  0.00     0.012 A 
HETATM   20  C5  UNL     1       4.714  -0.714  -0.067  1.00  0.00     0.001 A 
HETATM   21  C6  UNL     1       5.597   0.327  -0.262  1.00  0.00     0.002 A 
HETATM   22  C7  UNL     1       5.217   1.399  -1.042  1.00  0.00     0.024 A 
HETATM   23  C8  UNL     1       3.967   1.435  -1.624  1.00  0.00     0.043 A 
HETATM   24 CL1  UNL     1       3.524   2.815  -2.608  1.00  0.00    -0.084 Cl
ENDBRANCH   2  18
BRANCH  14  25
HETATM   25  O3  UNL     1       0.840   2.615   1.141  1.00  0.00    -0.360 OA
HETATM   26  H20 UNL     1       1.185   2.578   2.104  1.00  0.00     0.217 HD
ENDBRANCH  14  25
BRANCH  12  27
HETATM   27  O1  UNL     1      -3.157   2.094   3.251  1.00  0.00    -0.199 OA
BRANCH  27  28
HETATM   28  O2  UNL     1      -3.851   3.168   2.860  1.00  0.00    -0.245 OA
HETATM   29  H18 UNL     1      -3.614   3.979   3.365  1.00  0.00     0.254 HD
ENDBRANCH  27  28
ENDBRANCH  12  27
BRANCH  16  30
HETATM   30  O4  UNL     1      -1.746  -3.577   1.977  1.00  0.00    -0.394 OA
HETATM   31  H24 UNL     1      -1.155  -3.045   2.542  1.00  0.00     0.210 HD
ENDBRANCH  16  30
TORSDOF 5
