REMARK  0 active torsions:
REMARK  status: ('A' for Active; 'I' for Inactive)
ROOT
HETATM    1  C1  UNL     1       4.109  -1.069  -2.498  1.00  0.00     0.011 C 
HETATM    2  C2  UNL     1       3.367  -0.236  -1.609  1.00  0.00     0.035 A 
HETATM    3  C3  UNL     1       2.797   0.663  -0.881  1.00  0.00    -0.020 A 
HETATM    4  C4  UNL     1       2.147  -0.539  -0.436  1.00  0.00     0.056 A 
HETATM    5  C5  UNL     1       1.703  -1.750  -0.185  1.00  0.00     0.088 C 
HETATM    6  O1  UNL     1       2.292  -2.794  -0.854  1.00  0.00    -0.327 OA
HETATM    7  C6  UNL     1       1.450  -3.943  -0.653  1.00  0.00     0.351 C 
HETATM    8  O2  UNL     1       0.810  -3.562   0.535  1.00  0.00    -0.323 OA
HETATM    9  C7  UNL     1       0.733  -2.197   0.691  1.00  0.00     0.111 C 
HETATM   10  C8  UNL     1      -0.189  -1.902   1.532  1.00  0.00     0.046 A 
HETATM   11  C9  UNL     1      -1.263  -1.896   2.525  1.00  0.00     0.190 A 
HETATM   12  N1  UNL     1      -2.318  -1.188   2.245  1.00  0.00    -0.165 NA
HETATM   13  N2  UNL     1      -2.360  -0.540   1.122  1.00  0.00    -0.296 N 
HETATM   14  C10 UNL     1      -1.270  -1.127   1.155  1.00  0.00     0.206 A 
HETATM   15  N3  UNL     1      -1.056  -0.837   0.006  1.00  0.00    -0.237 NA
HETATM   16  C11 UNL     1      -1.401  -0.221  -1.138  1.00  0.00     0.343 C 
HETATM   17  N4  UNL     1      -0.949   0.719  -0.537  1.00  0.00    -0.402 NA
HETATM   18  C12 UNL     1      -0.481   1.827   0.015  1.00  0.00     0.152 C 
HETATM   19  C13 UNL     1      -1.190   2.713   0.660  1.00  0.00     0.077 A 
HETATM   20  C14 UNL     1      -2.252   3.468   1.292  1.00  0.00     0.008 A 
HETATM   21  C15 UNL     1      -2.770   2.380   0.677  1.00  0.00     0.005 A 
HETATM   22  C16 UNL     1      -3.679   1.365   0.151  1.00  0.00     0.027 C 
HETATM   23  C17 UNL     1      -3.560   0.130   1.038  1.00  0.00     0.142 C 
HETATM   24  N5  UNL     1       0.903   1.903  -0.160  1.00  0.00    -0.368 N 
HETATM   25  C18 UNL     1       2.330   1.981  -0.348  1.00  0.00     0.128 C 
HETATM   26  H17 UNL     1       0.961   1.782   0.917  1.00  0.00     0.161 HD
ENDROOT
TORSDOF 0
