REMARK  5 active torsions:
REMARK  status: ('A' for Active; 'I' for Inactive)
REMARK    1  A    between atoms: C4_5  and  C5_6 
REMARK    2  A    between atoms: C6_7  and  O1_8 
REMARK    3  A    between atoms: C8_10  and  O2_11 
REMARK    4  A    between atoms: O2_11  and  O3_12 
REMARK    5  A    between atoms: C18_24  and  O5_25 
ROOT
HETATM    1  C5  UNL     1      -0.203  -0.706  -0.709  1.00  0.00    -0.009 C 
HETATM    2  C6  UNL     1       0.245  -1.648  -1.589  1.00  0.00     0.073 C 
HETATM    3  C7  UNL     1       1.722  -1.723  -1.756  1.00  0.00     0.073 C 
HETATM    4  C8  UNL     1       2.638  -0.918  -1.161  1.00  0.00     0.102 C 
HETATM    5  C9  UNL     1       2.031   0.201  -0.331  1.00  0.00     0.071 C 
HETATM    6  C10 UNL     1       2.623   1.406  -0.808  1.00  0.00     0.045 C 
HETATM    7  C11 UNL     1       3.769   1.215   0.193  1.00  0.00     0.043 A 
HETATM    8  C12 UNL     1       4.539   0.948   1.344  1.00  0.00     0.026 A 
HETATM    9 CL1  UNL     1       6.157   1.488   0.865  1.00  0.00    -0.088 Cl
HETATM   10  C13 UNL     1       4.370   0.429   2.617  1.00  0.00     0.023 A 
HETATM   11  C14 UNL     1       3.058   0.016   2.948  1.00  0.00     0.038 A 
HETATM   12  C15 UNL     1       1.969   0.122   2.027  1.00  0.00     0.074 A 
HETATM   13  C16 UNL     1       2.664   0.683   0.936  1.00  0.00    -0.013 A 
HETATM   14  O4  UNL     1       0.644   0.023   1.535  1.00  0.00    -0.340 OA
HETATM   15  C17 UNL     1       0.852  -0.353   0.204  1.00  0.00     0.180 C 
ENDROOT
BRANCH   1  16
HETATM   16  C4  UNL     1      -1.445  -0.143  -0.191  1.00  0.00     0.052 C 
HETATM   17  C3  UNL     1      -1.552   1.345  -0.423  1.00  0.00     0.042 C 
HETATM   18  C2  UNL     1      -2.975   1.768  -0.303  1.00  0.00     0.272 C 
HETATM   19  N1  UNL     1      -3.656   0.952   0.675  1.00  0.00     0.086 N 
HETATM   20  C1  UNL     1      -4.946   1.453   1.051  1.00  0.00     0.310 C 
HETATM   21  C19 UNL     1      -3.842  -0.385   0.138  1.00  0.00     0.303 C 
HETATM   22  C18 UNL     1      -2.688  -0.771  -0.794  1.00  0.00     0.154 C 
BRANCH  22  23
HETATM   23  O5  UNL     1      -2.634  -2.175  -0.701  1.00  0.00    -0.393 OA
HETATM   24  H18 UNL     1      -3.471  -2.577  -0.388  1.00  0.00     0.210 HD
ENDBRANCH  22  23
ENDBRANCH   1  16
BRANCH   2  25
HETATM   25  O1  UNL     1      -0.624  -2.483  -2.335  1.00  0.00    -0.360 OA
HETATM   26  H9  UNL     1      -1.079  -2.135  -3.162  1.00  0.00     0.217 HD
ENDBRANCH   2  25
BRANCH   4  27
HETATM   27  O2  UNL     1       3.995  -1.081  -1.338  1.00  0.00    -0.203 OA
BRANCH  27  28
HETATM   28  O3  UNL     1       4.749  -2.015  -0.767  1.00  0.00    -0.245 OA
HETATM   29  H11 UNL     1       4.557  -2.855  -1.255  1.00  0.00     0.254 HD
ENDBRANCH  27  28
ENDBRANCH   4  27
TORSDOF 5
