REMARK  2 active torsions:
REMARK  status: ('A' for Active; 'I' for Inactive)
REMARK    1  A    between atoms: C2_2  and  C3_3 
REMARK    2  A    between atoms: C12_15  and  O2_16 
ROOT
HETATM    1  C3  UNL     1       0.148   2.104  -0.334  1.00  0.00    -0.044 C 
HETATM    2  C4  UNL     1       1.143   1.782   0.491  1.00  0.00     0.008 C 
HETATM    3  C5  UNL     1       2.153   0.975   1.093  1.00  0.00     0.026 C 
HETATM    4  C6  UNL     1       2.566  -0.252   0.928  1.00  0.00     0.024 C 
HETATM    5  C7  UNL     1       3.667  -0.841   1.714  1.00  0.00     0.070 C 
HETATM    6  N1  UNL     1       2.309  -1.434   0.187  1.00  0.00    -0.301 N 
HETATM    7  C8  UNL     1       2.969  -2.054  -0.931  1.00  0.00     0.177 C 
HETATM    8  N2  UNL     1       1.273  -2.336   0.442  1.00  0.00    -0.299 N 
HETATM    9  C9  UNL     1       0.038  -2.228  -0.221  1.00  0.00     0.071 C 
HETATM   10  C10 UNL     1      -0.740  -3.251  -0.713  1.00  0.00     0.170 C 
HETATM   11  O1  UNL     1      -1.986  -2.894  -1.357  1.00  0.00    -0.330 OA
HETATM   12  C11 UNL     1      -2.972  -2.199  -0.593  1.00  0.00     0.173 C 
HETATM   13  C12 UNL     1      -3.598  -1.040  -0.290  1.00  0.00     0.072 C 
HETATM   14  C13 UNL     1      -2.975   0.005  -1.157  1.00  0.00     0.147 C 
HETATM   15  C14 UNL     1      -1.926   0.791  -0.518  1.00  0.00     0.166 C 
HETATM   16  O3  UNL     1      -2.300   1.047   0.648  1.00  0.00    -0.294 OA
HETATM   17  C15 UNL     1      -0.542   1.094  -1.557  1.00  0.00     0.220 C 
HETATM   18  O4  UNL     1       0.202   0.097  -1.161  1.00  0.00    -0.368 OA
HETATM   19  C16 UNL     1      -0.424  -0.859  -0.544  1.00  0.00     0.229 C 
HETATM   20  H14 UNL     1       1.292  -3.133   1.080  1.00  0.00     0.187 HD
ENDROOT
BRANCH   1  21
HETATM   21  C2  UNL     1      -0.566   3.421  -0.379  1.00  0.00     0.033 C 
HETATM   22  C1  UNL     1      -0.032   4.385   0.623  1.00  0.00     0.010 C 
ENDBRANCH   1  21
BRANCH  13  23
HETATM   23  O2  UNL     1      -4.613  -0.884   0.641  1.00  0.00    -0.363 OA
HETATM   24  H17 UNL     1      -5.421  -1.509   0.537  1.00  0.00     0.217 HD
ENDBRANCH  13  23
TORSDOF 2
