REMARK  7 active torsions:
REMARK  status: ('A' for Active; 'I' for Inactive)
REMARK    1  A    between atoms: C4_5  and  C5_6 
REMARK    2  A    between atoms: C5_6  and  O1_7 
REMARK    3  A    between atoms: C5_6  and  C6_8 
REMARK    4  A    between atoms: C7_9  and  C8_10 
REMARK    5  A    between atoms: C12_14  and  O2_15 
REMARK    6  A    between atoms: C17_21  and  O4_22 
REMARK    7  A    between atoms: O4_22  and  O5_23 
ROOT
HETATM    1  C6  UNL     1       0.840   0.956  -0.078  1.00  0.00     0.008 C 
HETATM    2  C7  UNL     1       0.314   0.377   0.988  1.00  0.00     0.035 C 
ENDROOT
BRANCH   1   3
HETATM    3  C5  UNL     1       0.140   2.086  -0.726  1.00  0.00     0.147 C 
BRANCH   3   4
HETATM    4  C4  UNL     1      -0.741   1.484  -1.802  1.00  0.00     0.053 C 
HETATM    5  C3  UNL     1      -1.744   0.507  -1.219  1.00  0.00     0.040 C 
HETATM    6  C2  UNL     1      -2.789   0.303  -2.323  1.00  0.00     0.272 C 
HETATM    7  N1  UNL     1      -3.609   1.486  -2.335  1.00  0.00     0.086 N 
HETATM    8  C1  UNL     1      -4.549   1.376  -1.215  1.00  0.00     0.310 C 
HETATM    9  C18 UNL     1      -2.878   2.719  -2.178  1.00  0.00     0.307 C 
HETATM   10  C17 UNL     1      -1.415   2.607  -2.543  1.00  0.00     0.195 C 
BRANCH  10  11
HETATM   11  O4  UNL     1      -1.249   2.401  -3.908  1.00  0.00    -0.236 OA
BRANCH  11  12
HETATM   12  O5  UNL     1      -0.617   3.474  -4.383  1.00  0.00    -0.250 OA
HETATM   13  H21 UNL     1      -1.099   3.805  -5.186  1.00  0.00     0.253 HD
ENDBRANCH  11  12
ENDBRANCH  10  11
ENDBRANCH   3   4
BRANCH   3  14
HETATM   14  O1  UNL     1       1.059   2.988  -1.305  1.00  0.00    -0.391 OA
HETATM   15  H10 UNL     1       1.357   2.575  -2.169  1.00  0.00     0.210 HD
ENDBRANCH   3  14
ENDBRANCH   1   3
BRANCH   2  16
HETATM   16  C8  UNL     1       1.012  -0.737   1.621  1.00  0.00     0.072 A 
HETATM   17  C9  UNL     1       0.514  -1.340   2.688  1.00  0.00     0.015 A 
HETATM   18  C10 UNL     1       1.084  -2.477   3.453  1.00  0.00     0.074 A 
HETATM   19  C11 UNL     1       2.364  -2.858   2.807  1.00  0.00     0.012 A 
HETATM   20  C12 UNL     1       3.099  -3.905   3.335  1.00  0.00     0.075 A 
HETATM   21  C16 UNL     1       2.909  -2.254   1.699  1.00  0.00     0.085 A 
HETATM   22  C13 UNL     1       4.296  -4.325   2.800  1.00  0.00     0.037 A 
HETATM   23  C14 UNL     1       4.791  -3.675   1.683  1.00  0.00     0.005 A 
HETATM   24  C15 UNL     1       4.091  -2.610   1.106  1.00  0.00     0.038 A 
HETATM   25  O3  UNL     1       2.222  -1.201   1.123  1.00  0.00    -0.311 OA
BRANCH  20  26
HETATM   26  O2  UNL     1       2.601  -4.552   4.451  1.00  0.00    -0.360 OA
HETATM   27  H16 UNL     1       2.083  -4.071   5.178  1.00  0.00     0.217 HD
ENDBRANCH  20  26
ENDBRANCH   2  16
TORSDOF 7
