REMARK  4 active torsions:
REMARK  status: ('A' for Active; 'I' for Inactive)
REMARK    1  A    between atoms: C8_9  and  O2_10 
REMARK    2  A    between atoms: C10_12  and  O3_13 
REMARK    3  A    between atoms: C11_14  and  C12_15 
REMARK    4  A    between atoms: C17_21  and  O4_22 
ROOT
HETATM    1  C1  UNL     1      -6.345  -1.023   2.268  1.00  0.00     0.017 C 
HETATM    2  C2  UNL     1      -5.434  -0.883   1.522  1.00  0.00    -0.089 C 
HETATM    3  C3  UNL     1      -4.334  -0.723   0.652  1.00  0.00     0.073 C 
HETATM    4  C4  UNL     1      -3.364   0.203   0.566  1.00  0.00    -0.023 C 
HETATM    5  C5  UNL     1      -2.400  -0.062  -0.542  1.00  0.00     0.215 C 
HETATM    6  O1  UNL     1      -1.061  -0.072  -0.105  1.00  0.00    -0.345 OA
HETATM    7  C6  UNL     1      -0.151   0.815   0.427  1.00  0.00     0.095 A 
HETATM    8  C7  UNL     1      -0.245   1.863   1.303  1.00  0.00     0.077 A 
HETATM    9  C8  UNL     1       0.884   2.580   1.647  1.00  0.00     0.085 A 
HETATM   10  C9  UNL     1       2.108   2.274   1.135  1.00  0.00     0.074 A 
HETATM   11  C10 UNL     1       2.212   1.220   0.252  1.00  0.00     0.077 A 
HETATM   12  C11 UNL     1       1.098   0.476  -0.118  1.00  0.00     0.016 A 
HETATM   13  C18 UNL     1      -1.361   2.462   2.039  1.00  0.00     0.169 C 
HETATM   14  O5  UNL     1      -1.047   3.671   2.335  1.00  0.00    -0.292 OA
HETATM   15  C19 UNL     1      -2.705   2.046   2.509  1.00  0.00     0.118 C 
HETATM   16  C20 UNL     1      -3.485   1.251   1.574  1.00  0.00    -0.063 C 
HETATM   17  C21 UNL     1      -4.764   1.660   1.695  1.00  0.00     0.039 C 
ENDROOT
BRANCH  12  18
HETATM   18  C12 UNL     1       1.234  -0.659  -1.064  1.00  0.00     0.056 C 
HETATM   19  C13 UNL     1       1.647  -1.934  -0.374  1.00  0.00     0.042 C 
HETATM   20  C14 UNL     1       3.112  -2.210  -0.406  1.00  0.00     0.272 C 
HETATM   21  N1  UNL     1       3.757  -1.897  -1.662  1.00  0.00     0.086 N 
HETATM   22  C15 UNL     1       4.525  -3.032  -2.185  1.00  0.00     0.310 C 
HETATM   23  C16 UNL     1       2.808  -1.551  -2.696  1.00  0.00     0.304 C 
HETATM   24  C17 UNL     1       1.957  -0.350  -2.325  1.00  0.00     0.155 C 
BRANCH  24  25
HETATM   25  O4  UNL     1       1.092  -0.159  -3.430  1.00  0.00    -0.393 OA
HETATM   26  H19 UNL     1       0.260  -0.638  -3.195  1.00  0.00     0.210 HD
ENDBRANCH  24  25
ENDBRANCH  12  18
BRANCH   9  27
HETATM   27  O2  UNL     1       0.724   3.623   2.534  1.00  0.00    -0.360 OA
HETATM   28  H5  UNL     1       1.113   4.559   2.421  1.00  0.00     0.217 HD
ENDBRANCH   9  27
BRANCH  11  29
HETATM   29  O3  UNL     1       3.482   0.964  -0.228  1.00  0.00    -0.360 OA
HETATM   30  H7  UNL     1       3.971   1.703  -0.752  1.00  0.00     0.217 HD
ENDBRANCH  11  29
TORSDOF 4
