REMARK  6 active torsions:
REMARK  status: ('A' for Active; 'I' for Inactive)
REMARK    1  A    between atoms: C2_2  and  C3_4 
REMARK    2  A    between atoms: C3_4  and  C4_5 
REMARK    3  A    between atoms: C8_10  and  C9_11 
REMARK    4  A    between atoms: C14_17  and  O3_18 
REMARK    5  A    between atoms: C15_19  and  O4_20 
REMARK    6  A    between atoms: O4_20  and  C16_21 
ROOT
HETATM    1  C4  UNL     1      -1.496  -0.683   0.378  1.00  0.00    -0.046 C 
HETATM    2  C5  UNL     1      -1.613  -1.791  -0.340  1.00  0.00    -0.019 C 
HETATM    3  C6  UNL     1      -1.226  -2.325  -1.659  1.00  0.00     0.054 C 
HETATM    4  C7  UNL     1      -0.789  -1.328  -2.667  1.00  0.00     0.172 C 
HETATM    5  O2  UNL     1      -0.512  -0.086  -2.338  1.00  0.00    -0.382 OA
HETATM    6  C8  UNL     1       0.094   0.390  -1.254  1.00  0.00     0.161 C 
HETATM    7  C15 UNL     1      -0.808   0.531  -0.049  1.00  0.00     0.181 C 
ENDROOT
BRANCH   6   8
HETATM    8  C9  UNL     1       1.506   0.025  -0.968  1.00  0.00     0.050 C 
HETATM    9  C10 UNL     1       1.813  -1.433  -0.779  1.00  0.00     0.040 C 
HETATM   10  C11 UNL     1       3.254  -1.564  -0.362  1.00  0.00     0.272 C 
HETATM   11  N1  UNL     1       4.046  -0.394  -0.657  1.00  0.00     0.086 N 
HETATM   12  C12 UNL     1       5.450  -0.620  -0.615  1.00  0.00     0.310 C 
HETATM   13  C13 UNL     1       3.606   0.762   0.097  1.00  0.00     0.303 C 
HETATM   14  C14 UNL     1       2.093   0.730   0.266  1.00  0.00     0.153 C 
BRANCH  14  15
HETATM   15  O3  UNL     1       1.843  -0.089   1.361  1.00  0.00    -0.393 OA
HETATM   16  H23 UNL     1       2.098   0.305   2.213  1.00  0.00     0.210 HD
ENDBRANCH  14  15
ENDBRANCH   6   8
BRANCH   7  17
HETATM   17  O4  UNL     1      -1.737   1.545  -0.188  1.00  0.00    -0.364 OA
BRANCH  17  18
HETATM   18  C16 UNL     1      -1.600   2.632   0.628  1.00  0.00     0.191 C 
HETATM   19  C17 UNL     1      -1.237   3.774  -0.305  1.00  0.00     0.022 C 
HETATM   20  C18 UNL     1      -2.072   3.921  -1.318  1.00  0.00    -0.027 C 
HETATM   21  C19 UNL     1      -3.360   3.751  -1.084  1.00  0.00     0.013 C 
HETATM   22  C20 UNL     1      -3.797   3.570   0.318  1.00  0.00     0.023 C 
HETATM   23  C21 UNL     1      -2.923   3.013   1.175  1.00  0.00     0.044 C 
HETATM   24 CL1  UNL     1      -3.658   2.902   2.785  1.00  0.00    -0.086 Cl
ENDBRANCH  17  18
ENDBRANCH   7  17
BRANCH   1  25
HETATM   25  C3  UNL     1      -2.072  -0.560   1.746  1.00  0.00     0.114 C 
BRANCH  25  26
HETATM   26  C2  UNL     1      -2.738  -1.857   2.064  1.00  0.00     0.127 C 
HETATM   27  C1  UNL     1      -2.242  -3.040   2.802  1.00  0.00     0.091 C 
HETATM   28  O1  UNL     1      -3.902  -2.065   1.687  1.00  0.00    -0.298 OA
ENDBRANCH  25  26
ENDBRANCH   1  25
TORSDOF 6
