REMARK  4 active torsions:
REMARK  status: ('A' for Active; 'I' for Inactive)
REMARK    1  A    between atoms: C2_2  and  C3_3 
REMARK    2  A    between atoms: C4_4  and  C5_5 
REMARK    3  A    between atoms: C5_5  and  N1_6 
REMARK    4  A    between atoms: C5_5  and  C6_7 
ROOT
HETATM    1  C3  UNL     1      -0.556  -0.879   0.902  1.00  0.00    -0.071 C 
HETATM    2  C4  UNL     1       0.082  -0.351  -0.149  1.00  0.00    -0.017 C 
HETATM    3  C14 UNL     1      -0.267   0.535  -1.221  1.00  0.00     0.026 C 
HETATM    4  C15 UNL     1      -1.316   1.225  -1.709  1.00  0.00     0.083 C 
HETATM    5  N3  UNL     1      -2.545   1.086  -0.977  1.00  0.00    -0.398 N 
HETATM    6  C16 UNL     1      -3.630   1.526  -0.082  1.00  0.00     0.127 C 
HETATM    7  C17 UNL     1      -4.166   0.176   0.478  1.00  0.00    -0.032 C 
HETATM    8  C18 UNL     1      -5.067   0.305   1.619  1.00  0.00     0.016 C 
HETATM    9  C19 UNL     1      -5.028  -0.338  -0.709  1.00  0.00     0.016 C 
HETATM   10  C20 UNL     1      -2.996  -0.773   0.581  1.00  0.00     0.014 C 
HETATM   11  C21 UNL     1      -1.786  -0.083   1.111  1.00  0.00     0.035 C 
HETATM   12  H15 UNL     1      -2.653   0.148  -1.445  1.00  0.00     0.158 HD
ENDROOT
BRANCH   2  13
HETATM   13  C5  UNL     1       1.461  -0.907  -0.425  1.00  0.00     0.286 C 
BRANCH  13  14
HETATM   14  N1  UNL     1       1.406  -1.567  -1.710  1.00  0.00     0.091 N 
HETATM   15  H7  UNL     1       0.490  -1.393  -2.158  1.00  0.00     0.314 HD
HETATM   16  H8  UNL     1       2.146  -1.150  -2.346  1.00  0.00     0.314 HD
ENDBRANCH  13  14
BRANCH  13  17
HETATM   17  C6  UNL     1       2.392   0.271  -0.523  1.00  0.00     0.003 A 
HETATM   18  C7  UNL     1       2.736   1.510  -0.514  1.00  0.00    -0.003 A 
HETATM   19  C8  UNL     1       3.758   0.756  -0.737  1.00  0.00    -0.004 A 
HETATM   20  C9  UNL     1       5.151   0.493  -1.000  1.00  0.00    -0.022 A 
HETATM   21  C10 UNL     1       5.770  -0.699  -0.659  1.00  0.00     0.031 A 
HETATM   22  C13 UNL     1       5.969   1.421  -1.615  1.00  0.00     0.031 A 
HETATM   23  C11 UNL     1       7.112  -0.959  -0.910  1.00  0.00     0.117 A 
HETATM   24  N2  UNL     1       7.853  -0.011  -1.514  1.00  0.00    -0.273 NA
HETATM   25  C12 UNL     1       7.298   1.163  -1.864  1.00  0.00     0.117 A 
ENDBRANCH  13  17
ENDBRANCH   2  13
BRANCH   1  26
HETATM   26  C2  UNL     1      -0.211  -1.923   1.872  1.00  0.00     0.030 C 
HETATM   27  C1  UNL     1      -0.190  -1.333   3.270  1.00  0.00     0.010 C 
ENDBRANCH   1  26
TORSDOF 4
