REMARK  6 active torsions:
REMARK  status: ('A' for Active; 'I' for Inactive)
REMARK    1  A    between atoms: C2_2  and  C3_3 
REMARK    2  A    between atoms: C6_6  and  N1_7 
REMARK    3  A    between atoms: N1_7  and  C7_8 
REMARK    4  A    between atoms: C12_15  and  N4_17 
REMARK    5  A    between atoms: N4_17  and  C14_18 
REMARK    6  A    between atoms: C14_18  and  C15_19 
ROOT
HETATM    1  C3  UNL     1       0.738  -1.781  -0.547  1.00  0.00     0.048 C 
HETATM    2  C4  UNL     1       1.660  -1.502  -1.692  1.00  0.00    -0.021 C 
HETATM    3  C5  UNL     1       2.504  -0.553  -1.316  1.00  0.00    -0.003 C 
HETATM    4  C6  UNL     1       2.312  -0.063   0.050  1.00  0.00     0.139 C 
HETATM    5  C12 UNL     1       0.999  -0.743   0.474  1.00  0.00     0.184 C 
HETATM    6  C13 UNL     1       1.303  -1.356   1.848  1.00  0.00     0.052 C 
ENDROOT
BRANCH   5   7
HETATM    7  N4  UNL     1       0.053   0.307   0.600  1.00  0.00     0.099 NA
HETATM    8  H19 UNL     1       0.011   0.839  -0.292  1.00  0.00     0.317 HD
BRANCH   7   9
HETATM    9  C14 UNL     1      -1.226   0.097   1.127  1.00  0.00     0.298 C 
BRANCH   9  10
HETATM   10  C15 UNL     1      -2.194  -0.682   0.342  1.00  0.00     0.006 C 
HETATM   11  C16 UNL     1      -3.348  -0.069  -0.050  1.00  0.00    -0.081 C 
HETATM   12  C17 UNL     1      -3.807   1.329   0.206  1.00  0.00     0.043 C 
HETATM   13  C21 UNL     1      -4.645  -0.234  -0.816  1.00  0.00     0.043 C 
HETATM   14  C18 UNL     1      -5.241   0.805   0.100  1.00  0.00    -0.041 C 
HETATM   15  C19 UNL     1      -5.752   0.309   1.418  1.00  0.00     0.015 C 
HETATM   16  C20 UNL     1      -6.179   1.755  -0.602  1.00  0.00     0.015 C 
ENDBRANCH   9  10
ENDBRANCH   7   9
ENDBRANCH   5   7
BRANCH   1  17
HETATM   17  C2  UNL     1       0.846  -3.208  -0.086  1.00  0.00     0.006 C 
HETATM   18  C1  UNL     1       2.191  -3.633   0.386  1.00  0.00     0.006 C 
ENDBRANCH   1  17
BRANCH   4  19
HETATM   19  N1  UNL     1       2.215   1.353   0.171  1.00  0.00    -0.398 N 
HETATM   20  H10 UNL     1       1.526   1.732   0.821  1.00  0.00     0.155 HD
BRANCH  19  21
HETATM   21  C7  UNL     1       3.330   2.136  -0.184  1.00  0.00     0.172 A 
HETATM   22  C8  UNL     1       3.779   2.016  -1.576  1.00  0.00     0.007 A 
HETATM   23  C9  UNL     1       5.053   1.832  -1.960  1.00  0.00     0.018 A 
HETATM   24  C10 UNL     1       6.101   1.737  -0.955  1.00  0.00     0.118 A 
HETATM   25  N2  UNL     1       5.874   1.820   0.333  1.00  0.00    -0.244 NA
HETATM   26  C11 UNL     1       4.501   2.016   0.723  1.00  0.00     0.144 A 
HETATM   27  N3  UNL     1       4.252   2.099   2.009  1.00  0.00    -0.284 NA
HETATM   28  H15 UNL     1       3.246   2.242   2.259  1.00  0.00     0.188 HD
ENDBRANCH  19  21
ENDBRANCH   4  19
TORSDOF 6
