REMARK  7 active torsions:
REMARK  status: ('A' for Active; 'I' for Inactive)
REMARK    1  A    between atoms: O1_1  and  C1_2 
REMARK    2  A    between atoms: C9_11  and  O3_12 
REMARK    3  A    between atoms: N1_14  and  C11_15 
REMARK    4  A    between atoms: C12_16  and  C13_17 
REMARK    5  A    between atoms: C13_17  and  N2_18 
REMARK    6  A    between atoms: N2_18  and  C14_19 
REMARK    7  A    between atoms: C18_24  and  O4_25 
ROOT
HETATM    1  C14 UNL     1       4.574   1.254   1.779  1.00  0.00     0.095 C 
HETATM    2  C15 UNL     1       4.951   0.143   2.406  1.00  0.00     0.234 C 
HETATM    3 CL1  UNL     1       5.424  -1.266   3.301  1.00  0.00    -0.229 Cl
ENDROOT
BRANCH   1   4
HETATM    4  N2  UNL     1       4.565   1.503   0.384  1.00  0.00    -0.395 N 
HETATM    5  H15 UNL     1       5.566   1.776   0.389  1.00  0.00     0.159 HD
BRANCH   4   6
HETATM    6  C13 UNL     1       3.689   1.475  -0.799  1.00  0.00     0.147 C 
BRANCH   6   7
HETATM    7  C12 UNL     1       3.388   0.068  -1.050  1.00  0.00     0.009 C 
HETATM    8  C11 UNL     1       2.227  -0.553  -1.076  1.00  0.00     0.083 C 
BRANCH   8   9
HETATM    9  N1  UNL     1       0.849  -0.141  -0.880  1.00  0.00    -0.387 N 
HETATM   10  C10 UNL     1       0.461   0.019   0.467  1.00  0.00     0.154 C 
HETATM   11  C9  UNL     1       0.138   1.377   0.983  1.00  0.00     0.140 C 
HETATM   12  C8  UNL     1      -1.124   1.965   0.391  1.00  0.00     0.070 C 
HETATM   13  C7  UNL     1      -2.259   1.066   0.336  1.00  0.00    -0.042 C 
HETATM   14  C6  UNL     1      -2.429   0.560  -0.903  1.00  0.00     0.013 C 
HETATM   15  C18 UNL     1      -3.236   0.597   1.294  1.00  0.00     0.206 C 
HETATM   16  C5  UNL     1      -2.004  -0.814  -1.254  1.00  0.00    -0.045 C 
HETATM   17  C4  UNL     1      -2.523  -1.865  -0.649  1.00  0.00     0.008 A 
HETATM   18  C17 UNL     1      -0.979  -1.020  -2.307  1.00  0.00     0.059 C 
HETATM   19  C2  UNL     1      -3.257  -1.930   0.632  1.00  0.00     0.110 A 
HETATM   20  C3  UNL     1      -2.647  -3.328  -0.854  1.00  0.00     0.218 A 
HETATM   21  C1  UNL     1      -3.422  -0.853   1.420  1.00  0.00     0.110 C 
HETATM   22  O2  UNL     1      -3.441  -3.275   0.344  1.00  0.00    -0.343 OA
HETATM   23  C16 UNL     1       0.144   0.019  -2.133  1.00  0.00     0.127 C 
BRANCH  11  24
HETATM   24  O3  UNL     1      -0.215   1.162   2.353  1.00  0.00    -0.394 OA
HETATM   25  H8  UNL     1      -0.761   0.337   2.335  1.00  0.00     0.210 HD
ENDBRANCH  11  24
BRANCH  21  26
HETATM   26  O1  UNL     1      -3.896  -1.283   2.676  1.00  0.00    -0.359 OA
HETATM   27  H1  UNL     1      -4.825  -1.008   2.997  1.00  0.00     0.217 HD
ENDBRANCH  21  26
BRANCH  15  28
HETATM   28  O4  UNL     1      -4.492   1.112   0.889  1.00  0.00    -0.384 OA
HETATM   29  H23 UNL     1      -4.659   0.662   0.004  1.00  0.00     0.211 HD
ENDBRANCH  15  28
ENDBRANCH   8   9
ENDBRANCH   6   7
ENDBRANCH   4   6
ENDBRANCH   1   4
TORSDOF 7
