REMARK  8 active torsions:
REMARK  status: ('A' for Active; 'I' for Inactive)
REMARK    1  A    between atoms: C2_2  and  N1_3 
REMARK    2  A    between atoms: C3_4  and  C4_5 
REMARK    3  A    between atoms: C3_4  and  N4_19 
REMARK    4  A    between atoms: C4_5  and  C5_6 
REMARK       I    between atoms: C5_6  and  N2_8 
REMARK    5  A    between atoms: N2_8  and  C6_9 
REMARK    6  A    between atoms: C14_17  and  N3_18 
REMARK    7  A    between atoms: N4_19  and  C15_20 
REMARK    8  A    between atoms: C15_20  and  C16_21 
ROOT
HETATM    1  C5  UNL     1       0.041   0.477  -0.937  1.00  0.00     0.225 C 
HETATM    2  O1  UNL     1      -0.221   0.674  -2.156  1.00  0.00    -0.273 OA
HETATM    3  N2  UNL     1      -1.175   0.387  -0.198  1.00  0.00    -0.347 N 
HETATM    4  H6  UNL     1      -1.232   0.234   0.840  1.00  0.00     0.163 HD
ENDROOT
BRANCH   1   5
HETATM    5  C4  UNL     1       1.247   0.316  -0.093  1.00  0.00     0.180 C 
BRANCH   5   6
HETATM    6  C3  UNL     1       2.523   0.442  -0.877  1.00  0.00     0.108 C 
HETATM    7  N1  UNL     1       3.009   0.800  -2.015  1.00  0.00    -0.252 NA
BRANCH   7   8
HETATM    8  C2  UNL     1       2.268   1.295  -3.096  1.00  0.00     0.092 C 
HETATM    9  C1  UNL     1       2.464   2.534  -2.614  1.00  0.00     0.052 C 
ENDBRANCH   7   8
BRANCH   6  10
HETATM   10  N4  UNL     1       3.642   0.022  -0.057  1.00  0.00    -0.374 N 
HETATM   11  H19 UNL     1       3.545  -0.151   0.980  1.00  0.00     0.161 HD
BRANCH  10  12
HETATM   12  C15 UNL     1       4.995  -0.204  -0.531  1.00  0.00     0.159 C 
BRANCH  12  13
HETATM   13  C16 UNL     1       5.894  -0.694   0.522  1.00  0.00    -0.038 A 
HETATM   14  C17 UNL     1       5.962  -2.085   0.650  1.00  0.00     0.028 A 
HETATM   15  C18 UNL     1       6.766  -2.673   1.608  1.00  0.00     0.116 A 
HETATM   16  N5  UNL     1       7.498  -1.934   2.435  1.00  0.00    -0.273 NA
HETATM   17  C19 UNL     1       7.468  -0.590   2.355  1.00  0.00     0.116 A 
HETATM   18  C20 UNL     1       6.667   0.020   1.399  1.00  0.00     0.028 A 
ENDBRANCH  12  13
ENDBRANCH  10  12
ENDBRANCH   6  10
ENDBRANCH   5   6
ENDBRANCH   1   5
BRANCH   3  19
HETATM   19  C6  UNL     1      -2.462   0.497  -0.801  1.00  0.00     0.158 A 
HETATM   20  C7  UNL     1      -3.154   1.696  -0.264  1.00  0.00     0.012 A 
HETATM   21  C8  UNL     1      -4.320   1.194   0.148  1.00  0.00    -0.050 A 
HETATM   22  C9  UNL     1      -5.637   1.402   0.763  1.00  0.00     0.052 A 
HETATM   23  C13 UNL     1      -4.555  -0.224   0.057  1.00  0.00    -0.019 A 
HETATM   24  C10 UNL     1      -5.896  -0.064   0.643  1.00  0.00    -0.014 A 
HETATM   25  C11 UNL     1      -6.039  -0.751   1.989  1.00  0.00     0.020 C 
HETATM   26  C12 UNL     1      -7.034  -0.383  -0.313  1.00  0.00     0.020 C 
HETATM   27  C14 UNL     1      -3.389  -0.598  -0.466  1.00  0.00     0.037 A 
BRANCH  27  28
HETATM   28  N3  UNL     1      -3.023  -1.985  -0.700  1.00  0.00    -0.400 N 
HETATM   29  H17 UNL     1      -2.697  -2.463  -1.572  1.00  0.00     0.156 HD
HETATM   30  H18 UNL     1      -3.075  -2.667   0.104  1.00  0.00     0.156 HD
ENDBRANCH  27  28
ENDBRANCH   3  19
TORSDOF 8
