REMARK  4 active torsions:
REMARK  status: ('A' for Active; 'I' for Inactive)
REMARK    1  A    between atoms: C12_16  and  N4_17 
REMARK    2  A    between atoms: N4_17  and  C13_18 
REMARK    3  A    between atoms: C13_18  and  C14_19 
REMARK    4  A    between atoms: C14_19  and  C15_20 
ROOT
HETATM    1  C1  UNL     1      -5.165   1.889   0.067  1.00  0.00     0.017 C 
HETATM    2  C2  UNL     1      -5.014   1.342  -1.321  1.00  0.00     0.033 C 
HETATM    3  C3  UNL     1      -5.467  -0.086  -1.339  1.00  0.00     0.128 C 
HETATM    4  N1  UNL     1      -4.418  -1.024  -0.976  1.00  0.00    -0.398 N 
HETATM    5  C4  UNL     1      -3.209  -1.013  -1.714  1.00  0.00     0.092 C 
HETATM    6  C5  UNL     1      -2.796   0.195  -2.119  1.00  0.00    -0.007 C 
HETATM    7  C6  UNL     1      -1.536   0.357  -2.908  1.00  0.00     0.324 C 
HETATM    8  N2  UNL     1      -0.763   1.346  -2.233  1.00  0.00     0.117 N 
HETATM    9  C7  UNL     1       0.423   1.279  -1.489  1.00  0.00     0.323 A 
HETATM   10  O1  UNL     1      -0.103   0.283  -1.984  1.00  0.00    -0.121 OA
HETATM   11  C8  UNL     1       1.522   1.702  -0.720  1.00  0.00     0.074 A 
HETATM   12  C9  UNL     1       1.748   3.029  -0.482  1.00  0.00     0.021 A 
HETATM   13  C10 UNL     1       2.811   3.406   0.301  1.00  0.00     0.020 A 
HETATM   14  C11 UNL     1       3.602   2.396   0.810  1.00  0.00     0.119 A 
HETATM   15  N3  UNL     1       3.364   1.100   0.565  1.00  0.00    -0.243 NA
HETATM   16  C12 UNL     1       2.338   0.707  -0.193  1.00  0.00     0.137 A 
HETATM   17  C19 UNL     1      -1.450   2.632  -2.392  1.00  0.00     0.312 C 
HETATM   18  C20 UNL     1      -2.886   2.504  -1.936  1.00  0.00     0.012 C 
HETATM   19  C21 UNL     1      -3.590   1.367  -1.781  1.00  0.00    -0.045 C 
HETATM   20  H7  UNL     1      -4.507  -1.726  -0.184  1.00  0.00     0.158 HD
ENDROOT
BRANCH  16  21
HETATM   21  N4  UNL     1       2.232  -0.679  -0.397  1.00  0.00    -0.374 N 
HETATM   22  H14 UNL     1       1.476  -1.003  -1.020  1.00  0.00     0.161 HD
BRANCH  21  23
HETATM   23  C13 UNL     1       3.059  -1.724   0.166  1.00  0.00     0.123 C 
BRANCH  23  24
HETATM   24  C14 UNL     1       2.764  -1.707   1.679  1.00  0.00     0.042 C 
BRANCH  24  25
HETATM   25  C15 UNL     1       3.517  -2.750   2.375  1.00  0.00     0.037 A 
HETATM   26  S1  UNL     1       4.567  -3.852   1.791  1.00  0.00    -0.110 SA
HETATM   27  C16 UNL     1       5.167  -4.862   2.920  1.00  0.00     0.161 A 
HETATM   28  N5  UNL     1       4.713  -4.665   4.255  1.00  0.00    -0.270 NA
HETATM   29  C17 UNL     1       3.870  -3.724   4.536  1.00  0.00     0.091 A 
HETATM   30  C18 UNL     1       3.139  -2.659   3.821  1.00  0.00     0.069 A 
ENDBRANCH  24  25
ENDBRANCH  23  24
ENDBRANCH  21  23
ENDBRANCH  16  21
TORSDOF 4
