REMARK  5 active torsions:
REMARK  status: ('A' for Active; 'I' for Inactive)
REMARK    1  A    between atoms: C6_7  and  N2_8 
REMARK       I    between atoms: N2_8  and  C7_9 
REMARK    2  A    between atoms: C7_9  and  C8_11 
REMARK    3  A    between atoms: C12_16  and  N4_17 
REMARK    4  A    between atoms: N4_17  and  C13_18 
REMARK    5  A    between atoms: C13_18  and  C14_19 
ROOT
HETATM    1  C8  UNL     1      -1.510  -1.884  -1.603  1.00  0.00     0.077 A 
HETATM    2  C9  UNL     1      -1.134  -2.969  -2.365  1.00  0.00     0.022 A 
HETATM    3  C10 UNL     1      -2.027  -3.864  -2.921  1.00  0.00     0.020 A 
HETATM    4  C11 UNL     1      -3.358  -3.632  -2.684  1.00  0.00     0.119 A 
HETATM    5  N3  UNL     1      -3.717  -2.577  -1.944  1.00  0.00    -0.243 NA
HETATM    6  C12 UNL     1      -2.856  -1.700  -1.398  1.00  0.00     0.139 A 
ENDROOT
BRANCH   1   7
HETATM    7  C7  UNL     1      -0.541  -0.966  -1.034  1.00  0.00     0.260 C 
HETATM    8  N2  UNL     1       0.857  -1.066  -1.187  1.00  0.00    -0.323 N 
HETATM    9  H9  UNL     1       1.121  -1.911  -1.781  1.00  0.00     0.169 HD
HETATM   10  O1  UNL     1      -0.834   0.020  -0.342  1.00  0.00    -0.267 OA
BRANCH   8  11
HETATM   11  C6  UNL     1       1.939  -0.307  -0.735  1.00  0.00     0.033 A 
HETATM   12  C5  UNL     1       3.300  -0.693  -1.087  1.00  0.00     0.054 A 
HETATM   13  C4  UNL     1       4.298   0.054  -0.647  1.00  0.00     0.012 A 
HETATM   14  N1  UNL     1       5.719  -0.101  -0.839  1.00  0.00    -0.392 N 
HETATM   15  C21 UNL     1       4.310   1.331   0.154  1.00  0.00     0.044 A 
HETATM   16  C3  UNL     1       6.433   0.417   0.347  1.00  0.00     0.124 C 
HETATM   17  H7  UNL     1       6.207  -0.517  -1.677  1.00  0.00     0.159 HD
HETATM   18  C2  UNL     1       5.277   0.934   1.226  1.00  0.00     0.009 C 
HETATM   19  C1  UNL     1       5.762   2.108   2.040  1.00  0.00     0.012 C 
HETATM   20  C20 UNL     1       2.943   1.697   0.578  1.00  0.00     0.040 A 
HETATM   21  C19 UNL     1       1.932   0.779   0.011  1.00  0.00     0.004 A 
ENDBRANCH   8  11
ENDBRANCH   1   7
BRANCH   6  22
HETATM   22  N4  UNL     1      -3.408  -0.625  -0.632  1.00  0.00    -0.370 N 
HETATM   23  H13 UNL     1      -3.013   0.158  -0.123  1.00  0.00     0.161 HD
BRANCH  22  24
HETATM   24  C13 UNL     1      -4.846  -0.544  -0.492  1.00  0.00     0.160 C 
BRANCH  24  25
HETATM   25  C14 UNL     1      -5.329   0.593   0.311  1.00  0.00    -0.038 A 
HETATM   26  C15 UNL     1      -5.657   1.853  -0.131  1.00  0.00     0.028 A 
HETATM   27  C16 UNL     1      -6.096   2.805   0.763  1.00  0.00     0.116 A 
HETATM   28  N5  UNL     1      -6.215   2.534   2.082  1.00  0.00    -0.273 NA
HETATM   29  C17 UNL     1      -5.906   1.324   2.547  1.00  0.00     0.116 A 
HETATM   30  C18 UNL     1      -5.465   0.352   1.678  1.00  0.00     0.028 A 
ENDBRANCH  24  25
ENDBRANCH  22  24
ENDBRANCH   6  22
TORSDOF 5
