REMARK  5 active torsions:
REMARK  status: ('A' for Active; 'I' for Inactive)
REMARK    1  A    between atoms: C8_9  and  N2_10 
REMARK    2  A    between atoms: N2_10  and  C9_11 
REMARK    3  A    between atoms: C14_17  and  N4_18 
REMARK    4  A    between atoms: N4_18  and  C15_19 
REMARK    5  A    between atoms: C20_24  and  O1_25 
ROOT
HETATM    1  C9  UNL     1       0.742  -1.014  -0.004  1.00  0.00     0.090 A 
HETATM    2  C10 UNL     1       0.662  -1.906   1.226  1.00  0.00     0.047 C 
HETATM    3  C11 UNL     1       0.560  -1.883  -1.194  1.00  0.00     0.067 A 
HETATM    4  C12 UNL     1       1.734  -1.777  -2.087  1.00  0.00    -0.005 A 
HETATM    5  C13 UNL     1       2.890  -1.135  -2.132  1.00  0.00     0.115 A 
HETATM    6  N3  UNL     1       3.016  -0.305  -0.955  1.00  0.00    -0.245 NA
HETATM    7  C14 UNL     1       2.040  -0.308  -0.078  1.00  0.00     0.128 A 
ENDROOT
BRANCH   1   8
HETATM    8  N2  UNL     1      -0.283  -0.015   0.162  1.00  0.00    -0.377 N 
HETATM    9  H11 UNL     1      -0.083   1.012   0.202  1.00  0.00     0.160 HD
BRANCH   8  10
HETATM   10  C8  UNL     1      -1.694   0.034   0.311  1.00  0.00     0.007 A 
HETATM   11  C7  UNL     1      -2.252  -0.331   1.478  1.00  0.00     0.025 A 
HETATM   12  C6  UNL     1      -3.684  -0.315   1.735  1.00  0.00     0.007 A 
HETATM   13  C5  UNL     1      -4.435   0.093   0.750  1.00  0.00    -0.042 A 
HETATM   14  C2  UNL     1      -3.961   0.541  -0.585  1.00  0.00     0.013 A 
HETATM   15  C4  UNL     1      -5.897   0.242   0.517  1.00  0.00     0.304 C 
HETATM   16  C1  UNL     1      -4.441   1.990  -0.755  1.00  0.00     0.022 C 
HETATM   17  C3  UNL     1      -4.809  -0.373  -1.454  1.00  0.00     0.283 C 
HETATM   18  C21 UNL     1      -2.522   0.452  -0.840  1.00  0.00     0.072 A 
HETATM   19  N1  UNL     1      -6.076  -0.478  -0.734  1.00  0.00     0.088 N 
HETATM   20  H6  UNL     1      -6.868  -0.109  -1.278  1.00  0.00     0.316 HD
ENDBRANCH   8  10
ENDBRANCH   1   8
BRANCH   7  21
HETATM   21  N4  UNL     1       2.310   0.559   1.024  1.00  0.00    -0.362 N 
HETATM   22  H19 UNL     1       1.509   0.937   1.613  1.00  0.00     0.162 HD
BRANCH  21  23
HETATM   23  C15 UNL     1       3.661   0.951   1.376  1.00  0.00     0.162 C 
HETATM   24  C16 UNL     1       4.408  -0.298   1.684  1.00  0.00     0.001 C 
HETATM   25  C17 UNL     1       5.629  -0.518   1.207  1.00  0.00    -0.024 C 
HETATM   26  C18 UNL     1       6.340   0.462   0.334  1.00  0.00     0.056 C 
HETATM   27  C19 UNL     1       5.438   1.499  -0.188  1.00  0.00     0.011 C 
HETATM   28  C20 UNL     1       4.235   1.727   0.272  1.00  0.00     0.066 C 
BRANCH  28  29
HETATM   29  O1  UNL     1       3.372   2.710  -0.218  1.00  0.00    -0.363 OA
HETATM   30  H26 UNL     1       3.620   3.320  -1.003  1.00  0.00     0.217 HD
ENDBRANCH  28  29
ENDBRANCH  21  23
ENDBRANCH   7  21
TORSDOF 5
