REMARK  5 active torsions:
REMARK  status: ('A' for Active; 'I' for Inactive)
REMARK    1  A    between atoms: C7_8  and  N2_9 
REMARK       I    between atoms: N2_9  and  C8_10 
REMARK    2  A    between atoms: C8_10  and  C9_12 
REMARK    3  A    between atoms: C13_17  and  N4_18 
REMARK    4  A    between atoms: N4_18  and  C14_19 
REMARK    5  A    between atoms: C14_19  and  C15_20 
ROOT
HETATM    1  N2  UNL     1      -0.462  -1.187  -1.532  1.00  0.00    -0.323 N 
HETATM    2  C8  UNL     1       0.660  -0.427  -1.104  1.00  0.00     0.260 C 
HETATM    3  O1  UNL     1       0.098   0.516  -0.502  1.00  0.00    -0.267 OA
HETATM    4  H11 UNL     1      -0.439  -2.092  -2.092  1.00  0.00     0.169 HD
ENDROOT
BRANCH   2   5
HETATM    5  C9  UNL     1       1.999  -0.870  -1.427  1.00  0.00     0.077 A 
HETATM    6  C10 UNL     1       2.168  -2.023  -2.144  1.00  0.00     0.022 A 
HETATM    7  C11 UNL     1       3.446  -2.430  -2.442  1.00  0.00     0.020 A 
HETATM    8  C12 UNL     1       4.561  -1.725  -2.048  1.00  0.00     0.119 A 
HETATM    9  N3  UNL     1       4.356  -0.604  -1.350  1.00  0.00    -0.243 NA
HETATM   10  C13 UNL     1       3.123  -0.178  -1.042  1.00  0.00     0.139 A 
BRANCH  10  11
HETATM   11  N4  UNL     1       3.071   1.025  -0.304  1.00  0.00    -0.370 N 
HETATM   12  H15 UNL     1       2.124   1.379  -0.056  1.00  0.00     0.161 HD
BRANCH  11  13
HETATM   13  C14 UNL     1       4.114   1.894   0.196  1.00  0.00     0.160 C 
BRANCH  13  14
HETATM   14  C15 UNL     1       4.941   1.138   1.157  1.00  0.00    -0.038 A 
HETATM   15  C16 UNL     1       6.112   0.443   0.987  1.00  0.00     0.028 A 
HETATM   16  C17 UNL     1       6.719  -0.214   2.031  1.00  0.00     0.116 A 
HETATM   17  N5  UNL     1       6.181  -0.202   3.285  1.00  0.00    -0.273 NA
HETATM   18  C18 UNL     1       5.018   0.475   3.510  1.00  0.00     0.116 A 
HETATM   19  C19 UNL     1       4.420   1.128   2.455  1.00  0.00     0.028 A 
ENDBRANCH  13  14
ENDBRANCH  11  13
ENDBRANCH  10  11
ENDBRANCH   2   5
BRANCH   1  20
HETATM   20  C7  UNL     1      -1.740  -0.640  -1.148  1.00  0.00     0.037 A 
HETATM   21  C6  UNL     1      -2.173  -1.113   0.087  1.00  0.00     0.059 A 
HETATM   22  C5  UNL     1      -3.391  -0.690   0.619  1.00  0.00     0.037 A 
HETATM   23  N1  UNL     1      -4.133  -0.957   1.823  1.00  0.00    -0.388 N 
HETATM   24  C22 UNL     1      -4.142   0.216  -0.139  1.00  0.00    -0.022 A 
HETATM   25  C4  UNL     1      -5.535  -0.750   1.436  1.00  0.00     0.133 C 
HETATM   26  H9  UNL     1      -3.662  -1.224   2.695  1.00  0.00     0.159 HD
HETATM   27  C2  UNL     1      -5.389   0.522   0.616  1.00  0.00    -0.002 C 
HETATM   28  C1  UNL     1      -6.568   0.819  -0.246  1.00  0.00     0.021 C 
HETATM   29  C3  UNL     1      -5.044   1.665   1.553  1.00  0.00     0.021 C 
HETATM   30  C21 UNL     1      -3.708   0.681  -1.363  1.00  0.00     0.012 A 
HETATM   31  C20 UNL     1      -2.500   0.253  -1.876  1.00  0.00     0.030 A 
ENDBRANCH   1  20
TORSDOF 5
