REMARK  3 active torsions:
REMARK  status: ('A' for Active; 'I' for Inactive)
REMARK    1  A    between atoms: C2_2  and  C3_3 
REMARK    2  A    between atoms: C6_7  and  N2_8 
REMARK    3  A    between atoms: N2_8  and  C7_9 
ROOT
HETATM    1  C3  UNL     1      -1.109  -1.706   1.197  1.00  0.00     0.045 C 
HETATM    2  C4  UNL     1      -0.622  -1.227   2.577  1.00  0.00     0.280 C 
HETATM    3  N1  UNL     1       0.294  -0.190   2.160  1.00  0.00     0.098 N 
HETATM    4  C5  UNL     1      -0.224   0.361   0.889  1.00  0.00     0.299 C 
HETATM    5  C6  UNL     1       0.793   0.052  -0.159  1.00  0.00     0.048 C 
HETATM    6  C13 UNL     1       0.171   0.540  -1.221  1.00  0.00     0.101 C 
HETATM    7  C14 UNL     1      -1.163   1.164  -1.048  1.00  0.00     0.247 C 
HETATM    8  O1  UNL     1      -2.077   1.661  -1.757  1.00  0.00    -0.268 OA
HETATM    9  N4  UNL     1      -2.202   1.586  -0.124  1.00  0.00    -0.328 N 
HETATM   10  C15 UNL     1      -3.410   2.120  -0.624  1.00  0.00     0.008 C 
HETATM   11  C16 UNL     1      -3.421   3.506  -1.055  1.00  0.00     0.068 C 
HETATM   12  C17 UNL     1      -3.749   0.831  -0.316  1.00  0.00     0.025 C 
HETATM   13  C18 UNL     1      -2.730  -0.042   0.238  1.00  0.00     0.008 C 
HETATM   14  C19 UNL     1      -1.517  -0.343   0.676  1.00  0.00    -0.035 C 
HETATM   15  H9  UNL     1       1.205  -0.668   1.997  1.00  0.00     0.317 HD
HETATM   16  H19 UNL     1      -2.410   1.739   0.933  1.00  0.00     0.169 HD
ENDROOT
BRANCH   5  17
HETATM   17  N2  UNL     1       2.044  -0.480  -0.579  1.00  0.00    -0.379 N 
HETATM   18  H11 UNL     1       1.984  -1.404  -1.066  1.00  0.00     0.160 HD
BRANCH  17  19
HETATM   19  C7  UNL     1       3.119   0.435  -0.208  1.00  0.00     0.137 C 
HETATM   20  C8  UNL     1       2.926   1.760  -0.848  1.00  0.00     0.036 C 
HETATM   21  C9  UNL     1       3.901   2.585  -0.526  1.00  0.00     0.083 C 
HETATM   22  N3  UNL     1       5.074   2.168  -0.247  1.00  0.00    -0.259 NA
HETATM   23  C10 UNL     1       5.440   0.827  -0.632  1.00  0.00     0.122 C 
HETATM   24  C11 UNL     1       4.457  -0.061  -0.616  1.00  0.00    -0.040 C 
HETATM   25  C12 UNL     1       4.803  -1.464  -1.010  1.00  0.00     0.047 C 
ENDBRANCH  17  19
ENDBRANCH   5  17
BRANCH   1  26
HETATM   26  C2  UNL     1      -2.238  -2.654   1.348  1.00  0.00     0.006 C 
HETATM   27  C1  UNL     1      -2.712  -3.139   0.010  1.00  0.00     0.006 C 
ENDBRANCH   1  26
TORSDOF 3
