REMARK  0 active torsions:
REMARK  status: ('A' for Active; 'I' for Inactive)
ROOT
HETATM    1  C1  UNL     1      -5.081  -3.342   0.483  1.00  0.00     0.016 C 
HETATM    2  C2  UNL     1      -4.730  -2.114  -0.314  1.00  0.00     0.031 C 
HETATM    3  C3  UNL     1      -5.334  -0.917   0.369  1.00  0.00     0.128 C 
HETATM    4  N1  UNL     1      -4.245   0.076   0.462  1.00  0.00    -0.389 N 
HETATM    5  C4  UNL     1      -3.329  -0.354  -0.535  1.00  0.00     0.027 C 
HETATM    6  C5  UNL     1      -2.736   0.474  -1.346  1.00  0.00     0.006 C 
HETATM    7  C6  UNL     1      -2.434   1.792  -1.892  1.00  0.00     0.056 C 
HETATM    8  C7  UNL     1      -0.939   2.030  -1.978  1.00  0.00    -0.022 C 
HETATM    9  C8  UNL     1      -0.344   2.940  -1.309  1.00  0.00     0.008 C 
HETATM   10  C9  UNL     1       0.578   3.880  -0.680  1.00  0.00     0.060 C 
HETATM   11  N2  UNL     1       1.886   3.916  -0.927  1.00  0.00    -0.277 N 
HETATM   12  C10 UNL     1       2.715   4.905  -0.234  1.00  0.00     0.102 A 
HETATM   13  C11 UNL     1       2.839   3.743   0.399  1.00  0.00     0.100 A 
HETATM   14  C12 UNL     1       2.685   2.315   0.762  1.00  0.00     0.143 C 
HETATM   15  N3  UNL     1       3.988   1.670   0.771  1.00  0.00    -0.373 N 
HETATM   16  C13 UNL     1       4.208   0.248   0.888  1.00  0.00     0.131 A 
HETATM   17  N4  UNL     1       5.523   0.026   0.962  1.00  0.00    -0.243 NA
HETATM   18  C14 UNL     1       6.187  -1.120   1.084  1.00  0.00     0.119 A 
HETATM   19  C15 UNL     1       5.355  -2.289   1.143  1.00  0.00     0.020 A 
HETATM   20  C16 UNL     1       4.034  -1.964   1.061  1.00  0.00     0.014 A 
HETATM   21  C17 UNL     1       3.312  -0.801   0.933  1.00  0.00     0.005 A 
HETATM   22  C18 UNL     1       1.883  -1.104   0.865  1.00  0.00     0.161 C 
HETATM   23  N5  UNL     1       1.625  -2.041  -0.250  1.00  0.00    -0.398 N 
HETATM   24  C19 UNL     1       0.288  -2.381  -0.211  1.00  0.00     0.057 C 
HETATM   25  C20 UNL     1      -1.001  -2.625  -0.187  1.00  0.00     0.019 C 
HETATM   26  C21 UNL     1      -2.459  -2.979  -0.147  1.00  0.00     0.064 C 
HETATM   27  C22 UNL     1      -3.243  -1.844  -0.347  1.00  0.00    -0.043 C 
HETATM   28  H7  UNL     1      -3.775   0.940   0.866  1.00  0.00     0.159 HD
HETATM   29  H18 UNL     1       4.795   2.362   0.702  1.00  0.00     0.161 HD
HETATM   30  H24 UNL     1       2.061  -2.530  -1.051  1.00  0.00     0.158 HD
ENDROOT
TORSDOF 0
