REMARK  0 active torsions:
REMARK  status: ('A' for Active; 'I' for Inactive)
ROOT
HETATM    1  C1  UNL     1       3.994   3.626  -0.456  1.00  0.00     0.049 C 
HETATM    2  C2  UNL     1       2.530   3.615  -0.334  1.00  0.00    -0.053 C 
HETATM    3  C3  UNL     1       1.365   4.178  -0.442  1.00  0.00     0.071 C 
HETATM    4  C4  UNL     1       0.208   3.543  -0.129  1.00  0.00    -0.078 C 
HETATM    5  C5  UNL     1      -0.763   3.001   0.122  1.00  0.00    -0.098 C 
HETATM    6  C6  UNL     1      -1.977   2.328   0.414  1.00  0.00     0.124 C 
HETATM    7  C7  UNL     1      -2.369   1.321  -0.602  1.00  0.00     0.022 C 
HETATM    8  C8  UNL     1      -2.680   0.036  -0.418  1.00  0.00     0.094 C 
HETATM    9  O1  UNL     1      -2.689  -0.596   0.807  1.00  0.00    -0.326 OA
HETATM   10  C9  UNL     1      -3.878  -1.422   0.878  1.00  0.00     0.347 C 
HETATM   11  O2  UNL     1      -4.294  -1.467  -0.483  1.00  0.00    -0.336 OA
HETATM   12  C10 UNL     1      -3.083  -1.135  -1.157  1.00  0.00     0.280 C 
HETATM   13  N1  UNL     1      -2.215  -2.200  -1.296  1.00  0.00    -0.369 N 
HETATM   14  C11 UNL     1      -2.696  -3.260  -2.137  1.00  0.00     0.148 C 
HETATM   15  C12 UNL     1      -1.098  -2.469  -0.517  1.00  0.00     0.271 C 
HETATM   16  N2  UNL     1      -0.036  -1.587  -0.684  1.00  0.00    -0.264 NA
HETATM   17  C13 UNL     1       0.407  -0.548  -0.136  1.00  0.00     0.229 C 
HETATM   18  N3  UNL     1       1.508  -0.485  -1.067  1.00  0.00    -0.238 NA
HETATM   19  C14 UNL     1       2.590  -1.152  -0.721  1.00  0.00     0.114 C 
HETATM   20  C15 UNL     1       2.526  -1.419   0.589  1.00  0.00     0.071 A 
HETATM   21  C16 UNL     1       2.422  -2.323   1.747  1.00  0.00     0.110 A 
HETATM   22  C17 UNL     1       2.399  -1.471   2.925  1.00  0.00     0.118 A 
HETATM   23  N4  UNL     1       2.477  -0.277   2.580  1.00  0.00    -0.184 NA
HETATM   24  N5  UNL     1       2.559  -0.163   1.187  1.00  0.00    -0.247 N 
HETATM   25  C18 UNL     1       2.656   1.101   0.669  1.00  0.00     0.119 C 
HETATM   26  C19 UNL     1       2.530   2.276   0.207  1.00  0.00     0.026 C 
ENDROOT
TORSDOF 0
