REMARK  7 active torsions:
REMARK  status: ('A' for Active; 'I' for Inactive)
REMARK    1  A    between atoms: C8_9  and  C9_10 
REMARK    2  A    between atoms: C10_11  and  C11_12 
REMARK    3  A    between atoms: C11_12  and  C12_13 
REMARK    4  A    between atoms: C12_13  and  C13_15 
REMARK    5  A    between atoms: C17_20  and  N3_21 
REMARK    6  A    between atoms: N3_21  and  C18_22 
REMARK    7  A    between atoms: C18_22  and  P1_23 
ROOT
HETATM    1  C13 UNL     1       1.370  -0.570   0.306  1.00  0.00     0.056 A 
HETATM    2  C14 UNL     1       0.394  -1.296   0.948  1.00  0.00     0.020 A 
HETATM    3  C15 UNL     1       0.557  -2.494   1.568  1.00  0.00     0.020 A 
HETATM    4  C16 UNL     1       1.866  -2.990   1.517  1.00  0.00     0.119 A 
HETATM    5  N2  UNL     1       2.818  -2.288   0.894  1.00  0.00    -0.243 NA
HETATM    6  C17 UNL     1       2.626  -1.106   0.290  1.00  0.00     0.137 A 
ENDROOT
BRANCH   1   7
HETATM    7  C12 UNL     1       1.117   0.688  -0.351  1.00  0.00     0.166 C 
HETATM    8  O1  UNL     1       1.989   1.285  -1.027  1.00  0.00    -0.292 OA
BRANCH   7   9
HETATM    9  C11 UNL     1      -0.002   1.637  -0.506  1.00  0.00     0.111 C 
BRANCH   9  10
HETATM   10  C10 UNL     1      -1.196   1.294   0.334  1.00  0.00    -0.019 C 
HETATM   11  C9  UNL     1      -2.410   1.020  -0.107  1.00  0.00    -0.003 C 
BRANCH  11  12
HETATM   12  C8  UNL     1      -3.492   0.701   0.807  1.00  0.00     0.010 C 
HETATM   13  C7  UNL     1      -4.697   0.429   0.354  1.00  0.00    -0.023 C 
HETATM   14  C2  UNL     1      -5.854   0.097   1.173  1.00  0.00     0.025 C 
HETATM   15  C4  UNL     1      -5.159   0.393  -1.045  1.00  0.00    -0.002 C 
HETATM   16  C1  UNL     1      -5.865   0.234   2.496  1.00  0.00     0.043 C 
HETATM   17  N1  UNL     1      -6.907  -0.371   0.372  1.00  0.00    -0.389 N 
HETATM   18  C3  UNL     1      -6.581  -0.080  -0.994  1.00  0.00     0.133 C 
HETATM   19  H3  UNL     1      -7.778  -0.843   0.646  1.00  0.00     0.159 HD
HETATM   20  C5  UNL     1      -4.380  -0.629  -1.867  1.00  0.00     0.021 C 
HETATM   21  C6  UNL     1      -5.118   1.740  -1.716  1.00  0.00     0.021 C 
ENDBRANCH  11  12
ENDBRANCH   9  10
ENDBRANCH   7   9
ENDBRANCH   1   7
BRANCH   6  22
HETATM   22  N3  UNL     1       3.811  -0.534  -0.306  1.00  0.00    -0.370 N 
HETATM   23  H20 UNL     1       3.935   0.345  -0.807  1.00  0.00     0.161 HD
BRANCH  22  24
HETATM   24  C18 UNL     1       5.066  -1.222  -0.242  1.00  0.00     0.155 C 
BRANCH  24  25
HETATM   25  P1  UNL     1       6.390  -0.320  -1.027  1.00  0.00    -0.088 P 
HETATM   26  C19 UNL     1       6.374   1.265  -0.618  1.00  0.00     0.024 A 
HETATM   27  C20 UNL     1       7.512   1.867   0.064  1.00  0.00     0.116 A 
HETATM   28  N4  UNL     1       8.613   1.306   0.423  1.00  0.00    -0.273 NA
HETATM   29  C21 UNL     1       8.786  -0.072   0.140  1.00  0.00     0.116 A 
HETATM   30  C22 UNL     1       7.980  -0.903  -0.449  1.00  0.00     0.024 A 
HETATM   31  H23 UNL     1       6.298  -0.402  -2.429  1.00  0.00     0.062 HD
ENDBRANCH  24  25
ENDBRANCH  22  24
ENDBRANCH   6  22
TORSDOF 7
