REMARK  12 active torsions:
REMARK  status: ('A' for Active; 'I' for Inactive)
REMARK    1  A    between atoms: C2_2  and  C3_3 
REMARK    2  A    between atoms: C2_2  and  C12_15 
REMARK    3  A    between atoms: C3_3  and  N1_4 
REMARK    4  A    between atoms: N1_4  and  C4_5 
REMARK    5  A    between atoms: C4_5  and  P1_6 
REMARK    6  A    between atoms: C9_11  and  C10_12 
REMARK    7  A    between atoms: C10_12  and  C11_13 
REMARK    8  A    between atoms: C11_13  and  O1_14 
REMARK    9  A    between atoms: C12_15  and  C13_16 
REMARK   10  A    between atoms: C13_16  and  N2_17 
REMARK   11  A    between atoms: C13_16  and  C14_18 
REMARK   12  A    between atoms: C14_18  and  C15_19 
ROOT
HETATM    1  C1  UNL     1       1.825  -1.785   1.814  1.00  0.00     0.020 C 
HETATM    2  C2  UNL     1       1.146  -0.942   1.043  1.00  0.00    -0.054 C 
ENDROOT
BRANCH   2   3
HETATM    3  C3  UNL     1      -0.216  -0.849   1.554  1.00  0.00     0.212 C 
BRANCH   3   4
HETATM    4  N1  UNL     1      -1.458  -0.598   1.806  1.00  0.00    -0.312 NA
BRANCH   4   5
HETATM    5  C4  UNL     1      -2.138   0.328   0.929  1.00  0.00     0.125 C 
BRANCH   5   6
HETATM    6  P1  UNL     1      -3.554  -0.452   0.153  1.00  0.00    -0.055 P 
HETATM    7  C5  UNL     1      -3.736  -2.061   0.143  1.00  0.00    -0.011 A 
HETATM    8  C6  UNL     1      -4.898  -2.739  -0.491  1.00  0.00     0.055 A 
HETATM    9  C7  UNL     1      -5.776  -1.692  -1.063  1.00  0.00    -0.022 A 
HETATM   10  C8  UNL     1      -5.782  -0.379  -1.146  1.00  0.00     0.004 A 
HETATM   11  C9  UNL     1      -4.709   0.421  -0.571  1.00  0.00    -0.046 A 
BRANCH  11  12
HETATM   12  C10 UNL     1      -4.661   1.904  -0.632  1.00  0.00     0.065 C 
BRANCH  12  13
HETATM   13  C11 UNL     1      -5.868   2.526   0.047  1.00  0.00     0.168 C 
BRANCH  13  14
HETATM   14  O1  UNL     1      -5.681   3.921  -0.091  1.00  0.00    -0.401 OA
HETATM   15  H15 UNL     1      -6.178   4.187  -0.925  1.00  0.00     0.209 HD
ENDBRANCH  13  14
ENDBRANCH  12  13
ENDBRANCH  11  12
ENDBRANCH   5   6
ENDBRANCH   4   5
ENDBRANCH   3   4
ENDBRANCH   2   3
BRANCH   2  16
HETATM   16  C12 UNL     1       1.244  -0.060  -0.137  1.00  0.00     0.063 C 
BRANCH  16  17
HETATM   17  C13 UNL     1       2.632  -0.079  -0.744  1.00  0.00     0.082 C 
BRANCH  17  18
HETATM   18  N2  UNL     1       2.919  -1.445  -1.140  1.00  0.00    -0.425 N 
HETATM   19  H19 UNL     1       3.399  -1.990  -0.417  1.00  0.00     0.150 HD
HETATM   20  H20 UNL     1       3.225  -1.560  -2.111  1.00  0.00     0.150 HD
ENDBRANCH  17  18
BRANCH  17  21
HETATM   21  C14 UNL     1       3.608   0.460   0.271  1.00  0.00     0.063 C 
BRANCH  21  22
HETATM   22  C15 UNL     1       5.000   0.477  -0.245  1.00  0.00    -0.056 A 
HETATM   23  C16 UNL     1       5.464   1.611  -0.913  1.00  0.00     0.007 A 
HETATM   24  C17 UNL     1       6.735   1.781  -1.451  1.00  0.00     0.001 A 
HETATM   25  C18 UNL     1       7.610   0.705  -1.297  1.00  0.00     0.000 A 
HETATM   26  C19 UNL     1       7.189  -0.442  -0.639  1.00  0.00     0.001 A 
HETATM   27  C20 UNL     1       5.902  -0.550  -0.122  1.00  0.00     0.007 A 
ENDBRANCH  21  22
ENDBRANCH  17  21
ENDBRANCH  16  17
ENDBRANCH   2  16
TORSDOF 12
