REMARK  8 active torsions:
REMARK  status: ('A' for Active; 'I' for Inactive)
REMARK    1  A    between atoms: O1_2  and  C2_3 
REMARK    2  A    between atoms: C7_10  and  C8_11 
REMARK    3  A    between atoms: C8_11  and  S1_12 
REMARK    4  A    between atoms: C8_11  and  C9_13 
REMARK    5  A    between atoms: C11_16  and  N2_17 
REMARK    6  A    between atoms: N2_17  and  C12_18 
REMARK    7  A    between atoms: N3_21  and  S2_22 
REMARK    8  A    between atoms: C18_29  and  N5_30 
ROOT
HETATM    1  C9  UNL     1      -2.064   1.315  -0.307  1.00  0.00     0.024 A 
HETATM    2  C10 UNL     1      -1.525   1.769  -1.490  1.00  0.00     0.148 A 
HETATM    3  N1  UNL     1      -0.349   1.403  -1.961  1.00  0.00    -0.075 NA
HETATM    4  C11 UNL     1       0.440   0.541  -1.317  1.00  0.00     0.724 A 
HETATM    5  N4  UNL     1      -0.039   0.063  -0.150  1.00  0.00    -0.045 NA
HETATM    6  C18 UNL     1      -1.239   0.437   0.329  1.00  0.00     0.149 A 
ENDROOT
BRANCH   1   7
HETATM    7  C8  UNL     1      -3.363   1.706   0.234  1.00  0.00     0.121 C 
BRANCH   7   8
HETATM    8  C7  UNL     1      -4.378   0.630   0.205  1.00  0.00     0.035 A 
HETATM    9  C2  UNL     1      -5.141   0.141   1.247  1.00  0.00     0.079 A 
HETATM   10  C3  UNL     1      -6.049  -0.880   1.028  1.00  0.00     0.040 A 
HETATM   11  C4  UNL     1      -6.218  -1.433  -0.231  1.00  0.00     0.048 A 
HETATM   12  C5  UNL     1      -5.450  -0.939  -1.277  1.00  0.00     0.155 A 
HETATM   13  F1  UNL     1      -5.699  -1.553  -2.456  1.00  0.00    -0.203 F 
HETATM   14  C6  UNL     1      -4.537   0.087  -1.054  1.00  0.00     0.165 A 
HETATM   15  F2  UNL     1      -3.899   0.409  -2.214  1.00  0.00    -0.202 F 
BRANCH   9  16
HETATM   16  O1  UNL     1      -4.899   0.759   2.467  1.00  0.00    -0.355 OA
HETATM   17  C1  UNL     1      -5.659   0.293   3.579  1.00  0.00     0.210 C 
ENDBRANCH   9  16
ENDBRANCH   7   8
BRANCH   7  18
HETATM   18  S1  UNL     1      -3.997   3.114  -0.719  1.00  0.00    -0.167 SA
HETATM   19  H7  UNL     1      -4.139   2.683  -2.051  1.00  0.00     0.102 HD
ENDBRANCH   7  18
ENDBRANCH   1   7
BRANCH   6  20
HETATM   20  N5  UNL     1      -1.577  -0.160   1.560  1.00  0.00    -0.383 N 
HETATM   21  H22 UNL     1      -1.815  -0.582   2.472  1.00  0.00     0.157 HD
HETATM   22  H23 UNL     1      -2.097  -1.047   1.791  1.00  0.00     0.157 HD
ENDBRANCH   6  20
BRANCH   4  23
HETATM   23  N2  UNL     1       1.694   0.151  -1.824  1.00  0.00    -0.218 N 
HETATM   24  H9  UNL     1       2.008   0.556  -2.740  1.00  0.00     0.178 HD
BRANCH  23  25
HETATM   25  C12 UNL     1       2.582  -0.780  -1.154  1.00  0.00     0.101 C 
HETATM   26  C13 UNL     1       3.020  -0.314   0.209  1.00  0.00     0.041 C 
HETATM   27  C14 UNL     1       4.227   0.559   0.190  1.00  0.00     0.109 C 
HETATM   28  N3  UNL     1       5.299   0.144  -0.645  1.00  0.00    -0.211 NA
HETATM   29  C16 UNL     1       4.887  -0.212  -1.966  1.00  0.00     0.109 C 
HETATM   30  C17 UNL     1       3.731  -1.156  -2.047  1.00  0.00     0.041 C 
BRANCH  28  31
HETATM   31  S2  UNL     1       6.380  -0.983   0.032  1.00  0.00     0.207 S 
HETATM   32  C15 UNL     1       7.189  -0.308   1.473  1.00  0.00     0.180 C 
HETATM   33  O2  UNL     1       5.742  -2.285   0.424  1.00  0.00    -0.212 OA
HETATM   34  O3  UNL     1       7.422  -1.296  -1.015  1.00  0.00    -0.212 OA
ENDBRANCH  28  31
ENDBRANCH  23  25
ENDBRANCH   4  23
TORSDOF 8
