REMARK  5 active torsions:
REMARK  status: ('A' for Active; 'I' for Inactive)
REMARK    1  A    between atoms: C12_15  and  C13_16 
REMARK    2  A    between atoms: C13_16  and  C14_17 
REMARK    3  A    between atoms: C14_17  and  N4_18 
REMARK    4  A    between atoms: C14_17  and  C15_19 
REMARK    5  A    between atoms: C15_19  and  C16_20 
ROOT
HETATM    1  C1  UNL     1      -4.489  -1.731   1.397  1.00  0.00     0.179 C 
HETATM    2  N1  UNL     1      -4.322  -0.640   0.428  1.00  0.00    -0.276 N 
HETATM    3  N2  UNL     1      -5.371  -0.288  -0.462  1.00  0.00    -0.189 NA
HETATM    4  C2  UNL     1      -5.114   0.682  -1.273  1.00  0.00     0.114 C 
HETATM    5  C3  UNL     1      -3.845   1.495  -1.407  1.00  0.00     0.086 C 
HETATM    6  C4  UNL     1      -2.669   0.704  -0.938  1.00  0.00     0.077 C 
HETATM    7  C5  UNL     1      -2.462  -0.445  -1.852  1.00  0.00     0.046 C 
HETATM    8  C6  UNL     1      -3.084   0.055   0.397  1.00  0.00     0.058 C 
HETATM    9  C7  UNL     1      -2.622  -0.077   1.677  1.00  0.00     0.029 C 
HETATM   10  C8  UNL     1      -1.270   0.347   2.192  1.00  0.00     0.003 C 
HETATM   11  C9  UNL     1      -0.181   1.166   1.958  1.00  0.00     0.011 C 
HETATM   12  C10 UNL     1      -0.258   1.627   0.553  1.00  0.00    -0.020 C 
HETATM   13  C11 UNL     1      -0.861   2.704  -0.110  1.00  0.00     0.097 C 
HETATM   14  N3  UNL     1      -1.457   1.466  -0.699  1.00  0.00    -0.366 N 
HETATM   15  C12 UNL     1      -0.001   1.273  -0.874  1.00  0.00     0.121 C 
ENDROOT
BRANCH  15  16
HETATM   16  C13 UNL     1       0.575   0.045  -1.310  1.00  0.00     0.066 C 
BRANCH  16  17
HETATM   17  C14 UNL     1       1.975  -0.204  -0.868  1.00  0.00     0.224 C 
BRANCH  17  18
HETATM   18  N4  UNL     1       2.744   0.922  -1.476  1.00  0.00     0.083 N 
HETATM   19  H18 UNL     1       2.659   0.928  -2.495  1.00  0.00     0.313 HD
HETATM   20  H19 UNL     1       2.562   1.806  -0.977  1.00  0.00     0.313 HD
ENDBRANCH  17  18
BRANCH  17  21
HETATM   21  C15 UNL     1       2.283  -0.293   0.576  1.00  0.00     0.073 C 
BRANCH  21  22
HETATM   22  C16 UNL     1       3.774  -0.601   0.680  1.00  0.00    -0.056 A 
HETATM   23  C17 UNL     1       4.788   0.322   0.754  1.00  0.00     0.007 A 
HETATM   24  C18 UNL     1       6.081  -0.146   0.843  1.00  0.00     0.001 A 
HETATM   25  C19 UNL     1       6.310  -1.514   0.855  1.00  0.00     0.000 A 
HETATM   26  C20 UNL     1       5.285  -2.433   0.780  1.00  0.00     0.001 A 
HETATM   27  C21 UNL     1       3.986  -1.971   0.690  1.00  0.00     0.007 A 
ENDBRANCH  21  22
ENDBRANCH  17  21
ENDBRANCH  16  17
ENDBRANCH  15  16
TORSDOF 5
