REMARK  5 active torsions:
REMARK  status: ('A' for Active; 'I' for Inactive)
REMARK    1  A    between atoms: C2_2  and  C3_3 
REMARK    2  A    between atoms: C7_7  and  N1_8 
REMARK    3  A    between atoms: N3_12  and  C10_13 
REMARK    4  A    between atoms: C10_13  and  C11_14 
REMARK    5  A    between atoms: C15_19  and  O2_20 
ROOT
HETATM    1  N1  UNL     1       1.674  -0.065  -1.126  1.00  0.00    -0.169 N 
HETATM    2  N2  UNL     1       0.897   0.320  -2.222  1.00  0.00    -0.164 NA
HETATM    3  C8  UNL     1      -0.095  -0.490  -2.384  1.00  0.00     0.172 A 
HETATM    4  C9  UNL     1      -0.111  -1.556  -1.396  1.00  0.00     0.391 A 
HETATM    5  N3  UNL     1      -1.261  -1.715  -0.583  1.00  0.00     0.138 NA
HETATM    6  C17 UNL     1      -1.064  -2.618   0.505  1.00  0.00     0.425 C 
HETATM    7  N4  UNL     1       0.256  -2.750   1.014  1.00  0.00    -0.253 NA
HETATM    8  C18 UNL     1       1.226  -2.088   0.495  1.00  0.00     0.227 C 
HETATM    9  N5  UNL     1       1.073  -1.198  -0.593  1.00  0.00    -0.224 N 
ENDROOT
BRANCH   5  10
HETATM   10  C10 UNL     1      -1.880  -0.476  -0.306  1.00  0.00     0.291 C 
BRANCH  10  11
HETATM   11  C11 UNL     1      -3.105  -0.482   0.534  1.00  0.00     0.092 C 
HETATM   12  C12 UNL     1      -4.215  -1.299  -0.085  1.00  0.00    -0.018 C 
HETATM   13  C13 UNL     1      -5.452  -1.157   0.386  1.00  0.00    -0.004 C 
HETATM   14  C14 UNL     1      -5.452  -0.150   1.495  1.00  0.00     0.198 C 
HETATM   15  O1  UNL     1      -4.895   1.049   1.121  1.00  0.00    -0.357 OA
HETATM   16  C15 UNL     1      -3.663   0.950   0.520  1.00  0.00     0.268 C 
BRANCH  16  17
HETATM   17  O2  UNL     1      -2.774   1.864   1.060  1.00  0.00    -0.365 OA
HETATM   18  C16 UNL     1      -2.352   2.799   0.119  1.00  0.00     0.204 C 
ENDBRANCH  16  17
ENDBRANCH  10  11
ENDBRANCH   5  10
BRANCH   1  19
HETATM   19  C7  UNL     1       2.825   0.587  -0.650  1.00  0.00     0.078 A 
HETATM   20  C6  UNL     1       2.809   1.965  -0.887  1.00  0.00     0.033 A 
HETATM   21  C5  UNL     1       3.828   2.838  -0.534  1.00  0.00     0.003 A 
HETATM   22  C4  UNL     1       4.944   2.334   0.094  1.00  0.00     0.011 A 
HETATM   23  C3  UNL     1       4.994   0.983   0.342  1.00  0.00    -0.035 A 
HETATM   24  C19 UNL     1       3.957   0.161  -0.028  1.00  0.00     0.044 A 
BRANCH  23  25
HETATM   25  C2  UNL     1       6.138   0.373   1.001  1.00  0.00     0.001 C 
HETATM   26  C1  UNL     1       6.245  -0.907   1.265  1.00  0.00     0.012 C 
ENDBRANCH  23  25
ENDBRANCH   1  19
TORSDOF 5
