REMARK  7 active torsions:
REMARK  status: ('A' for Active; 'I' for Inactive)
REMARK    1  A    between atoms: C2_2  and  N1_3 
REMARK    2  A    between atoms: N1_3  and  C3_4 
REMARK    3  A    between atoms: C8_10  and  O2_11 
REMARK    4  A    between atoms: O2_11  and  C9_12 
REMARK    5  A    between atoms: C9_12  and  C10_13 
REMARK    6  A    between atoms: C10_13  and  C11_14 
REMARK    7  A    between atoms: C11_14  and  N2_15 
ROOT
HETATM    1  C3  UNL     1      -3.811  -0.161   0.332  1.00  0.00     0.102 A 
HETATM    2  C4  UNL     1      -4.904   0.587   0.110  1.00  0.00     0.085 A 
HETATM    3  C5  UNL     1      -4.664   2.027   0.101  1.00  0.00     0.155 A 
HETATM    4  O1  UNL     1      -5.665   2.783  -0.106  1.00  0.00    -0.293 OA
HETATM    5  C6  UNL     1      -3.347   2.719   0.311  1.00  0.00     0.113 A 
HETATM    6  C7  UNL     1      -2.295   1.707   0.536  1.00  0.00     0.020 A 
HETATM    7  C8  UNL     1      -2.497   0.398   0.548  1.00  0.00     0.095 A 
ENDROOT
BRANCH   7   8
HETATM    8  O2  UNL     1      -1.499  -0.515   0.759  1.00  0.00    -0.349 OA
BRANCH   8   9
HETATM    9  C9  UNL     1      -0.109  -0.122   0.650  1.00  0.00     0.177 C 
BRANCH   9  10
HETATM   10  C10 UNL     1       0.712  -1.332   0.958  1.00  0.00     0.057 C 
BRANCH  10  11
HETATM   11  C11 UNL     1       2.184  -1.188   0.943  1.00  0.00     0.274 C 
BRANCH  11  12
HETATM   12  N2  UNL     1       2.829  -0.787  -0.256  1.00  0.00     0.092 N 
HETATM   13  C12 UNL     1       2.594   0.570  -0.582  1.00  0.00     0.298 C 
HETATM   14  C13 UNL     1       3.929   1.224  -0.934  1.00  0.00     0.198 C 
HETATM   15  O3  UNL     1       4.863   1.084   0.075  1.00  0.00    -0.388 OA
HETATM   16  C14 UNL     1       5.124  -0.235   0.405  1.00  0.00     0.198 C 
HETATM   17  C15 UNL     1       4.213  -1.199  -0.322  1.00  0.00     0.298 C 
ENDBRANCH  11  12
ENDBRANCH  10  11
ENDBRANCH   9  10
ENDBRANCH   8   9
ENDBRANCH   7   8
BRANCH   1  18
HETATM   18  N1  UNL     1      -4.087  -1.575   0.334  1.00  0.00    -0.208 NA
BRANCH  18  19
HETATM   19  C2  UNL     1      -4.372  -2.209  -0.754  1.00  0.00    -0.043 C 
HETATM   20  C1  UNL     1      -4.519  -2.533  -2.030  1.00  0.00     0.119 C 
ENDBRANCH  18  19
ENDBRANCH   1  18
TORSDOF 7
