REMARK  3 active torsions:
REMARK  status: ('A' for Active; 'I' for Inactive)
REMARK    1  A    between atoms: N1_2  and  C2_3 
REMARK    2  A    between atoms: C2_3  and  C3_5 
REMARK    3  A    between atoms: C13_16  and  N3_17 
ROOT
HETATM    1  C3  UNL     1       1.309  -0.099   1.219  1.00  0.00     0.110 C 
HETATM    2  C4  UNL     1       0.610   1.137   0.880  1.00  0.00    -0.010 C 
HETATM    3  C5  UNL     1       0.872   2.385   0.603  1.00  0.00    -0.003 C 
HETATM    4  C6  UNL     1       0.358   3.696   0.260  1.00  0.00    -0.003 C 
HETATM    5  C7  UNL     1      -0.904   4.133   0.074  1.00  0.00    -0.013 C 
HETATM    6  C8  UNL     1      -1.981   3.166   0.232  1.00  0.00     0.023 A 
HETATM    7  C9  UNL     1      -2.928   2.474   0.893  1.00  0.00     0.046 A 
HETATM    8  C10 UNL     1      -2.809   2.080  -0.501  1.00  0.00     0.083 A 
HETATM    9  C11 UNL     1      -1.890   2.756  -1.163  1.00  0.00     0.046 A 
HETATM   10  O1  UNL     1      -3.835   1.096  -0.365  1.00  0.00    -0.376 OA
HETATM   11  C12 UNL     1      -3.711  -0.068  -1.189  1.00  0.00     0.204 C 
HETATM   12  C13 UNL     1      -2.349  -0.703  -1.015  1.00  0.00     0.245 C 
HETATM   13  C14 UNL     1      -1.990  -1.104   0.370  1.00  0.00     0.076 C 
HETATM   14  C15 UNL     1      -0.619  -1.729   0.345  1.00  0.00    -0.049 A 
HETATM   15  C16 UNL     1      -0.760  -3.042  -0.139  1.00  0.00     0.007 A 
HETATM   16  C17 UNL     1       0.236  -3.997  -0.341  1.00  0.00     0.001 A 
HETATM   17  C18 UNL     1       1.513  -3.596  -0.025  1.00  0.00     0.001 A 
HETATM   18  C19 UNL     1       1.637  -2.303   0.450  1.00  0.00     0.009 A 
HETATM   19  C20 UNL     1       0.687  -1.306   0.674  1.00  0.00    -0.037 A 
ENDROOT
BRANCH   1  20
HETATM   20  C2  UNL     1       2.710   0.028   0.672  1.00  0.00     0.103 C 
HETATM   21  N2  UNL     1       2.868   0.490  -0.530  1.00  0.00    -0.287 NA
HETATM   22  H5  UNL     1       2.040   0.769  -1.097  1.00  0.00     0.188 HD
BRANCH  20  23
HETATM   23  N1  UNL     1       3.938  -0.320   1.344  1.00  0.00    -0.382 N 
HETATM   24  C1  UNL     1       5.213  -0.086   0.741  1.00  0.00     0.147 C 
HETATM   25  H4  UNL     1       3.795  -0.747   2.288  1.00  0.00     0.160 HD
ENDBRANCH  20  23
ENDBRANCH   1  20
BRANCH  12  26
HETATM   26  N3  UNL     1      -2.320  -1.852  -1.892  1.00  0.00     0.085 N 
HETATM   27  H16 UNL     1      -3.244  -2.342  -1.871  1.00  0.00     0.313 HD
HETATM   28  H17 UNL     1      -2.150  -1.623  -2.896  1.00  0.00     0.313 HD
ENDBRANCH  12  26
TORSDOF 3
