REMARK  6 active torsions:
REMARK  status: ('A' for Active; 'I' for Inactive)
REMARK    1  A    between atoms: C3_3  and  O1_4 
REMARK    2  A    between atoms: O1_4  and  C4_5 
REMARK    3  A    between atoms: C4_5  and  C5_6 
REMARK    4  A    between atoms: C5_6  and  C6_7 
REMARK    5  A    between atoms: C6_7  and  C7_8 
REMARK    6  A    between atoms: C12_13  and  C13_14 
ROOT
HETATM    1  C1  UNL     1      -2.072  -0.681  -2.167  1.00  0.00     0.018 C 
HETATM    2  C2  UNL     1      -2.186  -0.119  -0.802  1.00  0.00     0.054 C 
HETATM    3  C3  UNL     1      -0.884  -0.088  -0.065  1.00  0.00     0.047 C 
HETATM    4  C14 UNL     1      -0.962  -0.861   1.006  1.00  0.00     0.007 C 
HETATM    5  C15 UNL     1      -2.321  -1.490   1.101  1.00  0.00     0.048 C 
HETATM    6  C16 UNL     1      -3.178  -0.741   0.111  1.00  0.00     0.010 A 
HETATM    7  C17 UNL     1      -4.126  -1.681  -0.491  1.00  0.00    -0.010 A 
HETATM    8  C18 UNL     1      -5.459  -1.587  -0.358  1.00  0.00     0.033 A 
HETATM    9  C19 UNL     1      -6.107  -0.529   0.408  1.00  0.00     0.104 A 
HETATM   10  N2  UNL     1      -7.137   0.087   0.888  1.00  0.00    -0.172 NA
HETATM   11  N3  UNL     1      -6.458   1.105   1.558  1.00  0.00    -0.276 N 
HETATM   12  C20 UNL     1      -5.278   0.496   1.076  1.00  0.00     0.077 A 
HETATM   13  C21 UNL     1      -3.971   0.291   0.867  1.00  0.00     0.021 A 
HETATM   14  H22 UNL     1      -6.472   1.967   2.156  1.00  0.00     0.189 HD
ENDROOT
BRANCH   3  15
HETATM   15  O1  UNL     1       0.140   0.692  -0.581  1.00  0.00    -0.355 OA
BRANCH  15  16
HETATM   16  C4  UNL     1       1.109   1.335   0.192  1.00  0.00     0.175 C 
BRANCH  16  17
HETATM   17  C5  UNL     1       2.066   2.147  -0.687  1.00  0.00     0.031 C 
BRANCH  17  18
HETATM   18  C6  UNL     1       2.730   1.159  -1.644  1.00  0.00     0.041 C 
BRANCH  18  19
HETATM   19  C7  UNL     1       3.450   0.175  -0.764  1.00  0.00    -0.046 A 
HETATM   20  C8  UNL     1       2.978  -1.101  -0.506  1.00  0.00     0.008 A 
HETATM   21  C9  UNL     1       3.706  -1.955   0.327  1.00  0.00     0.001 A 
HETATM   22  C10 UNL     1       4.903  -1.551   0.907  1.00  0.00     0.001 A 
HETATM   23  C11 UNL     1       5.383  -0.278   0.655  1.00  0.00     0.013 A 
HETATM   24  C12 UNL     1       4.627   0.510  -0.167  1.00  0.00    -0.013 A 
BRANCH  24  25
HETATM   25  C13 UNL     1       5.156   1.840  -0.416  1.00  0.00     0.119 C 
HETATM   26  N1  UNL     1       6.207   2.434  -0.015  1.00  0.00    -0.311 NA
HETATM   27  H16 UNL     1       6.877   1.950   0.619  1.00  0.00     0.186 HD
ENDBRANCH  24  25
ENDBRANCH  18  19
ENDBRANCH  17  18
ENDBRANCH  16  17
ENDBRANCH  15  16
ENDBRANCH   3  15
TORSDOF 6
