REMARK  4 active torsions:
REMARK  status: ('A' for Active; 'I' for Inactive)
REMARK    1  A    between atoms: C5_6  and  C6_7 
REMARK    2  A    between atoms: C16_22  and  C17_23 
REMARK    3  A    between atoms: C17_23  and  C18_24 
REMARK    4  A    between atoms: C18_24  and  N3_25 
ROOT
HETATM    1  O1  UNL     1      -0.015  -3.458   3.303  1.00  0.00    -0.285 OA
HETATM    2  C1  UNL     1      -0.620  -2.661   2.580  1.00  0.00     0.205 C 
HETATM    3  C2  UNL     1      -1.890  -1.860   2.827  1.00  0.00     0.069 C 
HETATM    4  C3  UNL     1      -2.602  -1.059   2.014  1.00  0.00    -0.023 C 
HETATM    5  C4  UNL     1      -2.300  -1.210   0.700  1.00  0.00     0.022 C 
HETATM    6  C5  UNL     1      -1.425  -0.980  -0.498  1.00  0.00     0.092 C 
HETATM    7  N1  UNL     1      -0.907  -2.266  -1.035  1.00  0.00    -0.404 NA
HETATM    8  C12 UNL     1       0.372  -2.612  -0.777  1.00  0.00     0.437 C 
HETATM    9  N2  UNL     1       0.941  -3.863  -1.265  1.00  0.00    -0.270 NA
HETATM   10  C13 UNL     1       0.914  -4.745  -0.229  1.00  0.00     0.116 C 
HETATM   11  C14 UNL     1       0.338  -3.899   0.880  1.00  0.00     0.059 C 
HETATM   12  C15 UNL     1       0.141  -2.587   1.289  1.00  0.00     0.120 C 
HETATM   13  O2  UNL     1       0.547  -1.313   0.720  1.00  0.00    -0.339 OA
HETATM   14  C16 UNL     1      -0.121  -0.294  -0.031  1.00  0.00     0.166 C 
ENDROOT
BRANCH   6  15
HETATM   15  C6  UNL     1      -2.096  -0.256  -1.527  1.00  0.00    -0.023 A 
HETATM   16  C7  UNL     1      -3.381  -0.676  -1.821  1.00  0.00     0.013 A 
HETATM   17  C8  UNL     1      -4.175  -0.088  -2.789  1.00  0.00     0.044 A 
HETATM   18  C9  UNL     1      -3.682   0.988  -3.524  1.00  0.00     0.138 A 
HETATM   19  F1  UNL     1      -4.411   1.600  -4.480  1.00  0.00    -0.204 F 
HETATM   20  C10 UNL     1      -2.414   1.439  -3.267  1.00  0.00     0.073 A 
HETATM   21 CL1  UNL     1      -1.758   2.776  -4.159  1.00  0.00    -0.081 Cl
HETATM   22  C11 UNL     1      -1.646   0.826  -2.291  1.00  0.00     0.037 A 
ENDBRANCH   6  15
BRANCH  14  23
HETATM   23  C17 UNL     1      -0.320   0.908   0.786  1.00  0.00     0.055 C 
BRANCH  23  24
HETATM   24  C18 UNL     1       0.884   1.656   1.282  1.00  0.00     0.119 C 
BRANCH  24  25
HETATM   25  N3  UNL     1       1.766   2.236   0.346  1.00  0.00    -0.408 N 
HETATM   26  C19 UNL     1       2.561   1.367  -0.389  1.00  0.00     0.143 C 
HETATM   27  C20 UNL     1       4.015   1.748  -0.577  1.00  0.00     0.187 C 
HETATM   28  O3  UNL     1       4.432   2.843   0.127  1.00  0.00    -0.388 OA
HETATM   29  C21 UNL     1       3.478   3.880   0.028  1.00  0.00     0.187 C 
HETATM   30  C22 UNL     1       2.321   3.437   0.859  1.00  0.00     0.143 C 
ENDBRANCH  24  25
ENDBRANCH  23  24
ENDBRANCH  14  23
TORSDOF 4
