REMARK  2 active torsions:
REMARK  status: ('A' for Active; 'I' for Inactive)
REMARK    1  A    between atoms: C3_4  and  C4_5 
REMARK    2  A    between atoms: C8_11  and  S1_12 
ROOT
HETATM    1  C4  UNL     1       2.982  -0.651  -0.158  1.00  0.00     0.090 A 
HETATM    2  C5  UNL     1       3.800  -1.754  -0.004  1.00  0.00     0.038 A 
HETATM    3  C6  UNL     1       3.442  -2.931   0.611  1.00  0.00     0.057 A 
HETATM    4  C7  UNL     1       2.139  -2.989   1.113  1.00  0.00     0.175 A 
HETATM    5  N2  UNL     1       1.390  -3.896   1.760  1.00  0.00    -0.128 NA
HETATM    6  N3  UNL     1       0.185  -3.370   1.985  1.00  0.00    -0.121 NA
HETATM    7  C8  UNL     1       0.156  -2.122   1.483  1.00  0.00     0.206 A 
HETATM    8  N4  UNL     1       1.369  -1.897   0.946  1.00  0.00    -0.188 N 
HETATM    9  N5  UNL     1       1.717  -0.748   0.346  1.00  0.00    -0.163 NA
ENDROOT
BRANCH   7  10
HETATM   10  S1  UNL     1      -1.334  -1.220   1.658  1.00  0.00    -0.123 SA
HETATM   11  C9  UNL     1      -1.090   0.371   1.688  1.00  0.00     0.020 C 
HETATM   12  C10 UNL     1      -2.280   1.254   1.833  1.00  0.00     0.072 C 
HETATM   13  C11 UNL     1      -3.409   0.809   1.007  1.00  0.00    -0.051 A 
HETATM   14  C12 UNL     1      -4.460   1.595   0.909  1.00  0.00    -0.019 A 
HETATM   15  C16 UNL     1      -3.441  -0.455   0.285  1.00  0.00    -0.046 A 
HETATM   16  C13 UNL     1      -5.729   1.432   0.168  1.00  0.00     0.031 A 
HETATM   17  C14 UNL     1      -5.811   0.141  -0.592  1.00  0.00     0.031 A 
HETATM   18  C15 UNL     1      -4.567  -0.623  -0.384  1.00  0.00    -0.018 A 
HETATM   19  C17 UNL     1      -2.408  -1.520   0.217  1.00  0.00     0.114 C 
ENDBRANCH   7  10
BRANCH   1  20
HETATM   20  C3  UNL     1       3.517   0.532  -0.840  1.00  0.00     0.031 A 
HETATM   21  C2  UNL     1       4.774   0.687  -1.365  1.00  0.00     0.127 A 
HETATM   22  N1  UNL     1       4.848   1.930  -1.903  1.00  0.00    -0.285 N 
HETATM   23  C1  UNL     1       5.990   2.522  -2.565  1.00  0.00     0.179 C 
HETATM   24  N6  UNL     1       3.680   2.535  -1.724  1.00  0.00    -0.185 NA
HETATM   25  C18 UNL     1       2.838   1.712  -1.077  1.00  0.00     0.154 A 
ENDBRANCH   1  20
TORSDOF 2
