REMARK  3 active torsions:
REMARK  status: ('A' for Active; 'I' for Inactive)
REMARK    1  A    between atoms: N1_1  and  C1_2 
REMARK    2  A    between atoms: C7_9  and  S1_10 
REMARK    3  A    between atoms: S1_10  and  C8_11 
ROOT
HETATM    1  C8  UNL     1      -0.279   2.397   0.099  1.00  0.00     0.217 A 
HETATM    2  N2  UNL     1      -0.578   3.458  -0.647  1.00  0.00    -0.120 NA
HETATM    3  N3  UNL     1      -1.865   3.393  -0.902  1.00  0.00    -0.128 NA
HETATM    4  C9  UNL     1      -2.413   2.276  -0.313  1.00  0.00     0.175 A 
HETATM    5  N4  UNL     1      -1.374   1.599   0.355  1.00  0.00    -0.188 N 
HETATM    6  N5  UNL     1      -2.463   0.809   0.607  1.00  0.00    -0.171 NA
HETATM    7  C10 UNL     1      -2.567  -0.438   0.467  1.00  0.00     0.057 C 
HETATM    8  C11 UNL     1      -1.983  -1.784   0.084  1.00  0.00     0.106 C 
HETATM    9  C12 UNL     1      -3.003  -2.568  -0.681  1.00  0.00     0.117 C 
HETATM   10  N6  UNL     1      -4.243  -2.224  -0.898  1.00  0.00    -0.193 NA
HETATM   11  N7  UNL     1      -4.667  -0.977  -0.364  1.00  0.00    -0.297 N 
HETATM   12  C13 UNL     1      -5.573   0.093  -0.740  1.00  0.00     0.172 C 
HETATM   13  C14 UNL     1      -4.828   1.381  -0.747  1.00  0.00    -0.002 C 
HETATM   14  C15 UNL     1      -3.895   2.350  -0.666  1.00  0.00     0.052 C 
HETATM   15  C16 UNL     1      -3.978  -0.708   0.911  1.00  0.00     0.201 C 
ENDROOT
BRANCH   1  16
HETATM   16  S1  UNL     1       0.726   1.393   1.194  1.00  0.00    -0.053 SA
BRANCH  16  17
HETATM   17  C7  UNL     1       2.125   0.649   0.399  1.00  0.00    -0.017 C 
HETATM   18  C6  UNL     1       3.054   1.063  -0.824  1.00  0.00     0.062 C 
HETATM   19  C5  UNL     1       4.327   0.278  -0.446  1.00  0.00     0.010 A 
HETATM   20  C1  UNL     1       5.009   0.669   0.781  1.00  0.00    -0.010 A 
HETATM   21  C4  UNL     1       4.005  -0.856  -1.274  1.00  0.00    -0.001 C 
HETATM   22  C2  UNL     1       4.960  -0.633   0.555  1.00  0.00    -0.015 A 
HETATM   23  C3  UNL     1       4.027  -2.280  -1.628  1.00  0.00    -0.088 C 
HETATM   24  B1  UNL     1       5.565  -2.435  -0.362  1.00  0.00     0.185 B 
HETATM   25  C18 UNL     1       3.742  -1.456   1.106  1.00  0.00     0.034 C 
HETATM   26  C17 UNL     1       2.469  -0.580   1.018  1.00  0.00    -0.012 C 
BRANCH  20  27
HETATM   27  N1  UNL     1       5.645   1.425   1.784  1.00  0.00    -0.405 N 
HETATM   28  H1  UNL     1       5.033   1.786   2.525  1.00  0.00     0.155 HD
HETATM   29  H2  UNL     1       6.676   1.526   1.639  1.00  0.00     0.155 HD
ENDBRANCH  20  27
ENDBRANCH  16  17
ENDBRANCH   1  16
TORSDOF 3
