REMARK  2 active torsions:
REMARK  status: ('A' for Active; 'I' for Inactive)
REMARK    1  A    between atoms: C5_7  and  S1_8 
REMARK    2  A    between atoms: S1_8  and  C6_9 
ROOT
HETATM    1  C1  UNL     1      -3.092   4.630   0.585  1.00  0.00     0.179 C 
HETATM    2  N1  UNL     1      -2.980   3.209   0.206  1.00  0.00    -0.284 N 
HETATM    3  C2  UNL     1      -3.901   2.314  -0.165  1.00  0.00     0.121 A 
HETATM    4  C3  UNL     1      -3.370   1.038  -0.449  1.00  0.00    -0.007 A 
HETATM    5  C4  UNL     1      -2.043   1.261  -0.210  1.00  0.00     0.122 A 
HETATM    6  N2  UNL     1      -1.852   2.533   0.169  1.00  0.00    -0.170 NA
HETATM    7  C5  UNL     1      -0.757   0.523  -0.248  1.00  0.00     0.151 C 
HETATM    8  N4  UNL     1       0.012  -0.063  -1.017  1.00  0.00    -0.141 NA
HETATM    9  N5  UNL     1       0.075  -0.361  -2.335  1.00  0.00    -0.165 NA
HETATM   10  C15 UNL     1      -1.127  -0.550  -2.887  1.00  0.00     0.119 C 
HETATM   11  C16 UNL     1      -2.622  -0.655  -3.032  1.00  0.00     0.042 C 
HETATM   12  C17 UNL     1      -3.702  -0.433  -2.243  1.00  0.00     0.005 C 
HETATM   13  C18 UNL     1      -4.343  -0.002  -0.907  1.00  0.00     0.048 C 
ENDROOT
BRANCH   7  14
HETATM   14  S1  UNL     1       0.019   0.305   1.339  1.00  0.00    -0.067 SA
BRANCH  14  15
HETATM   15  C6  UNL     1       1.532  -0.531   1.414  1.00  0.00     0.008 A 
HETATM   16  C7  UNL     1       1.949  -0.588   2.755  1.00  0.00     0.021 A 
HETATM   17  C8  UNL     1       3.152  -1.215   3.098  1.00  0.00     0.034 A 
HETATM   18  C9  UNL     1       3.949  -1.786   2.129  1.00  0.00     0.066 A 
HETATM   19  N3  UNL     1       5.124  -2.408   2.385  1.00  0.00    -0.260 NA
HETATM   20  C13 UNL     1       3.571  -1.747   0.806  1.00  0.00    -0.006 A 
HETATM   21  C10 UNL     1       5.845  -2.940   1.388  1.00  0.00     0.117 A 
HETATM   22  C11 UNL     1       5.472  -2.905   0.059  1.00  0.00     0.020 A 
HETATM   23  C12 UNL     1       4.265  -2.274  -0.263  1.00  0.00     0.015 A 
HETATM   24  C14 UNL     1       2.385  -1.124   0.514  1.00  0.00     0.032 A 
ENDBRANCH  14  15
ENDBRANCH   7  14
TORSDOF 2
