REMARK  7 active torsions:
REMARK  status: ('A' for Active; 'I' for Inactive)
REMARK    1  A    between atoms: C2_2  and  C3_3 
REMARK    2  A    between atoms: C4_4  and  C5_5 
REMARK    3  A    between atoms: C5_5  and  C6_6 
REMARK    4  A    between atoms: C6_6  and  N1_7 
REMARK    5  A    between atoms: C6_6  and  N2_8 
REMARK    6  A    between atoms: C9_11  and  N3_12 
REMARK    7  A    between atoms: N3_12  and  C10_13 
ROOT
HETATM    1  N2  UNL     1      -1.531   1.031  -1.921  1.00  0.00    -0.238 NA
HETATM    2  C7  UNL     1      -0.307   0.699  -1.687  1.00  0.00     0.131 A 
HETATM    3  C8  UNL     1       0.242  -0.024  -0.512  1.00  0.00     0.158 A 
HETATM    4  C9  UNL     1       1.692  -0.184  -0.689  1.00  0.00     0.113 A 
HETATM    5  N4  UNL     1       2.408   0.234  -1.704  1.00  0.00    -0.228 NA
HETATM    6  C16 UNL     1       1.793   0.920  -2.785  1.00  0.00     0.237 A 
HETATM    7  N5  UNL     1       0.515   1.131  -2.762  1.00  0.00    -0.227 NA
ENDROOT
BRANCH   1   8
HETATM    8  C6  UNL     1      -2.469   0.655  -0.922  1.00  0.00     0.229 C 
BRANCH   8   9
HETATM    9  C5  UNL     1      -3.471   0.352  -0.126  1.00  0.00     0.192 C 
BRANCH   9  10
HETATM   10  C4  UNL     1      -3.306  -0.143   1.231  1.00  0.00    -0.017 C 
HETATM   11  C3  UNL     1      -4.622  -0.258   1.501  1.00  0.00    -0.007 C 
BRANCH  11  12
HETATM   12  C2  UNL     1      -5.558   0.126   0.420  1.00  0.00    -0.027 C 
HETATM   13  C1  UNL     1      -6.710   0.345  -0.219  1.00  0.00     0.031 C 
ENDBRANCH  11  12
ENDBRANCH   9  10
ENDBRANCH   8   9
BRANCH   8  14
HETATM   14  N1  UNL     1      -3.152   1.085  -2.118  1.00  0.00     0.104 N 
HETATM   15  H7  UNL     1      -4.115   1.284  -2.527  1.00  0.00     0.315 HD
HETATM   16  H8  UNL     1      -4.130   1.271  -2.483  1.00  0.00     0.315 HD
ENDBRANCH   8  14
ENDBRANCH   1   8
BRANCH   4  17
HETATM   17  N3  UNL     1       2.444  -0.856   0.311  1.00  0.00    -0.344 N 
HETATM   18  H11 UNL     1       2.011  -1.717   0.759  1.00  0.00     0.167 HD
BRANCH  17  19
HETATM   19  C10 UNL     1       3.729  -0.473   0.770  1.00  0.00     0.035 A 
HETATM   20  C11 UNL     1       4.437   0.622   0.355  1.00  0.00     0.029 A 
HETATM   21  C12 UNL     1       5.688   0.981   0.805  1.00  0.00     0.004 A 
HETATM   22  C13 UNL     1       6.302   0.193   1.751  1.00  0.00     0.024 A 
HETATM   23  C14 UNL     1       5.633  -0.922   2.204  1.00  0.00     0.036 A 
HETATM   24 CL1  UNL     1       6.387  -1.950   3.411  1.00  0.00    -0.084 Cl
HETATM   25  C15 UNL     1       4.389  -1.228   1.718  1.00  0.00     0.053 A 
ENDBRANCH  17  19
ENDBRANCH   4  17
TORSDOF 7
