REMARK  2 active torsions:
REMARK  status: ('A' for Active; 'I' for Inactive)
REMARK    1  A    between atoms: C4_4  and  C5_5 
REMARK    2  A    between atoms: C9_11  and  S1_12 
ROOT
HETATM    1  C5  UNL     1      -2.279  -1.449  -0.887  1.00  0.00     0.085 A 
HETATM    2  C6  UNL     1      -2.681  -2.506  -1.669  1.00  0.00     0.038 A 
HETATM    3  C7  UNL     1      -1.623  -3.146  -2.320  1.00  0.00     0.057 A 
HETATM    4  C8  UNL     1      -0.339  -2.654  -2.108  1.00  0.00     0.175 A 
HETATM    5  N1  UNL     1       0.737  -3.180  -2.672  1.00  0.00    -0.128 NA
HETATM    6  N2  UNL     1       1.774  -2.514  -2.288  1.00  0.00    -0.121 NA
HETATM    7  C9  UNL     1       1.352  -1.524  -1.447  1.00  0.00     0.209 A 
HETATM    8  N4  UNL     1      -0.012  -1.621  -1.336  1.00  0.00    -0.188 N 
HETATM    9  N5  UNL     1      -1.015  -1.029  -0.728  1.00  0.00    -0.163 NA
ENDROOT
BRANCH   7  10
HETATM   10  S1  UNL     1       2.085  -0.170  -0.486  1.00  0.00    -0.094 SA
HETATM   11  C10 UNL     1       3.200   1.026  -0.933  1.00  0.00     0.072 C 
HETATM   12  C11 UNL     1       2.746   2.190  -0.042  1.00  0.00     0.094 C 
HETATM   13  N3  UNL     1       4.456   1.279  -1.753  1.00  0.00    -0.259 NA
HETATM   14  C12 UNL     1       3.074   1.830   1.413  1.00  0.00    -0.012 C 
HETATM   15  C13 UNL     1       3.761   0.619   1.387  1.00  0.00    -0.052 C 
HETATM   16  C14 UNL     1       5.289   0.658   1.392  1.00  0.00     0.009 C 
HETATM   17  C17 UNL     1       2.742  -0.551   1.273  1.00  0.00     0.116 C 
HETATM   18  C15 UNL     1       6.065   0.835   0.260  1.00  0.00     0.020 C 
HETATM   19  C16 UNL     1       5.692   1.129  -1.186  1.00  0.00     0.117 C 
ENDBRANCH   7  10
BRANCH   1  20
HETATM   20  C4  UNL     1      -3.325  -0.723  -0.168  1.00  0.00    -0.011 C 
HETATM   21  C3  UNL     1      -3.161   0.463   0.747  1.00  0.00     0.067 C 
HETATM   22  C2  UNL     1      -4.530   1.072   0.714  1.00  0.00     0.081 C 
HETATM   23  C1  UNL     1      -4.875   1.897   1.911  1.00  0.00     0.032 C 
HETATM   24  N6  UNL     1      -5.382  -0.119   0.593  1.00  0.00    -0.394 N 
HETATM   25  C18 UNL     1      -4.615  -1.021  -0.227  1.00  0.00     0.092 C 
HETATM   26  H18 UNL     1      -6.333  -0.207   1.041  1.00  0.00     0.159 HD
ENDBRANCH   1  20
TORSDOF 2
