REMARK  3 active torsions:
REMARK  status: ('A' for Active; 'I' for Inactive)
REMARK    1  A    between atoms: N1_2  and  N2_3 
REMARK    2  A    between atoms: N2_3  and  C3_5 
REMARK    3  A    between atoms: C3_5  and  C4_6 
ROOT
HETATM    1  C4  UNL     1       2.845   0.222  -0.289  1.00  0.00     0.074 A 
HETATM    2  N3  UNL     1       2.052  -0.711  -0.729  1.00  0.00    -0.173 NA
HETATM    3  N4  UNL     1       0.700  -0.747  -0.446  1.00  0.00    -0.241 N 
HETATM    4  C5  UNL     1       0.082  -1.901  -1.060  1.00  0.00     0.232 C 
HETATM    5  S1  UNL     1      -1.081  -1.516  -2.366  1.00  0.00    -0.106 SA
HETATM    6  C6  UNL     1      -2.578  -0.853  -1.600  1.00  0.00     0.031 A 
HETATM    7  C7  UNL     1      -3.499  -1.118  -2.609  1.00  0.00     0.023 A 
HETATM    8  C8  UNL     1      -4.808  -0.711  -2.350  1.00  0.00     0.034 A 
HETATM    9  C9  UNL     1      -5.215  -0.082  -1.190  1.00  0.00     0.069 A 
HETATM   10  N5  UNL     1      -6.478   0.304  -0.988  1.00  0.00    -0.260 NA
HETATM   11  C10 UNL     1      -6.787   0.934   0.184  1.00  0.00     0.117 A 
HETATM   12  C11 UNL     1      -5.819   1.180   1.165  1.00  0.00     0.020 A 
HETATM   13  C12 UNL     1      -4.518   0.776   0.945  1.00  0.00     0.017 A 
HETATM   14  C13 UNL     1      -4.243   0.144  -0.243  1.00  0.00     0.022 A 
HETATM   15  C14 UNL     1      -2.930  -0.220  -0.400  1.00  0.00     0.079 A 
HETATM   16  N6  UNL     1      -2.196   0.125   0.793  1.00  0.00    -0.274 N 
HETATM   17  N7  UNL     1      -0.913   0.733   0.903  1.00  0.00    -0.155 NA
HETATM   18  C15 UNL     1       0.204   0.313   0.370  1.00  0.00     0.166 A 
HETATM   19  C16 UNL     1       1.080   1.379   0.880  1.00  0.00     0.056 A 
HETATM   20  C17 UNL     1       2.366   1.332   0.557  1.00  0.00     0.034 A 
HETATM   21  H15 UNL     1      -2.850  -0.202   1.574  1.00  0.00     0.189 HD
ENDROOT
BRANCH   1  22
HETATM   22  C3  UNL     1       4.280   0.198  -0.630  1.00  0.00     0.205 C 
BRANCH  22  23
HETATM   23  N2  UNL     1       5.172   0.122   0.484  1.00  0.00    -0.305 N 
HETATM   24  C2  UNL     1       6.605   0.097   0.171  1.00  0.00     0.173 C 
BRANCH  23  25
HETATM   25  N1  UNL     1       4.916   0.065   1.865  1.00  0.00    -0.201 NA
HETATM   26  C1  UNL     1       5.418  -0.849   2.622  1.00  0.00     0.173 C 
ENDBRANCH  23  25
ENDBRANCH  22  23
ENDBRANCH   1  22
TORSDOF 3
