REMARK  6 active torsions:
REMARK  status: ('A' for Active; 'I' for Inactive)
REMARK    1  A    between atoms: C1_2  and  C2_3 
REMARK    2  A    between atoms: C2_3  and  N1_4 
REMARK    3  A    between atoms: N1_4  and  C3_5 
REMARK    4  A    between atoms: C6_8  and  O2_9 
REMARK    5  A    between atoms: O2_9  and  C7_10 
REMARK    6  A    between atoms: C7_10  and  N2_11 
ROOT
HETATM    1  C3  UNL     1      -2.551   0.120   0.176  1.00  0.00     0.039 A 
HETATM    2  C4  UNL     1      -1.503   0.846   0.698  1.00  0.00     0.033 A 
HETATM    3  C5  UNL     1      -0.259   0.918   0.107  1.00  0.00     0.040 A 
HETATM    4  C6  UNL     1      -0.019   0.239  -1.069  1.00  0.00     0.082 A 
HETATM    5  C12 UNL     1      -1.039  -0.499  -1.625  1.00  0.00     0.010 A 
HETATM    6  C13 UNL     1      -0.815  -1.187  -2.806  1.00  0.00     0.015 A 
HETATM    7  C14 UNL     1      -1.821  -1.938  -3.391  1.00  0.00     0.001 A 
HETATM    8  C15 UNL     1      -3.058  -1.982  -2.762  1.00  0.00     0.001 A 
HETATM    9  C16 UNL     1      -3.250  -1.289  -1.590  1.00  0.00     0.014 A 
HETATM   10  C17 UNL     1      -2.265  -0.540  -0.997  1.00  0.00     0.003 A 
ENDROOT
BRANCH   4  11
HETATM   11  O2  UNL     1       1.208   0.298  -1.668  1.00  0.00    -0.321 OA
BRANCH  11  12
HETATM   12  C7  UNL     1       2.306   1.033  -1.162  1.00  0.00     0.447 C 
BRANCH  12  13
HETATM   13  N2  UNL     1       2.718   0.605   0.163  1.00  0.00     0.116 N 
HETATM   14  C8  UNL     1       3.100  -0.797   0.075  1.00  0.00     0.301 C 
HETATM   15  C9  UNL     1       4.148  -1.172   1.079  1.00  0.00     0.198 C 
HETATM   16  O3  UNL     1       4.108  -0.314   2.190  1.00  0.00    -0.388 OA
HETATM   17  C10 UNL     1       4.616   0.900   1.713  1.00  0.00     0.198 C 
HETATM   18  C11 UNL     1       3.897   1.389   0.480  1.00  0.00     0.301 C 
ENDBRANCH  12  13
ENDBRANCH  11  12
ENDBRANCH   4  11
BRANCH   1  19
HETATM   19  N1  UNL     1      -3.807   0.092   0.840  1.00  0.00    -0.387 N 
HETATM   20  H4  UNL     1      -4.653  -0.415   0.540  1.00  0.00     0.159 HD
BRANCH  19  21
HETATM   21  C2  UNL     1      -3.957   0.846   2.081  1.00  0.00     0.156 C 
BRANCH  21  22
HETATM   22  C1  UNL     1      -5.300   0.733   2.660  1.00  0.00     0.410 C 
HETATM   23  O1  UNL     1      -6.409   0.259   2.552  1.00  0.00    -0.428 OA
ENDBRANCH  21  22
ENDBRANCH  19  21
ENDBRANCH   1  19
TORSDOF 6
