REMARK  3 active torsions:
REMARK  status: ('A' for Active; 'I' for Inactive)
REMARK    1  A    between atoms: C2_2  and  C3_3 
REMARK    2  A    between atoms: C5_5  and  C6_6 
REMARK    3  A    between atoms: C14_17  and  C15_18 
ROOT
HETATM    1  C3  UNL     1       0.017   0.714  -0.795  1.00  0.00     0.010 C 
HETATM    2  C4  UNL     1      -0.363  -0.436  -0.329  1.00  0.00    -0.013 A 
HETATM    3  C5  UNL     1       0.719  -1.146   0.370  1.00  0.00     0.097 A 
HETATM    4  N1  UNL     1       0.609  -2.308   0.916  1.00  0.00    -0.150 NA
HETATM    5  N2  UNL     1      -0.634  -2.993   0.866  1.00  0.00    -0.165 NA
HETATM    6  C13 UNL     1      -1.633  -2.400   0.256  1.00  0.00     0.128 A 
HETATM    7  C14 UNL     1      -1.682  -1.052  -0.428  1.00  0.00     0.096 A 
ENDROOT
BRANCH   3   8
HETATM    8  C6  UNL     1       2.081  -0.627   0.544  1.00  0.00     0.001 A 
HETATM    9  C7  UNL     1       2.448  -0.168   1.794  1.00  0.00     0.016 A 
HETATM   10  C8  UNL     1       3.758   0.314   1.896  1.00  0.00     0.025 A 
HETATM   11  C9  UNL     1       4.635   0.335   0.829  1.00  0.00     0.034 A 
HETATM   12 CL1  UNL     1       6.251   0.955   1.053  1.00  0.00    -0.084 Cl
HETATM   13  C10 UNL     1       4.209  -0.139  -0.399  1.00  0.00     0.031 A 
HETATM   14  C11 UNL     1       2.913  -0.633  -0.564  1.00  0.00    -0.048 A 
HETATM   15  C12 UNL     1       2.515  -1.124  -1.893  1.00  0.00     0.049 C 
ENDBRANCH   3   8
BRANCH   1  16
HETATM   16  C2  UNL     1      -0.815   1.655  -1.534  1.00  0.00    -0.010 C 
HETATM   17  C1  UNL     1      -0.548   2.843  -2.054  1.00  0.00     0.011 C 
ENDBRANCH   1  16
BRANCH   7  18
HETATM   18  C15 UNL     1      -2.786  -0.271   0.193  1.00  0.00    -0.042 A 
HETATM   19  C16 UNL     1      -2.425   0.095   1.497  1.00  0.00     0.027 A 
HETATM   20  C17 UNL     1      -3.314   0.835   2.283  1.00  0.00     0.116 A 
HETATM   21  N3  UNL     1      -4.508   1.193   1.787  1.00  0.00    -0.273 NA
HETATM   22  C18 UNL     1      -4.856   0.845   0.541  1.00  0.00     0.116 A 
HETATM   23  C19 UNL     1      -4.025   0.118  -0.277  1.00  0.00     0.027 A 
ENDBRANCH   7  18
TORSDOF 3
