REMARK  4 active torsions:
REMARK  status: ('A' for Active; 'I' for Inactive)
REMARK    1  A    between atoms: C5_5  and  N1_6 
REMARK    2  A    between atoms: N1_6  and  C6_7 
REMARK    3  A    between atoms: C22_27  and  S1_28 
REMARK    4  A    between atoms: S1_28  and  N6_29 
ROOT
HETATM    1  C6  UNL     1       1.519  -1.255  -1.267  1.00  0.00     0.727 A 
HETATM    2  N2  UNL     1       1.103  -0.256  -2.049  1.00  0.00    -0.074 NA
HETATM    3  C7  UNL     1      -0.172   0.161  -1.965  1.00  0.00     0.149 A 
HETATM    4  C8  UNL     1      -0.931  -0.512  -1.053  1.00  0.00     0.007 A 
HETATM    5  C9  UNL     1      -0.607  -1.541  -0.210  1.00  0.00     0.065 A 
HETATM    6  N3  UNL     1       0.690  -1.839  -0.412  1.00  0.00    -0.067 NA
HETATM    7  C10 UNL     1      -1.087  -2.448   0.818  1.00  0.00     0.065 C 
HETATM    8  C11 UNL     1      -2.515  -2.339   1.242  1.00  0.00     0.033 C 
HETATM    9  C12 UNL     1      -2.939  -1.076   1.817  1.00  0.00    -0.024 C 
HETATM   10  C13 UNL     1      -3.677   0.024   1.865  1.00  0.00     0.030 C 
HETATM   11  C14 UNL     1      -4.730   0.534   1.016  1.00  0.00     0.089 A 
HETATM   12  N4  UNL     1      -5.885   1.167   1.274  1.00  0.00    -0.172 NA
HETATM   13  N5  UNL     1      -6.526   1.444   0.155  1.00  0.00    -0.277 N 
HETATM   14  C15 UNL     1      -7.812   2.119  -0.020  1.00  0.00     0.179 C 
HETATM   15  C16 UNL     1      -5.851   1.018  -0.925  1.00  0.00     0.039 A 
HETATM   16  C17 UNL     1      -6.018   1.016  -2.397  1.00  0.00     0.071 C 
HETATM   17  C18 UNL     1      -4.749   0.462  -0.351  1.00  0.00     0.018 A 
HETATM   18  C19 UNL     1      -3.588  -0.206  -0.869  1.00  0.00     0.017 C 
HETATM   19  C20 UNL     1      -2.310  -0.213  -0.845  1.00  0.00     0.016 C 
ENDROOT
BRANCH   1  20
HETATM   20  N1  UNL     1       2.904  -1.512  -1.546  1.00  0.00    -0.188 N 
HETATM   21  H6  UNL     1       2.863  -2.263  -2.266  1.00  0.00     0.184 HD
BRANCH  20  22
HETATM   22  C5  UNL     1       4.073  -0.933  -1.017  1.00  0.00     0.050 A 
HETATM   23  C4  UNL     1       5.258  -1.408  -1.533  1.00  0.00     0.030 A 
HETATM   24  C3  UNL     1       6.436  -0.882  -1.066  1.00  0.00     0.010 A 
HETATM   25  C2  UNL     1       6.410   0.103  -0.097  1.00  0.00    -0.039 A 
HETATM   26  C1  UNL     1       7.704   0.659   0.394  1.00  0.00     0.050 C 
HETATM   27  C22 UNL     1       5.200   0.550   0.393  1.00  0.00     0.082 A 
HETATM   28  C21 UNL     1       3.992   0.041  -0.057  1.00  0.00     0.055 A 
BRANCH  27  29
HETATM   29  S1  UNL     1       5.267   1.806   1.623  1.00  0.00     0.239 S 
HETATM   30  O1  UNL     1       5.924   3.004   0.955  1.00  0.00    -0.206 OA
HETATM   31  O2  UNL     1       3.850   2.194   1.978  1.00  0.00    -0.206 OA
BRANCH  29  32
HETATM   32  N6  UNL     1       6.123   1.319   3.017  1.00  0.00    -0.225 NA
HETATM   33  H23 UNL     1       5.550   1.451   3.891  1.00  0.00     0.136 HD
HETATM   34  H24 UNL     1       6.994   1.917   3.113  1.00  0.00     0.136 HD
ENDBRANCH  29  32
ENDBRANCH  27  29
ENDBRANCH  20  22
ENDBRANCH   1  20
TORSDOF 4
