REMARK  9 active torsions:
REMARK  status: ('A' for Active; 'I' for Inactive)
REMARK    1  A    between atoms: C6_6  and  N1_7 
REMARK    2  A    between atoms: N1_7  and  C7_8 
REMARK    3  A    between atoms: N1_7  and  C11_17 
REMARK    4  A    between atoms: C7_8  and  N2_9 
REMARK    5  A    between atoms: N2_9  and  C8_10 
REMARK    6  A    between atoms: C8_10  and  C9_11 
REMARK    7  A    between atoms: C9_11  and  C10_12 
REMARK    8  A    between atoms: C10_12  and  S1_13 
REMARK    9  A    between atoms: S1_13  and  N3_14 
ROOT
HETATM    1  N1  UNL     1       0.653  -0.944  -0.178  1.00  0.00    -0.328 N 
ENDROOT
BRANCH   1   2
HETATM    2  C6  UNL     1      -0.720  -0.576  -0.092  1.00  0.00     0.038 A 
HETATM    3  C5  UNL     1      -1.703  -1.463   0.351  1.00  0.00     0.031 A 
HETATM    4  C4  UNL     1      -3.037  -1.128   0.441  1.00  0.00     0.018 A 
HETATM    5  C3  UNL     1      -3.419   0.133   0.081  1.00  0.00     0.018 A 
HETATM    6  C2  UNL     1      -4.674   0.705   0.082  1.00  0.00     0.039 A 
HETATM    7  C16 UNL     1      -2.495   1.054  -0.363  1.00  0.00     0.091 A 
HETATM    8  C1  UNL     1      -5.947   0.060   0.488  1.00  0.00     0.071 C 
HETATM    9  N6  UNL     1      -4.495   1.956  -0.360  1.00  0.00    -0.277 N 
HETATM   10  N5  UNL     1      -3.216   2.173  -0.625  1.00  0.00    -0.172 NA
HETATM   11  C17 UNL     1      -5.611   2.887  -0.499  1.00  0.00     0.179 C 
HETATM   12  C15 UNL     1      -1.161   0.689  -0.444  1.00  0.00     0.064 A 
ENDBRANCH   1   2
BRANCH   1  13
HETATM   13  C7  UNL     1       1.658   0.015  -0.647  1.00  0.00     0.252 C 
BRANCH  13  14
HETATM   14  N2  UNL     1       1.715   1.191   0.188  1.00  0.00    -0.376 N 
HETATM   15  H8  UNL     1       1.160   1.422   1.032  1.00  0.00     0.161 HD
BRANCH  14  16
HETATM   16  C8  UNL     1       2.739   1.985  -0.430  1.00  0.00     0.137 C 
BRANCH  16  17
HETATM   17  C9  UNL     1       3.930   1.882   0.147  1.00  0.00    -0.115 C 
BRANCH  17  18
HETATM   18  C10 UNL     1       5.101   1.514   0.650  1.00  0.00     0.226 C 
BRANCH  18  19
HETATM   19  S1  UNL     1       5.889   0.134  -0.036  1.00  0.00     0.224 S 
HETATM   20  O1  UNL     1       5.498  -1.085   0.763  1.00  0.00    -0.210 OA
HETATM   21  O2  UNL     1       5.511  -0.007  -1.479  1.00  0.00    -0.210 OA
BRANCH  19  22
HETATM   22  N3  UNL     1       7.604   0.332   0.081  1.00  0.00    -0.228 NA
HETATM   23  H11 UNL     1       7.906   1.285  -0.224  1.00  0.00     0.136 HD
HETATM   24  H12 UNL     1       8.107  -0.369  -0.526  1.00  0.00     0.136 HD
ENDBRANCH  19  22
ENDBRANCH  18  19
ENDBRANCH  17  18
ENDBRANCH  16  17
ENDBRANCH  14  16
ENDBRANCH  13  14
ENDBRANCH   1  13
BRANCH   1  25
HETATM   25  C11 UNL     1       1.001  -2.270   0.209  1.00  0.00     0.069 C 
HETATM   26  C12 UNL     1       1.056  -3.132  -0.795  1.00  0.00     0.114 C 
HETATM   27  N4  UNL     1       1.100  -4.353  -0.379  1.00  0.00    -0.256 NA
HETATM   28  C13 UNL     1       1.392  -4.329   1.021  1.00  0.00     0.120 C 
HETATM   29  C14 UNL     1       1.340  -3.049   1.421  1.00  0.00     0.051 C 
ENDBRANCH   1  25
TORSDOF 9
