REMARK  1 active torsions:
REMARK  status: ('A' for Active; 'I' for Inactive)
REMARK    1  A    between atoms: C6_10  and  C7_11 
ROOT
HETATM    1 CL1  UNL     1       4.257  -3.086  -2.103  1.00  0.00    -0.089 Cl
HETATM    2  C1  UNL     1       3.270  -1.796  -1.439  1.00  0.00     0.012 C 
HETATM    3  C2  UNL     1       2.100  -1.424  -1.884  1.00  0.00     0.012 C 
HETATM    4  C3  UNL     1       1.344  -0.314  -1.246  1.00  0.00     0.154 C 
HETATM    5  N1  UNL     1       1.565  -0.180   0.163  1.00  0.00    -0.352 N 
HETATM    6  C4  UNL     1       0.331  -0.286   0.829  1.00  0.00     0.156 C 
HETATM    7  N2  UNL     1       0.631  -1.452   1.289  1.00  0.00    -0.132 NA
HETATM    8  N3  UNL     1      -0.362  -2.104   2.091  1.00  0.00    -0.164 NA
HETATM    9  C5  UNL     1      -1.466  -1.400   2.216  1.00  0.00     0.128 C 
HETATM   10  C6  UNL     1      -1.951  -0.084   1.720  1.00  0.00     0.098 C 
HETATM   11  C12 UNL     1      -0.814   0.554   1.011  1.00  0.00     0.003 C 
HETATM   12  C13 UNL     1      -0.833   1.825   0.682  1.00  0.00     0.012 C 
HETATM   13  C14 UNL     1       0.050   2.841   0.124  1.00  0.00     0.001 C 
HETATM   14  C15 UNL     1       1.298   3.073  -0.301  1.00  0.00    -0.000 C 
HETATM   15  C16 UNL     1       2.632   2.474  -0.484  1.00  0.00    -0.002 C 
HETATM   16  C17 UNL     1       3.284   1.336  -0.276  1.00  0.00    -0.001 C 
HETATM   17  C18 UNL     1       2.958  -0.010   0.298  1.00  0.00     0.114 C 
HETATM   18  C19 UNL     1       3.804  -1.072  -0.288  1.00  0.00     0.080 C 
ENDROOT
BRANCH  10  19
HETATM   19  C7  UNL     1      -3.065  -0.416   0.783  1.00  0.00    -0.042 A 
HETATM   20  C8  UNL     1      -2.664  -1.196  -0.277  1.00  0.00     0.027 A 
HETATM   21  C9  UNL     1      -3.636  -1.561  -1.213  1.00  0.00     0.116 A 
HETATM   22  N4  UNL     1      -4.932  -1.181  -1.113  1.00  0.00    -0.273 NA
HETATM   23  C10 UNL     1      -5.307  -0.407  -0.053  1.00  0.00     0.116 A 
HETATM   24  C11 UNL     1      -4.387  -0.032   0.879  1.00  0.00     0.027 A 
ENDBRANCH  10  19
TORSDOF 1
