REMARK  4 active torsions:
REMARK  status: ('A' for Active; 'I' for Inactive)
REMARK    1  A    between atoms: C6_6  and  N1_7 
REMARK    2  A    between atoms: N1_7  and  C8_9 
REMARK    3  A    between atoms: C11_13  and  C12_14 
REMARK    4  A    between atoms: C15_17  and  C16_18 
ROOT
HETATM    1  C8  UNL     1       0.901   0.303  -1.506  1.00  0.00     0.133 A 
HETATM    2  C9  UNL     1       0.819   1.672  -1.821  1.00  0.00     0.070 A 
HETATM    3  C10 UNL     1       1.939   2.392  -1.460  1.00  0.00     0.123 A 
HETATM    4  N2  UNL     1       3.004   1.854  -0.870  1.00  0.00    -0.241 NA
HETATM    5  C11 UNL     1       3.067   0.546  -0.577  1.00  0.00     0.161 A 
HETATM    6  N3  UNL     1       1.993  -0.230  -0.905  1.00  0.00    -0.211 NA
ENDROOT
BRANCH   1   7
HETATM    7  N1  UNL     1      -0.194  -0.574  -1.851  1.00  0.00    -0.336 N 
HETATM    8  C7  UNL     1       0.053  -1.536  -2.903  1.00  0.00     0.158 C 
BRANCH   7   9
HETATM    9  C6  UNL     1      -1.437  -0.456  -1.148  1.00  0.00     0.037 A 
HETATM   10  C5  UNL     1      -2.468  -1.307  -1.512  1.00  0.00     0.031 A 
HETATM   11  C4  UNL     1      -3.668  -1.167  -0.821  1.00  0.00     0.018 A 
HETATM   12  C3  UNL     1      -3.904  -0.254   0.188  1.00  0.00     0.018 A 
HETATM   13  C2  UNL     1      -5.002   0.028   0.968  1.00  0.00     0.039 A 
HETATM   14  C19 UNL     1      -2.839   0.583   0.524  1.00  0.00     0.091 A 
HETATM   15  C1  UNL     1      -6.307  -0.684   0.857  1.00  0.00     0.071 C 
HETATM   16  N5  UNL     1      -4.599   1.043   1.783  1.00  0.00    -0.277 N 
HETATM   17  N4  UNL     1      -3.347   1.345   1.507  1.00  0.00    -0.172 NA
HETATM   18  C20 UNL     1      -5.463   1.645   2.775  1.00  0.00     0.179 C 
HETATM   19  C18 UNL     1      -1.619   0.467  -0.154  1.00  0.00     0.064 A 
ENDBRANCH   7   9
ENDBRANCH   1   7
BRANCH   5  20
HETATM   20  C12 UNL     1       4.238  -0.062   0.066  1.00  0.00     0.009 A 
HETATM   21  C13 UNL     1       4.385  -1.354   0.407  1.00  0.00    -0.007 A 
HETATM   22  C14 UNL     1       5.724  -1.532   1.033  1.00  0.00     0.070 A 
HETATM   23  C15 UNL     1       6.243  -0.154   0.961  1.00  0.00    -0.016 A 
HETATM   24  C17 UNL     1       5.425   0.720   0.416  1.00  0.00     0.025 A 
BRANCH  23  25
HETATM   25  C16 UNL     1       7.555   0.219   1.443  1.00  0.00     0.265 C 
HETATM   26  O1  UNL     1       8.235   1.249   1.503  1.00  0.00    -0.302 OA
ENDBRANCH  23  25
ENDBRANCH   5  20
TORSDOF 4
