REMARK  6 active torsions:
REMARK  status: ('A' for Active; 'I' for Inactive)
REMARK    1  A    between atoms: C5_5  and  N1_6 
REMARK    2  A    between atoms: N1_6  and  C6_7 
REMARK    3  A    between atoms: C9_11  and  N3_12 
REMARK    4  A    between atoms: N3_12  and  C11_14 
REMARK    5  A    between atoms: C21_27  and  S1_28 
REMARK    6  A    between atoms: S1_28  and  N7_29 
ROOT
HETATM    1  C6  UNL     1      -1.680   1.170   0.331  1.00  0.00     0.702 A 
HETATM    2  N2  UNL     1      -1.939   2.225  -0.399  1.00  0.00    -0.077 NA
HETATM    3  C7  UNL     1      -0.866   3.053  -0.824  1.00  0.00     0.136 A 
HETATM    4  C8  UNL     1       0.384   2.727  -0.462  1.00  0.00     0.040 A 
HETATM    5  C9  UNL     1       0.818   1.561   0.362  1.00  0.00     0.226 A 
HETATM    6  N6  UNL     1      -0.376   0.791   0.742  1.00  0.00    -0.200 N 
HETATM    7  H22 UNL     1      -0.206  -0.053   1.334  1.00  0.00     0.180 HD
ENDROOT
BRANCH   1   8
HETATM    8  N1  UNL     1      -2.789   0.386   0.722  1.00  0.00    -0.190 N 
HETATM    9  H6  UNL     1      -2.743  -0.047   1.675  1.00  0.00     0.184 HD
BRANCH   8  10
HETATM   10  C5  UNL     1      -3.933   0.149  -0.081  1.00  0.00     0.050 A 
HETATM   11  C4  UNL     1      -4.134   0.553  -1.378  1.00  0.00     0.030 A 
HETATM   12  C3  UNL     1      -5.277   0.294  -2.104  1.00  0.00     0.010 A 
HETATM   13  C2  UNL     1      -6.311  -0.414  -1.532  1.00  0.00    -0.039 A 
HETATM   14  C1  UNL     1      -7.509  -0.661  -2.355  1.00  0.00     0.050 C 
HETATM   15  C21 UNL     1      -6.160  -0.841  -0.235  1.00  0.00     0.087 A 
HETATM   16  C20 UNL     1      -5.001  -0.561   0.456  1.00  0.00     0.055 A 
BRANCH  15  17
HETATM   17  S1  UNL     1      -7.466  -1.729   0.474  1.00  0.00     0.257 S 
HETATM   18  O1  UNL     1      -7.080  -2.079   1.895  1.00  0.00    -0.201 OA
HETATM   19  O2  UNL     1      -7.579  -3.031  -0.269  1.00  0.00    -0.201 OA
BRANCH  17  20
HETATM   20  N7  UNL     1      -8.940  -0.872   0.542  1.00  0.00    -0.324 N 
HETATM   21  H24 UNL     1      -9.772  -1.486   0.418  1.00  0.00     0.169 HD
HETATM   22  H25 UNL     1      -8.970   0.016   0.032  1.00  0.00     0.169 HD
ENDBRANCH  17  20
ENDBRANCH  15  17
ENDBRANCH   8  10
ENDBRANCH   1   8
BRANCH   5  23
HETATM   23  N3  UNL     1       1.759   0.728  -0.351  1.00  0.00    -0.360 N 
HETATM   24  C10 UNL     1       1.315   0.139  -1.589  1.00  0.00     0.152 C 
BRANCH  23  25
HETATM   25  C11 UNL     1       3.084   0.453   0.081  1.00  0.00     0.034 A 
HETATM   26  C12 UNL     1       3.666   0.932   1.233  1.00  0.00     0.030 A 
HETATM   27  C13 UNL     1       4.937   0.672   1.653  1.00  0.00     0.018 A 
HETATM   28  C14 UNL     1       5.740  -0.137   0.881  1.00  0.00     0.018 A 
HETATM   29  C15 UNL     1       7.027  -0.571   1.033  1.00  0.00     0.039 A 
HETATM   30  C18 UNL     1       5.216  -0.649  -0.286  1.00  0.00     0.091 A 
HETATM   31  C16 UNL     1       7.920  -0.230   2.168  1.00  0.00     0.071 C 
HETATM   32  N4  UNL     1       7.284  -1.344  -0.041  1.00  0.00    -0.277 N 
HETATM   33  C17 UNL     1       8.549  -2.026  -0.303  1.00  0.00     0.179 C 
HETATM   34  N5  UNL     1       6.223  -1.384  -0.804  1.00  0.00    -0.172 NA
HETATM   35  C19 UNL     1       3.923  -0.351  -0.659  1.00  0.00     0.063 A 
ENDBRANCH  23  25
ENDBRANCH   5  23
TORSDOF 6
