REMARK  1 active torsions:
REMARK  status: ('A' for Active; 'I' for Inactive)
REMARK    1  A    between atoms: N2_14  and  C13_15 
ROOT
HETATM    1  C1  UNL     1      -1.703  -1.045   0.923  1.00  0.00     0.047 C 
HETATM    2  C2  UNL     1      -0.649  -0.243   0.979  1.00  0.00    -0.013 C 
HETATM    3  C3  UNL     1       0.532   0.158   1.772  1.00  0.00     0.125 C 
HETATM    4  N1  UNL     1       1.604   0.789   2.130  1.00  0.00    -0.273 NA
HETATM    5  C4  UNL     1       2.323   0.498   3.314  1.00  0.00     0.112 C 
HETATM    6  C5  UNL     1       3.491   0.098   2.792  1.00  0.00    -0.007 C 
HETATM    7  C6  UNL     1       3.348   0.205   1.296  1.00  0.00     0.034 C 
HETATM    8  C7  UNL     1       3.181  -1.062   0.573  1.00  0.00     0.060 C 
HETATM    9  C8  UNL     1       2.716  -0.975  -0.865  1.00  0.00     0.036 C 
HETATM   10  C9  UNL     1       2.631   0.465  -1.187  1.00  0.00     0.029 C 
HETATM   11  C10 UNL     1       1.615   1.451  -1.500  1.00  0.00     0.059 C 
HETATM   12  C11 UNL     1       0.462   1.610  -0.670  1.00  0.00     0.010 C 
HETATM   13  C12 UNL     1      -0.374   0.514  -0.246  1.00  0.00     0.045 C 
HETATM   14  N2  UNL     1      -0.928   0.051  -1.394  1.00  0.00    -0.304 N 
HETATM   15  C19 UNL     1       0.001  -0.305  -2.352  1.00  0.00     0.239 C 
HETATM   16  N3  UNL     1       1.015  -1.135  -2.467  1.00  0.00    -0.145 NA
HETATM   17  N4  UNL     1       2.300  -0.942  -2.151  1.00  0.00    -0.158 NA
ENDROOT
BRANCH  14  18
HETATM   18  C13 UNL     1      -2.332   0.029  -1.315  1.00  0.00     0.040 A 
HETATM   19  C14 UNL     1      -3.043  -1.115  -1.615  1.00  0.00     0.031 A 
HETATM   20  C15 UNL     1      -4.413  -1.066  -1.518  1.00  0.00     0.026 A 
HETATM   21  C16 UNL     1      -5.095   0.077  -1.136  1.00  0.00     0.034 A 
HETATM   22 CL1  UNL     1      -6.863   0.030  -1.045  1.00  0.00    -0.084 Cl
HETATM   23  C17 UNL     1      -4.345   1.216  -0.840  1.00  0.00     0.026 A 
HETATM   24  C18 UNL     1      -2.970   1.186  -0.931  1.00  0.00     0.031 A 
ENDBRANCH  14  18
TORSDOF 1
