REMARK  3 active torsions:
REMARK  status: ('A' for Active; 'I' for Inactive)
REMARK    1  A    between atoms: C4_5  and  N1_6 
REMARK    2  A    between atoms: N1_6  and  C5_7 
REMARK    3  A    between atoms: C6_10  and  C7_11 
ROOT
HETATM    1  C5  UNL     1       0.612   0.039  -0.867  1.00  0.00     0.161 A 
HETATM    2  N2  UNL     1       0.169   0.889  -1.854  1.00  0.00    -0.131 NA
HETATM    3  N3  UNL     1      -1.182   1.002  -2.020  1.00  0.00    -0.147 NA
HETATM    4  C6  UNL     1      -1.919   0.230  -1.161  1.00  0.00     0.100 A 
HETATM    5  C12 UNL     1      -1.553  -0.649  -0.172  1.00  0.00     0.009 A 
HETATM    6  C13 UNL     1      -2.473  -1.365   0.561  1.00  0.00     0.015 A 
HETATM    7  C14 UNL     1      -1.932  -2.202   1.472  1.00  0.00     0.001 A 
HETATM    8  C15 UNL     1      -0.564  -2.331   1.670  1.00  0.00     0.001 A 
HETATM    9  C16 UNL     1       0.341  -1.591   0.911  1.00  0.00     0.016 A 
HETATM   10  C17 UNL     1      -0.163  -0.749  -0.013  1.00  0.00     0.024 A 
ENDROOT
BRANCH   1  11
HETATM   11  N1  UNL     1       1.977   0.049  -0.564  1.00  0.00    -0.339 N 
HETATM   12  H3  UNL     1       1.854   0.960  -0.024  1.00  0.00     0.167 HD
BRANCH  11  13
HETATM   13  C4  UNL     1       3.312   0.034  -0.283  1.00  0.00     0.033 A 
HETATM   14  C3  UNL     1       4.068  -0.012  -1.450  1.00  0.00     0.031 A 
HETATM   15  C2  UNL     1       5.458  -0.014  -1.353  1.00  0.00     0.026 A 
HETATM   16  C1  UNL     1       5.976   0.028  -0.092  1.00  0.00     0.034 A 
HETATM   17 CL1  UNL     1       7.730   0.051   0.083  1.00  0.00    -0.084 Cl
HETATM   18  C19 UNL     1       5.292   0.072   1.112  1.00  0.00     0.026 A 
HETATM   19  C18 UNL     1       3.918   0.076   0.990  1.00  0.00     0.031 A 
ENDBRANCH  11  13
ENDBRANCH   1  11
BRANCH   4  20
HETATM   20  C7  UNL     1      -3.308   0.674  -1.295  1.00  0.00    -0.002 A 
HETATM   21  C8  UNL     1      -3.426   1.430  -0.068  1.00  0.00     0.033 A 
HETATM   22  C9  UNL     1      -4.513   2.131   0.442  1.00  0.00     0.117 A 
HETATM   23  N4  UNL     1      -5.611   2.070  -0.348  1.00  0.00    -0.273 NA
HETATM   24  C10 UNL     1      -5.562   1.387  -1.489  1.00  0.00     0.117 A 
HETATM   25  C11 UNL     1      -4.469   0.700  -1.977  1.00  0.00     0.033 A 
ENDBRANCH   4  20
TORSDOF 3
