REMARK  5 active torsions:
REMARK  status: ('A' for Active; 'I' for Inactive)
REMARK    1  A    between atoms: C4_4  and  C5_6 
REMARK    2  A    between atoms: C7_9  and  C8_10 
REMARK    3  A    between atoms: N2_18  and  C15_19 
REMARK    4  A    between atoms: C15_19  and  C16_20 
REMARK    5  A    between atoms: C16_20  and  N3_21 
ROOT
HETATM    1  C1  UNL     1       1.767  -2.905  -0.004  1.00  0.00     0.032 C 
HETATM    2  C2  UNL     1       1.278  -1.772   0.864  1.00  0.00     0.080 C 
HETATM    3  C3  UNL     1      -0.133  -1.401   0.567  1.00  0.00     0.107 C 
HETATM    4  C4  UNL     1      -0.264  -0.837  -0.811  1.00  0.00     0.326 C 
HETATM    5  F1  UNL     1      -0.123  -1.916  -1.699  1.00  0.00    -0.203 F 
HETATM    6  N1  UNL     1       0.742   0.128  -1.147  1.00  0.00     0.130 N 
HETATM    7  C13 UNL     1       0.944   1.158  -0.182  1.00  0.00     0.293 C 
HETATM    8  C14 UNL     1       1.640   0.588   1.060  1.00  0.00     0.147 C 
HETATM    9  N2  UNL     1       2.179  -0.655   0.716  1.00  0.00    -0.405 N 
HETATM   10  H18 UNL     1       0.599   0.449  -2.107  1.00  0.00     0.320 HD
ENDROOT
BRANCH   4  11
HETATM   11  C5  UNL     1      -1.620  -0.268  -1.044  1.00  0.00     0.019 A 
HETATM   12  C6  UNL     1      -1.979   0.358  -2.314  1.00  0.00     0.062 A 
HETATM   13  S1  UNL     1      -3.762   0.862  -1.993  1.00  0.00    -0.105 SA
HETATM   14  C7  UNL     1      -3.832   0.264  -0.414  1.00  0.00    -0.009 A 
HETATM   15  C12 UNL     1      -2.594  -0.288  -0.120  1.00  0.00     0.028 A 
BRANCH  14  16
HETATM   16  C8  UNL     1      -5.079   0.394   0.364  1.00  0.00    -0.018 C 
HETATM   17  C9  UNL     1      -6.149   1.095  -0.484  1.00  0.00     0.020 C 
HETATM   18  C10 UNL     1      -5.598  -1.027   0.606  1.00  0.00     0.020 C 
HETATM   19  C11 UNL     1      -4.936   1.106   1.667  1.00  0.00     0.020 C 
ENDBRANCH  14  16
ENDBRANCH   4  11
BRANCH   9  20
HETATM   20  C15 UNL     1       3.544  -0.952   0.826  1.00  0.00     0.147 C 
BRANCH  20  21
HETATM   21  C16 UNL     1       4.405  -0.222  -0.145  1.00  0.00     0.290 C 
BRANCH  21  22
HETATM   22  N3  UNL     1       4.383   1.190   0.073  1.00  0.00     0.081 N 
HETATM   23  C17 UNL     1       5.143   1.473   1.297  1.00  0.00     0.309 C 
HETATM   24  C18 UNL     1       4.930   1.940  -1.042  1.00  0.00     0.309 C 
ENDBRANCH  21  22
ENDBRANCH  20  21
ENDBRANCH   9  20
TORSDOF 5
