REMARK  2 active torsions:
REMARK  status: ('A' for Active; 'I' for Inactive)
REMARK    1  A    between atoms: C4_4  and  N1_5 
REMARK    2  A    between atoms: N1_5  and  C5_6 
ROOT
HETATM    1  C5  UNL     1       1.378  -0.108   0.879  1.00  0.00     0.205 C 
HETATM    2  N2  UNL     1       0.744   0.098  -0.114  1.00  0.00    -0.282 NA
HETATM    3  N3  UNL     1       0.118   0.575  -1.188  1.00  0.00    -0.104 NA
HETATM    4  C6  UNL     1      -1.002  -0.106  -1.648  1.00  0.00     0.052 C 
HETATM    5  C7  UNL     1      -2.159  -0.226  -2.644  1.00  0.00     0.084 C 
HETATM    6  C8  UNL     1      -3.382   0.070  -1.840  1.00  0.00    -0.020 C 
HETATM    7  C9  UNL     1      -4.453   0.390  -1.222  1.00  0.00     0.009 C 
HETATM    8  C10 UNL     1      -5.194   0.113  -0.071  1.00  0.00     0.205 C 
HETATM    9  N4  UNL     1      -5.016  -0.604   1.039  1.00  0.00    -0.316 NA
HETATM   10  C11 UNL     1      -3.739  -1.324   1.215  1.00  0.00     0.041 C 
HETATM   11  C12 UNL     1      -2.553  -1.989   0.950  1.00  0.00     0.087 C 
HETATM   12  C13 UNL     1      -2.009  -2.289  -0.347  1.00  0.00     0.232 C 
HETATM   13  C14 UNL     1      -1.164  -1.396  -1.035  1.00  0.00     0.093 C 
HETATM   14  N5  UNL     1      -1.042  -3.435  -0.128  1.00  0.00     0.092 NA
HETATM   15  C15 UNL     1       0.270  -3.113   0.170  1.00  0.00     0.297 C 
HETATM   16  C16 UNL     1       0.846  -2.610   1.397  1.00  0.00     0.008 C 
HETATM   17  C17 UNL     1       1.302  -1.387   1.657  1.00  0.00     0.064 C 
HETATM   18  H13 UNL     1      -1.538  -4.126   0.465  1.00  0.00     0.316 HD
ENDROOT
BRANCH   1  19
HETATM   19  N1  UNL     1       2.061   1.007   1.483  1.00  0.00    -0.334 N 
HETATM   20  H2  UNL     1       2.201   1.008   2.530  1.00  0.00     0.168 HD
BRANCH  19  21
HETATM   21  C4  UNL     1       2.500   2.034   0.479  1.00  0.00     0.022 A 
HETATM   22  C3  UNL     1       3.422   3.052   0.619  1.00  0.00     0.053 A 
HETATM   23  C2  UNL     1       2.677   4.391   0.938  1.00  0.00     0.003 C 
HETATM   24  C21 UNL     1       4.921   3.298   0.203  1.00  0.00    -0.010 C 
HETATM   25  C18 UNL     1       2.823   2.962  -0.605  1.00  0.00     0.050 A 
HETATM   26  C1  UNL     1       1.863   3.873  -0.117  1.00  0.00    -0.037 C 
HETATM   27  C20 UNL     1       5.183   2.134  -0.497  1.00  0.00    -0.028 C 
HETATM   28  C19 UNL     1       3.954   2.308  -1.450  1.00  0.00     0.049 C 
ENDBRANCH  19  21
ENDBRANCH   1  19
TORSDOF 2
