REMARK  2 active torsions:
REMARK  status: ('A' for Active; 'I' for Inactive)
REMARK    1  A    between atoms: N1_5  and  C4_6 
REMARK    2  A    between atoms: C6_9  and  C7_10 
ROOT
HETATM    1  C4  UNL     1      -1.448  -0.177   0.044  1.00  0.00     0.243 C 
HETATM    2  N2  UNL     1      -0.385   0.683   0.509  1.00  0.00    -0.262 NA
HETATM    3  C5  UNL     1       0.653  -0.008   0.634  1.00  0.00     0.046 C 
HETATM    4  C6  UNL     1       2.043  -0.033   1.013  1.00  0.00     0.098 C 
HETATM    5  C12 UNL     1       0.413  -1.352   0.037  1.00  0.00    -0.001 A 
HETATM    6  C13 UNL     1       1.088  -2.565  -0.278  1.00  0.00     0.014 A 
HETATM    7  C14 UNL     1       0.549  -3.604  -0.964  1.00  0.00     0.001 A 
HETATM    8  C15 UNL     1      -0.719  -3.535  -1.427  1.00  0.00     0.001 A 
HETATM    9  C16 UNL     1      -1.497  -2.403  -1.195  1.00  0.00     0.012 A 
HETATM   10  C17 UNL     1      -0.912  -1.380  -0.479  1.00  0.00    -0.002 A 
ENDROOT
BRANCH   1  11
HETATM   11  N1  UNL     1      -2.661   0.419  -0.226  1.00  0.00    -0.360 N 
HETATM   12  C3  UNL     1      -2.501   1.830  -0.460  1.00  0.00     0.153 C 
HETATM   13  C2  UNL     1      -3.358   2.551   0.584  1.00  0.00     0.017 C 
HETATM   14  C1  UNL     1      -4.582   2.070   0.694  1.00  0.00     0.033 C 
HETATM   15 CL1  UNL     1      -5.752   2.799   1.784  1.00  0.00    -0.085 Cl
HETATM   16  C19 UNL     1      -4.925   0.738   0.297  1.00  0.00     0.040 C 
HETATM   17  C18 UNL     1      -4.007  -0.074  -0.134  1.00  0.00     0.090 C 
ENDBRANCH   1  11
BRANCH   4  18
HETATM   18  C7  UNL     1       3.118   0.685   0.392  1.00  0.00    -0.050 A 
HETATM   19  C8  UNL     1       4.339   0.107   0.843  1.00  0.00     0.026 A 
HETATM   20  C9  UNL     1       5.503   0.645   0.429  1.00  0.00     0.116 A 
HETATM   21  N3  UNL     1       5.485   1.698  -0.434  1.00  0.00    -0.273 NA
HETATM   22  C10 UNL     1       4.286   2.180  -0.815  1.00  0.00     0.116 A 
HETATM   23  C11 UNL     1       3.022   1.722  -0.418  1.00  0.00     0.026 A 
ENDBRANCH   4  18
TORSDOF 2
