REMARK  4 active torsions:
REMARK  status: ('A' for Active; 'I' for Inactive)
REMARK    1  A    between atoms: C2_2  and  N1_3 
REMARK    2  A    between atoms: C2_2  and  C15_19 
REMARK    3  A    between atoms: N1_3  and  C3_4 
REMARK    4  A    between atoms: C3_4  and  C4_5 
ROOT
HETATM    1  C4  UNL     1      -0.147   0.230  -0.928  1.00  0.00    -0.023 C 
HETATM    2  C5  UNL     1       0.482   1.284  -0.492  1.00  0.00     0.126 C 
HETATM    3  N2  UNL     1       1.824   1.072  -0.158  1.00  0.00    -0.256 NA
HETATM    4  C6  UNL     1       2.245   1.198   1.083  1.00  0.00     0.203 C 
HETATM    5  N3  UNL     1       3.661   0.928   1.204  1.00  0.00    -0.373 N 
HETATM    6  C7  UNL     1       3.703  -0.513   0.988  1.00  0.00     0.140 C 
HETATM    7  C8  UNL     1       5.057  -1.047   1.162  1.00  0.00     0.027 C 
HETATM    8  C9  UNL     1       6.163  -1.192   0.415  1.00  0.00     0.133 C 
HETATM    9  O1  UNL     1       6.257  -0.787  -0.926  1.00  0.00    -0.360 OA
HETATM   10  C10 UNL     1       5.374   0.036  -1.658  1.00  0.00     0.202 C 
HETATM   11  C11 UNL     1       3.984  -0.485  -1.437  1.00  0.00     0.009 C 
HETATM   12  C12 UNL     1       3.177  -0.757  -0.390  1.00  0.00    -0.034 C 
HETATM   13  C13 UNL     1       1.857  -1.247  -0.833  1.00  0.00     0.010 C 
HETATM   14  C14 UNL     1       0.577  -1.058  -1.090  1.00  0.00     0.011 C 
HETATM   15  H10 UNL     1       4.368   1.687   1.400  1.00  0.00     0.161 HD
ENDROOT
BRANCH   1  16
HETATM   16  C3  UNL     1      -1.538   0.053  -1.365  1.00  0.00     0.155 C 
BRANCH  16  17
HETATM   17  N1  UNL     1      -2.449   1.096  -1.256  1.00  0.00    -0.410 N 
HETATM   18  H5  UNL     1      -2.749   1.569  -2.124  1.00  0.00     0.154 HD
BRANCH  17  19
HETATM   19  C2  UNL     1      -3.027   1.476  -0.042  1.00  0.00     0.106 C 
HETATM   20  C1  UNL     1      -2.241   1.781   1.157  1.00  0.00     0.037 C 
BRANCH  19  21
HETATM   21  C15 UNL     1      -4.044   0.405   0.302  1.00  0.00    -0.036 A 
HETATM   22  C16 UNL     1      -4.835   0.121  -0.798  1.00  0.00     0.009 A 
HETATM   23  C17 UNL     1      -5.850  -0.839  -0.733  1.00  0.00     0.001 A 
HETATM   24  C18 UNL     1      -6.080  -1.525   0.440  1.00  0.00     0.000 A 
HETATM   25  C19 UNL     1      -5.272  -1.213   1.511  1.00  0.00     0.001 A 
HETATM   26  C20 UNL     1      -4.270  -0.278   1.476  1.00  0.00     0.009 A 
ENDBRANCH  19  21
ENDBRANCH  17  19
ENDBRANCH  16  17
ENDBRANCH   1  16
TORSDOF 4
