REMARK  2 active torsions:
REMARK  status: ('A' for Active; 'I' for Inactive)
REMARK    1  A    between atoms: O1_1  and  C1_2 
REMARK    2  A    between atoms: C4_5  and  N1_6 
ROOT
HETATM    1  N1  UNL     1       1.362  -0.213  -0.599  1.00  0.00    -0.321 N 
HETATM    2  C5  UNL     1       0.240   0.285  -1.244  1.00  0.00     0.142 C 
HETATM    3  C6  UNL     1      -0.891   0.913  -1.267  1.00  0.00     0.009 C 
HETATM    4  C7  UNL     1      -2.066   1.655  -0.835  1.00  0.00    -0.052 A 
HETATM    5  C8  UNL     1      -2.519   2.836  -1.178  1.00  0.00     0.007 A 
HETATM    6  C9  UNL     1      -3.713   2.910  -0.354  1.00  0.00    -0.003 A 
HETATM    7  C10 UNL     1      -3.974   1.875   0.425  1.00  0.00    -0.017 A 
HETATM    8  C11 UNL     1      -2.875   0.906   0.184  1.00  0.00     0.042 A 
HETATM    9  C12 UNL     1      -3.299  -0.430  -0.297  1.00  0.00     0.033 C 
HETATM   10  C13 UNL     1      -3.525  -1.508   0.698  1.00  0.00     0.122 C 
HETATM   11  N2  UNL     1      -2.400  -1.938   1.462  1.00  0.00    -0.375 N 
HETATM   12  C14 UNL     1      -1.173  -2.490   1.087  1.00  0.00     0.128 A 
HETATM   13  C15 UNL     1      -0.259  -1.674   0.486  1.00  0.00     0.100 A 
HETATM   14  C16 UNL     1       0.973  -1.498  -0.090  1.00  0.00     0.136 A 
HETATM   15  N3  UNL     1       1.547  -2.697  -0.032  1.00  0.00    -0.224 NA
HETATM   16  C17 UNL     1       0.803  -3.692   0.541  1.00  0.00     0.237 A 
HETATM   17  N4  UNL     1      -0.458  -3.622   1.066  1.00  0.00    -0.225 NA
HETATM   18  H14 UNL     1      -2.106  -1.996   2.460  1.00  0.00     0.161 HD
ENDROOT
BRANCH   1  19
HETATM   19  C4  UNL     1       2.680   0.076  -0.292  1.00  0.00     0.037 A 
HETATM   20  C3  UNL     1       3.172   1.127  -1.037  1.00  0.00     0.032 A 
HETATM   21  C2  UNL     1       4.479   1.606  -0.887  1.00  0.00     0.039 A 
HETATM   22  C1  UNL     1       5.282   0.983   0.049  1.00  0.00     0.065 A 
HETATM   23  C19 UNL     1       4.738  -0.067   0.769  1.00  0.00     0.039 A 
HETATM   24  C18 UNL     1       3.458  -0.551   0.637  1.00  0.00     0.032 A 
BRANCH  22  25
HETATM   25  O1  UNL     1       6.598   1.390   0.269  1.00  0.00    -0.361 OA
HETATM   26  H1  UNL     1       6.864   2.327   0.525  1.00  0.00     0.217 HD
ENDBRANCH  22  25
ENDBRANCH   1  19
TORSDOF 2
