REMARK  5 active torsions:
REMARK  status: ('A' for Active; 'I' for Inactive)
REMARK    1  A    between atoms: C2_2  and  N1_3 
REMARK    2  A    between atoms: C2_2  and  C14_19 
REMARK    3  A    between atoms: N1_3  and  C3_4 
REMARK    4  A    between atoms: C7_10  and  C8_11 
REMARK    5  A    between atoms: C11_14  and  O1_15 
ROOT
HETATM    1  C3  UNL     1       0.196  -2.008  -0.368  1.00  0.00     0.140 C 
HETATM    2  N2  UNL     1       0.790  -2.943  -1.140  1.00  0.00    -0.244 NA
HETATM    3  C4  UNL     1      -0.133  -3.053  -2.386  1.00  0.00     0.411 C 
HETATM    4  N3  UNL     1      -1.493  -2.757  -1.823  1.00  0.00     0.043 N 
HETATM    5  C5  UNL     1      -1.638  -3.839  -0.835  1.00  0.00     0.297 A 
HETATM    6  C6  UNL     1      -1.162  -2.649  -0.312  1.00  0.00     0.261 A 
HETATM    7  C7  UNL     1      -2.469  -1.896  -0.007  1.00  0.00     0.166 A 
HETATM    8  N4  UNL     1      -2.799  -2.109  -1.534  1.00  0.00    -0.137 NA
HETATM    9  H15 UNL     1      -3.550  -2.757  -1.583  1.00  0.00     0.154 HD
ENDROOT
BRANCH   1  10
HETATM   10  N1  UNL     1       0.560  -0.812   0.360  1.00  0.00    -0.368 N 
HETATM   11  H5  UNL     1      -0.077  -0.584   1.155  1.00  0.00     0.161 HD
BRANCH  10  12
HETATM   12  C2  UNL     1       1.749  -0.278  -0.238  1.00  0.00     0.112 C 
HETATM   13  C1  UNL     1       1.666   0.128  -1.653  1.00  0.00     0.037 C 
BRANCH  12  14
HETATM   14  C14 UNL     1       2.340   0.810   0.571  1.00  0.00    -0.036 A 
HETATM   15  C15 UNL     1       1.609   1.818   1.130  1.00  0.00     0.009 A 
HETATM   16  C16 UNL     1       2.145   2.840   1.886  1.00  0.00     0.001 A 
HETATM   17  C17 UNL     1       3.526   2.832   2.086  1.00  0.00     0.000 A 
HETATM   18  C18 UNL     1       4.344   1.862   1.566  1.00  0.00     0.001 A 
HETATM   19  C19 UNL     1       3.712   0.889   0.828  1.00  0.00     0.009 A 
ENDBRANCH  12  14
ENDBRANCH  10  12
ENDBRANCH   1  10
BRANCH   7  20
HETATM   20  C8  UNL     1      -2.397  -0.483   0.212  1.00  0.00    -0.036 A 
HETATM   21  C9  UNL     1      -2.845   0.205   1.349  1.00  0.00     0.011 A 
HETATM   22  C10 UNL     1      -2.781   1.578   1.491  1.00  0.00     0.037 A 
HETATM   23  C11 UNL     1      -2.250   2.328   0.468  1.00  0.00     0.065 A 
HETATM   24  C12 UNL     1      -1.796   1.668  -0.678  1.00  0.00     0.037 A 
HETATM   25  C13 UNL     1      -1.854   0.283  -0.834  1.00  0.00     0.011 A 
BRANCH  23  26
HETATM   26  O1  UNL     1      -2.154   3.711   0.540  1.00  0.00    -0.361 OA
HETATM   27  H12 UNL     1      -2.752   4.168   1.219  1.00  0.00     0.217 HD
ENDBRANCH  23  26
ENDBRANCH   7  20
TORSDOF 5
