REMARK  4 active torsions:
REMARK  status: ('A' for Active; 'I' for Inactive)
REMARK    1  A    between atoms: C3_3  and  C4_4 
REMARK    2  A    between atoms: C8_8  and  N1_9 
REMARK    3  A    between atoms: N1_9  and  C9_10 
REMARK    4  A    between atoms: C9_10  and  C11_12 
ROOT
HETATM    1  C4  UNL     1       3.978   0.449   0.247  1.00  0.00     0.004 C 
HETATM    2  C5  UNL     1       2.864   0.246  -0.437  1.00  0.00    -0.058 C 
HETATM    3  C6  UNL     1       1.441   0.149   0.063  1.00  0.00     0.071 C 
HETATM    4  C7  UNL     1       0.647  -0.256  -1.140  1.00  0.00     0.177 A 
HETATM    5  C8  UNL     1      -0.567  -1.022  -0.881  1.00  0.00     0.126 A 
HETATM    6  N2  UNL     1      -0.728  -2.244  -1.289  1.00  0.00    -0.225 NA
HETATM    7  C17 UNL     1       0.300  -2.927  -2.032  1.00  0.00     0.256 A 
HETATM    8  N3  UNL     1       1.414  -2.339  -2.310  1.00  0.00    -0.169 NA
HETATM    9  N4  UNL     1       1.664  -1.007  -1.895  1.00  0.00    -0.288 N 
HETATM   10  C18 UNL     1       2.662   0.048  -1.919  1.00  0.00     0.179 C 
ENDROOT
BRANCH   5  11
HETATM   11  N1  UNL     1      -1.574  -0.339  -0.147  1.00  0.00    -0.368 N 
HETATM   12  H10 UNL     1      -1.369   0.560   0.380  1.00  0.00     0.161 HD
BRANCH  11  13
HETATM   13  C9  UNL     1      -2.941  -0.882  -0.106  1.00  0.00     0.112 C 
HETATM   14  C10 UNL     1      -3.463  -0.943  -1.526  1.00  0.00     0.037 C 
BRANCH  13  15
HETATM   15  C11 UNL     1      -3.794  -0.023   0.716  1.00  0.00    -0.036 A 
HETATM   16  C12 UNL     1      -3.374   0.462   1.945  1.00  0.00     0.012 A 
HETATM   17  C13 UNL     1      -4.169   1.273   2.731  1.00  0.00     0.043 A 
HETATM   18  C14 UNL     1      -5.450   1.645   2.312  1.00  0.00     0.116 A 
HETATM   19  F1  UNL     1      -6.304   2.422   2.984  1.00  0.00    -0.206 F 
HETATM   20  C15 UNL     1      -5.891   1.169   1.080  1.00  0.00     0.043 A 
HETATM   21  C16 UNL     1      -5.070   0.350   0.305  1.00  0.00     0.012 A 
ENDBRANCH  13  15
ENDBRANCH  11  13
ENDBRANCH   5  11
BRANCH   1  22
HETATM   22  C3  UNL     1       5.282   0.514  -0.413  1.00  0.00    -0.004 C 
HETATM   23  C2  UNL     1       6.377   0.719   0.305  1.00  0.00    -0.031 C 
HETATM   24  C1  UNL     1       6.232   0.878   1.781  1.00  0.00     0.036 C 
ENDBRANCH   1  22
TORSDOF 4
