REMARK  7 active torsions:
REMARK  status: ('A' for Active; 'I' for Inactive)
REMARK    1  A    between atoms: C5_5  and  C6_6 
REMARK    2  A    between atoms: N2_8  and  C7_9 
REMARK    3  A    between atoms: C7_9  and  C8_10 
REMARK    4  A    between atoms: C8_10  and  C9_11 
REMARK    5  A    between atoms: C10_12  and  C11_13 
REMARK    6  A    between atoms: C12_14  and  O1_15 
REMARK    7  A    between atoms: C15_18  and  C16_19 
ROOT
HETATM    1  C9  UNL     1      -0.731   0.396   0.767  1.00  0.00    -0.024 C 
HETATM    2  C10 UNL     1      -1.920  -0.118   0.890  1.00  0.00     0.007 C 
ENDROOT
BRANCH   1   3
HETATM    3  C8  UNL     1       0.643  -0.066   1.045  1.00  0.00     0.047 C 
BRANCH   3   4
HETATM    4  C7  UNL     1       1.453  -0.066  -0.212  1.00  0.00     0.128 C 
BRANCH   4   5
HETATM    5  N2  UNL     1       2.813  -0.496  -0.061  1.00  0.00    -0.368 N 
HETATM    6  C2  UNL     1       3.507  -1.652  -0.520  1.00  0.00     0.021 A 
HETATM    7  C1  UNL     1       2.873  -2.575  -1.230  1.00  0.00     0.042 C 
HETATM    8  C3  UNL     1       4.888  -1.549  -0.060  1.00  0.00     0.027 A 
HETATM    9  C4  UNL     1       5.001  -0.418   0.619  1.00  0.00     0.006 A 
HETATM   10  C5  UNL     1       3.722   0.332   0.677  1.00  0.00     0.147 A 
BRANCH  10  11
HETATM   11  C6  UNL     1       3.944   1.655   0.033  1.00  0.00     0.109 C 
HETATM   12  N1  UNL     1       5.007   2.360   0.094  1.00  0.00    -0.314 NA
HETATM   13  H7  UNL     1       5.848   2.075   0.614  1.00  0.00     0.185 HD
ENDBRANCH  10  11
ENDBRANCH   4   5
ENDBRANCH   3   4
ENDBRANCH   1   3
BRANCH   2  14
HETATM   14  C11 UNL     1      -3.171   0.495   0.560  1.00  0.00    -0.013 A 
HETATM   15  C12 UNL     1      -3.321   1.713   0.064  1.00  0.00     0.072 A 
HETATM   16  C13 UNL     1      -4.729   2.020  -0.155  1.00  0.00     0.034 A 
HETATM   17  C14 UNL     1      -5.398   0.923   0.237  1.00  0.00    -0.009 A 
HETATM   18  C15 UNL     1      -4.489  -0.169   0.735  1.00  0.00     0.084 A 
BRANCH  15  19
HETATM   19  O1  UNL     1      -2.396   2.694  -0.265  1.00  0.00    -0.360 OA
HETATM   20  H14 UNL     1      -2.462   3.597   0.215  1.00  0.00     0.217 HD
ENDBRANCH  15  19
BRANCH  18  21
HETATM   21  C16 UNL     1      -4.638  -1.374  -0.135  1.00  0.00     0.093 C 
HETATM   22  N3  UNL     1      -5.406  -2.343   0.209  1.00  0.00    -0.315 NA
HETATM   23  H19 UNL     1      -5.474  -3.164  -0.439  1.00  0.00     0.185 HD
ENDBRANCH  18  21
ENDBRANCH   2  14
TORSDOF 7
