REMARK  7 active torsions:
REMARK  status: ('A' for Active; 'I' for Inactive)
REMARK    1  A    between atoms: C2_2  and  N1_3 
REMARK    2  A    between atoms: N1_3  and  C3_4 
REMARK    3  A    between atoms: N5_12  and  C8_13 
REMARK    4  A    between atoms: C8_13  and  C9_14 
REMARK    5  A    between atoms: C13_20  and  C14_21 
REMARK    6  A    between atoms: C14_21  and  C15_22 
REMARK    7  A    between atoms: C17_24  and  O1_25 
ROOT
HETATM    1  C9  UNL     1       1.244   0.871   0.205  1.00  0.00    -0.053 C 
HETATM    2  C10 UNL     1       2.053   1.917   0.178  1.00  0.00     0.025 C 
HETATM    3  C11 UNL     1       3.100   2.387  -0.686  1.00  0.00     0.126 C 
HETATM    4  N6  UNL     1       3.564   1.928  -1.783  1.00  0.00    -0.229 NA
HETATM    5  S1  UNL     1       3.058   0.491  -2.657  1.00  0.00    -0.029 SA
HETATM    6  C12 UNL     1       1.381   0.121  -2.193  1.00  0.00     0.109 C 
HETATM    7  C13 UNL     1       1.181  -0.228  -0.747  1.00  0.00     0.033 C 
ENDROOT
BRANCH   1   8
HETATM    8  C8  UNL     1       0.322   0.897   1.382  1.00  0.00     0.188 C 
BRANCH   8   9
HETATM    9  N5  UNL     1      -1.072   0.912   1.024  1.00  0.00    -0.248 N 
HETATM   10  C5  UNL     1      -1.922  -0.119   0.868  1.00  0.00     0.163 A 
HETATM   11  N3  UNL     1      -1.802  -1.463   0.995  1.00  0.00    -0.222 NA
HETATM   12  C6  UNL     1      -3.164   0.355   0.508  1.00  0.00     0.076 A 
HETATM   13  C4  UNL     1      -2.822  -2.294   0.786  1.00  0.00     0.237 A 
HETATM   14  N2  UNL     1      -4.034  -1.794   0.431  1.00  0.00    -0.224 NA
HETATM   15  C3  UNL     1      -4.240  -0.477   0.283  1.00  0.00     0.140 A 
HETATM   16  C7  UNL     1      -2.979   1.721   0.466  1.00  0.00     0.158 A 
HETATM   17  N4  UNL     1      -1.722   2.061   0.776  1.00  0.00    -0.182 NA
BRANCH  15  18
HETATM   18  N1  UNL     1      -5.501   0.048  -0.086  1.00  0.00    -0.374 N 
HETATM   19  H6  UNL     1      -5.615   1.076  -0.189  1.00  0.00     0.161 HD
BRANCH  18  20
HETATM   20  C2  UNL     1      -6.652  -0.805  -0.329  1.00  0.00     0.116 C 
HETATM   21  C1  UNL     1      -7.854   0.011  -0.703  1.00  0.00     0.026 C 
ENDBRANCH  18  20
ENDBRANCH  15  18
ENDBRANCH   8   9
ENDBRANCH   1   8
BRANCH   7  22
HETATM   22  C14 UNL     1       1.940  -1.455  -0.319  1.00  0.00     0.074 C 
BRANCH  22  23
HETATM   23  C15 UNL     1       3.377  -1.248  -0.109  1.00  0.00     0.051 A 
HETATM   24  C16 UNL     1       4.567  -1.647  -0.529  1.00  0.00     0.065 A 
HETATM   25  C17 UNL     1       5.277  -0.758   0.394  1.00  0.00     0.292 A 
HETATM   26  O2  UNL     1       3.989  -0.402   0.768  1.00  0.00    -0.321 OA
BRANCH  25  27
HETATM   27  O1  UNL     1       5.991   0.212  -0.334  1.00  0.00    -0.362 OA
HETATM   28  C18 UNL     1       7.275   0.287   0.188  1.00  0.00     0.205 C 
ENDBRANCH  25  27
ENDBRANCH  22  23
ENDBRANCH   7  22
TORSDOF 7
