REMARK  1 active torsions:
REMARK  status: ('A' for Active; 'I' for Inactive)
REMARK    1  A    between atoms: C5_5  and  O1_6 
ROOT
HETATM    1  C1  UNL     1       3.680  -3.572   0.529  1.00  0.00     0.020 C 
HETATM    2  C2  UNL     1       2.796  -2.664   0.212  1.00  0.00    -0.048 C 
HETATM    3  C3  UNL     1       3.416  -1.377  -0.085  1.00  0.00     0.007 C 
HETATM    4  C4  UNL     1       3.125  -0.142  -0.445  1.00  0.00     0.009 C 
HETATM    5  C5  UNL     1       3.413   1.266  -0.802  1.00  0.00     0.165 C 
HETATM    6  C6  UNL     1       2.141   1.963  -1.242  1.00  0.00     0.025 C 
HETATM    7  C7  UNL     1       0.855   2.019  -1.048  1.00  0.00     0.086 C 
HETATM    8  N1  UNL     1      -0.361   2.645  -1.430  1.00  0.00    -0.375 N 
HETATM    9  C8  UNL     1      -0.370   4.015  -0.953  1.00  0.00     0.099 C 
HETATM   10  C9  UNL     1      -0.570   3.859   0.352  1.00  0.00    -0.009 C 
HETATM   11  C10 UNL     1      -1.704   3.320   0.693  1.00  0.00     0.013 C 
HETATM   12  C11 UNL     1      -2.512   2.472  -0.170  1.00  0.00    -0.003 C 
HETATM   13  C12 UNL     1      -3.115   1.302  -0.032  1.00  0.00    -0.025 C 
HETATM   14  C13 UNL     1      -3.223   0.356   1.072  1.00  0.00     0.051 C 
HETATM   15  C14 UNL     1      -2.712  -0.987   0.740  1.00  0.00     0.080 C 
HETATM   16  C15 UNL     1      -3.544  -1.515  -0.440  1.00  0.00     0.032 C 
HETATM   17  N2  UNL     1      -1.312  -1.071   0.394  1.00  0.00    -0.393 N 
HETATM   18  C16 UNL     1      -1.030  -2.487   0.185  1.00  0.00     0.098 C 
HETATM   19  C17 UNL     1      -0.823  -2.896   1.437  1.00  0.00     0.024 C 
HETATM   20  C18 UNL     1       0.177  -2.266   2.003  1.00  0.00     0.093 C 
HETATM   21  N3  UNL     1       0.932  -1.703   1.102  1.00  0.00    -0.282 NA
HETATM   22  C19 UNL     1       1.307  -2.683   0.079  1.00  0.00     0.187 C 
HETATM   23  H9  UNL     1      -0.765   1.794  -1.933  1.00  0.00     0.164 HD
HETATM   24  H20 UNL     1      -0.846  -0.144   0.373  1.00  0.00     0.159 HD
ENDROOT
BRANCH   5  25
HETATM   25  O1  UNL     1       3.933   2.027   0.232  1.00  0.00    -0.388 OA
HETATM   26  H6  UNL     1       4.547   2.700  -0.100  1.00  0.00     0.210 HD
ENDBRANCH   5  25
TORSDOF 1
