REMARK  8 active torsions:
REMARK  status: ('A' for Active; 'I' for Inactive)
REMARK    1  A    between atoms: C2_2  and  N1_3 
REMARK    2  A    between atoms: C2_2  and  C14_19 
REMARK    3  A    between atoms: N1_3  and  C3_4 
REMARK    4  A    between atoms: C8_11  and  C9_12 
REMARK    5  A    between atoms: C9_12  and  C10_13 
REMARK    6  A    between atoms: C11_14  and  O1_15 
REMARK    7  A    between atoms: C11_14  and  C12_16 
REMARK    8  A    between atoms: C13_17  and  N4_18 
ROOT
HETATM    1  C3  UNL     1      -1.088  -0.153   0.461  1.00  0.00     0.138 A 
HETATM    2  N2  UNL     1      -0.921   1.154   0.205  1.00  0.00    -0.224 NA
HETATM    3  C4  UNL     1       0.191   1.691  -0.256  1.00  0.00     0.236 A 
HETATM    4  N3  UNL     1       1.255   0.914  -0.502  1.00  0.00    -0.241 NA
HETATM    5  C5  UNL     1       1.230  -0.423  -0.291  1.00  0.00     0.078 A 
HETATM    6  C6  UNL     1       0.050  -0.907   0.186  1.00  0.00     0.040 A 
HETATM    7  C7  UNL     1       0.687  -2.238   0.170  1.00  0.00     0.027 A 
HETATM    8  C8  UNL     1       1.827  -1.753  -0.293  1.00  0.00    -0.024 A 
ENDROOT
BRANCH   1   9
HETATM    9  N1  UNL     1      -2.277  -0.762   0.982  1.00  0.00    -0.366 N 
HETATM   10  H5  UNL     1      -2.196  -1.793   1.136  1.00  0.00     0.161 HD
BRANCH   9  11
HETATM   11  C2  UNL     1      -3.514  -0.131   1.300  1.00  0.00     0.112 C 
HETATM   12  C1  UNL     1      -3.356   1.139   2.121  1.00  0.00     0.037 C 
BRANCH  11  13
HETATM   13  C14 UNL     1      -4.411   0.147   0.166  1.00  0.00    -0.036 A 
HETATM   14  C15 UNL     1      -4.146   0.612  -1.082  1.00  0.00     0.009 A 
HETATM   15  C16 UNL     1      -5.086   0.840  -2.060  1.00  0.00     0.001 A 
HETATM   16  C17 UNL     1      -6.415   0.590  -1.800  1.00  0.00     0.000 A 
HETATM   17  C18 UNL     1      -6.778   0.115  -0.558  1.00  0.00     0.001 A 
HETATM   18  C19 UNL     1      -5.769  -0.083   0.359  1.00  0.00     0.009 A 
ENDBRANCH  11  13
ENDBRANCH   9  11
ENDBRANCH   1   9
BRANCH   8  19
HETATM   19  C9  UNL     1       3.200  -2.150  -0.702  1.00  0.00     0.071 C 
BRANCH  19  20
HETATM   20  C10 UNL     1       4.218  -1.455   0.132  1.00  0.00     0.014 C 
HETATM   21  C11 UNL     1       5.090  -0.677  -0.455  1.00  0.00     0.063 C 
BRANCH  21  22
HETATM   22  O1  UNL     1       4.954  -0.591  -1.827  1.00  0.00    -0.361 OA
HETATM   23  H11 UNL     1       4.225  -0.102  -2.314  1.00  0.00     0.217 HD
ENDBRANCH  21  22
BRANCH  21  24
HETATM   24  C12 UNL     1       6.130   0.058   0.217  1.00  0.00     0.052 C 
HETATM   25  C13 UNL     1       6.974   0.822  -0.428  1.00  0.00     0.083 C 
BRANCH  25  26
HETATM   26  N4  UNL     1       8.017   1.567   0.188  1.00  0.00    -0.408 N 
HETATM   27  H14 UNL     1       7.698   2.572   0.237  1.00  0.00     0.155 HD
HETATM   28  H15 UNL     1       8.957   1.634   0.627  1.00  0.00     0.155 HD
ENDBRANCH  25  26
ENDBRANCH  21  24
ENDBRANCH  19  20
ENDBRANCH   8  19
TORSDOF 8
