REMARK  2 active torsions:
REMARK  status: ('A' for Active; 'I' for Inactive)
REMARK    1  A    between atoms: C6_9  and  N1_10 
REMARK    2  A    between atoms: N1_10  and  C7_11 
ROOT
HETATM    1  O1  UNL     1      -2.289   0.856  -4.174  1.00  0.00    -0.267 OA
HETATM    2  C1  UNL     1      -2.046   0.816  -2.906  1.00  0.00     0.259 C 
HETATM    3  C2  UNL     1      -1.774   2.013  -2.196  1.00  0.00     0.075 C 
HETATM    4  C3  UNL     1      -1.488   2.276  -0.937  1.00  0.00     0.022 C 
HETATM    5  C4  UNL     1      -1.212   2.090   0.504  1.00  0.00     0.257 C 
HETATM    6  F1  UNL     1      -2.264   2.549   1.273  1.00  0.00    -0.238 F 
HETATM    7  C5  UNL     1      -0.810   0.681   0.836  1.00  0.00     0.154 C 
HETATM    8  F2  UNL     1      -1.750   0.537  -0.105  1.00  0.00    -0.205 F 
HETATM    9  C6  UNL     1      -0.566  -0.603   1.005  1.00  0.00     0.052 C 
HETATM   10  C13 UNL     1      -1.046  -1.838   0.394  1.00  0.00     0.043 A 
HETATM   11  C14 UNL     1      -0.094  -2.696  -0.379  1.00  0.00     0.016 A 
HETATM   12  C15 UNL     1      -0.998  -1.807  -1.102  1.00  0.00    -0.004 A 
HETATM   13  C16 UNL     1      -2.289  -2.340  -1.673  1.00  0.00     0.006 C 
HETATM   14  O2  UNL     1      -2.369  -1.902  -3.023  1.00  0.00     0.000 OA
HETATM   15  N2  UNL     1      -2.210  -0.580  -2.958  1.00  0.00    -0.264 N 
HETATM   16  H14 UNL     1      -2.398  -1.320  -3.672  1.00  0.00     0.190 HD
ENDROOT
BRANCH   9  17
HETATM   17  N1  UNL     1       0.332  -0.261   2.024  1.00  0.00    -0.356 N 
HETATM   18  H4  UNL     1      -0.078  -0.382   3.006  1.00  0.00     0.166 HD
BRANCH  17  19
HETATM   19  C7  UNL     1       1.660   0.192   1.962  1.00  0.00     0.054 A 
HETATM   20  C8  UNL     1       2.278   0.392   0.716  1.00  0.00     0.032 A 
HETATM   21  C9  UNL     1       3.612   0.818   0.665  1.00  0.00     0.020 A 
HETATM   22  C10 UNL     1       4.375   1.061   1.831  1.00  0.00     0.008 A 
HETATM   23  I1  UNL     1       6.371   1.686   1.799  1.00  0.00    -0.045 I 
HETATM   24  C11 UNL     1       3.700   0.844   2.987  1.00  0.00     0.044 A 
HETATM   25  C12 UNL     1       2.402   0.429   3.093  1.00  0.00     0.061 A 
HETATM   26 CL1  UNL     1       1.613   0.173   4.650  1.00  0.00    -0.082 Cl
ENDBRANCH  17  19
ENDBRANCH   9  17
TORSDOF 2
