REMARK  5 active torsions:
REMARK  status: ('A' for Active; 'I' for Inactive)
REMARK    1  A    between atoms: C5_6  and  N2_7 
REMARK    2  A    between atoms: C8_13  and  N6_14 
REMARK    3  A    between atoms: N6_14  and  C9_15 
REMARK    4  A    between atoms: C12_18  and  S1_19 
REMARK    5  A    between atoms: S1_19  and  N7_20 
ROOT
HETATM    1  N1  UNL     1      -0.773   2.737  -2.487  1.00  0.00    -0.191 NA
HETATM    2  C1  UNL     1      -1.324   2.050  -1.765  1.00  0.00     0.103 C 
HETATM    3  C2  UNL     1      -2.010   1.197  -0.869  1.00  0.00     0.091 A 
HETATM    4  C3  UNL     1      -3.359   0.957  -1.030  1.00  0.00     0.045 A 
HETATM    5  C4  UNL     1      -3.956   0.121  -0.124  1.00  0.00     0.059 A 
HETATM    6  C5  UNL     1      -5.306  -0.108  -0.300  1.00  0.00     0.136 A 
HETATM    7  N3  UNL     1      -5.986  -0.915   0.536  1.00  0.00    -0.224 NA
HETATM    8  C6  UNL     1      -5.324  -1.511   1.570  1.00  0.00     0.237 A 
HETATM    9  N4  UNL     1      -4.011  -1.304   1.760  1.00  0.00    -0.221 NA
HETATM   10  C7  UNL     1      -3.301  -0.497   0.935  1.00  0.00     0.167 A 
HETATM   11  N5  UNL     1      -1.971  -0.255   1.086  1.00  0.00    -0.209 NA
HETATM   12  C8  UNL     1      -1.387   0.571   0.190  1.00  0.00     0.151 A 
ENDROOT
BRANCH  12  13
HETATM   13  N6  UNL     1       0.002   0.761   0.429  1.00  0.00    -0.343 N 
HETATM   14  H5  UNL     1      -0.027   1.603   1.064  1.00  0.00     0.167 HD
BRANCH  13  15
HETATM   15  C9  UNL     1       1.356   0.324   0.191  1.00  0.00     0.011 A 
HETATM   16  C10 UNL     1       1.933   0.558  -0.975  1.00  0.00     0.026 A 
HETATM   17  C11 UNL     1       3.302   0.078  -1.121  1.00  0.00     0.022 A 
HETATM   18  C12 UNL     1       3.806  -0.536  -0.067  1.00  0.00     0.052 A 
HETATM   19  C13 UNL     1       3.231  -0.830   1.245  1.00  0.00     0.058 A 
HETATM   20  C14 UNL     1       1.832  -0.350   1.425  1.00  0.00     0.062 A 
BRANCH  18  21
HETATM   21  S1  UNL     1       5.468  -1.108  -0.271  1.00  0.00     0.235 S 
HETATM   22  O1  UNL     1       5.694  -2.362   0.497  1.00  0.00    -0.206 OA
HETATM   23  O2  UNL     1       5.734  -1.430  -1.729  1.00  0.00    -0.206 OA
BRANCH  21  24
HETATM   24  N7  UNL     1       6.573   0.104   0.216  1.00  0.00    -0.225 NA
HETATM   25  H8  UNL     1       6.127   1.041   0.264  1.00  0.00     0.136 HD
HETATM   26  H9  UNL     1       6.991  -0.178   1.126  1.00  0.00     0.136 HD
ENDBRANCH  21  24
ENDBRANCH  18  21
ENDBRANCH  13  15
ENDBRANCH  12  13
BRANCH   6  27
HETATM   27  N2  UNL     1      -6.054   0.482  -1.355  1.00  0.00    -0.383 N 
HETATM   28  H2  UNL     1      -6.912   0.069  -1.732  1.00  0.00     0.157 HD
HETATM   29  H3  UNL     1      -5.909   1.356  -1.905  1.00  0.00     0.157 HD
ENDBRANCH   6  27
TORSDOF 5
