REMARK  4 active torsions:
REMARK  status: ('A' for Active; 'I' for Inactive)
REMARK    1  A    between atoms: C7_9  and  N1_10 
REMARK    2  A    between atoms: N1_10  and  C8_11 
REMARK    3  A    between atoms: C8_11  and  C9_12 
REMARK    4  A    between atoms: C10_14  and  C11_15 
ROOT
HETATM    1  O1  UNL     1      -5.822   0.754  -0.124  1.00  0.00    -0.274 OA
HETATM    2  C1  UNL     1      -4.744   0.116  -0.165  1.00  0.00     0.234 C 
HETATM    3  C2  UNL     1      -4.668  -1.313  -0.409  1.00  0.00     0.069 C 
HETATM    4  C3  UNL     1      -3.622  -2.099  -0.464  1.00  0.00     0.008 C 
HETATM    5  C4  UNL     1      -2.519  -3.017  -0.539  1.00  0.00     0.042 C 
HETATM    6  C5  UNL     1      -1.206  -2.930  -0.424  1.00  0.00     0.118 C 
HETATM    7  F1  UNL     1      -0.627  -4.184  -0.592  1.00  0.00    -0.206 F 
HETATM    8  C6  UNL     1      -0.101  -1.961  -0.200  1.00  0.00     0.067 C 
HETATM    9  C7  UNL     1       0.288  -0.702   0.005  1.00  0.00     0.012 C 
HETATM   10  C12 UNL     1      -0.101   0.696   0.148  1.00  0.00     0.040 A 
HETATM   11  C13 UNL     1      -0.071   1.211   1.589  1.00  0.00     0.016 A 
HETATM   12  C14 UNL     1      -1.364   0.999   0.854  1.00  0.00    -0.004 A 
HETATM   13  C15 UNL     1      -1.928   2.330   0.327  1.00  0.00     0.006 C 
HETATM   14  O2  UNL     1      -3.326   2.337   0.323  1.00  0.00     0.000 OA
HETATM   15  N2  UNL     1      -3.739   1.087   0.069  1.00  0.00    -0.185 NA
HETATM   16  H17 UNL     1      -4.062   2.095   0.240  1.00  0.00     0.150 HD
ENDROOT
BRANCH   9  17
HETATM   17  N1  UNL     1       1.703  -0.410   0.164  1.00  0.00    -0.388 N 
HETATM   18  H5  UNL     1       2.264  -0.262   1.054  1.00  0.00     0.159 HD
BRANCH  17  19
HETATM   19  C8  UNL     1       2.447  -0.309  -1.099  1.00  0.00     0.170 C 
BRANCH  19  20
HETATM   20  C9  UNL     1       3.899  -0.007  -0.845  1.00  0.00     0.026 C 
HETATM   21 CL1  UNL     1       4.733  -1.216   0.119  1.00  0.00    -0.087 Cl
HETATM   22  C10 UNL     1       4.688   1.000  -1.206  1.00  0.00     0.004 C 
BRANCH  22  23
HETATM   23  C11 UNL     1       6.123   1.196  -0.895  1.00  0.00     0.108 C 
HETATM   24  I1  UNL     1       6.355   3.014   0.188  1.00  0.00    -0.086 I 
ENDBRANCH  22  23
ENDBRANCH  19  20
ENDBRANCH  17  19
ENDBRANCH   9  17
TORSDOF 4
