REMARK  6 active torsions:
REMARK  status: ('A' for Active; 'I' for Inactive)
REMARK    1  A    between atoms: C3_3  and  N1_4 
REMARK    2  A    between atoms: N1_4  and  C4_5 
REMARK    3  A    between atoms: C4_5  and  C5_6 
REMARK    4  A    between atoms: C12_16  and  N4_17 
REMARK    5  A    between atoms: N4_17  and  C13_18 
REMARK    6  A    between atoms: C18_23  and  O1_24 
ROOT
HETATM    1  C1  UNL     1       0.234   1.304  -0.956  1.00  0.00     0.056 C 
HETATM    2  C2  UNL     1      -0.109   0.768   0.415  1.00  0.00     0.030 A 
HETATM    3  C3  UNL     1       0.949   0.238   1.080  1.00  0.00     0.134 A 
HETATM    4  N2  UNL     1       0.701  -0.259   2.323  1.00  0.00    -0.224 NA
HETATM    5  C11 UNL     1      -0.597  -0.166   2.758  1.00  0.00     0.237 A 
HETATM    6  N3  UNL     1      -1.600   0.371   2.050  1.00  0.00    -0.224 NA
HETATM    7  C12 UNL     1      -1.429   0.892   0.793  1.00  0.00     0.139 A 
ENDROOT
BRANCH   7   8
HETATM    8  N4  UNL     1      -2.461   1.455   0.009  1.00  0.00    -0.344 N 
HETATM    9  H12 UNL     1      -2.474   2.463  -0.240  1.00  0.00     0.167 HD
BRANCH   8  10
HETATM   10  C13 UNL     1      -3.418   0.432  -0.351  1.00  0.00     0.017 C 
HETATM   11  C14 UNL     1      -3.024  -0.680  -0.946  1.00  0.00     0.025 C 
HETATM   12  C15 UNL     1      -3.925  -1.779  -1.350  1.00  0.00     0.002 C 
HETATM   13  C16 UNL     1      -5.217  -1.930  -1.106  1.00  0.00     0.002 C 
HETATM   14  C17 UNL     1      -6.138  -1.083  -0.381  1.00  0.00     0.032 C 
HETATM   15  C18 UNL     1      -5.846   0.105   0.085  1.00  0.00     0.049 C 
HETATM   16  C19 UNL     1      -4.681   0.996   0.105  1.00  0.00     0.121 C 
BRANCH  15  17
HETATM   17  O1  UNL     1      -6.970   0.616   0.721  1.00  0.00    -0.365 OA
HETATM   18  H17 UNL     1      -7.068   1.614   0.790  1.00  0.00     0.217 HD
ENDBRANCH  15  17
ENDBRANCH   8  10
ENDBRANCH   7   8
BRANCH   3  19
HETATM   19  N1  UNL     1       2.259   0.166   0.568  1.00  0.00    -0.370 N 
HETATM   20  H4  UNL     1       2.498   0.521  -0.383  1.00  0.00     0.161 HD
BRANCH  19  21
HETATM   21  C4  UNL     1       3.336  -0.414   1.350  1.00  0.00     0.160 C 
BRANCH  21  22
HETATM   22  C5  UNL     1       4.610  -0.375   0.558  1.00  0.00    -0.040 A 
HETATM   23  C6  UNL     1       4.927  -1.435  -0.260  1.00  0.00     0.012 A 
HETATM   24  C7  UNL     1       6.088  -1.407  -1.005  1.00  0.00     0.043 A 
HETATM   25  C8  UNL     1       6.981  -0.334  -0.973  1.00  0.00     0.116 A 
HETATM   26  F1  UNL     1       8.124  -0.282  -1.697  1.00  0.00    -0.206 F 
HETATM   27  C9  UNL     1       6.602   0.699  -0.129  1.00  0.00     0.043 A 
HETATM   28  C10 UNL     1       5.465   0.717   0.626  1.00  0.00     0.012 A 
ENDBRANCH  21  22
ENDBRANCH  19  21
ENDBRANCH   3  19
TORSDOF 6
