REMARK  3 active torsions:
REMARK  status: ('A' for Active; 'I' for Inactive)
REMARK    1  A    between atoms: N1_1  and  C1_2 
REMARK    2  A    between atoms: C7_11  and  N5_12 
REMARK    3  A    between atoms: C10_15  and  C11_16 
ROOT
HETATM    1  C1  UNL     1      -4.293   0.469   1.555  1.00  0.00     0.134 A 
HETATM    2  N2  UNL     1      -4.258   1.779   1.822  1.00  0.00    -0.225 NA
HETATM    3  C2  UNL     1      -3.116   2.498   1.599  1.00  0.00     0.233 A 
HETATM    4  N3  UNL     1      -1.919   2.054   1.111  1.00  0.00    -0.229 NA
HETATM    5  C3  UNL     1      -1.974   0.670   0.835  1.00  0.00     0.357 A 
HETATM    6  C4  UNL     1      -3.266  -0.174   1.081  1.00  0.00     0.069 A 
HETATM    7  C5  UNL     1      -2.408  -0.979   0.627  1.00  0.00     0.049 A 
HETATM    8  C6  UNL     1      -1.671  -1.639   0.245  1.00  0.00     0.080 A 
HETATM    9  N4  UNL     1      -0.809  -2.379  -0.196  1.00  0.00    -0.230 NA
HETATM   10  C7  UNL     1      -0.211  -0.876  -0.074  1.00  0.00     0.377 A 
HETATM   11  N6  UNL     1      -0.527   0.467   0.315  1.00  0.00     0.404 N 
HETATM   12  H4  UNL     1       0.100  -2.580  -0.537  1.00  0.00     0.132 HD
ENDROOT
BRANCH  10  13
HETATM   13  N5  UNL     1       1.209  -0.474  -0.462  1.00  0.00    -0.333 N 
HETATM   14  C8  UNL     1       1.477  -0.174  -1.835  1.00  0.00     0.091 A 
HETATM   15  C9  UNL     1       2.711   0.165  -2.128  1.00  0.00     0.031 A 
HETATM   16  C10 UNL     1       3.763   0.241  -1.153  1.00  0.00     0.001 A 
HETATM   17  C12 UNL     1       3.484  -0.041   0.104  1.00  0.00     0.007 A 
HETATM   18  C13 UNL     1       2.158  -0.442   0.636  1.00  0.00     0.155 A 
BRANCH  16  19
HETATM   19  C11 UNL     1       5.129   0.624  -1.526  1.00  0.00     0.269 C 
HETATM   20  O1  UNL     1       6.072   0.697  -0.678  1.00  0.00    -0.301 OA
ENDBRANCH  16  19
ENDBRANCH  10  13
BRANCH   1  21
HETATM   21  N1  UNL     1      -5.071  -0.699   1.563  1.00  0.00    -0.383 N 
HETATM   22  H1  UNL     1      -5.695  -1.087   0.799  1.00  0.00     0.157 HD
HETATM   23  H2  UNL     1      -5.189  -1.414   2.336  1.00  0.00     0.157 HD
ENDBRANCH   1  21
TORSDOF 3
