REMARK  5 active torsions:
REMARK  status: ('A' for Active; 'I' for Inactive)
REMARK    1  A    between atoms: C5_6  and  N2_7 
REMARK    2  A    between atoms: C8_13  and  N6_14 
REMARK    3  A    between atoms: N6_14  and  C9_15 
REMARK    4  A    between atoms: C12_18  and  S1_19 
REMARK    5  A    between atoms: S1_19  and  N7_20 
ROOT
HETATM    1  N1  UNL     1      -0.002  -1.746   2.798  1.00  0.00    -0.191 NA
HETATM    2  C1  UNL     1       0.714  -1.161   2.106  1.00  0.00     0.103 C 
HETATM    3  C2  UNL     1       1.587  -0.432   1.248  1.00  0.00     0.091 A 
HETATM    4  C3  UNL     1       2.851  -0.925   1.006  1.00  0.00     0.045 A 
HETATM    5  C4  UNL     1       3.671  -0.206   0.175  1.00  0.00     0.059 A 
HETATM    6  C5  UNL     1       4.947  -0.605  -0.128  1.00  0.00     0.136 A 
HETATM    7  N3  UNL     1       5.785   0.091  -0.948  1.00  0.00    -0.224 NA
HETATM    8  C6  UNL     1       5.363   1.238  -1.506  1.00  0.00     0.237 A 
HETATM    9  N4  UNL     1       4.127   1.631  -1.216  1.00  0.00    -0.221 NA
HETATM   10  C7  UNL     1       3.264   0.991  -0.422  1.00  0.00     0.167 A 
HETATM   11  N5  UNL     1       2.029   1.473  -0.186  1.00  0.00    -0.209 NA
HETATM   12  C8  UNL     1       1.227   0.768   0.629  1.00  0.00     0.151 A 
ENDROOT
BRANCH  12  13
HETATM   13  N6  UNL     1      -0.055   1.317   0.868  1.00  0.00    -0.340 N 
HETATM   14  H5  UNL     1       0.103   2.133   1.532  1.00  0.00     0.167 HD
BRANCH  13  15
HETATM   15  C9  UNL     1      -1.380   1.071   0.485  1.00  0.00     0.033 A 
HETATM   16  C10 UNL     1      -2.390   1.974   0.645  1.00  0.00     0.031 A 
HETATM   17  C11 UNL     1      -3.663   1.624   0.257  1.00  0.00     0.027 A 
HETATM   18  C12 UNL     1      -4.004   0.405  -0.293  1.00  0.00     0.074 A 
HETATM   19  C13 UNL     1      -2.963  -0.513  -0.452  1.00  0.00     0.027 A 
HETATM   20  C14 UNL     1      -1.681  -0.176  -0.068  1.00  0.00     0.031 A 
BRANCH  18  21
HETATM   21  S1  UNL     1      -5.613  -0.081  -0.810  1.00  0.00     0.239 S 
HETATM   22  O1  UNL     1      -6.530  -0.292   0.331  1.00  0.00    -0.206 OA
HETATM   23  O2  UNL     1      -6.163   0.959  -1.783  1.00  0.00    -0.206 OA
BRANCH  21  24
HETATM   24  N7  UNL     1      -5.539  -1.555  -1.730  1.00  0.00    -0.225 NA
HETATM   25  H8  UNL     1      -5.438  -2.381  -1.097  1.00  0.00     0.136 HD
HETATM   26  H9  UNL     1      -4.663  -1.485  -2.312  1.00  0.00     0.136 HD
ENDBRANCH  21  24
ENDBRANCH  18  21
ENDBRANCH  13  15
ENDBRANCH  12  13
BRANCH   6  27
HETATM   27  N2  UNL     1       5.408  -1.806   0.443  1.00  0.00    -0.383 N 
HETATM   28  H2  UNL     1       4.942  -2.558  -0.144  1.00  0.00     0.157 HD
HETATM   29  H3  UNL     1       5.821  -2.602   0.955  1.00  0.00     0.157 HD
ENDBRANCH   6  27
TORSDOF 5
