REMARK  3 active torsions:
REMARK  status: ('A' for Active; 'I' for Inactive)
REMARK    1  A    between atoms: O1_2  and  C2_3 
REMARK    2  A    between atoms: C4_5  and  N1_6 
REMARK    3  A    between atoms: N1_6  and  C5_7 
ROOT
HETATM    1  C2  UNL     1       0.056   2.472   0.512  1.00  0.00     0.070 C 
HETATM    2  C3  UNL     1       0.420   1.303  -0.001  1.00  0.00     0.065 C 
HETATM    3  C4  UNL     1       0.685   0.057  -0.712  1.00  0.00     0.146 C 
HETATM    4  N2  UNL     1       1.209   0.221  -2.010  1.00  0.00    -0.305 N 
HETATM    5  O2  UNL     1       0.376   0.850  -2.894  1.00  0.00     0.000 OA
HETATM    6  C11 UNL     1      -0.765   0.295  -3.452  1.00  0.00     0.136 A 
HETATM    7  N3  UNL     1      -0.897   1.065  -2.577  1.00  0.00    -0.264 N 
HETATM    8  C12 UNL     1      -0.926   1.933  -1.597  1.00  0.00     0.040 C 
HETATM    9  C13 UNL     1      -0.893   2.760  -0.579  1.00  0.00     0.064 C 
HETATM   10  C14 UNL     1      -2.389   1.895  -1.979  1.00  0.00     0.086 C 
HETATM   11  C15 UNL     1      -2.721   0.442  -1.579  1.00  0.00    -0.015 C 
HETATM   12  C16 UNL     1      -1.819  -0.490  -1.076  1.00  0.00    -0.051 C 
HETATM   13  C17 UNL     1      -2.734  -1.694  -0.884  1.00  0.00     0.202 C 
HETATM   14  O3  UNL     1      -2.091  -2.609  -0.083  1.00  0.00    -0.387 OA
HETATM   15  C18 UNL     1      -1.023  -3.236  -0.721  1.00  0.00     0.168 C 
HETATM   16  C19 UNL     1      -0.091  -2.170  -1.323  1.00  0.00     0.040 C 
HETATM   17  C20 UNL     1      -0.488  -0.889  -0.652  1.00  0.00     0.073 C 
HETATM   18  H9  UNL     1       2.201   0.421  -2.129  1.00  0.00     0.183 HD
ENDROOT
BRANCH   3  19
HETATM   19  N1  UNL     1       1.720  -0.660   0.061  1.00  0.00    -0.359 N 
HETATM   20  H5  UNL     1       2.549  -0.975  -0.490  1.00  0.00     0.162 HD
BRANCH  19  21
HETATM   21  C5  UNL     1       1.808  -1.005   1.430  1.00  0.00     0.032 A 
HETATM   22  C6  UNL     1       2.883  -1.760   1.902  1.00  0.00     0.032 A 
HETATM   23  C7  UNL     1       3.049  -2.121   3.206  1.00  0.00     0.046 A 
HETATM   24  C8  UNL     1       2.131  -1.745   4.155  1.00  0.00     0.138 A 
HETATM   25  F1  UNL     1       2.319  -2.120   5.439  1.00  0.00    -0.204 F 
HETATM   26  C9  UNL     1       1.052  -1.002   3.756  1.00  0.00     0.074 A 
HETATM   27 CL1  UNL     1      -0.092  -0.543   4.995  1.00  0.00    -0.081 Cl
HETATM   28  C10 UNL     1       0.932  -0.665   2.433  1.00  0.00     0.056 A 
ENDBRANCH  19  21
ENDBRANCH   3  19
BRANCH   1  29
HETATM   29  O1  UNL     1       0.175   3.451   1.527  1.00  0.00    -0.356 OA
HETATM   30  C1  UNL     1       1.187   4.427   1.230  1.00  0.00     0.210 C 
ENDBRANCH   1  29
TORSDOF 3
