REMARK  3 active torsions:
REMARK  status: ('A' for Active; 'I' for Inactive)
REMARK    1  A    between atoms: C8_9  and  N2_10 
REMARK    2  A    between atoms: C9_11  and  S1_12 
REMARK    3  A    between atoms: S1_12  and  N3_13 
ROOT
HETATM    1  C1  UNL     1      -3.268   0.902   1.250  1.00  0.00     0.066 C 
HETATM    2  C2  UNL     1      -3.168   0.176  -0.059  1.00  0.00     0.135 A 
HETATM    3  C3  UNL     1      -2.616  -0.991  -0.448  1.00  0.00     0.049 C 
HETATM    4  C4  UNL     1      -2.058  -2.233  -0.988  1.00  0.00     0.038 C 
HETATM    5  C5  UNL     1      -0.587  -2.366  -0.899  1.00  0.00     0.000 C 
HETATM    6  C6  UNL     1       0.546  -1.736  -0.653  1.00  0.00     0.088 C 
HETATM    7  C7  UNL     1       1.839  -2.416  -0.700  1.00  0.00     0.103 C 
HETATM    8  N1  UNL     1       2.875  -2.984  -0.742  1.00  0.00    -0.191 NA
HETATM    9  C8  UNL     1       0.816  -0.303  -0.403  1.00  0.00     0.171 C 
HETATM   10  N4  UNL     1       0.440   0.954  -0.390  1.00  0.00    -0.223 NA
HETATM   11  C10 UNL     1      -0.895   1.273  -0.811  1.00  0.00     0.215 C 
HETATM   12  N5  UNL     1      -2.163   1.173  -0.823  1.00  0.00    -0.306 N 
HETATM   13  C11 UNL     1      -3.075   1.905  -1.607  1.00  0.00     0.209 A 
HETATM   14  N6  UNL     1      -3.854   1.071  -0.962  1.00  0.00    -0.252 NA
ENDROOT
BRANCH   9  15
HETATM   15  N2  UNL     1       1.944   0.487  -0.092  1.00  0.00    -0.227 NA
HETATM   16  C9  UNL     1       2.816   0.076   0.757  1.00  0.00     0.244 C 
BRANCH  16  17
HETATM   17  S1  UNL     1       4.296   0.727   1.394  1.00  0.00     0.245 S 
HETATM   18  O1  UNL     1       4.108   0.954   2.860  1.00  0.00    -0.205 OA
HETATM   19  O2  UNL     1       5.438  -0.226   1.137  1.00  0.00    -0.205 OA
BRANCH  17  20
HETATM   20  N3  UNL     1       4.687   2.254   0.664  1.00  0.00    -0.225 NA
HETATM   21  H9  UNL     1       4.651   2.099  -0.374  1.00  0.00     0.136 HD
HETATM   22  H10 UNL     1       5.721   2.384   0.866  1.00  0.00     0.136 HD
ENDBRANCH  17  20
ENDBRANCH  16  17
ENDBRANCH   9  15
TORSDOF 3
