REMARK  1 active torsions:
REMARK  status: ('A' for Active; 'I' for Inactive)
REMARK    1  A    between atoms: N1_2  and  C2_3 
ROOT
HETATM    1  C2  UNL     1       1.822  -0.276   0.230  1.00  0.00     0.025 C 
HETATM    2  C3  UNL     1       0.733  -0.948   0.065  1.00  0.00    -0.021 C 
HETATM    3  C4  UNL     1       0.811  -2.399  -0.343  1.00  0.00     0.051 C 
HETATM    4  C5  UNL     1      -0.683  -0.875  -0.075  1.00  0.00     0.064 A 
HETATM    5  C6  UNL     1      -0.622  -0.542  -1.477  1.00  0.00     0.139 A 
HETATM    6  N2  UNL     1      -1.621  -0.352  -2.406  1.00  0.00    -0.224 NA
HETATM    7  C7  UNL     1      -2.898  -0.457  -2.068  1.00  0.00     0.237 A 
HETATM    8  N3  UNL     1      -2.974  -0.744  -0.773  1.00  0.00    -0.223 NA
HETATM    9  C8  UNL     1      -1.992  -0.924   0.102  1.00  0.00     0.153 A 
HETATM   10  N4  UNL     1      -2.972  -0.971   1.207  1.00  0.00    -0.264 N 
HETATM   11  S1  UNL     1      -3.650   0.644   1.692  1.00  0.00     0.254 S 
HETATM   12  O1  UNL     1      -4.277   1.149   0.448  1.00  0.00    -0.201 OA
HETATM   13  O2  UNL     1      -4.618   0.376   2.796  1.00  0.00    -0.201 OA
HETATM   14  C9  UNL     1      -2.305   1.546   2.255  1.00  0.00     0.131 C 
HETATM   15  C10 UNL     1      -1.139   1.953   1.819  1.00  0.00     0.015 C 
HETATM   16  C11 UNL     1      -0.339   1.894   0.629  1.00  0.00     0.021 C 
HETATM   17  C12 UNL     1       0.334   1.791  -0.552  1.00  0.00     0.003 C 
HETATM   18  C13 UNL     1       0.206   1.358  -2.006  1.00  0.00     0.172 C 
HETATM   19  N5  UNL     1       0.647  -0.006  -2.145  1.00  0.00    -0.369 N 
HETATM   20  N6  UNL     1       1.624   2.197   0.059  1.00  0.00    -0.289 N 
HETATM   21  C14 UNL     1       1.651   1.012   0.876  1.00  0.00     0.149 C 
HETATM   22  H9  UNL     1      -3.074  -1.991   1.495  1.00  0.00     0.180 HD
HETATM   23  H15 UNL     1       1.481  -0.483  -2.536  1.00  0.00     0.161 HD
HETATM   24  H16 UNL     1       1.411   2.971  -0.602  1.00  0.00     0.127 HD
ENDROOT
BRANCH   1  25
HETATM   25  N1  UNL     1       3.059  -0.912  -0.005  1.00  0.00    -0.396 N 
HETATM   26  C1  UNL     1       4.075  -1.774   0.565  1.00  0.00     0.146 C 
HETATM   27  H4  UNL     1       3.303  -0.630  -0.959  1.00  0.00     0.159 HD
ENDBRANCH   1  25
TORSDOF 1
