REMARK  6 active torsions:
REMARK  status: ('A' for Active; 'I' for Inactive)
REMARK    1  A    between atoms: C5_6  and  N2_7 
REMARK    2  A    between atoms: N2_7  and  C6_8 
REMARK    3  A    between atoms: C8_10  and  S1_11 
REMARK    4  A    between atoms: S1_11  and  N3_12 
REMARK    5  A    between atoms: S1_11  and  P1_14 
REMARK    6  A    between atoms: C13_23  and  N7_24 
ROOT
HETATM    1  C1  UNL     1       3.348  -0.370  -1.985  1.00  0.00     0.051 C 
HETATM    2  C2  UNL     1       2.567   0.149  -0.831  1.00  0.00    -0.020 A 
HETATM    3  C3  UNL     1       1.208   0.477  -0.910  1.00  0.00     0.097 A 
HETATM    4  C4  UNL     1       0.569   0.287  -2.201  1.00  0.00     0.104 C 
HETATM    5  N1  UNL     1       0.041   0.145  -3.231  1.00  0.00    -0.191 NA
HETATM    6  C5  UNL     1       0.498   0.958   0.171  1.00  0.00     0.152 A 
HETATM    7  N4  UNL     1       1.101   1.129   1.359  1.00  0.00    -0.209 NA
HETATM    8  C11 UNL     1       2.403   0.834   1.506  1.00  0.00     0.167 A 
HETATM    9  N5  UNL     1       3.000   1.013   2.716  1.00  0.00    -0.221 NA
HETATM   10  C12 UNL     1       4.318   0.715   2.869  1.00  0.00     0.237 A 
HETATM   11  N6  UNL     1       5.050   0.238   1.821  1.00  0.00    -0.229 NA
HETATM   12  C13 UNL     1       4.440   0.065   0.618  1.00  0.00     0.116 A 
HETATM   13  C14 UNL     1       3.106   0.355   0.423  1.00  0.00     0.059 A 
ENDROOT
BRANCH   6  14
HETATM   14  N2  UNL     1      -0.888   1.280   0.044  1.00  0.00    -0.339 N 
HETATM   15  H4  UNL     1      -1.280   2.218  -0.230  1.00  0.00     0.167 HD
BRANCH  14  16
HETATM   16  C6  UNL     1      -1.779   0.215   0.320  1.00  0.00     0.050 C 
HETATM   17  C7  UNL     1      -2.940   0.013  -0.252  1.00  0.00     0.050 C 
HETATM   18  C8  UNL     1      -3.954  -0.477   0.418  1.00  0.00     0.161 C 
HETATM   19  O2  UNL     1      -3.640  -1.440   1.375  1.00  0.00    -0.312 OA
HETATM   20  C9  UNL     1      -2.344  -1.616   1.854  1.00  0.00     0.145 C 
HETATM   21  C10 UNL     1      -1.446  -0.797   1.326  1.00  0.00     0.055 C 
BRANCH  18  22
HETATM   22  S1  UNL     1      -5.596   0.046   0.128  1.00  0.00     0.081 S 
HETATM   23  O1  UNL     1      -6.436  -0.066   1.369  1.00  0.00    -0.244 OA
BRANCH  22  24
HETATM   24  N3  UNL     1      -6.349  -0.935  -1.090  1.00  0.00    -0.254 NA
HETATM   25  H5  UNL     1      -5.702  -1.665  -1.458  1.00  0.00     0.133 HD
HETATM   26  H6  UNL     1      -6.839  -0.383  -1.816  1.00  0.00     0.133 HD
ENDBRANCH  22  24
BRANCH  22  27
HETATM   27  P1  UNL     1      -5.654   1.899  -0.410  1.00  0.00     0.018 P 
HETATM   28  H7  UNL     1      -5.860   2.890   0.645  1.00  0.00     0.077 HD
ENDBRANCH  22  27
ENDBRANCH  18  22
ENDBRANCH  14  16
ENDBRANCH   6  14
BRANCH  12  29
HETATM   29  N7  UNL     1       5.258  -0.431  -0.415  1.00  0.00    -0.286 NA
HETATM   30  H11 UNL     1       5.652  -1.411  -0.536  1.00  0.00     0.125 HD
HETATM   31  H12 UNL     1       5.467  -1.451  -0.225  1.00  0.00     0.125 HD
ENDBRANCH  12  29
TORSDOF 6
