REMARK  5 active torsions:
REMARK  status: ('A' for Active; 'I' for Inactive)
REMARK    1  A    between atoms: C5_5  and  N1_6 
REMARK    2  A    between atoms: C8_12  and  N5_13 
REMARK    3  A    between atoms: N5_13  and  C9_14 
REMARK    4  A    between atoms: C12_17  and  S1_18 
REMARK    5  A    between atoms: S1_18  and  N6_19 
ROOT
HETATM    1  N5  UNL     1      -0.009  -1.100  -0.659  1.00  0.00    -0.327 N 
HETATM    2  H8  UNL     1      -0.185  -2.127  -0.705  1.00  0.00     0.169 HD
ENDROOT
BRANCH   1   3
HETATM    3  C8  UNL     1      -1.375  -0.701  -0.633  1.00  0.00     0.137 A 
HETATM    4  C2  UNL     1      -2.046  -0.557   0.579  1.00  0.00    -0.015 A 
HETATM    5  C1  UNL     1      -1.331  -0.823   1.859  1.00  0.00     0.052 C 
HETATM    6  C3  UNL     1      -3.380  -0.170   0.663  1.00  0.00     0.029 A 
HETATM    7  C4  UNL     1      -4.006   0.066  -0.546  1.00  0.00     0.058 A 
HETATM    8  C5  UNL     1      -5.337   0.457  -0.585  1.00  0.00     0.136 A 
HETATM    9  C7  UNL     1      -3.365  -0.069  -1.763  1.00  0.00     0.167 A 
HETATM   10  N2  UNL     1      -5.995   0.700  -1.734  1.00  0.00    -0.224 NA
HETATM   11  C6  UNL     1      -5.331   0.557  -2.914  1.00  0.00     0.237 A 
HETATM   12  N3  UNL     1      -4.023   0.174  -2.918  1.00  0.00    -0.221 NA
HETATM   13  N4  UNL     1      -2.095  -0.442  -1.745  1.00  0.00    -0.210 NA
BRANCH   8  14
HETATM   14  N1  UNL     1      -6.004   0.598   0.662  1.00  0.00    -0.383 N 
HETATM   15  H5  UNL     1      -5.993  -0.331   1.176  1.00  0.00     0.157 HD
HETATM   16  H6  UNL     1      -6.462   1.448   1.085  1.00  0.00     0.157 HD
ENDBRANCH   8  14
ENDBRANCH   1   3
BRANCH   1  17
HETATM   17  C9  UNL     1       1.260  -0.500  -0.639  1.00  0.00     0.106 C 
HETATM   18  C10 UNL     1       2.173  -1.338  -0.174  1.00  0.00     0.050 C 
HETATM   19  C11 UNL     1       3.610  -1.032  -0.019  1.00  0.00     0.028 C 
HETATM   20  C12 UNL     1       4.219   0.115  -0.176  1.00  0.00     0.075 C 
HETATM   21  C13 UNL     1       3.712   1.441  -0.546  1.00  0.00     0.041 C 
HETATM   22  C14 UNL     1       2.477   1.718  -0.937  1.00  0.00     0.091 C 
HETATM   23  N7  UNL     1       1.353   0.841  -1.097  1.00  0.00    -0.352 N 
HETATM   24  H15 UNL     1       0.533   1.235  -1.599  1.00  0.00     0.166 HD
BRANCH  20  25
HETATM   25  S1  UNL     1       5.953  -0.037   0.126  1.00  0.00     0.239 S 
HETATM   26  O1  UNL     1       6.407  -1.422  -0.258  1.00  0.00    -0.206 OA
HETATM   27  O2  UNL     1       6.701   0.940  -0.735  1.00  0.00    -0.206 OA
BRANCH  25  28
HETATM   28  N6  UNL     1       6.331   0.245   1.766  1.00  0.00    -0.225 NA
HETATM   29  H11 UNL     1       5.498   0.456   2.344  1.00  0.00     0.136 HD
HETATM   30  H12 UNL     1       7.105   0.921   1.919  1.00  0.00     0.136 HD
ENDBRANCH  25  28
ENDBRANCH  20  25
ENDBRANCH   1  17
TORSDOF 5
