REMARK  6 active torsions:
REMARK  status: ('A' for Active; 'I' for Inactive)
REMARK    1  A    between atoms: N1_1  and  C1_2 
REMARK    2  A    between atoms: C3_4  and  N2_5 
REMARK    3  A    between atoms: C4_6  and  N3_7 
REMARK    4  A    between atoms: N3_7  and  C5_8 
REMARK    5  A    between atoms: C8_11  and  S1_12 
REMARK    6  A    between atoms: S1_12  and  N4_13 
ROOT
HETATM    1  N3  UNL     1       0.115   2.057  -0.234  1.00  0.00    -0.351 N 
HETATM    2  H5  UNL     1       0.081   3.120  -0.159  1.00  0.00     0.166 HD
ENDROOT
BRANCH   1   3
HETATM    3  C4  UNL     1       1.386   1.429  -0.346  1.00  0.00     0.209 C 
HETATM    4  N2  UNL     1       1.549   0.367   0.407  1.00  0.00    -0.224 NA
BRANCH   4   5
HETATM    5  C3  UNL     1       2.806  -0.288   0.322  1.00  0.00     0.155 A 
HETATM    6  C2  UNL     1       4.060   0.191  -0.026  1.00  0.00     0.102 A 
HETATM    7  C1  UNL     1       5.105  -0.679  -0.021  1.00  0.00     0.126 A 
HETATM    8  N6  UNL     1       4.986  -1.981   0.303  1.00  0.00    -0.225 NA
HETATM    9  C11 UNL     1       3.746  -2.437   0.642  1.00  0.00     0.237 A 
HETATM   10  N5  UNL     1       2.685  -1.610   0.651  1.00  0.00    -0.222 NA
BRANCH   7  11
HETATM   11  N1  UNL     1       6.366  -0.133  -0.385  1.00  0.00    -0.384 N 
HETATM   12  H1  UNL     1       7.060  -0.794  -0.833  1.00  0.00     0.157 HD
HETATM   13  H2  UNL     1       6.614   0.881  -0.223  1.00  0.00     0.157 HD
ENDBRANCH   7  11
ENDBRANCH   4   5
ENDBRANCH   1   3
BRANCH   1  14
HETATM   14  C5  UNL     1      -1.089   1.361  -0.222  1.00  0.00     0.033 A 
HETATM   15  C6  UNL     1      -1.246   0.005  -0.343  1.00  0.00     0.031 A 
HETATM   16  C7  UNL     1      -2.452  -0.672  -0.326  1.00  0.00     0.027 A 
HETATM   17  C8  UNL     1      -3.620   0.052  -0.175  1.00  0.00     0.074 A 
HETATM   18  C9  UNL     1      -3.542   1.425  -0.047  1.00  0.00     0.027 A 
HETATM   19  C10 UNL     1      -2.304   2.033  -0.073  1.00  0.00     0.031 A 
BRANCH  17  20
HETATM   20  S1  UNL     1      -5.150  -0.756  -0.147  1.00  0.00     0.239 S 
HETATM   21  O1  UNL     1      -6.181   0.237  -0.633  1.00  0.00    -0.206 OA
HETATM   22  O2  UNL     1      -5.173  -1.962  -1.050  1.00  0.00    -0.206 OA
BRANCH  20  23
HETATM   23  N4  UNL     1      -5.580  -1.194   1.479  1.00  0.00    -0.225 NA
HETATM   24  H8  UNL     1      -4.847  -0.780   2.130  1.00  0.00     0.136 HD
HETATM   25  H9  UNL     1      -5.512  -2.249   1.522  1.00  0.00     0.136 HD
ENDBRANCH  20  23
ENDBRANCH  17  20
ENDBRANCH   1  14
TORSDOF 6
