REMARK  2 active torsions:
REMARK  status: ('A' for Active; 'I' for Inactive)
REMARK    1  A    between atoms: C11_16  and  S1_17 
REMARK    2  A    between atoms: S1_17  and  N6_18 
ROOT
HETATM    1  C1  UNL     1      -1.525  -1.929  -0.991  1.00  0.00     0.047 C 
HETATM    2  C2  UNL     1      -1.669  -0.696  -0.193  1.00  0.00    -0.030 A 
HETATM    3  C3  UNL     1      -1.619  -0.766   1.155  1.00  0.00     0.072 A 
HETATM    4  C4  UNL     1      -1.465  -1.812   2.067  1.00  0.00     0.099 C 
HETATM    5  N1  UNL     1      -1.350  -2.678   2.800  1.00  0.00    -0.192 NA
HETATM    6  C5  UNL     1      -1.800   0.563   1.422  1.00  0.00     0.159 A 
HETATM    7  N2  UNL     1      -1.997   1.792   0.945  1.00  0.00    -0.226 NA
HETATM    8  C6  UNL     1      -2.055   1.884  -0.452  1.00  0.00     0.192 A 
HETATM    9  N3  UNL     1      -2.107   2.993  -1.151  1.00  0.00    -0.249 NA
HETATM   10  C7  UNL     1      -1.702   2.985  -2.460  1.00  0.00     0.226 A 
HETATM   11  N4  UNL     1      -1.313   1.656  -2.617  1.00  0.00    -0.244 NA
HETATM   12  C8  UNL     1      -1.475   0.874  -1.492  1.00  0.00     0.197 A 
HETATM   13  C9  UNL     1      -1.861   0.624  -0.122  1.00  0.00     0.151 A 
HETATM   14  N5  UNL     1      -0.337  -0.059  -1.940  1.00  0.00    -0.388 N 
HETATM   15  C10 UNL     1       0.649   0.429  -1.059  1.00  0.00     0.146 C 
HETATM   16  C11 UNL     1       1.660  -0.369  -0.387  1.00  0.00     0.126 C 
HETATM   17  C12 UNL     1       1.497  -0.490   0.970  1.00  0.00     0.047 C 
HETATM   18  C13 UNL     1       0.883  -0.319   2.330  1.00  0.00    -0.003 C 
HETATM   19  C14 UNL     1      -0.147   0.177   3.092  1.00  0.00     0.081 C 
HETATM   20  N7  UNL     1      -1.375   0.920   2.776  1.00  0.00    -0.371 N 
HETATM   21  H5  UNL     1       0.234  -0.780  -2.414  1.00  0.00     0.156 HD
HETATM   22  H13 UNL     1      -1.674   1.521   3.546  1.00  0.00     0.161 HD
ENDROOT
BRANCH  16  23
HETATM   23  S1  UNL     1       3.089  -1.269  -0.798  1.00  0.00     0.220 S 
HETATM   24  O1  UNL     1       3.240  -2.476   0.074  1.00  0.00    -0.211 OA
HETATM   25  O2  UNL     1       2.886  -1.718  -2.241  1.00  0.00    -0.211 OA
BRANCH  23  26
HETATM   26  N6  UNL     1       4.508  -0.289  -0.729  1.00  0.00    -0.228 NA
HETATM   27  H8  UNL     1       4.385   0.515  -0.088  1.00  0.00     0.136 HD
HETATM   28  H9  UNL     1       4.796   0.035  -1.692  1.00  0.00     0.136 HD
ENDBRANCH  23  26
ENDBRANCH  16  23
TORSDOF 2
