REMARK  8 active torsions:
REMARK  status: ('A' for Active; 'I' for Inactive)
REMARK    1  A    between atoms: C2_2  and  N1_3 
REMARK    2  A    between atoms: C4_6  and  N3_7 
REMARK    3  A    between atoms: N3_7  and  C5_8 
REMARK    4  A    between atoms: C5_8  and  C6_9 
REMARK    5  A    between atoms: C6_9  and  O1_10 
REMARK    6  A    between atoms: C10_15  and  N4_16 
REMARK    7  A    between atoms: C12_18  and  N5_19 
REMARK    8  A    between atoms: C12_18  and  N6_20 
ROOT
HETATM    1  N1  UNL     1      -1.695   1.410  -0.928  1.00  0.00    -0.271 NA
HETATM    2  C3  UNL     1      -1.004   0.417  -0.495  1.00  0.00     0.161 A 
HETATM    3  N2  UNL     1       0.343   0.511  -0.106  1.00  0.00    -0.210 NA
HETATM    4  C4  UNL     1       0.977  -0.518   0.318  1.00  0.00     0.139 A 
HETATM    5  C7  UNL     1       0.440  -1.863   0.458  1.00  0.00     0.049 A 
HETATM    6  C8  UNL     1      -0.866  -2.039   0.099  1.00  0.00     0.004 A 
HETATM    7  C9  UNL     1      -1.400  -3.333   0.228  1.00  0.00     0.065 A 
HETATM    8  S1  UNL     1      -0.017  -4.322   0.871  1.00  0.00    -0.088 SA
HETATM    9  C10 UNL     1       1.132  -2.968   0.917  1.00  0.00     0.062 A 
HETATM   10  C11 UNL     1      -1.623  -0.896  -0.388  1.00  0.00     0.061 A 
HETATM   11  C12 UNL     1      -2.889  -1.011  -0.749  1.00  0.00     0.086 C 
ENDROOT
BRANCH  11  12
HETATM   12  N5  UNL     1      -3.842  -2.062  -0.802  1.00  0.00    -0.389 N 
HETATM   13  H15 UNL     1      -4.265  -2.112   0.157  1.00  0.00     0.157 HD
HETATM   14  H16 UNL     1      -3.962  -2.577  -1.705  1.00  0.00     0.157 HD
ENDBRANCH  11  12
BRANCH  11  15
HETATM   15  N6  UNL     1      -3.606   0.116  -1.224  1.00  0.00    -0.288 NA
HETATM   16  H17 UNL     1      -4.200   0.258  -2.069  1.00  0.00     0.125 HD
HETATM   17  H18 UNL     1      -4.201   0.262  -2.068  1.00  0.00     0.125 HD
ENDBRANCH  11  15
BRANCH   1  18
HETATM   18  C2  UNL     1      -1.198   2.743  -1.077  1.00  0.00     0.147 C 
HETATM   19  C1  UNL     1      -2.152   3.756  -0.471  1.00  0.00     0.028 C 
ENDBRANCH   1  18
BRANCH   4  20
HETATM   20  N3  UNL     1       2.328  -0.214   0.661  1.00  0.00    -0.372 N 
HETATM   21  H6  UNL     1       3.038  -0.998   0.642  1.00  0.00     0.161 HD
BRANCH  20  22
HETATM   22  C5  UNL     1       2.746   1.130   1.031  1.00  0.00     0.147 C 
BRANCH  22  23
HETATM   23  C6  UNL     1       4.228   1.088   1.334  1.00  0.00     0.183 C 
BRANCH  23  24
HETATM   24  O1  UNL     1       4.709   2.340   1.698  1.00  0.00    -0.399 OA
HETATM   25  H11 UNL     1       4.795   2.431   2.676  1.00  0.00     0.209 HD
ENDBRANCH  23  24
ENDBRANCH  22  23
ENDBRANCH  20  22
ENDBRANCH   4  20
BRANCH   9  26
HETATM   26  N4  UNL     1       2.452  -3.162   1.363  1.00  0.00    -0.296 NA
HETATM   27  H13 UNL     1       3.310  -3.380   0.820  1.00  0.00     0.124 HD
HETATM   28  H14 UNL     1       3.289  -3.381   0.774  1.00  0.00     0.124 HD
ENDBRANCH   9  26
TORSDOF 8
