REMARK  7 active torsions:
REMARK  status: ('A' for Active; 'I' for Inactive)
REMARK    1  A    between atoms: C8_10  and  N3_11 
REMARK    2  A    between atoms: C8_10  and  S1_18 
REMARK    3  A    between atoms: N3_11  and  C9_12 
REMARK    4  A    between atoms: C9_12  and  C10_13 
REMARK    5  A    between atoms: C10_13  and  O1_14 
REMARK    6  A    between atoms: S1_18  and  C14_19 
REMARK    7  A    between atoms: C14_19  and  N4_20 
ROOT
HETATM    1  C1  UNL     1      -3.599  -2.711   0.005  1.00  0.00     0.039 C 
HETATM    2  C2  UNL     1      -3.281  -1.256  -0.339  1.00  0.00     0.135 A 
HETATM    3  C3  UNL     1      -2.090  -0.560  -0.488  1.00  0.00     0.040 A 
HETATM    4  N1  UNL     1      -3.088   0.285  -0.664  1.00  0.00    -0.351 N 
HETATM    5  C4  UNL     1      -3.568   1.422  -0.455  1.00  0.00     0.089 C 
HETATM    6  C5  UNL     1      -2.720   2.407   0.367  1.00  0.00     0.054 C 
HETATM    7  C6  UNL     1      -1.230   2.092   0.342  1.00  0.00     0.011 C 
HETATM    8  C7  UNL     1       0.059   2.639   0.081  1.00  0.00     0.297 A 
HETATM    9  N2  UNL     1       1.264   1.700   0.250  1.00  0.00    -0.057 NA
HETATM   10  C8  UNL     1       0.930   0.311   0.074  1.00  0.00     0.173 A 
HETATM   11  C11 UNL     1       0.135  -1.126  -0.048  1.00  0.00     0.112 A 
HETATM   12  C12 UNL     1      -1.053  -1.484  -0.297  1.00  0.00    -0.015 A 
HETATM   13  C13 UNL     1      -0.070  -2.603  -0.132  1.00  0.00     0.097 A 
HETATM   14  S1  UNL     1       1.461  -1.516   0.210  1.00  0.00    -0.142 SA
HETATM   15  C14 UNL     1       0.579   0.006   0.071  1.00  0.00     0.255 A 
HETATM   16  N4  UNL     1       0.280   1.366   0.071  1.00  0.00     0.054 N 
HETATM   17  H16 UNL     1      -0.539   1.285  -0.592  1.00  0.00     0.308 HD
ENDROOT
BRANCH  10  18
HETATM   18  N3  UNL     1       2.423   0.223  -0.431  1.00  0.00    -0.389 N 
HETATM   19  H9  UNL     1       2.537  -0.373  -1.362  1.00  0.00     0.156 HD
BRANCH  18  20
HETATM   20  C9  UNL     1       3.789   0.705  -0.124  1.00  0.00     0.142 C 
BRANCH  20  21
HETATM   21  C10 UNL     1       4.807  -0.056  -0.955  1.00  0.00     0.183 C 
BRANCH  21  22
HETATM   22  O1  UNL     1       6.040   0.466  -0.600  1.00  0.00    -0.399 OA
HETATM   23  H14 UNL     1       6.694  -0.265  -0.378  1.00  0.00     0.209 HD
ENDBRANCH  21  22
ENDBRANCH  20  21
ENDBRANCH  18  20
ENDBRANCH  10  18
TORSDOF 7
