REMARK  6 active torsions:
REMARK  status: ('A' for Active; 'I' for Inactive)
REMARK    1  A    between atoms: N1_1  and  C1_2 
REMARK    2  A    between atoms: C6_9  and  N2_10 
REMARK    3  A    between atoms: C9_16  and  N6_17 
REMARK    4  A    between atoms: N6_17  and  C10_18 
REMARK    5  A    between atoms: C13_21  and  S2_22 
REMARK    6  A    between atoms: S2_22  and  N7_23 
ROOT
HETATM    1  C1  UNL     1      -1.455  -3.662  -0.594  1.00  0.00     0.103 C 
HETATM    2  C2  UNL     1      -1.824  -2.363  -0.577  1.00  0.00     0.063 C 
HETATM    3  S1  UNL     1      -3.569  -2.326  -0.423  1.00  0.00    -0.099 SA
HETATM    4  C3  UNL     1      -4.334  -0.729  -0.219  1.00  0.00     0.247 C 
HETATM    5  O1  UNL     1      -4.115  -0.202   1.007  1.00  0.00    -0.376 OA
HETATM    6  C4  UNL     1      -2.827   0.084   1.288  1.00  0.00     0.215 C 
HETATM    7  C5  UNL     1      -2.349   1.086   0.321  1.00  0.00     0.059 A 
HETATM    8  C6  UNL     1      -3.052   2.297   0.400  1.00  0.00     0.135 A 
HETATM    9  N3  UNL     1      -2.853   3.394  -0.350  1.00  0.00    -0.224 NA
HETATM   10  C7  UNL     1      -1.896   3.389  -1.287  1.00  0.00     0.237 A 
HETATM   11  N4  UNL     1      -1.203   2.241  -1.385  1.00  0.00    -0.222 NA
HETATM   12  C8  UNL     1      -1.384   1.152  -0.660  1.00  0.00     0.165 A 
HETATM   13  N5  UNL     1      -0.695  -0.029  -0.705  1.00  0.00    -0.209 NA
HETATM   14  C9  UNL     1      -0.905  -1.246  -0.673  1.00  0.00     0.148 C 
ENDROOT
BRANCH  14  15
HETATM   15  N6  UNL     1       0.449  -1.660  -0.911  1.00  0.00    -0.340 N 
HETATM   16  H11 UNL     1       0.812  -2.501  -1.476  1.00  0.00     0.167 HD
BRANCH  15  17
HETATM   17  C10 UNL     1       1.719  -1.107  -0.486  1.00  0.00     0.033 A 
HETATM   18  C11 UNL     1       2.615  -1.503   0.477  1.00  0.00     0.031 A 
HETATM   19  C12 UNL     1       3.751  -0.714   0.649  1.00  0.00     0.027 A 
HETATM   20  C13 UNL     1       3.962   0.400  -0.105  1.00  0.00     0.074 A 
HETATM   21  C14 UNL     1       3.060   0.809  -1.083  1.00  0.00     0.027 A 
HETATM   22  C15 UNL     1       1.918   0.015  -1.257  1.00  0.00     0.031 A 
BRANCH  20  23
HETATM   23  S2  UNL     1       5.448   1.227   0.252  1.00  0.00     0.239 S 
HETATM   24  O2  UNL     1       5.868   2.008  -0.988  1.00  0.00    -0.206 OA
HETATM   25  O3  UNL     1       6.548   0.238   0.530  1.00  0.00    -0.206 OA
BRANCH  23  26
HETATM   26  N7  UNL     1       5.312   2.326   1.557  1.00  0.00    -0.225 NA
HETATM   27  H14 UNL     1       4.697   3.107   1.287  1.00  0.00     0.136 HD
HETATM   28  H15 UNL     1       6.276   2.616   1.843  1.00  0.00     0.136 HD
ENDBRANCH  23  26
ENDBRANCH  20  23
ENDBRANCH  15  17
ENDBRANCH  14  15
BRANCH   1  29
HETATM   29  N1  UNL     1      -0.234  -4.377  -0.695  1.00  0.00    -0.407 N 
HETATM   30  H1  UNL     1      -0.147  -5.104  -1.481  1.00  0.00     0.155 HD
HETATM   31  H2  UNL     1       0.693  -4.445  -0.214  1.00  0.00     0.155 HD
ENDBRANCH   1  29
BRANCH   8  32
HETATM   32  N2  UNL     1      -4.120   2.628   1.306  1.00  0.00    -0.383 N 
HETATM   33  H8  UNL     1      -4.399   2.684   2.309  1.00  0.00     0.157 HD
HETATM   34  H9  UNL     1      -5.072   2.967   1.062  1.00  0.00     0.157 HD
ENDBRANCH   8  32
TORSDOF 6
