REMARK  8 active torsions:
REMARK  status: ('A' for Active; 'I' for Inactive)
REMARK    1  A    between atoms: N1_1  and  C1_2 
REMARK    2  A    between atoms: C2_3  and  N2_4 
REMARK    3  A    between atoms: N2_4  and  C3_5 
REMARK    4  A    between atoms: C6_8  and  S1_9 
REMARK    5  A    between atoms: S1_9  and  C7_10 
REMARK    6  A    between atoms: C7_10  and  N3_11 
REMARK    7  A    between atoms: C11_16  and  C12_17 
REMARK    8  A    between atoms: C14_22  and  N6_23 
ROOT
HETATM    1  C1  UNL     1      -0.914  -2.325   0.932  1.00  0.00     0.090 C 
HETATM    2  C2  UNL     1      -0.695  -1.169   0.276  1.00  0.00     0.047 C 
HETATM    3  C10 UNL     1      -1.415  -0.004   0.821  1.00  0.00     0.099 C 
HETATM    4  C11 UNL     1      -2.887  -0.068   0.671  1.00  0.00    -0.045 C 
HETATM    5  C15 UNL     1      -3.422  -1.058   1.390  1.00  0.00     0.059 C 
HETATM    6  S2  UNL     1      -2.082  -1.913   2.258  1.00  0.00    -0.082 SA
ENDROOT
BRANCH   2   7
HETATM    7  N2  UNL     1       0.175  -1.085  -0.852  1.00  0.00    -0.357 N 
HETATM    8  H3  UNL     1      -0.142  -1.577  -1.730  1.00  0.00     0.166 HD
BRANCH   7   9
HETATM    9  C3  UNL     1       1.413  -0.384  -0.838  1.00  0.00     0.032 A 
HETATM   10  C4  UNL     1       2.231  -0.335  -1.954  1.00  0.00     0.031 A 
HETATM   11  C5  UNL     1       3.417   0.372  -1.842  1.00  0.00     0.021 A 
HETATM   12  C6  UNL     1       3.781   1.007  -0.670  1.00  0.00     0.002 A 
HETATM   13  C8  UNL     1       2.963   0.959   0.449  1.00  0.00     0.021 A 
HETATM   14  C9  UNL     1       1.775   0.253   0.344  1.00  0.00     0.031 A 
BRANCH  12  15
HETATM   15  S1  UNL     1       5.335   1.889  -0.642  1.00  0.00    -0.106 SA
BRANCH  15  16
HETATM   16  C7  UNL     1       6.688   0.815  -0.115  1.00  0.00     0.261 C 
BRANCH  16  17
HETATM   17  N3  UNL     1       6.499   0.428   1.271  1.00  0.00    -0.131 NA
HETATM   18  O1  UNL     1       7.258  -0.256   1.850  1.00  0.00    -0.066 OA
ENDBRANCH  16  17
ENDBRANCH  15  16
ENDBRANCH  12  15
ENDBRANCH   7   9
ENDBRANCH   2   7
BRANCH   1  19
HETATM   19  N1  UNL     1      -0.269  -3.506   0.503  1.00  0.00    -0.392 N 
HETATM   20  H1  UNL     1       0.533  -4.129   0.741  1.00  0.00     0.156 HD
HETATM   21  H2  UNL     1      -0.478  -4.142  -0.290  1.00  0.00     0.156 HD
ENDBRANCH   1  19
BRANCH   4  22
HETATM   22  C12 UNL     1      -3.551   0.896  -0.187  1.00  0.00    -0.024 C 
HETATM   23  B1  UNL     1      -2.545   2.111  -1.068  1.00  0.00     0.350 B 
HETATM   24  N4  UNL     1      -3.402   2.110  -2.841  1.00  0.00    -0.350 NA
HETATM   25  C13 UNL     1      -4.737   2.004  -2.574  1.00  0.00     0.210 C 
HETATM   26  N5  UNL     1      -5.464   1.537  -1.532  1.00  0.00    -0.227 NA
HETATM   27  C14 UNL     1      -4.877   1.027  -0.434  1.00  0.00     0.119 C 
BRANCH  27  28
HETATM   28  N6  UNL     1      -5.767   0.582   0.576  1.00  0.00    -0.384 N 
HETATM   29  H13 UNL     1      -5.776   0.936   1.575  1.00  0.00     0.157 HD
HETATM   30  H14 UNL     1      -6.436   0.232   1.291  1.00  0.00     0.157 HD
ENDBRANCH  27  28
ENDBRANCH   4  22
TORSDOF 8
