REMARK  9 active torsions:
REMARK  status: ('A' for Active; 'I' for Inactive)
REMARK    1  A    between atoms: C5_6  and  N2_7 
REMARK    2  A    between atoms: N2_7  and  C6_8 
REMARK    3  A    between atoms: C6_8  and  C7_9 
REMARK    4  A    between atoms: C7_9  and  O1_10 
REMARK    5  A    between atoms: C10_14  and  N4_15 
REMARK    6  A    between atoms: N4_15  and  C11_16 
REMARK    7  A    between atoms: C11_16  and  C12_17 
REMARK    8  A    between atoms: C12_17  and  O2_18 
REMARK    9  A    between atoms: C13_20  and  N6_21 
ROOT
HETATM    1  C1  UNL     1      -0.025  -2.989  -1.558  1.00  0.00     0.051 C 
HETATM    2  C2  UNL     1       0.496  -1.802  -0.860  1.00  0.00    -0.022 A 
HETATM    3  C3  UNL     1       1.855  -1.516  -0.705  1.00  0.00     0.097 A 
HETATM    4  C4  UNL     1       2.803  -2.460  -1.275  1.00  0.00     0.104 C 
HETATM    5  N1  UNL     1       3.559  -3.216  -1.751  1.00  0.00    -0.191 NA
HETATM    6  C5  UNL     1       2.328  -0.399  -0.048  1.00  0.00     0.145 A 
HETATM    7  N3  UNL     1       1.466   0.486   0.486  1.00  0.00    -0.229 NA
HETATM    8  C8  UNL     1       0.152   0.286   0.381  1.00  0.00     0.077 A 
HETATM    9  C9  UNL     1      -0.735   1.191   0.927  1.00  0.00     0.082 A 
HETATM   10  C10 UNL     1      -2.104   1.030   0.847  1.00  0.00     0.127 A 
HETATM   11  N5  UNL     1      -2.511  -0.070   0.199  1.00  0.00    -0.219 NA
HETATM   12  C13 UNL     1      -1.672  -0.969  -0.343  1.00  0.00     0.116 A 
HETATM   13  C14 UNL     1      -0.301  -0.835  -0.278  1.00  0.00     0.040 A 
ENDROOT
BRANCH   6  14
HETATM   14  N2  UNL     1       3.731  -0.176   0.069  1.00  0.00    -0.371 N 
HETATM   15  H4  UNL     1       4.403  -0.857  -0.342  1.00  0.00     0.161 HD
BRANCH  14  16
HETATM   16  C6  UNL     1       4.227   0.995   0.758  1.00  0.00     0.147 C 
BRANCH  16  17
HETATM   17  C7  UNL     1       5.741   1.012   0.752  1.00  0.00     0.183 C 
BRANCH  17  18
HETATM   18  O1  UNL     1       6.184   1.032  -0.583  1.00  0.00    -0.399 OA
HETATM   19  H9  UNL     1       6.099   1.957  -0.915  1.00  0.00     0.209 HD
ENDBRANCH  17  18
ENDBRANCH  16  17
ENDBRANCH  14  16
ENDBRANCH   6  14
BRANCH  12  20
HETATM   20  N6  UNL     1      -2.260  -2.087  -0.999  1.00  0.00    -0.286 NA
HETATM   21  H17 UNL     1      -2.830  -2.967  -0.891  1.00  0.00     0.125 HD
HETATM   22  H18 UNL     1      -2.824  -2.864  -0.545  1.00  0.00     0.125 HD
ENDBRANCH  12  20
BRANCH  10  23
HETATM   23  N4  UNL     1      -3.031   1.955   1.405  1.00  0.00    -0.373 N 
HETATM   24  H11 UNL     1      -2.606   2.796   1.899  1.00  0.00     0.161 HD
BRANCH  23  25
HETATM   25  C11 UNL     1      -4.455   1.779   1.316  1.00  0.00     0.147 C 
BRANCH  25  26
HETATM   26  C12 UNL     1      -4.991   1.724  -0.080  1.00  0.00     0.183 C 
BRANCH  26  27
HETATM   27  O2  UNL     1      -6.378   1.551   0.011  1.00  0.00    -0.399 OA
HETATM   28  H16 UNL     1      -6.782   1.451  -0.889  1.00  0.00     0.209 HD
ENDBRANCH  26  27
ENDBRANCH  25  26
ENDBRANCH  23  25
ENDBRANCH  10  23
TORSDOF 9
