REMARK  4 active torsions:
REMARK  status: ('A' for Active; 'I' for Inactive)
REMARK    1  A    between atoms: C7_9  and  N3_10 
REMARK    2  A    between atoms: N3_10  and  C8_11 
REMARK    3  A    between atoms: C11_14  and  S1_15 
REMARK    4  A    between atoms: S1_15  and  N4_16 
ROOT
HETATM    1  N1  UNL     1      -2.788  -3.745   1.053  1.00  0.00    -0.191 NA
HETATM    2  C1  UNL     1      -2.854  -2.631   0.725  1.00  0.00     0.103 C 
HETATM    3  C2  UNL     1      -2.947  -1.264   0.320  1.00  0.00     0.086 C 
HETATM    4  C3  UNL     1      -4.145  -0.739   0.119  1.00  0.00    -0.000 C 
HETATM    5  C4  UNL     1      -4.585   0.594  -0.290  1.00  0.00     0.030 C 
HETATM    6  C5  UNL     1      -3.534   1.666  -0.216  1.00  0.00     0.026 C 
HETATM    7  C6  UNL     1      -2.348   1.458  -1.097  1.00  0.00     0.151 C 
HETATM    8  N2  UNL     1      -1.363   0.604  -0.414  1.00  0.00    -0.272 NA
HETATM    9  C7  UNL     1      -1.709  -0.512   0.147  1.00  0.00     0.143 C 
ENDROOT
BRANCH   9  10
HETATM   10  N3  UNL     1      -0.565  -1.129   0.725  1.00  0.00    -0.340 N 
HETATM   11  H8  UNL     1      -0.678  -1.999   1.318  1.00  0.00     0.167 HD
BRANCH  10  12
HETATM   12  C8  UNL     1       0.799  -0.739   0.625  1.00  0.00     0.033 A 
HETATM   13  C9  UNL     1       1.546   0.067   1.454  1.00  0.00     0.031 A 
HETATM   14  C10 UNL     1       2.873   0.312   1.154  1.00  0.00     0.027 A 
HETATM   15  C11 UNL     1       3.483  -0.233   0.034  1.00  0.00     0.074 A 
HETATM   16  C12 UNL     1       2.753  -1.048  -0.816  1.00  0.00     0.027 A 
HETATM   17  C13 UNL     1       1.421  -1.278  -0.492  1.00  0.00     0.031 A 
BRANCH  15  18
HETATM   18  S1  UNL     1       5.163   0.099  -0.303  1.00  0.00     0.239 S 
HETATM   19  O1  UNL     1       5.972   0.194   0.962  1.00  0.00    -0.206 OA
HETATM   20  O2  UNL     1       5.752  -1.080  -1.064  1.00  0.00    -0.206 OA
BRANCH  18  21
HETATM   21  N4  UNL     1       5.391   1.494  -1.266  1.00  0.00    -0.225 NA
HETATM   22  H11 UNL     1       6.350   1.911  -1.090  1.00  0.00     0.136 HD
HETATM   23  H12 UNL     1       4.663   2.238  -1.090  1.00  0.00     0.136 HD
ENDBRANCH  18  21
ENDBRANCH  15  18
ENDBRANCH  10  12
ENDBRANCH   9  10
TORSDOF 4
