REMARK  11 active torsions:
REMARK  status: ('A' for Active; 'I' for Inactive)
REMARK    1  A    between atoms: C2_2  and  C3_3 
REMARK    2  A    between atoms: C3_3  and  C4_5 
REMARK    3  A    between atoms: C4_5  and  C5_6 
REMARK    4  A    between atoms: C5_6  and  C6_7 
REMARK    5  A    between atoms: C6_7  and  C7_8 
REMARK    6  A    between atoms: C6_7  and  N2_19 
REMARK    7  A    between atoms: C7_8  and  C8_9 
REMARK    8  A    between atoms: C9_10  and  N1_11 
REMARK    9  A    between atoms: C9_10  and  C10_12 
REMARK   10  A    between atoms: C13_15  and  O1_16 
REMARK   11  A    between atoms: N2_19  and  C16_20 
ROOT
HETATM    1  C7  UNL     1      -0.262   1.069  -0.039  1.00  0.00     0.069 C 
ENDROOT
BRANCH   1   2
HETATM    2  C6  UNL     1      -1.349   0.049   0.113  1.00  0.00     0.247 C 
BRANCH   2   3
HETATM    3  C5  UNL     1      -2.656   0.746  -0.003  1.00  0.00     0.010 C 
BRANCH   3   4
HETATM    4  C4  UNL     1      -3.006   1.772   0.759  1.00  0.00     0.025 C 
BRANCH   4   5
HETATM    5  C3  UNL     1      -4.226   2.539   0.760  1.00  0.00     0.051 C 
HETATM    6 BR1  UNL     1      -5.454   2.895   2.133  1.00  0.00    -0.042 Br
BRANCH   5   7
HETATM    7  C2  UNL     1      -4.431   3.028  -0.431  1.00  0.00    -0.136 C 
HETATM    8  C1  UNL     1      -4.830   3.616  -1.550  1.00  0.00     0.098 C 
ENDBRANCH   5   7
ENDBRANCH   4   5
ENDBRANCH   3   4
ENDBRANCH   2   3
BRANCH   2   9
HETATM    9  N2  UNL     1      -1.229  -0.710   1.338  1.00  0.00     0.095 N 
HETATM   10  H16 UNL     1      -1.232  -0.087   2.150  1.00  0.00     0.317 HD
BRANCH   9  11
HETATM   11  C16 UNL     1      -2.229  -1.726   1.463  1.00  0.00     0.213 C 
HETATM   12  C17 UNL     1      -2.034  -2.478   2.777  1.00  0.00     0.042 C 
HETATM   13  C18 UNL     1      -2.162  -2.751   0.373  1.00  0.00     0.042 C 
ENDBRANCH   9  11
ENDBRANCH   2   9
ENDBRANCH   1   2
BRANCH   1  14
HETATM   14  C8  UNL     1       1.100   0.478   0.061  1.00  0.00     0.005 C 
HETATM   15  C9  UNL     1       1.907   0.608  -0.982  1.00  0.00     0.032 C 
BRANCH  15  16
HETATM   16  N1  UNL     1       1.327   1.315  -2.072  1.00  0.00    -0.399 N 
HETATM   17  H9  UNL     1       1.486   2.332  -1.900  1.00  0.00     0.156 HD
HETATM   18  H10 UNL     1       0.847   0.793  -2.856  1.00  0.00     0.156 HD
ENDBRANCH  15  16
BRANCH  15  19
HETATM   19  C10 UNL     1       3.260   0.070  -0.995  1.00  0.00    -0.010 A 
HETATM   20  C11 UNL     1       4.122   0.190  -2.068  1.00  0.00     0.016 A 
HETATM   21  C12 UNL     1       5.403  -0.362  -1.983  1.00  0.00     0.037 A 
HETATM   22  C13 UNL     1       5.853  -1.033  -0.856  1.00  0.00     0.065 A 
HETATM   23  C14 UNL     1       4.980  -1.139   0.194  1.00  0.00     0.037 A 
HETATM   24  C15 UNL     1       3.706  -0.590   0.108  1.00  0.00     0.016 A 
BRANCH  22  25
HETATM   25  O1  UNL     1       7.128  -1.574  -0.791  1.00  0.00    -0.361 OA
HETATM   26  H13 UNL     1       7.720  -1.519   0.021  1.00  0.00     0.217 HD
ENDBRANCH  22  25
ENDBRANCH  15  19
ENDBRANCH   1  14
TORSDOF 11
