REMARK  5 active torsions:
REMARK  status: ('A' for Active; 'I' for Inactive)
REMARK    1  A    between atoms: N1_1  and  C1_2 
REMARK    2  A    between atoms: C1_2  and  C14_19 
REMARK    3  A    between atoms: C2_3  and  C3_4 
REMARK    4  A    between atoms: C5_6  and  C6_7 
REMARK    5  A    between atoms: C17_22  and  O1_23 
ROOT
HETATM    1  C3  UNL     1      -0.096  -0.095   1.628  1.00  0.00     0.136 C 
HETATM    2  C4  UNL     1       0.872   0.140   0.500  1.00  0.00     0.061 C 
HETATM    3  C5  UNL     1       2.029   1.007   0.889  1.00  0.00     0.117 C 
HETATM    4  N2  UNL     1       2.684   0.646   2.108  1.00  0.00    -0.376 N 
HETATM    5  C12 UNL     1       2.898  -0.564   2.842  1.00  0.00     0.204 C 
HETATM    6  N3  UNL     1       2.253  -1.659   3.017  1.00  0.00    -0.238 NA
HETATM    7  C13 UNL     1       1.003  -2.133   2.527  1.00  0.00     0.228 C 
HETATM    8  N4  UNL     1      -0.004  -1.529   1.944  1.00  0.00    -0.274 NA
HETATM    9  H12 UNL     1       3.114   1.501   2.571  1.00  0.00     0.161 HD
ENDROOT
BRANCH   1  10
HETATM   10  C2  UNL     1      -1.499   0.230   1.296  1.00  0.00     0.030 C 
HETATM   11  C1  UNL     1      -1.956  -0.376   0.236  1.00  0.00     0.034 C 
BRANCH  11  12
HETATM   12  N1  UNL     1      -1.093  -1.256  -0.470  1.00  0.00    -0.399 N 
HETATM   13  H1  UNL     1      -0.617  -1.238  -1.398  1.00  0.00     0.156 HD
HETATM   14  H2  UNL     1      -0.698  -2.178  -0.237  1.00  0.00     0.156 HD
ENDBRANCH  11  12
BRANCH  11  15
HETATM   15  C14 UNL     1      -3.314  -0.192  -0.259  1.00  0.00    -0.010 A 
HETATM   16  C15 UNL     1      -4.234   0.637   0.347  1.00  0.00     0.016 A 
HETATM   17  C16 UNL     1      -5.527   0.838  -0.090  1.00  0.00     0.037 A 
HETATM   18  C17 UNL     1      -5.940   0.163  -1.218  1.00  0.00     0.065 A 
HETATM   19  C18 UNL     1      -5.062  -0.671  -1.855  1.00  0.00     0.037 A 
HETATM   20  C19 UNL     1      -3.764  -0.848  -1.384  1.00  0.00     0.016 A 
BRANCH  18  21
HETATM   21  O1  UNL     1      -7.228   0.294  -1.748  1.00  0.00    -0.361 OA
HETATM   22  H17 UNL     1      -7.973   0.621  -1.175  1.00  0.00     0.217 HD
ENDBRANCH  18  21
ENDBRANCH  11  15
ENDBRANCH   1  10
BRANCH   3  23
HETATM   23  C6  UNL     1       3.034   0.938  -0.224  1.00  0.00    -0.035 A 
HETATM   24  C7  UNL     1       3.249   1.843  -1.233  1.00  0.00     0.010 A 
HETATM   25  C8  UNL     1       4.221   1.594  -2.157  1.00  0.00     0.019 A 
HETATM   26  C9  UNL     1       5.028   0.452  -2.140  1.00  0.00     0.011 A 
HETATM   27 BR1  UNL     1       6.369   0.166  -3.463  1.00  0.00    -0.051 Br
HETATM   28  C10 UNL     1       4.784  -0.435  -1.113  1.00  0.00     0.019 A 
HETATM   29  C11 UNL     1       3.803  -0.218  -0.152  1.00  0.00     0.010 A 
ENDBRANCH   3  23
TORSDOF 5
