REMARK  7 active torsions:
REMARK  status: ('A' for Active; 'I' for Inactive)
REMARK    1  A    between atoms: C5_6  and  C6_7 
REMARK    2  A    between atoms: C9_10  and  S1_11 
REMARK    3  A    between atoms: S1_11  and  N2_12 
REMARK    4  A    between atoms: C13_19  and  N5_20 
REMARK    5  A    between atoms: N5_20  and  C14_21 
REMARK    6  A    between atoms: C14_21  and  C15_22 
REMARK    7  A    between atoms: C15_22  and  N6_23 
ROOT
HETATM    1  C1  UNL     1      -1.202  -4.227  -0.079  1.00  0.00     0.051 C 
HETATM    2  C2  UNL     1      -0.848  -2.780  -0.142  1.00  0.00    -0.023 A 
HETATM    3  C3  UNL     1       0.470  -2.381  -0.079  1.00  0.00     0.081 A 
HETATM    4  C4  UNL     1       1.481  -3.374   0.047  1.00  0.00     0.102 C 
HETATM    5  N1  UNL     1       2.291  -4.185   0.165  1.00  0.00    -0.191 NA
HETATM    6  C5  UNL     1       0.748  -1.039  -0.140  1.00  0.00     0.090 A 
HETATM    7  N3  UNL     1      -0.248  -0.145  -0.259  1.00  0.00    -0.226 NA
HETATM    8  C12 UNL     1      -1.562  -0.494  -0.325  1.00  0.00     0.181 A 
HETATM    9  N4  UNL     1      -2.529   0.432  -0.443  1.00  0.00    -0.042 NA
HETATM   10  C13 UNL     1      -3.822   0.104  -0.509  1.00  0.00     0.724 A 
HETATM   11  N7  UNL     1      -4.084  -1.213  -0.448  1.00  0.00    -0.074 NA
HETATM   12  C16 UNL     1      -3.167  -2.175  -0.330  1.00  0.00     0.152 A 
HETATM   13  C17 UNL     1      -1.849  -1.840  -0.264  1.00  0.00     0.038 A 
ENDROOT
BRANCH   6  14
HETATM   14  C6  UNL     1       2.128  -0.572  -0.077  1.00  0.00    -0.006 A 
HETATM   15  C7  UNL     1       3.160  -1.152  -0.799  1.00  0.00     0.015 A 
HETATM   16  C8  UNL     1       4.452  -0.721  -0.745  1.00  0.00     0.023 A 
HETATM   17  C9  UNL     1       4.801   0.345   0.057  1.00  0.00     0.046 A 
HETATM   18  C10 UNL     1       3.776   0.934   0.785  1.00  0.00     0.023 A 
HETATM   19  C11 UNL     1       2.454   0.510   0.743  1.00  0.00     0.015 A 
BRANCH  17  20
HETATM   20  S1  UNL     1       6.426   0.981   0.203  1.00  0.00     0.122 S 
HETATM   21  O1  UNL     1       6.824   1.359   1.604  1.00  0.00    -0.236 OA
BRANCH  20  22
HETATM   22  N2  UNL     1       6.756   2.237  -0.967  1.00  0.00    -0.248 NA
HETATM   23  H6  UNL     1       7.759   2.431  -1.040  1.00  0.00     0.134 HD
HETATM   24  H7  UNL     1       6.124   3.039  -0.893  1.00  0.00     0.134 HD
ENDBRANCH  20  22
ENDBRANCH  17  20
ENDBRANCH   6  14
BRANCH  10  25
HETATM   25  N5  UNL     1      -4.882   1.041  -0.635  1.00  0.00    -0.221 N 
HETATM   26  H10 UNL     1      -5.859   0.692  -0.684  1.00  0.00     0.177 HD
BRANCH  25  27
HETATM   27  C14 UNL     1      -4.658   2.465  -0.696  1.00  0.00     0.168 C 
BRANCH  27  28
HETATM   28  C15 UNL     1      -3.993   2.904   0.576  1.00  0.00     0.286 C 
BRANCH  28  29
HETATM   29  N6  UNL     1      -3.760   4.352   0.528  1.00  0.00     0.079 N 
HETATM   30  H15 UNL     1      -3.470   4.598   1.501  1.00  0.00     0.312 HD
HETATM   31  H16 UNL     1      -2.926   4.497  -0.081  1.00  0.00     0.312 HD
ENDBRANCH  28  29
ENDBRANCH  27  28
ENDBRANCH  25  27
ENDBRANCH  10  25
TORSDOF 7
