REMARK  8 active torsions:
REMARK  status: ('A' for Active; 'I' for Inactive)
REMARK    1  A    between atoms: C4_4  and  C5_5 
REMARK    2  A    between atoms: C6_6  and  C7_7 
REMARK    3  A    between atoms: C7_7  and  N1_9 
REMARK    4  A    between atoms: N1_9  and  C9_10 
REMARK    5  A    between atoms: C14_17  and  C15_18 
REMARK    6  A    between atoms: C17_20  and  C18_21 
REMARK    7  A    between atoms: C19_22  and  C20_23 
REMARK    8  A    between atoms: C20_23  and  O1_24 
ROOT
HETATM    1  C1  UNL     1       8.547  -0.025   3.011  1.00  0.00     0.017 C 
HETATM    2  C2  UNL     1       7.849   0.281   2.054  1.00  0.00    -0.089 C 
HETATM    3  C3  UNL     1       7.011   0.631   0.945  1.00  0.00     0.063 C 
HETATM    4  C4  UNL     1       6.142  -0.249   0.482  1.00  0.00     0.009 C 
ENDROOT
BRANCH   4   5
HETATM    5  C5  UNL     1       5.302   0.132  -0.647  1.00  0.00    -0.001 C 
HETATM    6  C6  UNL     1       4.419  -0.756  -1.113  1.00  0.00    -0.002 C 
BRANCH   6   7
HETATM    7  C7  UNL     1       3.423  -0.771  -2.195  1.00  0.00     0.102 C 
HETATM    8  C8  UNL     1       3.457  -2.087  -2.926  1.00  0.00     0.036 C 
BRANCH   7   9
HETATM    9  N1  UNL     1       2.073  -0.452  -1.706  1.00  0.00    -0.367 N 
HETATM   10  H10 UNL     1       1.413  -1.231  -1.773  1.00  0.00     0.161 HD
BRANCH   9  11
HETATM   11  C9  UNL     1       1.770   0.840  -1.197  1.00  0.00     0.137 A 
HETATM   12  N2  UNL     1       2.735   1.769  -1.195  1.00  0.00    -0.224 NA
HETATM   13  C10 UNL     1       2.530   3.016  -0.747  1.00  0.00     0.235 A 
HETATM   14  N3  UNL     1       1.327   3.441  -0.259  1.00  0.00    -0.244 NA
HETATM   15  C11 UNL     1       0.343   2.523  -0.251  1.00  0.00     0.067 A 
HETATM   16  C12 UNL     1       0.551   1.244  -0.709  1.00  0.00     0.038 A 
HETATM   17  C22 UNL     1      -0.954   2.972   0.271  1.00  0.00     0.180 A 
HETATM   18  C13 UNL     1      -0.517   0.266  -0.687  1.00  0.00     0.047 A 
HETATM   19  C14 UNL     1      -1.752   0.515  -0.237  1.00  0.00     0.035 A 
HETATM   20  N4  UNL     1      -1.861   1.854   0.210  1.00  0.00    -0.384 N 
HETATM   21  H24 UNL     1      -2.747   2.220   0.598  1.00  0.00     0.160 HD
BRANCH  19  22
HETATM   22  C15 UNL     1      -2.814  -0.465  -0.217  1.00  0.00    -0.036 C 
HETATM   23  C16 UNL     1      -2.390  -1.794  -0.757  1.00  0.00     0.050 C 
HETATM   24  C17 UNL     1      -4.067  -0.389   0.187  1.00  0.00     0.009 C 
BRANCH  24  25
HETATM   25  C18 UNL     1      -5.037   0.523   0.760  1.00  0.00    -0.001 C 
HETATM   26  C19 UNL     1      -6.308   0.216   1.055  1.00  0.00    -0.001 C 
BRANCH  26  27
HETATM   27  C20 UNL     1      -7.142  -1.009   0.939  1.00  0.00     0.194 C 
BRANCH  27  28
HETATM   28  O1  UNL     1      -7.567  -1.337   2.245  1.00  0.00    -0.392 OA
HETATM   29  C21 UNL     1      -6.433  -1.564   3.009  1.00  0.00     0.201 C 
ENDBRANCH  27  28
ENDBRANCH  26  27
ENDBRANCH  24  25
ENDBRANCH  19  22
ENDBRANCH   9  11
ENDBRANCH   7   9
ENDBRANCH   6   7
ENDBRANCH   4   5
TORSDOF 8
