REMARK  4 active torsions:
REMARK  status: ('A' for Active; 'I' for Inactive)
REMARK    1  A    between atoms: C1_2  and  N2_3 
REMARK    2  A    between atoms: N2_3  and  C2_4 
REMARK    3  A    between atoms: N2_3  and  C8_11 
REMARK    4  A    between atoms: C14_19  and  O1_20 
ROOT
HETATM    1  C8  UNL     1       0.129  -0.126   0.080  1.00  0.00     0.175 C 
HETATM    2  C9  UNL     1      -1.174  -0.915   0.452  1.00  0.00     0.147 C 
HETATM    3  N3  UNL     1      -1.913  -0.946  -0.699  1.00  0.00    -0.097 NA
HETATM    4  N4  UNL     1      -1.477  -0.198  -1.852  1.00  0.00     0.064 N 
HETATM    5  C10 UNL     1      -0.626   0.659  -2.564  1.00  0.00     0.301 A 
HETATM    6  C11 UNL     1      -0.405   0.393  -1.252  1.00  0.00     0.240 A 
HETATM    7  C12 UNL     1      -1.740   1.128  -0.589  1.00  0.00    -0.004 A 
HETATM    8  C13 UNL     1      -1.907   1.694   0.777  1.00  0.00     0.047 A 
HETATM    9  C14 UNL     1      -2.881   2.603   0.978  1.00  0.00     0.066 A 
HETATM   10  C15 UNL     1      -3.712   3.010  -0.035  1.00  0.00     0.037 A 
HETATM   11  C16 UNL     1      -3.722   2.602  -1.347  1.00  0.00     0.012 A 
HETATM   12  C17 UNL     1      -2.746   1.724  -1.426  1.00  0.00    -0.021 A 
HETATM   13  C18 UNL     1      -2.652   0.493  -2.491  1.00  0.00     0.308 C 
ENDROOT
BRANCH   1  14
HETATM   14  N2  UNL     1       1.158  -1.083  -0.108  1.00  0.00    -0.342 N 
BRANCH  14  15
HETATM   15  C1  UNL     1       0.797  -1.974  -1.150  1.00  0.00     0.244 C 
HETATM   16  N1  UNL     1       0.604  -3.079  -0.504  1.00  0.00    -0.311 NA
HETATM   17  H1  UNL     1       0.727  -3.131   0.535  1.00  0.00     0.182 HD
ENDBRANCH  14  15
BRANCH  14  18
HETATM   18  C2  UNL     1       2.396  -1.254   0.555  1.00  0.00     0.032 A 
HETATM   19  C3  UNL     1       3.256  -2.294   0.177  1.00  0.00     0.031 A 
HETATM   20  C4  UNL     1       4.453  -2.432   0.846  1.00  0.00     0.021 A 
HETATM   21  C5  UNL     1       4.869  -1.611   1.870  1.00  0.00     0.011 A 
HETATM   22 BR1  UNL     1       6.528  -1.813   2.788  1.00  0.00    -0.051 Br
HETATM   23  C6  UNL     1       4.015  -0.593   2.232  1.00  0.00     0.021 A 
HETATM   24  C7  UNL     1       2.807  -0.444   1.566  1.00  0.00     0.031 A 
ENDBRANCH  14  18
ENDBRANCH   1  14
BRANCH   9  25
HETATM   25  O1  UNL     1      -2.902   3.028   2.282  1.00  0.00    -0.361 OA
HETATM   26  H11 UNL     1      -2.272   3.744   2.651  1.00  0.00     0.217 HD
ENDBRANCH   9  25
TORSDOF 4
