REMARK  2 active torsions:
REMARK  status: ('A' for Active; 'I' for Inactive)
REMARK    1  A    between atoms: O1_1  and  C1_2 
REMARK    2  A    between atoms: C4_5  and  C5_6 
ROOT
HETATM    1  C5  UNL     1       1.016  -0.828   0.437  1.00  0.00     0.026 C 
HETATM    2  C6  UNL     1       0.251  -1.943   0.563  1.00  0.00     0.003 C 
HETATM    3  C7  UNL     1      -1.168  -1.781   0.630  1.00  0.00     0.034 C 
HETATM    4  C8  UNL     1      -1.994  -2.430  -0.447  1.00  0.00     0.042 C 
HETATM    5  C9  UNL     1      -3.366  -1.843  -0.144  1.00  0.00    -0.058 C 
HETATM    6  C10 UNL     1      -4.120  -1.738  -1.262  1.00  0.00     0.007 C 
HETATM    7  C11 UNL     1      -5.005  -0.565  -1.497  1.00  0.00    -0.001 C 
HETATM    8  C12 UNL     1      -5.123   0.577  -0.786  1.00  0.00     0.002 C 
HETATM    9  C13 UNL     1      -4.083   1.042   0.210  1.00  0.00     0.129 C 
HETATM   10  C14 UNL     1      -3.891  -0.033   1.259  1.00  0.00     0.003 C 
HETATM   11  C15 UNL     1      -3.830  -1.389   1.203  1.00  0.00     0.005 C 
HETATM   12  N1  UNL     1      -2.881   1.249  -0.545  1.00  0.00    -0.364 N 
HETATM   13  C16 UNL     1      -1.603   1.796  -0.260  1.00  0.00     0.146 A 
HETATM   14  N2  UNL     1      -1.846   2.938   0.324  1.00  0.00    -0.225 NA
HETATM   15  C17 UNL     1      -0.614   3.566   0.650  1.00  0.00     0.232 A 
HETATM   16  N3  UNL     1       0.337   2.804   0.262  1.00  0.00    -0.249 NA
HETATM   17  C18 UNL     1      -0.170   1.583  -0.366  1.00  0.00     0.277 A 
HETATM   18  N4  UNL     1       0.392   0.475   0.367  1.00  0.00    -0.361 N 
HETATM   19  H15 UNL     1      -2.780   0.980  -1.561  1.00  0.00     0.162 HD
HETATM   20  H18 UNL     1       0.437   0.503   1.410  1.00  0.00     0.162 HD
ENDROOT
BRANCH   1  21
HETATM   21  C4  UNL     1       2.442  -1.121   0.380  1.00  0.00     0.040 C 
HETATM   22  C3  UNL     1       3.630  -0.568   0.274  1.00  0.00    -0.032 A 
HETATM   23  C2  UNL     1       4.985  -1.095   0.238  1.00  0.00     0.043 A 
HETATM   24  C19 UNL     1       3.529   0.875   0.176  1.00  0.00     0.008 A 
HETATM   25  C1  UNL     1       5.957  -0.244   0.124  1.00  0.00     0.047 A 
HETATM   26  C21 UNL     1       5.941   1.224   0.019  1.00  0.00     0.091 A 
HETATM   27  C20 UNL     1       4.545   1.702   0.061  1.00  0.00    -0.019 A 
BRANCH  25  28
HETATM   28  O1  UNL     1       7.160  -0.928   0.107  1.00  0.00    -0.365 OA
HETATM   29  H1  UNL     1       7.949  -0.562   0.625  1.00  0.00     0.217 HD
ENDBRANCH  25  28
ENDBRANCH   1  21
TORSDOF 2
