REMARK  6 active torsions:
REMARK  status: ('A' for Active; 'I' for Inactive)
REMARK    1  A    between atoms: C2_2  and  N1_3 
REMARK    2  A    between atoms: C2_2  and  C14_19 
REMARK    3  A    between atoms: N1_3  and  C3_4 
REMARK    4  A    between atoms: C3_4  and  C4_5 
REMARK    5  A    between atoms: C7_10  and  N4_11 
REMARK    6  A    between atoms: C11_15  and  O1_16 
ROOT
HETATM    1  C4  UNL     1      -0.502   0.153  -0.773  1.00  0.00    -0.040 A 
HETATM    2  C5  UNL     1      -1.284   1.161  -0.797  1.00  0.00     0.092 A 
HETATM    3  N2  UNL     1      -2.207   2.234  -1.117  1.00  0.00    -0.266 NA
HETATM    4  C6  UNL     1      -3.335   2.476  -0.488  1.00  0.00     0.230 C 
HETATM    5  N3  UNL     1      -4.407   2.326   0.473  1.00  0.00    -0.229 NA
HETATM    6  C7  UNL     1      -4.920   1.146   0.782  1.00  0.00     0.102 C 
HETATM    7  C8  UNL     1      -4.928  -0.393   0.573  1.00  0.00     0.102 A 
HETATM    8  C9  UNL     1      -4.628  -0.479  -0.873  1.00  0.00    -0.037 A 
HETATM    9  C10 UNL     1      -3.624   0.000  -0.208  1.00  0.00     0.053 A 
HETATM   10  C11 UNL     1      -2.540   0.528   0.603  1.00  0.00     0.109 C 
HETATM   11  C12 UNL     1      -1.346   1.097   0.694  1.00  0.00     0.045 A 
HETATM   12  C13 UNL     1      -0.324   1.549  -0.174  1.00  0.00     0.082 A 
ENDROOT
BRANCH   1  13
HETATM   13  C3  UNL     1       0.371  -1.005  -0.821  1.00  0.00     0.303 C 
BRANCH  13  14
HETATM   14  N1  UNL     1       1.706  -0.562  -0.485  1.00  0.00     0.095 N 
HETATM   15  H5  UNL     1       2.004   0.297  -0.951  1.00  0.00     0.317 HD
BRANCH  14  16
HETATM   16  C2  UNL     1       2.645  -1.630  -0.498  1.00  0.00     0.249 C 
HETATM   17  C1  UNL     1       2.344  -2.726   0.469  1.00  0.00     0.048 C 
BRANCH  16  18
HETATM   18  C14 UNL     1       4.014  -1.081  -0.288  1.00  0.00    -0.026 A 
HETATM   19  C15 UNL     1       4.005  -0.141   0.742  1.00  0.00     0.011 A 
HETATM   20  C16 UNL     1       5.176   0.512   1.118  1.00  0.00     0.019 A 
HETATM   21  C17 UNL     1       6.371   0.236   0.473  1.00  0.00     0.011 A 
HETATM   22 BR1  UNL     1       7.998   1.102   0.947  1.00  0.00    -0.051 Br
HETATM   23  C18 UNL     1       6.342  -0.698  -0.541  1.00  0.00     0.019 A 
HETATM   24  C19 UNL     1       5.199  -1.360  -0.935  1.00  0.00     0.011 A 
ENDBRANCH  16  18
ENDBRANCH  14  16
ENDBRANCH  13  14
ENDBRANCH   1  13
BRANCH  10  25
HETATM   25  O1  UNL     1      -2.542   0.531   1.976  1.00  0.00    -0.385 OA
HETATM   26  H15 UNL     1      -2.448  -0.330   2.498  1.00  0.00     0.210 HD
ENDBRANCH  10  25
BRANCH   6  27
HETATM   27  N4  UNL     1      -5.808   1.790   1.693  1.00  0.00    -0.387 N 
HETATM   28  H9  UNL     1      -5.918   2.189   2.633  1.00  0.00     0.157 HD
HETATM   29  H10 UNL     1      -6.808   2.017   1.424  1.00  0.00     0.157 HD
ENDBRANCH   6  27
TORSDOF 6
