REMARK  6 active torsions:
REMARK  status: ('A' for Active; 'I' for Inactive)
REMARK    1  A    between atoms: C2_2  and  N1_3 
REMARK    2  A    between atoms: C2_2  and  C16_21 
REMARK    3  A    between atoms: N1_3  and  C3_4 
REMARK    4  A    between atoms: N4_12  and  C9_13 
REMARK    5  A    between atoms: C9_13  and  C10_14 
REMARK    6  A    between atoms: C13_17  and  O1_18 
ROOT
HETATM    1  C3  UNL     1       1.088  -1.243   0.429  1.00  0.00     0.135 A 
HETATM    2  N2  UNL     1       1.039  -2.100   1.460  1.00  0.00    -0.224 NA
HETATM    3  C4  UNL     1      -0.138  -2.598   1.909  1.00  0.00     0.237 A 
HETATM    4  N3  UNL     1      -1.307  -2.236   1.317  1.00  0.00    -0.224 NA
HETATM    5  C5  UNL     1      -1.277  -1.378   0.283  1.00  0.00     0.137 A 
HETATM    6  C6  UNL     1      -0.104  -0.860  -0.191  1.00  0.00     0.035 A 
HETATM    7  C7  UNL     1      -0.287   0.067  -1.337  1.00  0.00     0.066 C 
HETATM    8  C8  UNL     1      -1.766   0.354  -1.280  1.00  0.00     0.130 C 
HETATM    9  N4  UNL     1      -2.270  -0.796  -0.553  1.00  0.00    -0.361 N 
ENDROOT
BRANCH   1  10
HETATM   10  N1  UNL     1       2.325  -0.732  -0.027  1.00  0.00    -0.366 N 
HETATM   11  H5  UNL     1       2.344  -0.068  -0.828  1.00  0.00     0.161 HD
BRANCH  10  12
HETATM   12  C2  UNL     1       3.564  -1.141   0.631  1.00  0.00     0.112 C 
HETATM   13  C1  UNL     1       3.546  -0.756   2.097  1.00  0.00     0.037 C 
BRANCH  12  14
HETATM   14  C16 UNL     1       4.695  -0.361   0.022  1.00  0.00    -0.036 A 
HETATM   15  C17 UNL     1       4.325   0.977  -0.092  1.00  0.00     0.010 A 
HETATM   16  C18 UNL     1       5.220   1.905  -0.635  1.00  0.00     0.019 A 
HETATM   17  C19 UNL     1       6.457   1.460  -1.046  1.00  0.00     0.011 A 
HETATM   18 BR1  UNL     1       7.712   2.683  -1.792  1.00  0.00    -0.051 Br
HETATM   19  C20 UNL     1       6.797   0.140  -0.923  1.00  0.00     0.019 A 
HETATM   20  C21 UNL     1       5.922  -0.780  -0.390  1.00  0.00     0.010 A 
ENDBRANCH  12  14
ENDBRANCH  10  12
ENDBRANCH   1  10
BRANCH   9  21
HETATM   21  C9  UNL     1      -3.655  -1.270  -0.694  1.00  0.00     0.163 C 
BRANCH  21  22
HETATM   22  C10 UNL     1      -4.574  -0.185  -0.287  1.00  0.00    -0.040 A 
HETATM   23  C11 UNL     1      -5.013   0.713  -1.243  1.00  0.00     0.011 A 
HETATM   24  C12 UNL     1      -5.861   1.745  -0.960  1.00  0.00     0.037 A 
HETATM   25  C13 UNL     1      -6.314   1.913   0.351  1.00  0.00     0.065 A 
HETATM   26  C14 UNL     1      -5.902   1.041   1.335  1.00  0.00     0.037 A 
HETATM   27  C15 UNL     1      -5.041   0.015   0.986  1.00  0.00     0.011 A 
BRANCH  25  28
HETATM   28  O1  UNL     1      -7.186   2.946   0.726  1.00  0.00    -0.361 OA
HETATM   29  H15 UNL     1      -7.456   3.670   0.063  1.00  0.00     0.217 HD
ENDBRANCH  25  28
ENDBRANCH  21  22
ENDBRANCH   9  21
TORSDOF 6
