REMARK  2 active torsions:
REMARK  status: ('A' for Active; 'I' for Inactive)
REMARK    1  A    between atoms: C3_3  and  C5_5 
REMARK    2  A    between atoms: C19_24  and  O1_25 
ROOT
HETATM    1  C5  UNL     1       1.591  -0.006  -0.109  1.00  0.00    -0.024 C 
HETATM    2  C6  UNL     1       0.996  -0.979  -0.771  1.00  0.00    -0.014 C 
HETATM    3  C7  UNL     1       0.554  -2.226  -1.375  1.00  0.00     0.052 C 
HETATM    4  C8  UNL     1      -0.965  -2.382  -1.337  1.00  0.00     0.078 C 
HETATM    5  C9  UNL     1      -1.367  -3.762  -1.815  1.00  0.00     0.032 C 
HETATM    6  N1  UNL     1      -1.653  -1.856  -0.260  1.00  0.00    -0.392 N 
HETATM    7  C10 UNL     1      -2.368  -1.317   0.846  1.00  0.00     0.149 A 
HETATM    8  N2  UNL     1      -2.479  -1.815   2.083  1.00  0.00    -0.206 NA
HETATM    9  C11 UNL     1      -3.048  -1.037   3.068  1.00  0.00     0.119 A 
HETATM   10  N3  UNL     1      -2.921  -0.552   1.782  1.00  0.00     0.000 N 
HETATM   11  C12 UNL     1      -3.355   0.686   1.516  1.00  0.00     0.098 A 
HETATM   12  C13 UNL     1      -2.797  -0.037   0.435  1.00  0.00     0.044 A 
HETATM   13  C14 UNL     1      -2.738   0.400  -1.008  1.00  0.00     0.023 C 
HETATM   14  N4  UNL     1      -3.689   1.915   0.948  1.00  0.00    -0.385 N 
HETATM   15  P1  UNL     1      -2.260   2.875   0.467  1.00  0.00    -0.030 P 
HETATM   16  C15 UNL     1      -0.689   2.054   0.856  1.00  0.00     0.089 C 
HETATM   17  C16 UNL     1       0.389   2.208  -0.203  1.00  0.00    -0.046 C 
HETATM   18  C17 UNL     1       0.393   2.873  -1.374  1.00  0.00    -0.025 C 
HETATM   19  C18 UNL     1      -0.411   3.707  -2.261  1.00  0.00     0.036 C 
HETATM   20  C19 UNL     1       1.595   1.417   0.160  1.00  0.00     0.180 C 
HETATM   21  H15 UNL     1      -0.765  -1.516   0.234  1.00  0.00     0.155 HD
HETATM   22  H20 UNL     1      -4.678   1.646   1.094  1.00  0.00     0.159 HD
HETATM   23  H21 UNL     1      -2.342   4.264   0.790  1.00  0.00     0.080 HD
ENDROOT
BRANCH   1  24
HETATM   24  C3  UNL     1       2.676  -0.727   0.547  1.00  0.00    -0.057 C 
HETATM   25  C2  UNL     1       3.536  -0.074   1.342  1.00  0.00    -0.024 C 
HETATM   26  C1  UNL     1       4.706  -0.361   2.163  1.00  0.00     0.036 C 
HETATM   27  C4  UNL     1       3.057  -2.166   0.509  1.00  0.00     0.048 C 
ENDBRANCH   1  24
BRANCH  20  28
HETATM   28  O1  UNL     1       2.748   1.991  -0.436  1.00  0.00    -0.386 OA
HETATM   29  H29 UNL     1       2.999   2.811   0.017  1.00  0.00     0.210 HD
ENDBRANCH  20  28
TORSDOF 2
