REMARK  3 active torsions:
REMARK  status: ('A' for Active; 'I' for Inactive)
REMARK    1  A    between atoms: C5_5  and  C6_6 
REMARK    2  A    between atoms: C11_13  and  N3_14 
REMARK    3  A    between atoms: N3_14  and  C13_16 
ROOT
HETATM    1  C6  UNL     1       2.139  -0.455   1.175  1.00  0.00    -0.083 A 
HETATM    2  C7  UNL     1       0.969  -0.628   0.634  1.00  0.00     0.012 A 
HETATM    3  C8  UNL     1      -0.073  -0.837   1.616  1.00  0.00     0.023 A 
HETATM    4  C9  UNL     1       0.418  -0.806   2.908  1.00  0.00     0.007 A 
HETATM    5  N1  UNL     1      -0.372  -0.978   3.986  1.00  0.00    -0.258 NA
HETATM    6  C10 UNL     1      -1.698  -1.190   3.805  1.00  0.00     0.234 A 
HETATM    7  N2  UNL     1      -2.183  -1.222   2.567  1.00  0.00    -0.223 NA
HETATM    8  C11 UNL     1      -1.426  -1.054   1.445  1.00  0.00     0.142 A 
HETATM    9  B1  UNL     1       1.942  -0.547   2.718  1.00  0.00     0.257 B 
HETATM   10  H18 UNL     1       2.798  -0.736   3.533  1.00  0.00    -0.014 HD
ENDROOT
BRANCH   8  11
HETATM   11  N3  UNL     1      -2.090  -1.116   0.187  1.00  0.00    -0.335 N 
HETATM   12  C12 UNL     1      -1.749  -2.101  -0.836  1.00  0.00     0.158 C 
BRANCH  11  13
HETATM   13  C13 UNL     1      -3.133  -0.177  -0.088  1.00  0.00     0.035 A 
HETATM   14  C14 UNL     1      -3.522   0.788   0.817  1.00  0.00     0.030 A 
HETATM   15  C15 UNL     1      -4.530   1.695   0.549  1.00  0.00     0.009 A 
HETATM   16  C16 UNL     1      -5.190   1.651  -0.672  1.00  0.00    -0.062 A 
HETATM   17  C17 UNL     1      -6.290   2.580  -1.065  1.00  0.00     0.048 C 
HETATM   18  C18 UNL     1      -4.825   0.692  -1.609  1.00  0.00     0.009 A 
HETATM   19  C19 UNL     1      -3.803  -0.189  -1.275  1.00  0.00     0.030 A 
ENDBRANCH  11  13
ENDBRANCH   8  11
BRANCH   1  20
HETATM   20  C5  UNL     1       3.408  -0.220   0.494  1.00  0.00    -0.041 A 
HETATM   21  C4  UNL     1       3.453  -0.160  -0.883  1.00  0.00     0.011 A 
HETATM   22  C3  UNL     1       4.656   0.065  -1.560  1.00  0.00     0.007 A 
HETATM   23  C2  UNL     1       5.825   0.231  -0.845  1.00  0.00    -0.062 A 
HETATM   24  C1  UNL     1       7.117   0.471  -1.558  1.00  0.00     0.048 C 
HETATM   25  C21 UNL     1       5.745   0.165   0.533  1.00  0.00     0.007 A 
HETATM   26  C20 UNL     1       4.575  -0.055   1.231  1.00  0.00     0.011 A 
ENDBRANCH   1  20
TORSDOF 3
