REMARK  4 active torsions:
REMARK  status: ('A' for Active; 'I' for Inactive)
REMARK    1  A    between atoms: C9_9  and  N1_10 
REMARK    2  A    between atoms: N1_10  and  C10_11 
REMARK    3  A    between atoms: C10_11  and  C12_13 
REMARK    4  A    between atoms: C20_24  and  O1_25 
ROOT
HETATM    1  C1  UNL     1      -5.644  -2.039  -1.110  1.00  0.00     0.048 C 
HETATM    2  C2  UNL     1      -4.907  -0.758  -0.816  1.00  0.00    -0.035 C 
HETATM    3  C3  UNL     1      -5.267   0.134  -1.740  1.00  0.00     0.007 C 
HETATM    4  C4  UNL     1      -4.729   1.499  -1.745  1.00  0.00     0.003 C 
HETATM    5  C5  UNL     1      -3.601   1.969  -1.195  1.00  0.00     0.030 C 
HETATM    6  C6  UNL     1      -2.646   1.152  -0.443  1.00  0.00     0.040 A 
HETATM    7  C7  UNL     1      -1.312   1.494  -0.284  1.00  0.00     0.049 A 
HETATM    8  C8  UNL     1      -0.696   0.507   0.477  1.00  0.00     0.058 A 
HETATM    9  C9  UNL     1       0.620   0.403   0.900  1.00  0.00     0.139 A 
HETATM   10  N2  UNL     1       0.862  -0.700   1.628  1.00  0.00    -0.224 NA
HETATM   11  C18 UNL     1      -0.069  -1.617   1.925  1.00  0.00     0.237 A 
HETATM   12  N3  UNL     1      -1.345  -1.511   1.513  1.00  0.00    -0.223 NA
HETATM   13  C19 UNL     1      -1.657  -0.429   0.777  1.00  0.00     0.148 A 
HETATM   14  N4  UNL     1      -2.809  -0.019   0.216  1.00  0.00    -0.300 N 
HETATM   15  C20 UNL     1      -4.021  -0.779   0.343  1.00  0.00     0.256 C 
ENDROOT
BRANCH   9  16
HETATM   16  N1  UNL     1       1.594   1.403   0.594  1.00  0.00    -0.366 N 
HETATM   17  H8  UNL     1       1.207   2.221   0.029  1.00  0.00     0.161 HD
BRANCH  16  18
HETATM   18  C10 UNL     1       2.987   1.405   0.959  1.00  0.00     0.108 C 
HETATM   19  C11 UNL     1       3.125   1.022   2.424  1.00  0.00     0.037 C 
BRANCH  18  20
HETATM   20  C12 UNL     1       3.868   0.577   0.112  1.00  0.00    -0.058 A 
HETATM   21  C13 UNL     1       4.801   1.275  -0.562  1.00  0.00     0.004 A 
HETATM   22  C14 UNL     1       5.760   0.638  -1.439  1.00  0.00    -0.004 A 
HETATM   23  C15 UNL     1       5.588  -0.668  -1.466  1.00  0.00    -0.026 A 
HETATM   24  C16 UNL     1       4.641  -1.585  -0.798  1.00  0.00     0.031 A 
HETATM   25  C17 UNL     1       3.635  -0.877   0.064  1.00  0.00     0.040 A 
ENDBRANCH  18  20
ENDBRANCH  16  18
ENDBRANCH   9  16
BRANCH  15  26
HETATM   26  O1  UNL     1      -4.657  -0.354   1.512  1.00  0.00    -0.372 OA
HETATM   27  H22 UNL     1      -5.043  -1.119   2.037  1.00  0.00     0.212 HD
ENDBRANCH  15  26
TORSDOF 4
