REMARK  7 active torsions:
REMARK  status: ('A' for Active; 'I' for Inactive)
REMARK    1  A    between atoms: C6_6  and  N1_7 
REMARK    2  A    between atoms: C6_6  and  N2_8 
REMARK    3  A    between atoms: N2_8  and  C7_9 
REMARK    4  A    between atoms: C7_9  and  C8_10 
REMARK    5  A    between atoms: C11_15  and  N5_16 
REMARK    6  A    between atoms: N5_16  and  C12_17 
REMARK    7  A    between atoms: C12_17  and  C14_19 
ROOT
HETATM    1  C8  UNL     1      -0.822   0.789   0.820  1.00  0.00     0.044 A 
HETATM    2  C9  UNL     1      -1.223   1.476   1.943  1.00  0.00     0.134 A 
HETATM    3  N3  UNL     1      -0.401   2.484   2.352  1.00  0.00    -0.253 NA
HETATM    4  C10 UNL     1       0.724   2.703   1.611  1.00  0.00     0.234 A 
HETATM    5  N4  UNL     1       1.089   2.016   0.518  1.00  0.00    -0.224 NA
HETATM    6  C11 UNL     1       0.313   1.015   0.077  1.00  0.00     0.138 A 
ENDROOT
BRANCH   1   7
HETATM    7  C7  UNL     1      -1.725  -0.272   0.423  1.00  0.00     0.295 C 
BRANCH   7   8
HETATM    8  N2  UNL     1      -2.579  -1.147   0.191  1.00  0.00    -0.380 NA
BRANCH   8   9
HETATM    9  C6  UNL     1      -3.780  -1.500   0.850  1.00  0.00     0.261 A 
HETATM   10  C2  UNL     1      -5.008  -1.096   0.081  1.00  0.00    -0.023 A 
HETATM   11  C1  UNL     1      -5.468  -1.410  -1.319  1.00  0.00     0.048 C 
HETATM   12  C3  UNL     1      -5.783  -0.325   0.828  1.00  0.00     0.007 A 
HETATM   13  C4  UNL     1      -5.176  -0.134   2.141  1.00  0.00     0.001 A 
HETATM   14  C5  UNL     1      -4.035  -0.810   2.139  1.00  0.00     0.040 A 
BRANCH   9  15
HETATM   15  N1  UNL     1      -3.903  -2.920   1.122  1.00  0.00     0.115 N 
HETATM   16  H7  UNL     1      -3.288  -3.144   1.923  1.00  0.00     0.316 HD
HETATM   17  H8  UNL     1      -4.858  -3.193   1.371  1.00  0.00     0.316 HD
ENDBRANCH   9  15
ENDBRANCH   8   9
ENDBRANCH   7   8
ENDBRANCH   1   7
BRANCH   6  18
HETATM   18  N5  UNL     1       0.650   0.266  -1.076  1.00  0.00    -0.366 N 
HETATM   19  H12 UNL     1       0.062  -0.499  -1.439  1.00  0.00     0.161 HD
BRANCH  18  20
HETATM   20  C12 UNL     1       1.832   0.495  -1.847  1.00  0.00     0.112 C 
HETATM   21  C13 UNL     1       1.948  -0.310  -3.101  1.00  0.00     0.037 C 
BRANCH  20  22
HETATM   22  C14 UNL     1       3.095   0.431  -1.048  1.00  0.00    -0.036 A 
HETATM   23  C15 UNL     1       3.148  -0.121   0.155  1.00  0.00     0.009 A 
HETATM   24  C16 UNL     1       4.236  -0.289   1.089  1.00  0.00    -0.003 A 
HETATM   25  C17 UNL     1       5.459   0.110   0.836  1.00  0.00    -0.023 A 
HETATM   26  C18 UNL     1       6.246   0.771  -0.220  1.00  0.00     0.054 A 
HETATM   27  C19 UNL     1       5.440   1.138  -1.409  1.00  0.00    -0.022 A 
HETATM   28  C20 UNL     1       4.184   1.035  -1.809  1.00  0.00     0.005 A 
ENDBRANCH  20  22
ENDBRANCH  18  20
ENDBRANCH   6  18
TORSDOF 7
