REMARK  6 active torsions:
REMARK  status: ('A' for Active; 'I' for Inactive)
REMARK    1  A    between atoms: C2_2  and  N1_3 
REMARK    2  A    between atoms: N1_3  and  C3_4 
REMARK    3  A    between atoms: C5_6  and  N2_7 
REMARK    4  A    between atoms: N2_7  and  C6_8 
REMARK    5  A    between atoms: C6_8  and  C8_10 
REMARK    6  A    between atoms: C11_13  and  C12_14 
ROOT
HETATM    1  N2  UNL     1       0.217  -1.458   1.078  1.00  0.00    -0.366 N 
HETATM    2  H6  UNL     1       0.324  -1.618   2.120  1.00  0.00     0.161 HD
ENDROOT
BRANCH   1   3
HETATM    3  C5  UNL     1       1.330  -0.814   0.470  1.00  0.00     0.129 A 
HETATM    4  C4  UNL     1       2.432  -0.346   1.187  1.00  0.00     0.100 A 
HETATM    5  C3  UNL     1       3.513   0.258   0.586  1.00  0.00     0.132 A 
HETATM    6  N4  UNL     1       3.519   0.411  -0.764  1.00  0.00    -0.224 NA
HETATM    7  C15 UNL     1       2.457  -0.040  -1.452  1.00  0.00     0.237 A 
HETATM    8  N3  UNL     1       1.412  -0.626  -0.849  1.00  0.00    -0.225 NA
BRANCH   5   9
HETATM    9  N1  UNL     1       4.621   0.724   1.357  1.00  0.00    -0.351 N 
HETATM   10  H4  UNL     1       4.591   0.602   2.393  1.00  0.00     0.166 HD
BRANCH   9  11
HETATM   11  C2  UNL     1       5.721   1.334   0.678  1.00  0.00     0.079 C 
HETATM   12  C1  UNL     1       5.685   2.484   0.015  1.00  0.00     0.029 C 
ENDBRANCH   9  11
ENDBRANCH   5   9
ENDBRANCH   1   3
BRANCH   1  13
HETATM   13  C6  UNL     1      -0.968  -1.878   0.409  1.00  0.00     0.112 C 
HETATM   14  C7  UNL     1      -0.715  -2.679  -0.860  1.00  0.00     0.037 C 
BRANCH  13  15
HETATM   15  C8  UNL     1      -1.991  -0.862   0.164  1.00  0.00    -0.036 A 
HETATM   16  C9  UNL     1      -1.842   0.432  -0.228  1.00  0.00     0.010 A 
HETATM   17  C10 UNL     1      -2.864   1.330  -0.446  1.00  0.00     0.017 A 
HETATM   18  C11 UNL     1      -4.171   0.943  -0.268  1.00  0.00     0.047 A 
HETATM   19  C13 UNL     1      -4.430  -0.350   0.129  1.00  0.00     0.017 A 
HETATM   20  C14 UNL     1      -3.351  -1.185   0.325  1.00  0.00     0.010 A 
BRANCH  18  21
HETATM   21  C12 UNL     1      -5.236   1.925  -0.509  1.00  0.00     0.417 C 
HETATM   22  F1  UNL     1      -5.632   2.585   0.626  1.00  0.00    -0.166 F 
HETATM   23  F2  UNL     1      -6.349   1.269  -1.024  1.00  0.00    -0.166 F 
HETATM   24  F3  UNL     1      -4.851   2.836  -1.503  1.00  0.00    -0.166 F 
ENDBRANCH  18  21
ENDBRANCH  13  15
ENDBRANCH   1  13
TORSDOF 6
