REMARK  7 active torsions:
REMARK  status: ('A' for Active; 'I' for Inactive)
REMARK    1  A    between atoms: C2_2  and  O1_3 
REMARK    2  A    between atoms: O1_3  and  C3_4 
REMARK    3  A    between atoms: C7_8  and  C8_9 
REMARK    4  A    between atoms: C8_9  and  N1_10 
REMARK    5  A    between atoms: N1_10  and  S1_11 
REMARK    6  A    between atoms: N1_10  and  C9_12 
REMARK    7  A    between atoms: C9_12  and  C10_13 
ROOT
HETATM    1  C3  UNL     1      -4.052   0.055   0.417  1.00  0.00     0.047 C 
HETATM    2  C4  UNL     1      -2.962   0.403  -0.253  1.00  0.00     0.010 C 
HETATM    3  C5  UNL     1      -1.656   0.076  -0.805  1.00  0.00     0.065 C 
HETATM    4  C6  UNL     1      -1.163  -1.297  -0.556  1.00  0.00    -0.059 C 
HETATM    5  C7  UNL     1      -0.056  -1.506  -1.288  1.00  0.00    -0.007 C 
HETATM    6  C17 UNL     1      -1.493  -2.511   0.236  1.00  0.00     0.182 C 
HETATM    7  N2  UNL     1      -2.026  -2.153   1.531  1.00  0.00    -0.301 NA
HETATM    8  C18 UNL     1      -3.163  -1.654   1.846  1.00  0.00     0.090 C 
HETATM    9  C19 UNL     1      -4.322  -1.270   0.999  1.00  0.00     0.110 C 
ENDROOT
BRANCH   5  10
HETATM   10  C8  UNL     1       0.784  -0.775  -2.245  1.00  0.00     0.130 C 
BRANCH  10  11
HETATM   11  N1  UNL     1       2.128  -0.666  -1.728  1.00  0.00    -0.253 NA
BRANCH  11  12
HETATM   12  S1  UNL     1       2.799  -2.235  -1.289  1.00  0.00    -0.095 SA
HETATM   13  H12 UNL     1       2.267  -2.668  -0.051  1.00  0.00     0.119 HD
ENDBRANCH  11  12
BRANCH  11  14
HETATM   14  C9  UNL     1       2.117   0.222  -0.586  1.00  0.00     0.141 C 
BRANCH  14  15
HETATM   15  C10 UNL     1       3.506   0.379  -0.046  1.00  0.00    -0.044 A 
HETATM   16  C11 UNL     1       4.230   1.413  -0.651  1.00  0.00     0.009 A 
HETATM   17  C12 UNL     1       5.522   1.733  -0.313  1.00  0.00     0.007 A 
HETATM   18  C13 UNL     1       6.141   0.979   0.693  1.00  0.00    -0.062 A 
HETATM   19  C14 UNL     1       7.531   1.293   1.078  1.00  0.00     0.048 C 
HETATM   20  C15 UNL     1       5.431  -0.033   1.284  1.00  0.00     0.007 A 
HETATM   21  C16 UNL     1       4.135  -0.348   0.939  1.00  0.00     0.009 A 
ENDBRANCH  14  15
ENDBRANCH  11  14
ENDBRANCH  10  11
ENDBRANCH   5  10
BRANCH   1  22
HETATM   22  O1  UNL     1      -4.914   1.166   0.481  1.00  0.00    -0.356 OA
BRANCH  22  23
HETATM   23  C2  UNL     1      -6.233   1.162   0.001  1.00  0.00     0.170 C 
HETATM   24  C1  UNL     1      -6.878   2.531   0.155  1.00  0.00     0.034 C 
ENDBRANCH  22  23
ENDBRANCH   1  22
TORSDOF 7
