REMARK  9 active torsions:
REMARK  status: ('A' for Active; 'I' for Inactive)
REMARK    1  A    between atoms: C2_3  and  C19_25 
REMARK    2  A    between atoms: C3_4  and  C4_5 
REMARK    3  A    between atoms: C5_6  and  C6_7 
REMARK    4  A    between atoms: C6_7  and  N1_9 
REMARK    5  A    between atoms: N1_9  and  C8_10 
REMARK    6  A    between atoms: C11_15  and  C12_16 
REMARK    7  A    between atoms: C12_16  and  N4_17 
REMARK    8  A    between atoms: C12_16  and  C13_18 
REMARK    9  A    between atoms: C16_21  and  O1_22 
ROOT
HETATM    1  B1  UNL     1      -6.050  -1.092   4.150  1.00  0.00     0.197 B 
HETATM    2  C1  UNL     1      -5.861  -0.675   2.400  1.00  0.00    -0.221 C 
HETATM    3  C2  UNL     1      -5.702  -0.358   1.002  1.00  0.00     0.073 C 
HETATM    4  C3  UNL     1      -4.524   0.043   0.549  1.00  0.00     0.023 C 
ENDROOT
BRANCH   3   5
HETATM    5  C19 UNL     1      -6.869  -0.487   0.093  1.00  0.00     0.423 C 
HETATM    6  F1  UNL     1      -6.475  -0.129  -1.189  1.00  0.00    -0.166 F 
HETATM    7  F2  UNL     1      -7.333  -1.801   0.131  1.00  0.00    -0.166 F 
HETATM    8  F3  UNL     1      -7.916   0.326   0.511  1.00  0.00    -0.166 F 
ENDBRANCH   3   5
BRANCH   4   9
HETATM    9  C4  UNL     1      -3.400   0.160   1.468  1.00  0.00    -0.001 C 
HETATM   10  C5  UNL     1      -2.210   0.557   1.048  1.00  0.00    -0.002 C 
BRANCH  10  11
HETATM   11  C6  UNL     1      -1.918   0.911  -0.358  1.00  0.00     0.102 C 
HETATM   12  C7  UNL     1      -2.292   2.352  -0.626  1.00  0.00     0.036 C 
BRANCH  11  13
HETATM   13  N1  UNL     1      -0.512   0.757  -0.676  1.00  0.00    -0.367 N 
HETATM   14  H8  UNL     1       0.045   1.554  -0.995  1.00  0.00     0.161 HD
BRANCH  13  15
HETATM   15  C8  UNL     1      -0.016  -0.546  -0.508  1.00  0.00     0.135 A 
HETATM   16  N2  UNL     1      -0.731  -1.601  -0.092  1.00  0.00    -0.224 NA
HETATM   17  C9  UNL     1      -0.242  -2.842   0.064  1.00  0.00     0.234 A 
HETATM   18  N3  UNL     1       1.075  -3.054  -0.219  1.00  0.00    -0.253 NA
HETATM   19  C10 UNL     1       1.852  -2.014  -0.648  1.00  0.00     0.131 A 
HETATM   20  C11 UNL     1       1.315  -0.752  -0.797  1.00  0.00     0.042 A 
BRANCH  20  21
HETATM   21  C12 UNL     1       2.313   0.210  -1.264  1.00  0.00     0.289 C 
BRANCH  21  22
HETATM   22  N4  UNL     1       2.744  -0.257  -2.591  1.00  0.00     0.091 N 
HETATM   23  H12 UNL     1       3.480  -0.990  -2.534  1.00  0.00     0.314 HD
HETATM   24  H13 UNL     1       1.905  -0.613  -3.093  1.00  0.00     0.314 HD
ENDBRANCH  21  22
BRANCH  21  25
HETATM   25  C13 UNL     1       3.505   0.281  -0.382  1.00  0.00    -0.021 A 
HETATM   26  C14 UNL     1       4.583   0.873  -1.012  1.00  0.00     0.012 A 
HETATM   27  C15 UNL     1       5.819   1.052  -0.381  1.00  0.00     0.037 A 
HETATM   28  C16 UNL     1       5.911   0.595   0.938  1.00  0.00     0.065 A 
HETATM   29  C17 UNL     1       4.839   0.003   1.573  1.00  0.00     0.037 A 
HETATM   30  C18 UNL     1       3.637  -0.156   0.919  1.00  0.00     0.012 A 
BRANCH  28  31
HETATM   31  O1  UNL     1       7.111   0.741   1.624  1.00  0.00    -0.361 OA
HETATM   32  H16 UNL     1       7.962   0.692   1.054  1.00  0.00     0.217 HD
ENDBRANCH  28  31
ENDBRANCH  21  25
ENDBRANCH  20  21
ENDBRANCH  13  15
ENDBRANCH  11  13
ENDBRANCH  10  11
ENDBRANCH   4   9
TORSDOF 9
