REMARK  2 active torsions:
REMARK  status: ('A' for Active; 'I' for Inactive)
REMARK    1  A    between atoms: C10_11  and  N2_12 
REMARK    2  A    between atoms: N2_12  and  C11_13 
ROOT
HETATM    1  C1  UNL     1      -4.426  -2.797  -0.245  1.00  0.00     0.070 C 
HETATM    2  C2  UNL     1      -4.244  -1.317  -0.037  1.00  0.00     0.023 C 
HETATM    3  C3  UNL     1      -4.496  -0.093   0.368  1.00  0.00     0.022 C 
HETATM    4  C4  UNL     1      -4.569   1.313   0.709  1.00  0.00    -0.018 C 
HETATM    5  C5  UNL     1      -3.539   2.073   0.263  1.00  0.00     0.045 C 
HETATM    6  C6  UNL     1      -2.610   3.173  -0.049  1.00  0.00     0.279 C 
HETATM    7  N1  UNL     1      -1.273   2.798   0.490  1.00  0.00     0.087 N 
HETATM    8  C7  UNL     1      -0.757   1.814  -0.459  1.00  0.00     0.298 C 
HETATM    9  C8  UNL     1       0.357   1.007   0.057  1.00  0.00     0.022 C 
HETATM   10  C9  UNL     1       0.300  -0.305   0.270  1.00  0.00     0.057 A 
HETATM   11  C10 UNL     1       1.453  -0.879   0.759  1.00  0.00     0.143 A 
HETATM   12  N3  UNL     1       1.628  -2.178   1.062  1.00  0.00    -0.223 NA
HETATM   13  C17 UNL     1       0.587  -3.027   0.877  1.00  0.00     0.237 A 
HETATM   14  N4  UNL     1      -0.557  -2.500   0.397  1.00  0.00    -0.220 NA
HETATM   15  C18 UNL     1      -0.725  -1.210   0.099  1.00  0.00     0.184 A 
HETATM   16  N5  UNL     1      -1.750  -0.692  -0.346  1.00  0.00    -0.154 NA
HETATM   17  N6  UNL     1      -3.002  -1.106  -0.690  1.00  0.00    -0.281 N 
HETATM   18  H9  UNL     1      -0.729   3.685   0.478  1.00  0.00     0.316 HD
HETATM   19  H19 UNL     1      -2.834  -1.264  -1.728  1.00  0.00     0.189 HD
ENDROOT
BRANCH  11  20
HETATM   20  N2  UNL     1       2.718  -0.267   1.051  1.00  0.00    -0.340 N 
HETATM   21  H13 UNL     1       2.518   0.182   1.968  1.00  0.00     0.167 HD
BRANCH  20  22
HETATM   22  C11 UNL     1       3.971  -0.186   0.415  1.00  0.00     0.035 A 
HETATM   23  C12 UNL     1       4.989   0.419   1.102  1.00  0.00     0.029 A 
HETATM   24  C13 UNL     1       6.236   0.502   0.498  1.00  0.00     0.004 A 
HETATM   25  C14 UNL     1       6.475  -0.012  -0.782  1.00  0.00     0.024 A 
HETATM   26  C15 UNL     1       5.436  -0.604  -1.427  1.00  0.00     0.036 A 
HETATM   27 CL1  UNL     1       5.834  -1.219  -3.022  1.00  0.00    -0.084 Cl
HETATM   28  C16 UNL     1       4.198  -0.685  -0.827  1.00  0.00     0.053 A 
ENDBRANCH  20  22
ENDBRANCH  11  20
TORSDOF 2
