REMARK  9 active torsions:
REMARK  status: ('A' for Active; 'I' for Inactive)
REMARK    1  A    between atoms: N1_1  and  C1_2 
REMARK    2  A    between atoms: C1_2  and  C2_3 
REMARK    3  A    between atoms: C2_3  and  C3_4 
REMARK    4  A    between atoms: C3_4  and  C4_5 
REMARK    5  A    between atoms: C7_8  and  C8_9 
REMARK    6  A    between atoms: N2_15  and  C11_16 
REMARK    7  A    between atoms: N3_17  and  C12_18 
REMARK    8  A    between atoms: C15_21  and  C16_22 
REMARK    9  A    between atoms: C19_25  and  O1_26 
ROOT
HETATM    1  C2  UNL     1       1.477  -1.005   0.062  1.00  0.00     0.045 C 
HETATM    2  N2  UNL     1       0.405  -0.738   0.733  1.00  0.00    -0.249 NA
ENDROOT
BRANCH   1   3
HETATM    3  C1  UNL     1       2.159  -2.322   0.237  1.00  0.00     0.321 C 
BRANCH   3   4
HETATM    4  N1  UNL     1       1.436  -3.128   1.208  1.00  0.00     0.083 N 
HETATM    5  H1  UNL     1       0.698  -3.683   0.718  1.00  0.00     0.313 HD
HETATM    6  H2  UNL     1       0.923  -2.547   1.912  1.00  0.00     0.313 HD
ENDBRANCH   3   4
ENDBRANCH   1   3
BRANCH   1   7
HETATM    7  C3  UNL     1       2.072  -0.043  -0.893  1.00  0.00     0.095 C 
BRANCH   7   8
HETATM    8  C4  UNL     1       3.447   0.285  -0.464  1.00  0.00    -0.053 A 
HETATM    9  C5  UNL     1       4.462  -0.524  -0.965  1.00  0.00     0.008 A 
HETATM   10  C6  UNL     1       5.803  -0.338  -0.650  1.00  0.00     0.017 A 
HETATM   11  C7  UNL     1       6.119   0.717   0.211  1.00  0.00     0.047 A 
HETATM   12  C9  UNL     1       5.088   1.499   0.689  1.00  0.00     0.017 A 
HETATM   13  C10 UNL     1       3.757   1.323   0.384  1.00  0.00     0.008 A 
BRANCH  11  14
HETATM   14  C8  UNL     1       7.544   0.952   0.574  1.00  0.00     0.417 C 
HETATM   15  F1  UNL     1       7.640   2.168   1.201  1.00  0.00    -0.166 F 
HETATM   16  F2  UNL     1       7.865  -0.064   1.470  1.00  0.00    -0.166 F 
HETATM   17  F3  UNL     1       8.383   0.841  -0.507  1.00  0.00    -0.166 F 
ENDBRANCH  11  14
ENDBRANCH   7   8
ENDBRANCH   1   7
BRANCH   2  18
HETATM   18  C11 UNL     1      -0.303   0.474   0.632  1.00  0.00     0.233 C 
HETATM   19  N3  UNL     1      -1.570   0.588   0.414  1.00  0.00    -0.241 NA
BRANCH  19  20
HETATM   20  C12 UNL     1      -2.417  -0.545   0.246  1.00  0.00     0.069 A 
HETATM   21  C13 UNL     1      -2.228  -1.870   0.213  1.00  0.00     0.033 A 
HETATM   22  C14 UNL     1      -3.679  -1.991   0.007  1.00  0.00     0.017 A 
HETATM   23  C15 UNL     1      -3.844  -0.680   0.043  1.00  0.00     0.003 A 
BRANCH  23  24
HETATM   24  C16 UNL     1      -4.965   0.244  -0.071  1.00  0.00    -0.024 A 
HETATM   25  C17 UNL     1      -6.249  -0.219  -0.269  1.00  0.00     0.015 A 
HETATM   26  C18 UNL     1      -7.303   0.640  -0.376  1.00  0.00     0.037 A 
HETATM   27  C19 UNL     1      -7.125   2.013  -0.290  1.00  0.00     0.065 A 
HETATM   28  C20 UNL     1      -5.830   2.465  -0.091  1.00  0.00     0.037 A 
HETATM   29  C21 UNL     1      -4.760   1.597   0.018  1.00  0.00     0.015 A 
BRANCH  27  30
HETATM   30  O1  UNL     1      -8.139   2.943  -0.388  1.00  0.00    -0.361 OA
HETATM   31  H16 UNL     1      -8.674   2.973  -1.247  1.00  0.00     0.217 HD
ENDBRANCH  27  30
ENDBRANCH  23  24
ENDBRANCH  19  20
ENDBRANCH   2  18
TORSDOF 9
