REMARK  6 active torsions:
REMARK  status: ('A' for Active; 'I' for Inactive)
REMARK    1  A    between atoms: C3_3  and  C4_4 
REMARK    2  A    between atoms: C4_4  and  C5_5 
REMARK    3  A    between atoms: C8_10  and  N1_11 
REMARK    4  A    between atoms: N2_12  and  C9_13 
REMARK    5  A    between atoms: C17_23  and  S1_24 
REMARK    6  A    between atoms: S1_24  and  O1_25 
ROOT
HETATM    1  C9  UNL     1       0.076   0.969  -1.214  1.00  0.00     0.142 A 
HETATM    2  N3  UNL     1      -0.211   2.008  -2.038  1.00  0.00    -0.224 NA
HETATM    3  C10 UNL     1       0.693   3.032  -2.115  1.00  0.00     0.236 A 
HETATM    4  N4  UNL     1       1.861   3.073  -1.419  1.00  0.00    -0.241 NA
HETATM    5  C11 UNL     1       2.175   2.058  -0.593  1.00  0.00     0.080 A 
HETATM    6  C12 UNL     1       1.262   1.020  -0.512  1.00  0.00     0.050 A 
HETATM    7  C13 UNL     1       2.140   0.354   0.445  1.00  0.00    -0.011 A 
HETATM    8  C14 UNL     1       3.015   1.342   0.372  1.00  0.00    -0.014 A 
HETATM    9  C15 UNL     1       4.304   1.518   1.060  1.00  0.00     0.070 C 
HETATM   10  C16 UNL     1       5.094   0.272   1.189  1.00  0.00    -0.002 C 
HETATM   11  C17 UNL     1       4.772  -0.984   1.455  1.00  0.00     0.024 C 
HETATM   12  C18 UNL     1       3.385  -1.431   1.706  1.00  0.00     0.021 C 
HETATM   13  C19 UNL     1       2.259  -0.843   1.263  1.00  0.00     0.014 C 
ENDROOT
BRANCH   1  14
HETATM   14  N2  UNL     1      -0.880  -0.037  -1.179  1.00  0.00    -0.337 N 
HETATM   15  C2  UNL     1      -2.126   0.551  -0.727  1.00  0.00     0.087 C 
HETATM   16  C1  UNL     1      -1.925   1.677   0.247  1.00  0.00     0.033 C 
HETATM   17  C3  UNL     1      -3.070  -0.430  -0.055  1.00  0.00     0.001 C 
HETATM   18  C6  UNL     1      -2.591  -0.702   1.322  1.00  0.00    -0.040 C 
HETATM   19  B1  UNL     1      -1.499  -2.262   1.134  1.00  0.00     0.193 B 
HETATM   20  C7  UNL     1      -0.629  -2.320  -0.383  1.00  0.00    -0.099 C 
HETATM   21  C8  UNL     1      -0.586  -1.379  -1.546  1.00  0.00     0.188 C 
BRANCH  17  22
HETATM   22  C4  UNL     1      -4.439   0.181  -0.167  1.00  0.00     0.037 C 
BRANCH  22  23
HETATM   23  C5  UNL     1      -5.560  -0.599   0.411  1.00  0.00     0.222 C 
HETATM   24  F1  UNL     1      -5.481  -0.847   1.747  1.00  0.00    -0.255 F 
ENDBRANCH  22  23
ENDBRANCH  17  22
BRANCH  21  25
HETATM   25  N1  UNL     1      -1.479  -1.887  -2.586  1.00  0.00    -0.408 N 
HETATM   26  H14 UNL     1      -1.792  -2.845  -2.461  1.00  0.00     0.152 HD
HETATM   27  H15 UNL     1      -2.094  -1.198  -3.005  1.00  0.00     0.152 HD
ENDBRANCH  21  25
ENDBRANCH   1  14
BRANCH  11  28
HETATM   28  S1  UNL     1       6.024  -2.284   1.538  1.00  0.00     0.025 SA
BRANCH  28  29
HETATM   29  O1  UNL     1       7.530  -1.482   1.207  1.00  0.00    -0.325 OA
HETATM   30  H20 UNL     1       7.615  -1.352   0.211  1.00  0.00     0.228 HD
ENDBRANCH  28  29
ENDBRANCH  11  28
TORSDOF 6
