REMARK  6 active torsions:
REMARK  status: ('A' for Active; 'I' for Inactive)
REMARK    1  A    between atoms: N1_2  and  C2_3 
REMARK    2  A    between atoms: C7_9  and  N2_10 
REMARK    3  A    between atoms: N2_10  and  C8_11 
REMARK    4  A    between atoms: N3_12  and  C9_13 
REMARK    5  A    between atoms: C10_15  and  C11_16 
REMARK    6  A    between atoms: C14_19  and  O1_20 
ROOT
HETATM    1  C8  UNL     1      -0.983  -0.607   0.749  1.00  0.00     0.209 C 
HETATM    2  N3  UNL     1      -0.554   0.455   0.141  1.00  0.00    -0.229 NA
ENDROOT
BRANCH   2   3
HETATM    3  C9  UNL     1       0.684   0.423  -0.594  1.00  0.00     0.122 C 
HETATM    4  N4  UNL     1       1.355   1.515  -0.458  1.00  0.00    -0.265 NA
HETATM    5  C10 UNL     1       2.608   1.491  -1.204  1.00  0.00     0.143 C 
HETATM    6  C17 UNL     1       2.204   0.526  -2.340  1.00  0.00     0.040 C 
HETATM    7  C18 UNL     1       1.449  -0.494  -1.469  1.00  0.00     0.082 C 
BRANCH   5   8
HETATM    8  C11 UNL     1       3.723   0.850  -0.487  1.00  0.00    -0.033 A 
HETATM    9  C12 UNL     1       4.757   0.322  -1.267  1.00  0.00     0.012 A 
HETATM   10  C13 UNL     1       5.845  -0.330  -0.663  1.00  0.00     0.037 A 
HETATM   11  C14 UNL     1       5.920  -0.463   0.727  1.00  0.00     0.065 A 
HETATM   12  C15 UNL     1       4.896   0.063   1.490  1.00  0.00     0.037 A 
HETATM   13  C16 UNL     1       3.818   0.707   0.885  1.00  0.00     0.012 A 
BRANCH  11  14
HETATM   14  O1  UNL     1       7.019  -1.115   1.279  1.00  0.00    -0.361 OA
HETATM   15  H13 UNL     1       7.898  -1.135   0.740  1.00  0.00     0.217 HD
ENDBRANCH  11  14
ENDBRANCH   5   8
ENDBRANCH   2   3
BRANCH   1  16
HETATM   16  N2  UNL     1      -2.236  -0.483   1.463  1.00  0.00    -0.349 N 
HETATM   17  H8  UNL     1      -2.301  -0.951   2.404  1.00  0.00     0.167 HD
BRANCH  16  18
HETATM   18  C7  UNL     1      -3.287   0.262   0.819  1.00  0.00     0.062 A 
HETATM   19  C2  UNL     1      -4.413  -0.433   0.416  1.00  0.00     0.093 A 
HETATM   20  C3  UNL     1      -5.475   0.174  -0.227  1.00  0.00     0.144 A 
HETATM   21  F1  UNL     1      -6.604  -0.413  -0.651  1.00  0.00    -0.204 F 
HETATM   22  C4  UNL     1      -5.342   1.551  -0.447  1.00  0.00     0.045 A 
HETATM   23  C5  UNL     1      -4.214   2.236  -0.042  1.00  0.00     0.005 A 
HETATM   24  C6  UNL     1      -3.141   1.612   0.609  1.00  0.00     0.032 A 
BRANCH  19  25
HETATM   25  N1  UNL     1      -4.628  -1.830   0.612  1.00  0.00    -0.390 N 
HETATM   26  C1  UNL     1      -5.284  -2.225   1.836  1.00  0.00     0.146 C 
HETATM   27  H4  UNL     1      -4.410  -2.684   0.044  1.00  0.00     0.159 HD
ENDBRANCH  19  25
ENDBRANCH  16  18
ENDBRANCH   1  16
TORSDOF 6
