REMARK  3 active torsions:
REMARK  status: ('A' for Active; 'I' for Inactive)
REMARK    1  A    between atoms: C2_2  and  C3_3 
REMARK    2  A    between atoms: C6_8  and  N3_9 
REMARK    3  A    between atoms: N3_9  and  C7_10 
ROOT
HETATM    1  C7  UNL     1       0.347  -0.341   0.950  1.00  0.00     0.163 C 
HETATM    2  C8  UNL     1       0.856   0.858   0.154  1.00  0.00     0.157 C 
HETATM    3  N4  UNL     1       2.069   0.061  -0.085  1.00  0.00    -0.344 N 
HETATM    4  C9  UNL     1       3.413   0.275  -0.516  1.00  0.00     0.006 C 
HETATM    5  C10 UNL     1       3.716   1.547  -1.217  1.00  0.00     0.068 C 
HETATM    6  C11 UNL     1       4.410  -0.595  -0.330  1.00  0.00     0.027 C 
HETATM    7  C12 UNL     1       4.403  -1.903   0.316  1.00  0.00     0.036 C 
HETATM    8  C13 UNL     1       3.486  -2.257   1.184  1.00  0.00     0.083 C 
HETATM    9  N5  UNL     1       2.312  -1.846   1.209  1.00  0.00    -0.242 NA
HETATM   10  C14 UNL     1       1.402  -1.192   0.305  1.00  0.00     0.209 C 
HETATM   11 BR1  UNL     1       0.863  -2.205  -1.236  1.00  0.00    -0.033 Br
ENDROOT
BRANCH   1  12
HETATM   12  N3  UNL     1      -1.014  -0.610   0.522  1.00  0.00    -0.363 N 
HETATM   13  H6  UNL     1      -1.208  -1.549   0.110  1.00  0.00     0.161 HD
BRANCH  12  14
HETATM   14  C6  UNL     1      -2.031   0.374   0.665  1.00  0.00     0.137 A 
HETATM   15  C3  UNL     1      -3.305   0.072   0.245  1.00  0.00     0.026 A 
HETATM   16  C4  UNL     1      -4.268   1.020   0.386  1.00  0.00     0.133 A 
HETATM   17  N1  UNL     1      -3.965   2.234   0.932  1.00  0.00    -0.253 NA
HETATM   18  C5  UNL     1      -2.693   2.511   1.341  1.00  0.00     0.234 A 
HETATM   19  N2  UNL     1      -1.721   1.562   1.202  1.00  0.00    -0.224 NA
BRANCH  15  20
HETATM   20  C2  UNL     1      -3.668  -1.193  -0.335  1.00  0.00     0.006 C 
HETATM   21  C1  UNL     1      -4.923  -1.373  -0.702  1.00  0.00     0.012 C 
ENDBRANCH  15  20
ENDBRANCH  12  14
ENDBRANCH   1  12
TORSDOF 3
