REMARK  7 active torsions:
REMARK  status: ('A' for Active; 'I' for Inactive)
REMARK    1  A    between atoms: C2_2  and  C3_3 
REMARK    2  A    between atoms: C4_4  and  C5_5 
REMARK    3  A    between atoms: C5_5  and  N1_7 
REMARK    4  A    between atoms: N1_7  and  C7_8 
REMARK    5  A    between atoms: C15_18  and  C16_19 
REMARK    6  A    between atoms: C16_19  and  O1_20 
REMARK    7  A    between atoms: O1_20  and  C17_21 
ROOT
HETATM    1  C7  UNL     1      -0.678  -0.631   0.056  1.00  0.00     0.134 A 
HETATM    2  N2  UNL     1      -0.529  -1.932   0.365  1.00  0.00    -0.224 NA
HETATM    3  C8  UNL     1       0.655  -2.555   0.494  1.00  0.00     0.235 A 
HETATM    4  N3  UNL     1       1.775  -1.837   0.305  1.00  0.00    -0.241 NA
HETATM    5  C9  UNL     1       1.648  -0.541  -0.003  1.00  0.00     0.076 A 
HETATM    6  C10 UNL     1       0.466   0.151  -0.149  1.00  0.00     0.020 A 
HETATM    7  C11 UNL     1       0.016   1.503  -0.464  1.00  0.00     0.072 A 
HETATM    8  C12 UNL     1       1.161   2.426  -0.567  1.00  0.00    -0.022 A 
HETATM    9  C13 UNL     1       2.481   2.493  -0.558  1.00  0.00    -0.003 A 
HETATM   10  C14 UNL     1       3.303   1.302  -0.395  1.00  0.00     0.011 A 
HETATM   11  C15 UNL     1       2.974   0.041  -0.165  1.00  0.00    -0.005 A 
ENDROOT
BRANCH   1  12
HETATM   12  N1  UNL     1      -2.048  -0.183  -0.032  1.00  0.00    -0.367 N 
HETATM   13  H10 UNL     1      -2.211   0.820  -0.271  1.00  0.00     0.161 HD
BRANCH  12  14
HETATM   14  C5  UNL     1      -3.183  -1.056   0.196  1.00  0.00     0.102 C 
HETATM   15  C6  UNL     1      -3.200  -1.624   1.611  1.00  0.00     0.036 C 
BRANCH  14  16
HETATM   16  C4  UNL     1      -4.431  -0.270   0.026  1.00  0.00    -0.002 C 
HETATM   17  C3  UNL     1      -4.626   0.663  -0.896  1.00  0.00    -0.003 C 
BRANCH  17  18
HETATM   18  C2  UNL     1      -5.852   1.437  -1.065  1.00  0.00    -0.010 C 
HETATM   19  C1  UNL     1      -5.974   2.348  -2.003  1.00  0.00     0.011 C 
ENDBRANCH  17  18
ENDBRANCH  14  16
ENDBRANCH  12  14
ENDBRANCH   1  12
BRANCH  11  20
HETATM   20  C16 UNL     1       4.106  -0.915  -0.057  1.00  0.00     0.209 C 
BRANCH  20  21
HETATM   21  O1  UNL     1       5.292  -0.160  -0.242  1.00  0.00    -0.379 OA
BRANCH  21  22
HETATM   22  C17 UNL     1       6.564  -0.673  -0.215  1.00  0.00     0.150 C 
HETATM   23  C18 UNL     1       7.435  -1.580   0.164  1.00  0.00     0.037 C 
ENDBRANCH  21  22
ENDBRANCH  20  21
ENDBRANCH  11  20
TORSDOF 7
