REMARK  7 active torsions:
REMARK  status: ('A' for Active; 'I' for Inactive)
REMARK    1  A    between atoms: C2_2  and  C3_3 
REMARK    2  A    between atoms: C4_4  and  C5_5 
REMARK    3  A    between atoms: C6_6  and  C7_7 
REMARK    4  A    between atoms: C7_7  and  C8_8 
REMARK    5  A    between atoms: C8_8  and  N1_10 
REMARK    6  A    between atoms: N1_10  and  C10_11 
REMARK    7  A    between atoms: C13_17  and  C14_18 
ROOT
HETATM    1  C10 UNL     1      -1.845  -0.117  -0.478  1.00  0.00     0.105 C 
HETATM    2  N2  UNL     1      -1.423   0.959   0.041  1.00  0.00    -0.229 NA
HETATM    3  C11 UNL     1      -1.919   2.007   0.749  1.00  0.00     0.230 C 
HETATM    4  N3  UNL     1      -3.013   2.193   1.455  1.00  0.00    -0.263 NA
HETATM    5  C12 UNL     1      -3.867   0.998   1.465  1.00  0.00     0.272 C 
HETATM    6  N4  UNL     1      -4.530   1.061   0.150  1.00  0.00    -0.372 N 
HETATM    7  C13 UNL     1      -5.241  -0.091  -0.222  1.00  0.00     0.032 C 
HETATM    8  C17 UNL     1      -4.243  -0.852  -0.600  1.00  0.00     0.010 C 
HETATM    9  C18 UNL     1      -2.857  -1.155  -0.840  1.00  0.00     0.107 C 
HETATM   10  H20 UNL     1      -4.713   1.653  -0.687  1.00  0.00     0.161 HD
ENDROOT
BRANCH   1  11
HETATM   11  N1  UNL     1      -0.570  -0.585  -1.026  1.00  0.00    -0.373 N 
HETATM   12  H16 UNL     1      -0.533  -1.245  -1.888  1.00  0.00     0.161 HD
BRANCH  11  13
HETATM   13  C8  UNL     1       0.767  -0.257  -0.529  1.00  0.00     0.082 C 
HETATM   14  C9  UNL     1       0.962  -0.694   0.887  1.00  0.00     0.032 C 
BRANCH  13  15
HETATM   15  C7  UNL     1       1.777  -0.957  -1.396  1.00  0.00     0.051 C 
BRANCH  15  16
HETATM   16  C6  UNL     1       3.162  -0.651  -1.021  1.00  0.00    -0.025 C 
HETATM   17  C5  UNL     1       3.754   0.084  -0.125  1.00  0.00    -0.004 C 
BRANCH  17  18
HETATM   18  C4  UNL     1       5.221   0.141  -0.052  1.00  0.00    -0.004 C 
HETATM   19  C3  UNL     1       5.780   0.900   0.873  1.00  0.00    -0.027 C 
BRANCH  19  20
HETATM   20  C2  UNL     1       7.250   0.966   0.958  1.00  0.00     0.022 C 
HETATM   21  C1  UNL     1       7.896   0.096  -0.099  1.00  0.00     0.009 C 
ENDBRANCH  19  20
ENDBRANCH  17  18
ENDBRANCH  15  16
ENDBRANCH  13  15
ENDBRANCH  11  13
ENDBRANCH   1  11
BRANCH   7  22
HETATM   22  C14 UNL     1      -6.659  -0.274  -0.170  1.00  0.00    -0.032 A 
HETATM   23  C15 UNL     1      -7.785  -0.981  -0.344  1.00  0.00    -0.013 A 
HETATM   24  C16 UNL     1      -7.909   0.357   0.181  1.00  0.00     0.068 A 
ENDBRANCH   7  22
TORSDOF 7
