REMARK  8 active torsions:
REMARK  status: ('A' for Active; 'I' for Inactive)
REMARK    1  A    between atoms: O1_2  and  C2_3 
REMARK    2  A    between atoms: C5_6  and  C6_7 
REMARK    3  A    between atoms: C6_7  and  N1_8 
REMARK    4  A    between atoms: C7_9  and  C8_10 
REMARK    5  A    between atoms: N4_15  and  C11_16 
REMARK    6  A    between atoms: C11_16  and  C13_18 
REMARK    7  A    between atoms: C14_19  and  C15_20 
REMARK    8  A    between atoms: C16_21  and  C17_22 
ROOT
HETATM    1  C8  UNL     1       0.008   0.498   1.266  1.00  0.00     0.236 A 
HETATM    2  N2  UNL     1      -0.618   0.342   2.552  1.00  0.00    -0.253 NA
HETATM    3  C9  UNL     1      -0.107   0.496   3.676  1.00  0.00     0.230 A 
HETATM    4  N3  UNL     1       1.271   0.887   3.972  1.00  0.00    -0.238 NA
HETATM    5  C10 UNL     1       1.943   1.081   2.853  1.00  0.00     0.208 A 
HETATM    6  N4  UNL     1       1.395   0.938   1.515  1.00  0.00    -0.341 N 
ENDROOT
BRANCH   1   7
HETATM    7  C7  UNL     1       0.068  -0.934   0.741  1.00  0.00     0.045 C 
HETATM    8  C6  UNL     1      -0.838  -1.832   0.361  1.00  0.00     0.016 C 
BRANCH   8   9
HETATM    9  C5  UNL     1      -2.284  -1.772   0.297  1.00  0.00    -0.015 A 
HETATM   10  C4  UNL     1      -3.104  -0.689   0.501  1.00  0.00     0.016 A 
HETATM   11  C3  UNL     1      -4.491  -0.737   0.424  1.00  0.00     0.037 A 
HETATM   12  C2  UNL     1      -5.071  -1.924   0.128  1.00  0.00     0.068 A 
HETATM   13  C19 UNL     1      -4.363  -3.109  -0.103  1.00  0.00     0.037 A 
HETATM   14  C18 UNL     1      -2.994  -2.945  -0.000  1.00  0.00     0.016 A 
BRANCH  12  15
HETATM   15  O1  UNL     1      -6.458  -1.951   0.053  1.00  0.00    -0.356 OA
HETATM   16  C1  UNL     1      -7.226  -3.099  -0.238  1.00  0.00     0.210 C 
ENDBRANCH  12  15
ENDBRANCH   8   9
BRANCH   8  17
HETATM   17  N1  UNL     1      -0.240  -3.091  -0.048  1.00  0.00    -0.302 NA
HETATM   18  H6  UNL     1      -0.332  -3.497   0.936  1.00  0.00     0.124 HD
HETATM   19  H7  UNL     1      -0.329  -3.493   0.921  1.00  0.00     0.124 HD
ENDBRANCH   8  17
ENDBRANCH   1   7
BRANCH   6  20
HETATM   20  C11 UNL     1       2.402   1.268   0.505  1.00  0.00     0.106 C 
HETATM   21  C12 UNL     1       3.378   0.200   0.217  1.00  0.00     0.037 C 
BRANCH  20  22
HETATM   22  C13 UNL     1       1.771   1.867  -0.679  1.00  0.00    -0.002 C 
HETATM   23  C14 UNL     1       2.607   2.511  -1.496  1.00  0.00    -0.002 C 
BRANCH  23  24
HETATM   24  C15 UNL     1       3.932   2.962  -1.837  1.00  0.00    -0.002 C 
HETATM   25  C16 UNL     1       4.413   3.639  -2.851  1.00  0.00     0.004 C 
BRANCH  25  26
HETATM   26  C17 UNL     1       5.846   3.889  -2.803  1.00  0.00     0.249 C 
HETATM   27  F1  UNL     1       6.502   3.386  -1.735  1.00  0.00    -0.251 F 
ENDBRANCH  25  26
ENDBRANCH  23  24
ENDBRANCH  20  22
ENDBRANCH   6  20
TORSDOF 8
