REMARK  3 active torsions:
REMARK  status: ('A' for Active; 'I' for Inactive)
REMARK    1  A    between atoms: C11_14  and  N3_15 
REMARK    2  A    between atoms: N3_15  and  C12_16 
REMARK    3  A    between atoms: C12_16  and  C13_17 
ROOT
HETATM    1  C1  UNL     1      -1.834  -2.933  -2.326  1.00  0.00     0.018 C 
HETATM    2  C2  UNL     1      -1.875  -1.758  -1.407  1.00  0.00    -0.013 C 
HETATM    3  C3  UNL     1      -0.821  -1.054  -0.830  1.00  0.00     0.050 A 
HETATM    4  C4  UNL     1      -1.174  -1.639   0.528  1.00  0.00     0.049 C 
HETATM    5  C5  UNL     1      -2.525  -1.120   0.960  1.00  0.00     0.009 C 
HETATM    6  C6  UNL     1      -3.047  -0.282   0.040  1.00  0.00     0.073 C 
HETATM    7  C7  UNL     1      -3.284  -1.283  -1.069  1.00  0.00     0.078 C 
HETATM    8  O1  UNL     1      -3.414   1.056  -0.245  1.00  0.00    -0.240 OA
HETATM    9  N1  UNL     1      -2.664   1.764  -1.193  1.00  0.00    -0.227 N 
HETATM   10  C8  UNL     1      -1.553   0.972  -1.579  1.00  0.00     0.246 A 
HETATM   11  N2  UNL     1      -1.603   0.444  -2.856  1.00  0.00    -0.224 NA
HETATM   12  C9  UNL     1      -0.607  -0.447  -3.241  1.00  0.00     0.129 A 
HETATM   13  C10 UNL     1      -0.129  -0.236  -1.983  1.00  0.00     0.003 A 
HETATM   14  C11 UNL     1       0.346   0.002  -0.669  1.00  0.00     0.165 A 
HETATM   15  N4  UNL     1      -0.732   0.886  -0.438  1.00  0.00    -0.216 NA
HETATM   16  H9  UNL     1      -3.157   2.659  -1.364  1.00  0.00     0.198 HD
ENDROOT
BRANCH  14  17
HETATM   17  N3  UNL     1       1.529  -0.598  -0.198  1.00  0.00    -0.387 N 
HETATM   18  H11 UNL     1       1.937  -1.205  -0.919  1.00  0.00     0.156 HD
BRANCH  17  19
HETATM   19  C12 UNL     1       2.285  -0.571   1.018  1.00  0.00     0.155 C 
BRANCH  19  20
HETATM   20  C13 UNL     1       2.706   0.844   1.244  1.00  0.00    -0.038 A 
HETATM   21  C14 UNL     1       3.916   1.327   0.730  1.00  0.00     0.009 A 
HETATM   22  C15 UNL     1       4.301   2.633   0.944  1.00  0.00     0.004 A 
HETATM   23  C16 UNL     1       3.525   3.518   1.664  1.00  0.00     0.042 A 
HETATM   24  C17 UNL     1       2.316   3.019   2.170  1.00  0.00     0.117 A 
HETATM   25  F1  UNL     1       1.533   3.864   2.884  1.00  0.00    -0.206 F 
HETATM   26  C18 UNL     1       1.918   1.721   1.967  1.00  0.00     0.051 A 
ENDBRANCH  19  20
ENDBRANCH  17  19
ENDBRANCH  14  17
TORSDOF 3
