REMARK  3 active torsions:
REMARK  status: ('A' for Active; 'I' for Inactive)
REMARK    1  A    between atoms: N1_8  and  C8_9 
REMARK    2  A    between atoms: C12_16  and  C13_17 
REMARK    3  A    between atoms: C16_20  and  O1_21 
ROOT
HETATM    1  C8  UNL     1      -2.115  -1.047   1.184  1.00  0.00     0.172 A 
HETATM    2  N2  UNL     1      -2.361  -1.922   2.145  1.00  0.00    -0.217 NA
HETATM    3  C9  UNL     1      -1.223  -2.583   2.758  1.00  0.00     0.238 A 
HETATM    4  N3  UNL     1       0.084  -2.586   2.653  1.00  0.00    -0.218 NA
HETATM    5  C10 UNL     1       0.736  -1.740   1.690  1.00  0.00     0.169 A 
HETATM    6  S1  UNL     1      -0.366  -0.718   0.684  1.00  0.00    -0.054 SA
HETATM    7  C11 UNL     1       0.791   0.088  -0.277  1.00  0.00     0.080 A 
HETATM    8  C12 UNL     1       1.972  -0.369   0.116  1.00  0.00     0.050 A 
HETATM    9  N4  UNL     1       1.986  -1.335   1.151  1.00  0.00    -0.334 N 
HETATM   10  H18 UNL     1       2.829  -1.785   1.564  1.00  0.00     0.168 HD
ENDROOT
BRANCH   1  11
HETATM   11  N1  UNL     1      -2.950  -0.229   0.376  1.00  0.00    -0.322 N 
HETATM   12  C2  UNL     1      -3.390  -0.766  -0.866  1.00  0.00     0.010 A 
HETATM   13  C1  UNL     1      -3.024  -2.117  -1.349  1.00  0.00     0.068 C 
HETATM   14  C3  UNL     1      -4.169  -0.025  -1.638  1.00  0.00     0.024 A 
HETATM   15  C4  UNL     1      -4.603   1.323  -1.279  1.00  0.00    -0.000 A 
HETATM   16  C5  UNL     1      -4.173   1.798  -0.106  1.00  0.00    -0.002 A 
HETATM   17  C6  UNL     1      -3.294   1.087   0.870  1.00  0.00     0.110 A 
HETATM   18  C7  UNL     1      -1.992   1.897   0.899  1.00  0.00     0.037 C 
ENDBRANCH   1  11
BRANCH   8  19
HETATM   19  C13 UNL     1       3.205   0.103  -0.494  1.00  0.00    -0.009 A 
HETATM   20  C14 UNL     1       3.187   1.031  -1.489  1.00  0.00     0.016 A 
HETATM   21  C15 UNL     1       4.350   1.485  -2.074  1.00  0.00     0.037 A 
HETATM   22  C16 UNL     1       5.600   1.022  -1.681  1.00  0.00     0.065 A 
HETATM   23  C17 UNL     1       5.644   0.084  -0.677  1.00  0.00     0.037 A 
HETATM   24  C18 UNL     1       4.463  -0.330  -0.134  1.00  0.00     0.016 A 
BRANCH  22  25
HETATM   25  O1  UNL     1       6.726   1.508  -2.297  1.00  0.00    -0.361 OA
HETATM   26  H15 UNL     1       7.438   1.958  -1.709  1.00  0.00     0.217 HD
ENDBRANCH  22  25
ENDBRANCH   8  19
TORSDOF 3
