REMARK  3 active torsions:
REMARK  status: ('A' for Active; 'I' for Inactive)
REMARK    1  A    between atoms: C12_12  and  O1_13 
REMARK    2  A    between atoms: N1_18  and  C18_21 
REMARK    3  A    between atoms: N2_20  and  C18_21 
ROOT
HETATM    1  C1  UNL     1      -1.691   2.602   0.560  1.00  0.00     0.048 C 
HETATM    2  C2  UNL     1      -1.326   1.120   0.562  1.00  0.00    -0.012 C 
HETATM    3  C3  UNL     1      -2.197   0.595   1.478  1.00  0.00    -0.012 C 
HETATM    4  C4  UNL     1      -2.527  -0.671   2.071  1.00  0.00     0.026 C 
HETATM    5  C5  UNL     1      -4.006  -0.953   1.748  1.00  0.00     0.018 C 
HETATM    6  C6  UNL     1      -1.795  -1.872   1.725  1.00  0.00    -0.021 C 
HETATM    7  C7  UNL     1      -0.818  -2.331   0.948  1.00  0.00     0.003 C 
HETATM    8  C8  UNL     1       0.070  -1.727  -0.036  1.00  0.00     0.217 C 
HETATM    9  C9  UNL     1       1.576  -2.011   0.223  1.00  0.00     0.038 C 
HETATM   10  C10 UNL     1       2.195  -1.541  -1.091  1.00  0.00    -0.014 C 
HETATM   11  C11 UNL     1       2.775  -0.870  -2.063  1.00  0.00     0.080 C 
HETATM   12  C12 UNL     1       3.186   0.547  -1.827  1.00  0.00     0.045 C 
HETATM   13  C13 UNL     1       3.289   1.670  -1.052  1.00  0.00     0.008 C 
HETATM   14  C14 UNL     1       2.634   1.204   0.245  1.00  0.00     0.081 C 
HETATM   15  C15 UNL     1       1.243   1.011   0.082  1.00  0.00     0.300 A 
HETATM   16  C16 UNL     1       0.205   0.969  -0.642  1.00  0.00     0.546 A 
HETATM   17  N1  UNL     1      -0.754   0.957  -1.581  1.00  0.00     0.247 N 
HETATM   18  C17 UNL     1      -0.265   1.123  -2.883  1.00  0.00     0.539 A 
HETATM   19  N2  UNL     1      -0.745   0.964  -1.645  1.00  0.00     0.247 N 
HETATM   20  C18 UNL     1      -0.125   0.924  -0.475  1.00  0.00     0.452 A 
HETATM   21  N3  UNL     1       0.166  -0.241   0.407  1.00  0.00     0.023 N 
HETATM   22  H21 UNL     1       0.210  -0.414   1.472  1.00  0.00     0.287 HD
ENDROOT
BRANCH  12  23
HETATM   23  O1  UNL     1       3.688   0.561  -3.159  1.00  0.00    -0.365 OA
HETATM   24  H16 UNL     1       3.149   1.045  -3.876  1.00  0.00     0.217 HD
ENDBRANCH  12  23
TORSDOF 3
