REMARK  2 active torsions:
REMARK  status: ('A' for Active; 'I' for Inactive)
REMARK    1  A    between atoms: C1_2  and  N2_3 
REMARK    2  A    between atoms: C15_19  and  O1_20 
ROOT
HETATM    1  N2  UNL     1       3.352  -0.227  -0.830  1.00  0.00    -0.224 NA
HETATM    2  C2  UNL     1       2.210   0.358  -0.754  1.00  0.00     0.140 A 
HETATM    3  N3  UNL     1       2.009   1.752  -0.529  1.00  0.00    -0.340 N 
HETATM    4  C3  UNL     1       0.605   2.094  -0.488  1.00  0.00     0.034 A 
HETATM    5  C4  UNL     1      -0.096   1.000  -0.681  1.00  0.00     0.045 A 
HETATM    6  C5  UNL     1       0.836  -0.100  -0.844  1.00  0.00     0.022 A 
HETATM    7  C6  UNL     1       0.365  -1.319  -0.983  1.00  0.00    -0.021 C 
HETATM    8  C7  UNL     1       1.410  -2.364  -1.057  1.00  0.00     0.009 C 
HETATM    9  C8  UNL     1       1.244  -3.525  -0.422  1.00  0.00    -0.015 C 
HETATM   10  C9  UNL     1       0.281  -4.150   0.487  1.00  0.00     0.106 C 
HETATM   11  S1  UNL     1      -0.700  -2.984   1.468  1.00  0.00    -0.126 SA
HETATM   12  C10 UNL     1      -1.422  -1.795   0.289  1.00  0.00     0.001 C 
HETATM   13  C11 UNL     1      -1.104  -1.536  -0.993  1.00  0.00     0.031 C 
HETATM   14  C12 UNL     1      -2.521  -0.968   0.736  1.00  0.00     0.018 C 
HETATM   15  C13 UNL     1      -3.284   0.057   1.041  1.00  0.00     0.004 C 
HETATM   16  C14 UNL     1      -3.237   1.537   1.003  1.00  0.00     0.036 C 
HETATM   17  C15 UNL     1      -2.692   2.745   0.764  1.00  0.00     0.065 C 
HETATM   18  C16 UNL     1      -1.423   3.252   0.252  1.00  0.00     0.039 C 
HETATM   19  C17 UNL     1      -0.192   3.287  -0.229  1.00  0.00     0.032 C 
HETATM   20  H3  UNL     1       2.753   2.487  -0.400  1.00  0.00     0.167 HD
ENDROOT
BRANCH   1  21
HETATM   21  C1  UNL     1       4.575   0.434  -0.702  1.00  0.00     0.225 C 
HETATM   22  N1  UNL     1       5.204   0.050   0.366  1.00  0.00    -0.293 NA
HETATM   23  H1  UNL     1       4.711  -0.673   0.944  1.00  0.00     0.187 HD
ENDBRANCH   1  21
BRANCH  17  24
HETATM   24  O1  UNL     1      -3.578   3.820   1.105  1.00  0.00    -0.361 OA
HETATM   25  H13 UNL     1      -3.664   3.985   2.108  1.00  0.00     0.217 HD
ENDBRANCH  17  24
TORSDOF 2
