REMARK  1 active torsions:
REMARK  status: ('A' for Active; 'I' for Inactive)
REMARK    1  A    between atoms: C8_8  and  O1_9 
ROOT
HETATM    1  C1  UNL     1       0.518   4.177  -0.066  1.00  0.00     0.048 C 
HETATM    2  C2  UNL     1       0.476   2.748   0.335  1.00  0.00    -0.062 C 
HETATM    3  C3  UNL     1       0.623   2.432   1.637  1.00  0.00     0.007 C 
HETATM    4  C4  UNL     1       0.860   1.054   2.137  1.00  0.00     0.010 C 
HETATM    5  C5  UNL     1       0.695  -0.155   1.555  1.00  0.00    -0.030 C 
HETATM    6  C6  UNL     1       1.747  -1.058   2.082  1.00  0.00     0.012 C 
HETATM    7  C7  UNL     1       2.601  -1.860   1.425  1.00  0.00     0.037 C 
HETATM    8  C8  UNL     1       3.004  -2.307   0.104  1.00  0.00     0.062 C 
HETATM    9  C9  UNL     1       2.705  -2.149  -1.205  1.00  0.00     0.015 C 
HETATM   10  C10 UNL     1       1.579  -1.206  -1.455  1.00  0.00     0.026 C 
HETATM   11  C11 UNL     1       0.866  -0.676  -2.483  1.00  0.00     0.028 C 
HETATM   12  C12 UNL     1      -0.195   0.254  -2.132  1.00  0.00     0.120 C 
HETATM   13  N1  UNL     1      -1.536  -0.453  -2.268  1.00  0.00    -0.366 N 
HETATM   14  C13 UNL     1      -2.627  -0.329  -1.273  1.00  0.00     0.123 C 
HETATM   15  C14 UNL     1      -3.173   0.700  -0.540  1.00  0.00     0.044 C 
HETATM   16  C15 UNL     1      -2.569   0.746   0.846  1.00  0.00     0.174 C 
HETATM   17  N2  UNL     1      -1.660  -0.283   1.152  1.00  0.00    -0.310 N 
HETATM   18  N3  UNL     1      -2.314  -1.551   1.397  1.00  0.00    -0.295 N 
HETATM   19  C16 UNL     1      -3.019  -2.206   0.253  1.00  0.00     0.225 C 
HETATM   20  N4  UNL     1      -3.192  -1.672  -1.006  1.00  0.00    -0.226 NA
HETATM   21  C17 UNL     1      -0.407  -0.350   0.543  1.00  0.00     0.166 C 
HETATM   22  C18 UNL     1      -0.105   0.572  -0.631  1.00  0.00    -0.028 C 
HETATM   23  C19 UNL     1       0.270   1.801  -0.784  1.00  0.00     0.014 C 
HETATM   24  H13 UNL     1      -2.090  -1.106  -2.852  1.00  0.00     0.161 HD
HETATM   25  H17 UNL     1      -2.416  -2.159   2.242  1.00  0.00     0.187 HD
ENDROOT
BRANCH   8  26
HETATM   26  O1  UNL     1       4.081  -3.223   0.276  1.00  0.00    -0.361 OA
HETATM   27  H8  UNL     1       3.964  -4.184   0.010  1.00  0.00     0.217 HD
ENDBRANCH   8  26
TORSDOF 1
