REMARK  2 active torsions:
REMARK  status: ('A' for Active; 'I' for Inactive)
REMARK    1  A    between atoms: O1_2  and  C2_3 
REMARK    2  A    between atoms: C2_3  and  C3_4 
ROOT
HETATM    1  C3  UNL     1       3.075   0.774  -0.684  1.00  0.00    -0.003 A 
HETATM    2  C4  UNL     1       3.539   1.851  -1.290  1.00  0.00     0.119 A 
HETATM    3  N1  UNL     1       2.789   2.936  -1.816  1.00  0.00    -0.288 N 
HETATM    4  N2  UNL     1       1.427   2.809  -1.654  1.00  0.00    -0.175 NA
HETATM    5  C5  UNL     1       0.846   1.815  -1.085  1.00  0.00     0.089 A 
HETATM    6  C6  UNL     1      -0.623   1.836  -0.994  1.00  0.00     0.032 C 
HETATM    7  C7  UNL     1      -1.413   2.448  -0.097  1.00  0.00    -0.004 C 
HETATM    8  C8  UNL     1      -2.817   2.721   0.348  1.00  0.00     0.113 C 
HETATM    9 CL1  UNL     1      -3.002   4.465   0.732  1.00  0.00    -0.120 Cl
HETATM   10  C9  UNL     1      -3.144   1.873   1.519  1.00  0.00     0.127 C 
HETATM   11  C10 UNL     1      -3.105   0.405   1.313  1.00  0.00     0.221 C 
HETATM   12  O2  UNL     1      -2.907   0.913   0.199  1.00  0.00    -0.273 OA
HETATM   13  N3  UNL     1      -2.941  -0.706   0.399  1.00  0.00    -0.352 N 
HETATM   14  C11 UNL     1      -2.719  -1.220  -0.992  1.00  0.00     0.128 C 
HETATM   15  C12 UNL     1      -1.591  -2.209  -1.038  1.00  0.00     0.052 C 
HETATM   16  C13 UNL     1      -0.709  -2.019   0.176  1.00  0.00     0.131 C 
HETATM   17  C14 UNL     1      -1.524  -2.430   1.378  1.00  0.00     0.052 C 
HETATM   18  C15 UNL     1      -2.970  -1.947   1.154  1.00  0.00     0.128 C 
HETATM   19  O3  UNL     1      -0.288  -0.701   0.334  1.00  0.00    -0.357 OA
HETATM   20  C16 UNL     1       1.027  -0.337   0.050  1.00  0.00     0.149 C 
HETATM   21  C17 UNL     1       1.627   0.685  -0.537  1.00  0.00     0.026 A 
HETATM   22  H7  UNL     1       3.286   3.731  -2.273  1.00  0.00     0.188 HD
ENDROOT
BRANCH   1  23
HETATM   23  C2  UNL     1       3.951  -0.310  -0.168  1.00  0.00     0.208 C 
BRANCH  23  24
HETATM   24  O1  UNL     1       3.840  -0.518   1.189  1.00  0.00    -0.391 OA
HETATM   25  C1  UNL     1       4.683  -1.549   1.630  1.00  0.00     0.201 C 
ENDBRANCH  23  24
ENDBRANCH   1  23
TORSDOF 2
