REMARK  4 active torsions:
REMARK  status: ('A' for Active; 'I' for Inactive)
REMARK    1  A    between atoms: O1_1  and  C1_2 
REMARK    2  A    between atoms: C4_5  and  C5_6 
REMARK    3  A    between atoms: N2_13  and  C11_14 
REMARK    4  A    between atoms: C11_14  and  C12_15 
ROOT
HETATM    1  C5  UNL     1      -1.398   0.178  -0.332  1.00  0.00     0.042 C 
HETATM    2  C6  UNL     1      -0.379  -0.462   0.237  1.00  0.00     0.036 C 
HETATM    3  C7  UNL     1       0.768  -0.072  -0.583  1.00  0.00     0.179 C 
HETATM    4  C8  UNL     1       0.230   0.307  -1.881  1.00  0.00     0.131 C 
HETATM    5  N1  UNL     1       0.922   0.142  -2.968  1.00  0.00    -0.244 NA
HETATM    6  C9  UNL     1       2.228  -0.450  -2.937  1.00  0.00     0.135 C 
HETATM    7  C10 UNL     1       2.713  -0.863  -1.752  1.00  0.00     0.106 C 
HETATM    8  N2  UNL     1       1.986  -0.758  -0.520  1.00  0.00    -0.369 N 
HETATM    9  N3  UNL     1      -1.120   0.716  -1.654  1.00  0.00    -0.342 N 
HETATM   10  H13 UNL     1      -1.677   1.264  -2.337  1.00  0.00     0.167 HD
ENDROOT
BRANCH   1  11
HETATM   11  C4  UNL     1      -2.839   0.230   0.029  1.00  0.00    -0.009 A 
HETATM   12  C3  UNL     1      -3.856   0.918  -0.595  1.00  0.00     0.016 A 
HETATM   13  C2  UNL     1      -5.141   0.841  -0.108  1.00  0.00     0.037 A 
HETATM   14  C1  UNL     1      -5.473   0.084   1.016  1.00  0.00     0.065 A 
HETATM   15  C18 UNL     1      -4.453  -0.602   1.637  1.00  0.00     0.037 A 
HETATM   16  C17 UNL     1      -3.158  -0.535   1.159  1.00  0.00     0.016 A 
BRANCH  14  17
HETATM   17  O1  UNL     1      -6.812   0.107   1.384  1.00  0.00    -0.361 OA
HETATM   18  H1  UNL     1      -7.543   0.199   0.706  1.00  0.00     0.217 HD
ENDBRANCH  14  17
ENDBRANCH   1  11
BRANCH   8  19
HETATM   19  C11 UNL     1       2.526  -1.345   0.679  1.00  0.00     0.162 C 
BRANCH  19  20
HETATM   20  C12 UNL     1       3.748  -0.643   1.150  1.00  0.00    -0.029 C 
HETATM   21  C13 UNL     1       5.041  -0.791   1.394  1.00  0.00    -0.017 C 
HETATM   22  C14 UNL     1       5.746   0.277   1.061  1.00  0.00     0.013 C 
HETATM   23  C15 UNL     1       4.813   1.350   1.468  1.00  0.00     0.002 C 
HETATM   24  C16 UNL     1       3.597   0.781   1.520  1.00  0.00     0.010 C 
ENDBRANCH  19  20
ENDBRANCH   8  19
TORSDOF 4
