REMARK  7 active torsions:
REMARK  status: ('A' for Active; 'I' for Inactive)
REMARK    1  A    between atoms: C4_6  and  O1_7 
REMARK    2  A    between atoms: O1_7  and  C5_8 
REMARK    3  A    between atoms: C5_8  and  C6_9 
REMARK    4  A    between atoms: C7_10  and  N2_11 
REMARK    5  A    between atoms: N2_11  and  C8_12 
REMARK    6  A    between atoms: C15_23  and  C16_24 
REMARK    7  A    between atoms: C16_24  and  C17_25 
ROOT
HETATM    1  C6  UNL     1       0.040   0.448   0.022  1.00  0.00     0.061 A 
HETATM    2  C7  UNL     1       1.310   0.408   0.555  1.00  0.00     0.143 A 
HETATM    3  N3  UNL     1       1.923   1.565   0.769  1.00  0.00    -0.223 NA
HETATM    4  C14 UNL     1       1.467   2.789   0.532  1.00  0.00     0.236 A 
HETATM    5  N4  UNL     1       0.244   2.802   0.018  1.00  0.00    -0.241 NA
HETATM    6  C15 UNL     1      -0.473   1.701  -0.241  1.00  0.00     0.076 A 
ENDROOT
BRANCH   2   7
HETATM    7  N2  UNL     1       2.010  -0.779   0.874  1.00  0.00    -0.340 N 
HETATM    8  H7  UNL     1       1.589  -1.690   0.647  1.00  0.00     0.167 HD
BRANCH   7   9
HETATM    9  C8  UNL     1       3.277  -0.903   1.494  1.00  0.00     0.035 A 
HETATM   10  C9  UNL     1       3.914   0.074   2.218  1.00  0.00     0.032 A 
HETATM   11  C10 UNL     1       5.153  -0.038   2.808  1.00  0.00     0.046 A 
HETATM   12  C11 UNL     1       5.803  -1.256   2.647  1.00  0.00     0.138 A 
HETATM   13  F1  UNL     1       7.025  -1.468   3.188  1.00  0.00    -0.204 F 
HETATM   14  C12 UNL     1       5.243  -2.318   1.928  1.00  0.00     0.074 A 
HETATM   15 CL1  UNL     1       6.056  -3.854   1.720  1.00  0.00    -0.081 Cl
HETATM   16  C13 UNL     1       4.004  -2.069   1.393  1.00  0.00     0.056 A 
ENDBRANCH   7   9
ENDBRANCH   2   7
BRANCH   1  17
HETATM   17  C5  UNL     1      -0.644  -0.640  -0.209  1.00  0.00     0.153 C 
BRANCH  17  18
HETATM   18  O1  UNL     1      -1.880  -0.907  -0.713  1.00  0.00    -0.354 OA
BRANCH  18  19
HETATM   19  C4  UNL     1      -2.193  -1.990  -1.503  1.00  0.00     0.158 C 
HETATM   20  C3  UNL     1      -3.615  -1.937  -2.094  1.00  0.00     0.051 C 
HETATM   21  C2  UNL     1      -4.135  -3.410  -1.872  1.00  0.00     0.115 C 
HETATM   22  N1  UNL     1      -2.905  -3.906  -1.378  1.00  0.00    -0.228 NA
HETATM   23  C1  UNL     1      -3.235  -2.824  -0.285  1.00  0.00    -0.055 A 
HETATM   24  O3  UNL     1      -2.248  -3.173  -0.544  1.00  0.00     0.000 OA
HETATM   25  B1  UNL     1      -3.757  -1.260   1.308  1.00  0.00     0.153 B 
ENDBRANCH  18  19
ENDBRANCH  17  18
ENDBRANCH   1  17
BRANCH   6  26
HETATM   26  C16 UNL     1      -1.670   1.905  -0.755  1.00  0.00     0.069 C 
BRANCH  26  27
HETATM   27  C17 UNL     1      -2.191   3.262  -1.025  1.00  0.00     0.069 A 
HETATM   28  C18 UNL     1      -1.481   4.374  -0.764  1.00  0.00     0.036 A 
HETATM   29  C19 UNL     1      -2.613   5.164  -1.273  1.00  0.00     0.206 A 
HETATM   30  O2  UNL     1      -3.283   3.943  -1.514  1.00  0.00    -0.348 OA
ENDBRANCH  26  27
ENDBRANCH   6  26
TORSDOF 7
