REMARK  6 active torsions:
REMARK  status: ('A' for Active; 'I' for Inactive)
REMARK    1  A    between atoms: N1_1  and  C1_2 
REMARK    2  A    between atoms: C2_3  and  C3_4 
REMARK    3  A    between atoms: C6_7  and  O1_8 
REMARK    4  A    between atoms: C11_13  and  N2_14 
REMARK    5  A    between atoms: N2_14  and  C12_15 
REMARK    6  A    between atoms: C12_15  and  C13_16 
ROOT
HETATM    1  C1  UNL     1       2.544   1.307  -1.445  1.00  0.00     0.304 A 
HETATM    2  C2  UNL     1       2.283   0.293  -0.384  1.00  0.00    -0.008 A 
HETATM    3  C9  UNL     1       0.979   0.105  -0.225  1.00  0.00     0.028 A 
HETATM    4  C10 UNL     1       0.235   0.956  -1.145  1.00  0.00     0.037 A 
HETATM    5  C11 UNL     1      -1.123   1.107  -1.345  1.00  0.00     0.137 A 
HETATM    6  N3  UNL     1      -1.520   1.988  -2.286  1.00  0.00    -0.224 NA
HETATM    7  C19 UNL     1      -0.594   2.683  -2.990  1.00  0.00     0.235 A 
HETATM    8  N4  UNL     1       0.741   2.541  -2.800  1.00  0.00    -0.243 NA
HETATM    9  C20 UNL     1       1.166   1.670  -1.869  1.00  0.00     0.087 A 
ENDROOT
BRANCH   5  10
HETATM   10  N2  UNL     1      -2.071   0.361  -0.588  1.00  0.00    -0.370 N 
HETATM   11  H10 UNL     1      -1.735  -0.299   0.119  1.00  0.00     0.161 HD
BRANCH  10  12
HETATM   12  C12 UNL     1      -3.486   0.557  -0.837  1.00  0.00     0.160 C 
BRANCH  12  13
HETATM   13  C13 UNL     1      -4.348  -0.281   0.020  1.00  0.00    -0.040 A 
HETATM   14  C14 UNL     1      -4.786  -1.550  -0.298  1.00  0.00     0.012 A 
HETATM   15  C15 UNL     1      -5.593  -2.196   0.628  1.00  0.00     0.043 A 
HETATM   16  C16 UNL     1      -5.946  -1.599   1.821  1.00  0.00     0.116 A 
HETATM   17  F1  UNL     1      -6.741  -2.269   2.703  1.00  0.00    -0.206 F 
HETATM   18  C17 UNL     1      -5.508  -0.327   2.143  1.00  0.00     0.043 A 
HETATM   19  C18 UNL     1      -4.707   0.313   1.223  1.00  0.00     0.012 A 
ENDBRANCH  12  13
ENDBRANCH  10  12
ENDBRANCH   5  10
BRANCH   2  20
HETATM   20  C3  UNL     1       3.346  -0.399   0.377  1.00  0.00    -0.027 A 
HETATM   21  C4  UNL     1       4.689  -0.125   0.130  1.00  0.00     0.015 A 
HETATM   22  C5  UNL     1       5.640  -0.816   0.887  1.00  0.00     0.037 A 
HETATM   23  C6  UNL     1       5.273  -1.750   1.860  1.00  0.00     0.065 A 
HETATM   24  C7  UNL     1       3.946  -2.004   2.087  1.00  0.00     0.037 A 
HETATM   25  C8  UNL     1       3.001  -1.322   1.340  1.00  0.00     0.015 A 
BRANCH  23  26
HETATM   26  O1  UNL     1       6.330  -2.358   2.533  1.00  0.00    -0.361 OA
HETATM   27  H6  UNL     1       7.079  -2.868   2.082  1.00  0.00     0.217 HD
ENDBRANCH  23  26
ENDBRANCH   2  20
BRANCH   1  28
HETATM   28  N1  UNL     1       3.101   2.523  -0.839  1.00  0.00     0.093 N 
HETATM   29  H1  UNL     1       2.822   3.309  -1.485  1.00  0.00     0.314 HD
HETATM   30  H2  UNL     1       2.726   2.663   0.119  1.00  0.00     0.314 HD
ENDBRANCH   1  28
TORSDOF 6
