REMARK  6 active torsions:
REMARK  status: ('A' for Active; 'I' for Inactive)
REMARK    1  A    between atoms: N1_2  and  C2_3 
REMARK    2  A    between atoms: C2_3  and  N2_4 
REMARK    3  A    between atoms: N2_4  and  C3_5 
REMARK    4  A    between atoms: C3_5  and  C4_6 
REMARK    5  A    between atoms: C12_15  and  C13_16 
REMARK    6  A    between atoms: C16_19  and  O1_20 
ROOT
HETATM    1  C2  UNL     1      -0.961  -1.051  -0.127  1.00  0.00     0.083 C 
HETATM    2  C10 UNL     1       0.198  -0.435   0.028  1.00  0.00     0.049 A 
HETATM    3  C11 UNL     1       1.432  -1.012   0.546  1.00  0.00     0.049 A 
HETATM    4  C12 UNL     1       2.374  -0.080   0.549  1.00  0.00     0.045 A 
HETATM    5  N3  UNL     1       1.846   1.145   0.047  1.00  0.00    -0.340 N 
HETATM    6  C19 UNL     1       0.468   0.959  -0.295  1.00  0.00     0.134 A 
HETATM    7  N4  UNL     1      -0.340   1.843  -0.779  1.00  0.00    -0.283 NA
HETATM    8  H16 UNL     1       2.392   2.029  -0.050  1.00  0.00     0.167 HD
HETATM    9  H17 UNL     1      -0.015   2.810  -0.963  1.00  0.00     0.188 HD
ENDROOT
BRANCH   1  10
HETATM   10  N1  UNL     1      -1.090  -2.431   0.232  1.00  0.00    -0.295 NA
HETATM   11  C1  UNL     1      -0.770  -3.375  -0.551  1.00  0.00     0.263 C 
ENDBRANCH   1  10
BRANCH   1  12
HETATM   12  N2  UNL     1      -2.082  -0.353  -0.647  1.00  0.00    -0.376 N 
HETATM   13  H3  UNL     1      -2.406  -0.053   0.297  1.00  0.00     0.161 HD
BRANCH  12  14
HETATM   14  C3  UNL     1      -2.802   0.017  -1.842  1.00  0.00     0.162 C 
BRANCH  14  15
HETATM   15  C4  UNL     1      -3.995   0.839  -1.464  1.00  0.00    -0.002 A 
HETATM   16  C5  UNL     1      -4.125   2.221  -1.594  1.00  0.00     0.012 A 
HETATM   17  C6  UNL     1      -5.312   2.806  -1.187  1.00  0.00     0.001 A 
HETATM   18  C7  UNL     1      -6.364   2.095  -0.664  1.00  0.00     0.003 A 
HETATM   19  C8  UNL     1      -6.233   0.727  -0.536  1.00  0.00     0.043 A 
HETATM   20  C9  UNL     1      -5.053   0.096  -0.934  1.00  0.00     0.124 A 
HETATM   21  F1  UNL     1      -5.063  -1.244  -0.752  1.00  0.00    -0.205 F 
ENDBRANCH  14  15
ENDBRANCH  12  14
ENDBRANCH   1  12
BRANCH   4  22
HETATM   22  C13 UNL     1       3.738  -0.316   1.007  1.00  0.00    -0.009 A 
HETATM   23  C14 UNL     1       4.085  -1.573   1.464  1.00  0.00     0.016 A 
HETATM   24  C15 UNL     1       5.367  -1.873   1.919  1.00  0.00     0.037 A 
HETATM   25  C16 UNL     1       6.336  -0.905   1.922  1.00  0.00     0.065 A 
HETATM   26  C17 UNL     1       5.963   0.343   1.459  1.00  0.00     0.037 A 
HETATM   27  C18 UNL     1       4.696   0.677   1.000  1.00  0.00     0.016 A 
BRANCH  25  28
HETATM   28  O1  UNL     1       7.623  -1.171   2.367  1.00  0.00    -0.361 OA
HETATM   29  H13 UNL     1       8.287  -0.456   2.558  1.00  0.00     0.217 HD
ENDBRANCH  25  28
ENDBRANCH   4  22
TORSDOF 6
