REMARK  3 active torsions:
REMARK  status: ('A' for Active; 'I' for Inactive)
REMARK    1  A    between atoms: O1_1  and  C1_2 
REMARK    2  A    between atoms: C8_9  and  C9_10 
REMARK    3  A    between atoms: C9_10  and  C10_11 
ROOT
HETATM    1  C1  UNL     1      -0.351   2.702  -0.400  1.00  0.00     0.066 A 
HETATM    2  C2  UNL     1      -1.708   2.926  -0.569  1.00  0.00     0.037 A 
HETATM    3  C3  UNL     1      -2.700   2.057  -0.989  1.00  0.00     0.012 A 
HETATM    4  C4  UNL     1      -2.279   0.769  -1.286  1.00  0.00    -0.029 A 
HETATM    5  C5  UNL     1      -0.864   0.631  -1.085  1.00  0.00    -0.016 A 
HETATM    6  C6  UNL     1       0.130   1.451  -0.678  1.00  0.00     0.049 A 
HETATM    7  C7  UNL     1      -0.384  -0.721  -1.323  1.00  0.00    -0.004 C 
HETATM    8  C8  UNL     1       0.389  -1.444  -0.593  1.00  0.00     0.049 C 
HETATM    9  N1  UNL     1      -0.409  -2.567  -0.177  1.00  0.00    -0.248 NA
HETATM   10  C16 UNL     1      -1.687  -2.593  -0.602  1.00  0.00     0.205 C 
HETATM   11  N2  UNL     1      -2.205  -1.567  -1.452  1.00  0.00    -0.367 N 
HETATM   12  C17 UNL     1      -1.154  -1.389  -2.537  1.00  0.00     0.165 C 
HETATM   13  C18 UNL     1      -3.136  -0.486  -1.703  1.00  0.00     0.163 C 
ENDROOT
BRANCH   8  14
HETATM   14  C9  UNL     1       1.617  -0.830  -0.466  1.00  0.00     0.101 C 
BRANCH  14  15
HETATM   15  C10 UNL     1       1.880  -0.724   1.006  1.00  0.00    -0.014 A 
HETATM   16  C11 UNL     1       1.025  -0.991   2.064  1.00  0.00     0.010 A 
HETATM   17  C12 UNL     1       1.491  -0.830   3.345  1.00  0.00     0.001 A 
HETATM   18  C13 UNL     1       2.763  -0.420   3.689  1.00  0.00     0.003 A 
HETATM   19  C14 UNL     1       3.637  -0.149   2.613  1.00  0.00     0.043 A 
HETATM   20  C15 UNL     1       3.149  -0.316   1.338  1.00  0.00     0.123 A 
HETATM   21  F1  UNL     1       4.073  -0.024   0.390  1.00  0.00    -0.206 F 
ENDBRANCH  14  15
ENDBRANCH   8  14
BRANCH   1  22
HETATM   22  O1  UNL     1       0.413   3.760   0.041  1.00  0.00    -0.361 OA
HETATM   23  H1  UNL     1       0.051   4.678   0.191  1.00  0.00     0.217 HD
ENDBRANCH   1  22
TORSDOF 3
