REMARK  6 active torsions:
REMARK  status: ('A' for Active; 'I' for Inactive)
REMARK    1  A    between atoms: C3_6  and  C4_7 
REMARK    2  A    between atoms: C7_10  and  O1_11 
REMARK    3  A    between atoms: C11_15  and  C12_16 
REMARK    4  A    between atoms: C12_16  and  N4_17 
REMARK    5  A    between atoms: N4_17  and  C13_18 
REMARK    6  A    between atoms: C13_18  and  C14_19 
ROOT
HETATM    1  N1  UNL     1      -2.766  -0.880  -3.495  1.00  0.00    -0.170 NA
HETATM    2  C1  UNL     1      -1.634  -1.006  -3.286  1.00  0.00     0.208 C 
HETATM    3  N2  UNL     1      -0.277  -1.178  -3.029  1.00  0.00    -0.155 NA
HETATM    4  C2  UNL     1       0.364  -0.685  -2.042  1.00  0.00     0.151 A 
HETATM    5  N3  UNL     1       1.771  -0.900  -1.829  1.00  0.00    -0.339 N 
HETATM    6  C3  UNL     1       2.148  -0.204  -0.644  1.00  0.00     0.045 A 
HETATM    7  C10 UNL     1       1.135   0.439  -0.066  1.00  0.00     0.047 A 
HETATM    8  C11 UNL     1      -0.005   0.157  -0.922  1.00  0.00     0.028 A 
HETATM    9  H1  UNL     1       2.418  -1.462  -2.425  1.00  0.00     0.167 HD
ENDROOT
BRANCH   8  10
HETATM   10  C12 UNL     1      -1.219   0.613  -0.701  1.00  0.00     0.098 C 
BRANCH  10  11
HETATM   11  N4  UNL     1      -1.613   1.437   0.382  1.00  0.00    -0.394 N 
HETATM   12  H9  UNL     1      -1.291   2.433   0.288  1.00  0.00     0.159 HD
BRANCH  11  13
HETATM   13  C13 UNL     1      -2.397   0.888   1.499  1.00  0.00     0.160 C 
BRANCH  13  14
HETATM   14  C14 UNL     1      -3.651   0.377   0.864  1.00  0.00    -0.002 A 
HETATM   15  C15 UNL     1      -3.818  -0.980   0.676  1.00  0.00     0.012 A 
HETATM   16  C16 UNL     1      -4.977  -1.445   0.089  1.00  0.00     0.001 A 
HETATM   17  C17 UNL     1      -5.943  -0.536  -0.296  1.00  0.00     0.003 A 
HETATM   18  C18 UNL     1      -5.760   0.833  -0.100  1.00  0.00     0.043 A 
HETATM   19  C19 UNL     1      -4.607   1.313   0.485  1.00  0.00     0.124 A 
HETATM   20  F1  UNL     1      -4.476   2.649   0.654  1.00  0.00    -0.205 F 
ENDBRANCH  13  14
ENDBRANCH  11  13
ENDBRANCH  10  11
ENDBRANCH   8  10
BRANCH   6  21
HETATM   21  C4  UNL     1       3.505  -0.191  -0.112  1.00  0.00    -0.009 A 
HETATM   22  C5  UNL     1       3.825   0.501   1.038  1.00  0.00     0.016 A 
HETATM   23  C6  UNL     1       5.116   0.494   1.516  1.00  0.00     0.037 A 
HETATM   24  C7  UNL     1       6.140  -0.174   0.908  1.00  0.00     0.065 A 
HETATM   25  C8  UNL     1       5.843  -0.876  -0.248  1.00  0.00     0.037 A 
HETATM   26  C9  UNL     1       4.540  -0.866  -0.726  1.00  0.00     0.016 A 
BRANCH  24  27
HETATM   27  O1  UNL     1       7.453  -0.207   1.354  1.00  0.00    -0.361 OA
HETATM   28  H4  UNL     1       7.863   0.517   1.897  1.00  0.00     0.217 HD
ENDBRANCH  24  27
ENDBRANCH   6  21
TORSDOF 6
