REMARK  6 active torsions:
REMARK  status: ('A' for Active; 'I' for Inactive)
REMARK    1  A    between atoms: O1_2  and  C2_3 
REMARK    2  A    between atoms: C7_8  and  N1_10 
REMARK    3  A    between atoms: N1_10  and  C8_11 
REMARK    4  A    between atoms: C10_13  and  N2_14 
REMARK    5  A    between atoms: N2_14  and  C11_15 
REMARK    6  A    between atoms: C11_15  and  C12_16 
ROOT
HETATM    1  C8  UNL     1      -0.858  -0.088  -0.605  1.00  0.00     0.131 A 
HETATM    2  C9  UNL     1       0.102  -1.070  -0.674  1.00  0.00     0.100 A 
HETATM    3  C10 UNL     1       1.244  -1.070   0.100  1.00  0.00     0.128 A 
HETATM    4  N3  UNL     1       1.321  -0.029   0.913  1.00  0.00    -0.225 NA
HETATM    5  C18 UNL     1       0.413   0.954   1.018  1.00  0.00     0.237 A 
HETATM    6  N4  UNL     1      -0.689   0.932   0.256  1.00  0.00    -0.225 NA
ENDROOT
BRANCH   1   7
HETATM    7  N1  UNL     1      -2.021  -0.139  -1.434  1.00  0.00    -0.334 N 
HETATM    8  H9  UNL     1      -2.106  -0.959  -2.102  1.00  0.00     0.164 HD
BRANCH   7   9
HETATM    9  C7  UNL     1      -3.039   0.887  -1.364  1.00  0.00     0.227 C 
HETATM   10  C2  UNL     1      -3.642   0.928  -0.010  1.00  0.00     0.215 C 
HETATM   11  C3  UNL     1      -4.891   0.102  -0.187  1.00  0.00    -0.039 C 
HETATM   12  C4  UNL     1      -5.784  -0.769   0.632  1.00  0.00     0.047 C 
HETATM   13  C5  UNL     1      -5.149   0.297  -1.462  1.00  0.00    -0.020 C 
HETATM   14  C6  UNL     1      -4.148   0.468  -2.280  1.00  0.00     0.054 C 
HETATM   15  F1  UNL     1      -2.485   2.082  -1.765  1.00  0.00    -0.211 F 
BRANCH  10  16
HETATM   16  O1  UNL     1      -3.933   2.187   0.462  1.00  0.00    -0.381 OA
HETATM   17  C1  UNL     1      -3.357   2.549   1.646  1.00  0.00     0.202 C 
ENDBRANCH  10  16
ENDBRANCH   7   9
ENDBRANCH   1   7
BRANCH   3  18
HETATM   18  N2  UNL     1       2.191  -2.113  -0.020  1.00  0.00    -0.370 N 
HETATM   19  H11 UNL     1       1.975  -2.881  -0.717  1.00  0.00     0.161 HD
BRANCH  18  20
HETATM   20  C11 UNL     1       3.436  -2.265   0.699  1.00  0.00     0.160 C 
BRANCH  20  21
HETATM   21  C12 UNL     1       4.306  -1.127   0.395  1.00  0.00    -0.041 A 
HETATM   22  C13 UNL     1       5.063  -1.351  -0.761  1.00  0.00     0.009 A 
HETATM   23  C14 UNL     1       5.967  -0.401  -1.234  1.00  0.00     0.001 A 
HETATM   24  C15 UNL     1       6.138   0.795  -0.568  1.00  0.00     0.000 A 
HETATM   25  C16 UNL     1       5.397   1.002   0.553  1.00  0.00     0.001 A 
HETATM   26  C17 UNL     1       4.498   0.075   1.036  1.00  0.00     0.009 A 
ENDBRANCH  20  21
ENDBRANCH  18  20
ENDBRANCH   3  18
TORSDOF 6
