REMARK  5 active torsions:
REMARK  status: ('A' for Active; 'I' for Inactive)
REMARK    1  A    between atoms: C2_2  and  C3_3 
REMARK    2  A    between atoms: C3_3  and  C4_4 
REMARK    3  A    between atoms: C5_5  and  C6_6 
REMARK    4  A    between atoms: C5_5  and  C7_8 
REMARK    5  A    between atoms: C7_8  and  N1_9 
ROOT
HETATM    1  N1  UNL     1       0.350  -0.724  -0.070  1.00  0.00     0.113 N 
HETATM    2  C8  UNL     1       0.209  -1.615  -1.175  1.00  0.00     0.417 C 
HETATM    3  N2  UNL     1      -1.216  -1.994  -1.329  1.00  0.00    -0.272 NA
HETATM    4  C9  UNL     1      -2.092  -2.077  -0.475  1.00  0.00     0.232 C 
HETATM    5  N3  UNL     1      -3.000  -2.112   0.712  1.00  0.00    -0.399 NA
HETATM    6  C10 UNL     1      -3.306  -0.978   1.320  1.00  0.00     0.409 C 
HETATM    7  N4  UNL     1      -2.542  -0.106   0.484  1.00  0.00    -0.388 N 
HETATM    8  C11 UNL     1      -1.709   0.702  -0.390  1.00  0.00     0.047 C 
HETATM    9  C12 UNL     1      -2.180   0.474  -1.848  1.00  0.00     0.116 C 
HETATM   10  C13 UNL     1      -2.637   1.628  -2.442  1.00  0.00    -0.018 C 
HETATM   11  C14 UNL     1      -2.885   3.100  -2.218  1.00  0.00     0.003 C 
HETATM   12  C15 UNL     1      -2.488   3.238  -0.936  1.00  0.00    -0.058 C 
HETATM   13  C16 UNL     1      -2.658   4.655  -0.533  1.00  0.00     0.048 C 
HETATM   14  C17 UNL     1      -2.024   2.158  -0.010  1.00  0.00    -0.051 C 
HETATM   15  C18 UNL     1      -1.972   2.714   1.219  1.00  0.00     0.041 C 
HETATM   16  C19 UNL     1      -0.237   0.546  -0.203  1.00  0.00     0.303 C 
HETATM   17  H13 UNL     1      -3.368   0.361   0.961  1.00  0.00     0.156 HD
ENDROOT
BRANCH   1  18
HETATM   18  C7  UNL     1       1.776  -0.454   0.228  1.00  0.00     0.311 C 
BRANCH  18  19
HETATM   19  C5  UNL     1       2.484  -1.657   0.729  1.00  0.00    -0.023 C 
HETATM   20  C4  UNL     1       3.507  -1.880  -0.053  1.00  0.00     0.015 C 
BRANCH  20  21
HETATM   21  C3  UNL     1       4.356  -3.019   0.324  1.00  0.00     0.051 C 
BRANCH  21  22
HETATM   22  C2  UNL     1       5.482  -2.657   0.897  1.00  0.00    -0.155 C 
HETATM   23  C1  UNL     1       6.632  -2.053   1.205  1.00  0.00     0.096 C 
ENDBRANCH  21  22
ENDBRANCH  20  21
BRANCH  19  24
HETATM   24  C6  UNL     1       1.639  -1.979   1.898  1.00  0.00     0.258 C 
HETATM   25  F1  UNL     1       1.526  -0.999   2.830  1.00  0.00    -0.251 F 
ENDBRANCH  19  24
ENDBRANCH  18  19
ENDBRANCH   1  18
TORSDOF 5
