REMARK  4 active torsions:
REMARK  status: ('A' for Active; 'I' for Inactive)
REMARK    1  A    between atoms: O1_1  and  C1_2 
REMARK    2  A    between atoms: C4_5  and  C5_6 
REMARK    3  A    between atoms: N2_13  and  C11_14 
REMARK    4  A    between atoms: C11_14  and  C12_15 
ROOT
HETATM    1  C5  UNL     1      -2.020   0.002   0.431  1.00  0.00     0.039 C 
HETATM    2  C6  UNL     1      -1.274  -0.125   1.504  1.00  0.00     0.032 C 
HETATM    3  C7  UNL     1       0.185  -0.362   1.546  1.00  0.00     0.031 C 
HETATM    4  C8  UNL     1       0.779  -0.491   0.396  1.00  0.00     0.058 A 
HETATM    5  C9  UNL     1      -0.027  -0.440  -0.826  1.00  0.00     0.176 A 
HETATM    6  C10 UNL     1       0.918  -0.353  -1.919  1.00  0.00     0.143 A 
HETATM    7  N1  UNL     1       2.130  -0.429  -1.454  1.00  0.00    -0.186 NA
HETATM    8  N2  UNL     1       2.128  -0.536  -0.052  1.00  0.00    -0.271 N 
HETATM    9  N3  UNL     1      -1.287   0.145  -0.823  1.00  0.00    -0.374 N 
HETATM   10  H14 UNL     1      -1.656   0.640  -1.664  1.00  0.00     0.160 HD
ENDROOT
BRANCH   1  11
HETATM   11  C4  UNL     1      -3.454   0.214   0.390  1.00  0.00    -0.010 A 
HETATM   12  C3  UNL     1      -4.200   0.306   1.521  1.00  0.00     0.016 A 
HETATM   13  C2  UNL     1      -5.566   0.507   1.519  1.00  0.00     0.037 A 
HETATM   14  C1  UNL     1      -6.258   0.627   0.338  1.00  0.00     0.065 A 
HETATM   15  C18 UNL     1      -5.514   0.535  -0.820  1.00  0.00     0.037 A 
HETATM   16  C17 UNL     1      -4.150   0.334  -0.779  1.00  0.00     0.016 A 
BRANCH  14  17
HETATM   17  O1  UNL     1      -7.621   0.828   0.322  1.00  0.00    -0.361 OA
HETATM   18  H1  UNL     1      -8.241   0.118  -0.042  1.00  0.00     0.217 HD
ENDBRANCH  14  17
ENDBRANCH   1  11
BRANCH   8  19
HETATM   19  C11 UNL     1       3.264  -0.672   0.844  1.00  0.00     0.163 C 
BRANCH  19  20
HETATM   20  C12 UNL     1       4.513  -0.680  -0.021  1.00  0.00     0.054 A 
HETATM   21  C13 UNL     1       5.741  -0.817   0.826  1.00  0.00    -0.013 A 
HETATM   22  C14 UNL     1       6.503   0.254   0.661  1.00  0.00     0.038 A 
HETATM   23  C15 UNL     1       5.847   1.166  -0.292  1.00  0.00     0.113 A 
HETATM   24  F1  UNL     1       6.525   2.309  -0.553  1.00  0.00    -0.206 F 
HETATM   25  C16 UNL     1       4.703   0.633  -0.686  1.00  0.00     0.025 A 
ENDBRANCH  19  20
ENDBRANCH   8  19
TORSDOF 4
