REMARK  3 active torsions:
REMARK  status: ('A' for Active; 'I' for Inactive)
REMARK    1  A    between atoms: O1_2  and  C2_3 
REMARK    2  A    between atoms: C4_5  and  C5_6 
REMARK    3  A    between atoms: C21_28  and  N4_29 
ROOT
HETATM    1  C2  UNL     1      -0.426   2.256   0.639  1.00  0.00     0.069 C 
HETATM    2  C3  UNL     1      -0.956   1.039   0.398  1.00  0.00     0.046 C 
HETATM    3  C4  UNL     1      -1.345  -0.336   0.033  1.00  0.00     0.180 C 
HETATM    4  O2  UNL     1      -1.296  -1.209   1.077  1.00  0.00    -0.372 OA
HETATM    5  C11 UNL     1      -0.519  -2.307   0.960  1.00  0.00     0.126 C 
HETATM    6  C12 UNL     1       0.125  -2.629  -0.337  1.00  0.00     0.051 C 
HETATM    7  C13 UNL     1       1.435  -1.975  -0.624  1.00  0.00     0.120 C 
HETATM    8  N1  UNL     1       2.024  -1.222   0.401  1.00  0.00    -0.401 N 
HETATM    9  C14 UNL     1       1.736  -1.543   1.747  1.00  0.00     0.120 C 
HETATM   10  C15 UNL     1       0.564  -2.393   2.035  1.00  0.00     0.051 C 
HETATM   11  C16 UNL     1       2.547   0.051   0.154  1.00  0.00     0.154 C 
HETATM   12  C17 UNL     1       1.974   0.885  -0.931  1.00  0.00     0.092 C 
HETATM   13  C18 UNL     1       1.997   2.303  -0.394  1.00  0.00     0.041 C 
HETATM   14  C19 UNL     1       0.895   2.721   0.243  1.00  0.00     0.063 C 
HETATM   15  N2  UNL     1       3.208   3.065  -0.561  1.00  0.00    -0.246 NA
HETATM   16  C20 UNL     1       4.419   2.551  -0.348  1.00  0.00     0.235 C 
HETATM   17  N3  UNL     1       4.751   1.142  -0.423  1.00  0.00    -0.227 NA
HETATM   18  C21 UNL     1       4.044   0.100  -0.056  1.00  0.00     0.122 C 
ENDROOT
BRANCH   3  19
HETATM   19  C5  UNL     1      -2.712  -0.363  -0.642  1.00  0.00    -0.024 A 
HETATM   20  C6  UNL     1      -3.323  -1.589  -0.780  1.00  0.00     0.013 A 
HETATM   21  C7  UNL     1      -4.544  -1.777  -1.370  1.00  0.00     0.044 A 
HETATM   22  C8  UNL     1      -5.209  -0.687  -1.857  1.00  0.00     0.138 A 
HETATM   23  F1  UNL     1      -6.427  -0.751  -2.463  1.00  0.00    -0.204 F 
HETATM   24  C9  UNL     1      -4.618   0.560  -1.731  1.00  0.00     0.073 A 
HETATM   25 CL1  UNL     1      -5.364   2.041  -2.313  1.00  0.00    -0.081 Cl
HETATM   26  C10 UNL     1      -3.390   0.732  -1.135  1.00  0.00     0.037 A 
ENDBRANCH   3  19
BRANCH   1  27
HETATM   27  O1  UNL     1      -1.055   3.336   1.338  1.00  0.00    -0.356 OA
HETATM   28  C1  UNL     1      -2.278   3.798   0.809  1.00  0.00     0.210 C 
ENDBRANCH   1  27
BRANCH  18  29
HETATM   29  N4  UNL     1       4.837  -1.069   0.148  1.00  0.00    -0.386 N 
HETATM   30  H23 UNL     1       4.891  -1.436   1.112  1.00  0.00     0.157 HD
HETATM   31  H24 UNL     1       5.351  -1.553  -0.627  1.00  0.00     0.157 HD
ENDBRANCH  18  29
TORSDOF 3
