REMARK  5 active torsions:
REMARK  status: ('A' for Active; 'I' for Inactive)
REMARK    1  A    between atoms: C2_2  and  C3_3 
REMARK    2  A    between atoms: C3_3  and  N4_15 
REMARK    3  A    between atoms: C4_4  and  C5_5 
REMARK    4  A    between atoms: N4_15  and  C12_16 
REMARK    5  A    between atoms: C12_16  and  C13_17 
ROOT
HETATM    1  C3  UNL     1      -0.454   0.914   0.703  1.00  0.00     0.024 C 
HETATM    2  C4  UNL     1       0.634   0.223   0.470  1.00  0.00     0.031 C 
ENDROOT
BRANCH   1   3
HETATM    3  C2  UNL     1      -0.367   2.355   0.889  1.00  0.00     0.003 C 
HETATM    4  C1  UNL     1      -1.440   3.127   1.130  1.00  0.00     0.033 C 
ENDBRANCH   1   3
BRANCH   1   5
HETATM    5  N4  UNL     1      -1.750   0.333   0.788  1.00  0.00    -0.386 N 
HETATM    6  H11 UNL     1      -1.621   0.096   1.790  1.00  0.00     0.160 HD
BRANCH   5   7
HETATM    7  C12 UNL     1      -2.538   0.342  -0.407  1.00  0.00     0.161 C 
BRANCH   7   8
HETATM    8  C13 UNL     1      -3.876  -0.266  -0.266  1.00  0.00    -0.002 A 
HETATM    9  C14 UNL     1      -4.578  -0.216  -1.464  1.00  0.00     0.012 A 
HETATM   10  C15 UNL     1      -5.871  -0.735  -1.563  1.00  0.00     0.001 A 
HETATM   11  C16 UNL     1      -6.476  -1.313  -0.451  1.00  0.00     0.003 A 
HETATM   12  C17 UNL     1      -5.743  -1.347   0.736  1.00  0.00     0.043 A 
HETATM   13  C18 UNL     1      -4.468  -0.832   0.821  1.00  0.00     0.124 A 
HETATM   14  F1  UNL     1      -3.710  -0.833   1.933  1.00  0.00    -0.205 F 
ENDBRANCH   7   8
ENDBRANCH   5   7
ENDBRANCH   1   5
BRANCH   2  15
HETATM   15  C5  UNL     1       1.909   0.928   0.405  1.00  0.00     0.027 C 
HETATM   16  C6  UNL     1       3.039   0.286   0.173  1.00  0.00     0.015 A 
HETATM   17  C7  UNL     1       4.422   0.826   0.072  1.00  0.00     0.101 A 
HETATM   18  N3  UNL     1       3.173  -1.131  -0.037  1.00  0.00    -0.344 N 
HETATM   19  C8  UNL     1       5.260  -0.347  -0.195  1.00  0.00     0.011 A 
HETATM   20  C9  UNL     1       6.632  -0.367  -0.372  1.00  0.00     0.129 A 
HETATM   21  C11 UNL     1       4.532  -1.498  -0.260  1.00  0.00     0.137 A 
HETATM   22  N1  UNL     1       7.221  -1.568  -0.611  1.00  0.00    -0.253 NA
HETATM   23  C10 UNL     1       6.479  -2.709  -0.673  1.00  0.00     0.234 A 
HETATM   24  N2  UNL     1       5.156  -2.655  -0.497  1.00  0.00    -0.224 NA
HETATM   25  H10 UNL     1       2.410  -1.860  -0.040  1.00  0.00     0.167 HD
ENDBRANCH   2  15
TORSDOF 5
