REMARK  5 active torsions:
REMARK  status: ('A' for Active; 'I' for Inactive)
REMARK    1  A    between atoms: C2_2  and  C3_3 
REMARK    2  A    between atoms: C10_11  and  C11_12 
REMARK    3  A    between atoms: C11_12  and  C12_13 
REMARK    4  A    between atoms: C12_13  and  C13_14 
REMARK    5  A    between atoms: C13_14  and  C14_15 
ROOT
HETATM    1  C3  UNL     1      -3.145   0.834   0.011  1.00  0.00     0.015 C 
HETATM    2  C4  UNL     1      -3.742   1.823  -0.688  1.00  0.00     0.025 C 
HETATM    3  C5  UNL     1      -3.076   2.488  -1.801  1.00  0.00     0.002 C 
HETATM    4  C6  UNL     1      -1.855   2.173  -2.242  1.00  0.00     0.022 C 
HETATM    5  C7  UNL     1      -1.129   1.076  -1.590  1.00  0.00     0.237 A 
HETATM    6  N1  UNL     1       0.281   1.092  -1.617  1.00  0.00    -0.271 NA
HETATM    7  C8  UNL     1       1.109   0.750  -0.719  1.00  0.00     0.130 A 
HETATM    8  C9  UNL     1       0.540   0.284   0.537  1.00  0.00     0.052 A 
HETATM    9  C10 UNL     1       1.374  -0.144   1.545  1.00  0.00     0.054 A 
HETATM   10  N2  UNL     1       0.829  -0.581   2.694  1.00  0.00    -0.245 NA
HETATM   11  C15 UNL     1      -0.503  -0.606   2.867  1.00  0.00     0.235 A 
HETATM   12  N3  UNL     1      -1.279  -0.180   1.860  1.00  0.00    -0.223 NA
HETATM   13  C16 UNL     1      -0.832   0.273   0.680  1.00  0.00     0.147 A 
HETATM   14  N4  UNL     1      -1.753   0.719  -0.346  1.00  0.00    -0.307 N 
ENDROOT
BRANCH   9  15
HETATM   15  C11 UNL     1       2.846  -0.155   1.442  1.00  0.00     0.087 C 
BRANCH  15  16
HETATM   16  C12 UNL     1       3.376  -1.258   0.625  1.00  0.00    -0.020 C 
BRANCH  16  17
HETATM   17  C13 UNL     1       4.116  -1.348  -0.446  1.00  0.00     0.009 C 
BRANCH  17  18
HETATM   18  C14 UNL     1       4.767  -0.430  -1.340  1.00  0.00    -0.018 A 
HETATM   19  O1  UNL     1       5.543  -0.531  -2.465  1.00  0.00     0.000 OA
HETATM   20  H15 UNL     1       6.192  -1.291  -2.655  1.00  0.00     0.000 HD
HETATM   21  P1  UNL     1       5.139   1.136  -1.798  1.00  0.00    -0.063 P 
HETATM   22  H16 UNL     1       4.656   2.271  -1.043  1.00  0.00     0.067 HD
ENDBRANCH  17  18
ENDBRANCH  16  17
ENDBRANCH  15  16
ENDBRANCH   9  15
BRANCH   1  23
HETATM   23  C2  UNL     1      -3.735   0.085   1.133  1.00  0.00     0.053 C 
HETATM   24  C1  UNL     1      -3.776  -1.411   0.918  1.00  0.00     0.011 C 
ENDBRANCH   1  23
TORSDOF 5
