REMARK  6 active torsions:
REMARK  status: ('A' for Active; 'I' for Inactive)
REMARK    1  A    between atoms: O1_1  and  C1_2 
REMARK    2  A    between atoms: C4_5  and  C5_6 
REMARK    3  A    between atoms: C5_6  and  N1_7 
REMARK    4  A    between atoms: C8_13  and  N5_14 
REMARK    5  A    between atoms: N5_14  and  C9_15 
REMARK    6  A    between atoms: C9_15  and  C10_16 
ROOT
HETATM    1  N1  UNL     1      -1.785  -1.966  -0.045  1.00  0.00    -0.366 N 
HETATM    2  C6  UNL     1      -2.620  -1.896  -1.190  1.00  0.00     0.227 C 
HETATM    3  N2  UNL     1      -2.754  -0.914  -2.003  1.00  0.00    -0.169 NA
HETATM    4  N3  UNL     1      -2.030   0.262  -1.811  1.00  0.00    -0.271 N 
HETATM    5  C7  UNL     1      -0.761   0.122  -1.199  1.00  0.00     0.227 C 
HETATM    6  N4  UNL     1      -0.398  -0.045   0.070  1.00  0.00    -0.226 NA
HETATM    7  C8  UNL     1       0.983  -0.157   0.370  1.00  0.00     0.122 C 
HETATM    8  C16 UNL     1       0.579  -1.410   0.293  1.00  0.00     0.043 C 
HETATM    9  C17 UNL     1      -0.422  -2.425   0.092  1.00  0.00     0.155 C 
HETATM   10  H7  UNL     1      -2.543   1.099  -2.157  1.00  0.00     0.190 HD
ENDROOT
BRANCH   7  11
HETATM   11  N5  UNL     1       2.271   0.350   0.642  1.00  0.00    -0.371 N 
HETATM   12  H9  UNL     1       2.555   0.808   1.542  1.00  0.00     0.161 HD
BRANCH  11  13
HETATM   13  C9  UNL     1       3.092   0.123  -0.509  1.00  0.00     0.160 C 
BRANCH  13  14
HETATM   14  C10 UNL     1       4.474   0.599  -0.205  1.00  0.00    -0.038 A 
HETATM   15  C11 UNL     1       5.058   1.833  -0.393  1.00  0.00     0.009 A 
HETATM   16  C12 UNL     1       6.364   2.042  -0.034  1.00  0.00     0.004 A 
HETATM   17  C13 UNL     1       7.156   1.069   0.520  1.00  0.00     0.042 A 
HETATM   18  C14 UNL     1       6.608  -0.189   0.726  1.00  0.00     0.117 A 
HETATM   19  F1  UNL     1       7.370  -1.154   1.267  1.00  0.00    -0.206 F 
HETATM   20  C15 UNL     1       5.278  -0.396   0.359  1.00  0.00     0.051 A 
ENDBRANCH  13  14
ENDBRANCH  11  13
ENDBRANCH   7  11
BRANCH   1  21
HETATM   21  C5  UNL     1      -2.719  -1.472   0.916  1.00  0.00     0.162 C 
BRANCH  21  22
HETATM   22  C4  UNL     1      -3.499  -0.284   0.674  1.00  0.00    -0.040 A 
HETATM   23  C3  UNL     1      -4.680  -0.547  -0.034  1.00  0.00     0.011 A 
HETATM   24  C2  UNL     1      -5.581   0.466  -0.341  1.00  0.00     0.037 A 
HETATM   25  C1  UNL     1      -5.339   1.767   0.042  1.00  0.00     0.065 A 
HETATM   26  C19 UNL     1      -4.179   2.078   0.747  1.00  0.00     0.037 A 
HETATM   27  C18 UNL     1      -3.312   1.047   1.032  1.00  0.00     0.011 A 
BRANCH  25  28
HETATM   28  O1  UNL     1      -6.211   2.817  -0.243  1.00  0.00    -0.361 OA
HETATM   29  H1  UNL     1      -7.210   2.730  -0.066  1.00  0.00     0.217 HD
ENDBRANCH  25  28
ENDBRANCH  21  22
ENDBRANCH   1  21
TORSDOF 6
