REMARK  4 active torsions:
REMARK  status: ('A' for Active; 'I' for Inactive)
REMARK    1  A    between atoms: C3_3  and  C4_4 
REMARK    2  A    between atoms: C4_4  and  C5_6 
REMARK    3  A    between atoms: C5_6  and  C6_7 
REMARK    4  A    between atoms: C9_13  and  C10_14 
ROOT
HETATM    1  C6  UNL     1       1.485   0.945   0.263  1.00  0.00     0.056 C 
HETATM    2  N1  UNL     1       2.103   2.082   0.755  1.00  0.00    -0.280 N 
HETATM    3  N2  UNL     1       1.792   3.282   0.081  1.00  0.00    -0.170 NA
HETATM    4  C7  UNL     1       0.829   3.250  -0.765  1.00  0.00     0.133 C 
HETATM    5  C8  UNL     1      -0.145   2.361  -0.636  1.00  0.00     0.057 A 
HETATM    6  N3  UNL     1      -1.530   2.137  -0.406  1.00  0.00    -0.356 N 
HETATM    7  C9  UNL     1      -1.750   0.733  -0.412  1.00  0.00     0.040 A 
HETATM    8  C16 UNL     1      -0.627   0.073  -0.626  1.00  0.00     0.020 A 
HETATM    9  C17 UNL     1       0.497   0.998  -0.794  1.00  0.00     0.115 A 
HETATM   10  H6  UNL     1       2.750   2.036   1.570  1.00  0.00     0.189 HD
HETATM   11  H7  UNL     1      -2.111   2.987  -0.281  1.00  0.00     0.166 HD
ENDROOT
BRANCH   1  12
HETATM   12  C5  UNL     1       1.806  -0.237   0.770  1.00  0.00     0.043 C 
BRANCH  12  13
HETATM   13  C4  UNL     1       2.442  -1.391   0.925  1.00  0.00     0.129 C 
HETATM   14  F1  UNL     1       1.751  -1.860   1.973  1.00  0.00    -0.205 F 
BRANCH  13  15
HETATM   15  C3  UNL     1       3.534  -1.775   0.064  1.00  0.00     0.039 C 
HETATM   16  C2  UNL     1       4.664  -1.058   0.004  1.00  0.00    -0.028 C 
HETATM   17  C1  UNL     1       5.770  -1.472  -0.888  1.00  0.00     0.036 C 
ENDBRANCH  13  15
ENDBRANCH  12  13
ENDBRANCH   1  12
BRANCH   7  18
HETATM   18  C10 UNL     1      -3.070   0.152  -0.202  1.00  0.00    -0.010 A 
HETATM   19  C11 UNL     1      -3.230  -1.212  -0.217  1.00  0.00     0.013 A 
HETATM   20  C12 UNL     1      -4.477  -1.780  -0.019  1.00  0.00     0.001 A 
HETATM   21  C13 UNL     1      -5.587  -0.991   0.197  1.00  0.00     0.000 A 
HETATM   22  C14 UNL     1      -5.465   0.398   0.220  1.00  0.00     0.001 A 
HETATM   23  C15 UNL     1      -4.202   0.906   0.017  1.00  0.00     0.013 A 
ENDBRANCH   7  18
TORSDOF 4
