REMARK  5 active torsions:
REMARK  status: ('A' for Active; 'I' for Inactive)
REMARK    1  A    between atoms: C2_2  and  N1_3 
REMARK    2  A    between atoms: N1_3  and  C3_4 
REMARK    3  A    between atoms: C7_9  and  C8_10 
REMARK    4  A    between atoms: C12_14  and  O1_15 
REMARK    5  A    between atoms: O1_15  and  N3_16 
ROOT
HETATM    1  C3  UNL     1       1.342  -0.539  -0.038  1.00  0.00     0.294 C 
HETATM    2  C4  UNL     1       2.224  -1.705  -0.082  1.00  0.00     0.124 C 
HETATM    3  N2  UNL     1       1.940  -2.419  -1.130  1.00  0.00    -0.299 NA
HETATM    4  C5  UNL     1       0.889  -2.005  -2.026  1.00  0.00     0.176 C 
HETATM    5  C6  UNL     1      -0.304  -1.583  -1.242  1.00  0.00     0.004 C 
HETATM    6  C7  UNL     1      -0.098  -0.812  -0.189  1.00  0.00    -0.022 C 
ENDROOT
BRANCH   6   7
HETATM    7  C8  UNL     1      -1.149  -0.315   0.678  1.00  0.00     0.017 C 
HETATM    8  C9  UNL     1      -2.458  -0.412   0.751  1.00  0.00    -0.054 A 
HETATM    9  C10 UNL     1      -3.104   0.303   1.862  1.00  0.00     0.010 A 
HETATM   10  C14 UNL     1      -3.330  -1.163  -0.169  1.00  0.00     0.068 A 
HETATM   11  C11 UNL     1      -4.391   0.340   2.126  1.00  0.00     0.039 A 
HETATM   12  C12 UNL     1      -5.313  -0.382   1.261  1.00  0.00     0.088 A 
HETATM   13  C13 UNL     1      -4.745  -1.019   0.269  1.00  0.00     0.016 A 
BRANCH  12  14
HETATM   14  O1  UNL     1      -6.683  -0.421   1.432  1.00  0.00    -0.267 OA
BRANCH  14  15
HETATM   15  N3  UNL     1      -7.437   0.394   0.605  1.00  0.00    -0.209 NA
HETATM   16  H13 UNL     1      -7.444   1.330   1.018  1.00  0.00     0.150 HD
HETATM   17  H14 UNL     1      -7.090   0.366  -0.386  1.00  0.00     0.150 HD
ENDBRANCH  14  15
ENDBRANCH  12  14
ENDBRANCH   6   7
BRANCH   1  18
HETATM   18  N1  UNL     1       1.722   0.524  -0.920  1.00  0.00     0.110 N 
HETATM   19  H4  UNL     1       0.983   1.223  -1.070  1.00  0.00     0.318 HD
BRANCH  18  20
HETATM   20  C2  UNL     1       3.006   1.096  -0.712  1.00  0.00     0.178 A 
HETATM   21  C1  UNL     1       3.182   2.200  -1.764  1.00  0.00     0.054 C 
HETATM   22  C15 UNL     1       4.127   0.161  -0.930  1.00  0.00     0.016 A 
HETATM   23  C16 UNL     1       4.927   0.076   0.118  1.00  0.00     0.025 A 
HETATM   24  C17 UNL     1       4.438   0.944   1.166  1.00  0.00     0.028 A 
HETATM   25  N4  UNL     1       4.832   1.156   2.376  1.00  0.00    -0.305 NA
HETATM   26  C18 UNL     1       3.249   1.691   0.634  1.00  0.00     0.103 A 
HETATM   27  H20 UNL     1       5.652   0.676   2.822  1.00  0.00     0.186 HD
ENDBRANCH  18  20
ENDBRANCH   1  18
TORSDOF 5
