REMARK  5 active torsions:
REMARK  status: ('A' for Active; 'I' for Inactive)
REMARK    1  A    between atoms: C3_3  and  S1_4 
REMARK    2  A    between atoms: S1_4  and  C4_5 
REMARK    3  A    between atoms: C4_5  and  C5_6 
REMARK    4  A    between atoms: C10_11  and  N1_12 
REMARK    5  A    between atoms: N1_12  and  C11_13 
ROOT
HETATM    1  C11 UNL     1      -1.784  -1.183   1.528  1.00  0.00     0.266 A 
HETATM    2  C12 UNL     1      -2.713  -0.444   2.392  1.00  0.00     0.083 A 
HETATM    3  N2  UNL     1      -3.112  -1.001   3.480  1.00  0.00    -0.244 NA
HETATM    4  C13 UNL     1      -2.634  -2.315   3.840  1.00  0.00     0.229 A 
HETATM    5  N3  UNL     1      -1.797  -2.992   3.154  1.00  0.00    -0.254 NA
HETATM    6  C14 UNL     1      -1.241  -2.485   1.956  1.00  0.00     0.257 A 
HETATM    7  N4  UNL     1      -1.434  -3.289   0.762  1.00  0.00    -0.364 N 
HETATM    8  C15 UNL     1      -1.989  -2.470  -0.262  1.00  0.00     0.034 C 
HETATM    9  C16 UNL     1      -2.794  -1.780   0.524  1.00  0.00    -0.009 C 
HETATM   10  C17 UNL     1      -4.269  -1.777   0.277  1.00  0.00     0.049 C 
HETATM   11  C18 UNL     1      -1.965  -2.188  -1.691  1.00  0.00     0.029 C 
HETATM   12  C19 UNL     1      -2.251  -0.976  -2.064  1.00  0.00     0.002 C 
HETATM   13  C20 UNL     1      -2.615   0.375  -1.794  1.00  0.00     0.000 C 
HETATM   14  C21 UNL     1      -2.887   1.145  -0.754  1.00  0.00     0.000 C 
HETATM   15  C22 UNL     1      -3.071   1.454   0.658  1.00  0.00     0.002 C 
HETATM   16  C23 UNL     1      -3.005   0.863   1.813  1.00  0.00     0.030 C 
HETATM   17  H15 UNL     1      -1.244  -4.319   0.506  1.00  0.00     0.162 HD
ENDROOT
BRANCH   1  18
HETATM   18  N1  UNL     1      -0.843  -0.429   0.813  1.00  0.00     0.116 N 
HETATM   19  H12 UNL     1      -0.362  -1.061   0.128  1.00  0.00     0.318 HD
BRANCH  18  20
HETATM   20  C10 UNL     1       0.062   0.400   1.540  1.00  0.00     0.249 C 
HETATM   21  C9  UNL     1       0.978  -0.265   2.446  1.00  0.00     0.009 C 
HETATM   22  C8  UNL     1       2.207  -0.746   2.412  1.00  0.00    -0.002 C 
HETATM   23  C7  UNL     1       3.116  -0.722   1.242  1.00  0.00     0.000 C 
HETATM   24  C6  UNL     1       3.007   0.030   0.152  1.00  0.00     0.007 C 
HETATM   25  C5  UNL     1       1.921   0.986  -0.051  1.00  0.00    -0.049 C 
HETATM   26  C24 UNL     1       0.646   1.361   0.573  1.00  0.00     0.078 C 
BRANCH  25  27
HETATM   27  C4  UNL     1       2.175   1.735  -1.110  1.00  0.00     0.156 C 
BRANCH  27  28
HETATM   28  S1  UNL     1       2.412   2.784  -2.495  1.00  0.00    -0.193 SA
BRANCH  28  29
HETATM   29  C3  UNL     1       4.124   3.189  -2.794  1.00  0.00     0.026 C 
HETATM   30  C2  UNL     1       5.187   2.368  -2.899  1.00  0.00    -0.025 C 
HETATM   31  C1  UNL     1       6.597   2.842  -3.155  1.00  0.00     0.036 C 
ENDBRANCH  28  29
ENDBRANCH  27  28
ENDBRANCH  25  27
ENDBRANCH  18  20
ENDBRANCH   1  18
TORSDOF 5
