REMARK  2 active torsions:
REMARK  status: ('A' for Active; 'I' for Inactive)
REMARK    1  A    between atoms: O1_2  and  C2_3 
REMARK    2  A    between atoms: C4_5  and  O2_6 
ROOT
HETATM    1  C2  UNL     1       2.763  -0.022  -0.092  1.00  0.00     0.068 C 
HETATM    2  C3  UNL     1       2.085  -0.654  -1.002  1.00  0.00     0.041 C 
HETATM    3  C4  UNL     1       1.510  -1.675  -1.886  1.00  0.00     0.144 C 
HETATM    4  C5  UNL     1       0.008  -1.506  -1.881  1.00  0.00     0.042 C 
HETATM    5  C6  UNL     1      -0.617  -1.595  -0.518  1.00  0.00     0.009 C 
HETATM    6  C7  UNL     1      -0.502  -2.883   0.184  1.00  0.00     0.012 C 
HETATM    7  C8  UNL     1      -2.070  -1.197  -0.690  1.00  0.00     0.144 C 
HETATM    8 CL1  UNL     1      -2.151   0.433  -1.468  1.00  0.00    -0.117 Cl
HETATM    9  C9  UNL     1      -2.772  -1.082   0.636  1.00  0.00     0.099 C 
HETATM   10  F1  UNL     1      -2.824  -2.436   0.974  1.00  0.00    -0.213 F 
HETATM   11  C10 UNL     1      -3.070   0.183   1.003  1.00  0.00     0.083 C 
HETATM   12  C11 UNL     1      -3.681   0.984   2.043  1.00  0.00     0.003 C 
HETATM   13  C12 UNL     1      -3.553   2.254   1.594  1.00  0.00     0.085 C 
HETATM   14  N1  UNL     1      -3.037   2.977   0.493  1.00  0.00    -0.361 N 
HETATM   15  C13 UNL     1      -1.725   3.529   0.395  1.00  0.00     0.208 C 
HETATM   16  N2  UNL     1      -0.521   3.923   0.215  1.00  0.00    -0.237 NA
HETATM   17  C14 UNL     1       0.324   3.237  -0.698  1.00  0.00     0.233 C 
HETATM   18  N3  UNL     1       1.421   2.606  -0.912  1.00  0.00    -0.254 NA
HETATM   19  C15 UNL     1       2.388   2.367   0.089  1.00  0.00     0.120 C 
HETATM   20  C16 UNL     1       2.986   1.271   0.474  1.00  0.00     0.055 C 
HETATM   21  H17 UNL     1      -3.472   3.239  -0.418  1.00  0.00     0.166 HD
ENDROOT
BRANCH   1  22
HETATM   22  O1  UNL     1       3.272  -1.266   0.182  1.00  0.00    -0.356 OA
HETATM   23  C1  UNL     1       4.059  -1.545   1.334  1.00  0.00     0.210 C 
ENDBRANCH   1  22
BRANCH   3  24
HETATM   24  O2  UNL     1       1.962  -2.923  -1.556  1.00  0.00    -0.392 OA
HETATM   25  H6  UNL     1       2.560  -3.314  -2.241  1.00  0.00     0.210 HD
ENDBRANCH   3  24
TORSDOF 2
