REMARK  5 active torsions:
REMARK  status: ('A' for Active; 'I' for Inactive)
REMARK    1  A    between atoms: N1_1  and  C1_2 
REMARK    2  A    between atoms: C6_7  and  N2_8 
REMARK    3  A    between atoms: N2_8  and  C7_9 
REMARK    4  A    between atoms: C10_14  and  C11_15 
REMARK    5  A    between atoms: C14_18  and  O1_19 
ROOT
HETATM    1  C7  UNL     1      -0.247   0.099   0.146  1.00  0.00     0.126 C 
HETATM    2  C8  UNL     1       0.066   1.185   1.129  1.00  0.00     0.111 C 
HETATM    3  N3  UNL     1       1.077   1.957   0.835  1.00  0.00    -0.273 NA
HETATM    4  C9  UNL     1       1.744   1.627  -0.423  1.00  0.00     0.237 A 
HETATM    5  N4  UNL     1       3.111   2.004  -0.540  1.00  0.00    -0.363 N 
HETATM    6  C10 UNL     1       3.408   0.606  -0.336  1.00  0.00     0.046 A 
HETATM    7  C17 UNL     1       2.158   0.192  -0.213  1.00  0.00    -0.007 A 
HETATM    8  C18 UNL     1       1.017  -0.743   0.000  1.00  0.00     0.071 C 
HETATM    9  H11 UNL     1       3.474   2.970  -0.702  1.00  0.00     0.162 HD
ENDROOT
BRANCH   1  10
HETATM   10  N2  UNL     1      -1.395  -0.668   0.455  1.00  0.00    -0.384 N 
HETATM   11  H7  UNL     1      -1.253  -1.677   0.660  1.00  0.00     0.160 HD
BRANCH  10  12
HETATM   12  C6  UNL     1      -2.733  -0.218   0.514  1.00  0.00     0.005 C 
HETATM   13  C5  UNL     1      -3.006   1.067   0.348  1.00  0.00     0.024 C 
HETATM   14  C4  UNL     1      -4.133   2.007   0.315  1.00  0.00     0.002 C 
HETATM   15  C3  UNL     1      -5.435   1.791   0.124  1.00  0.00     0.002 C 
HETATM   16  C2  UNL     1      -6.275   0.608  -0.121  1.00  0.00     0.024 C 
HETATM   17  C1  UNL     1      -5.914  -0.643  -0.357  1.00  0.00     0.003 C 
HETATM   18  C20 UNL     1      -4.654  -1.423  -0.492  1.00  0.00     0.062 C 
HETATM   19  C19 UNL     1      -3.763  -1.285   0.752  1.00  0.00     0.062 C 
BRANCH  17  20
HETATM   20  N1  UNL     1      -7.137  -1.392  -0.523  1.00  0.00    -0.402 N 
HETATM   21  H1  UNL     1      -7.506  -1.211  -1.505  1.00  0.00     0.156 HD
HETATM   22  H2  UNL     1      -7.686  -2.042   0.116  1.00  0.00     0.156 HD
ENDBRANCH  17  20
ENDBRANCH  10  12
ENDBRANCH   1  10
BRANCH   6  23
HETATM   23  C11 UNL     1       4.716  -0.034  -0.304  1.00  0.00    -0.009 A 
HETATM   24  C12 UNL     1       5.119  -1.227  -0.907  1.00  0.00     0.016 A 
HETATM   25  C13 UNL     1       6.406  -1.683  -0.747  1.00  0.00     0.037 A 
HETATM   26  C14 UNL     1       7.328  -0.989   0.006  1.00  0.00     0.065 A 
HETATM   27  C15 UNL     1       7.025   0.187   0.635  1.00  0.00     0.037 A 
HETATM   28  C16 UNL     1       5.710   0.621   0.448  1.00  0.00     0.016 A 
BRANCH  26  29
HETATM   29  O1  UNL     1       8.631  -1.437   0.181  1.00  0.00    -0.361 OA
HETATM   30  H14 UNL     1       9.447  -0.931  -0.058  1.00  0.00     0.217 HD
ENDBRANCH  26  29
ENDBRANCH   6  23
TORSDOF 5
