REMARK  2 active torsions:
REMARK  status: ('A' for Active; 'I' for Inactive)
REMARK    1  A    between atoms: N1_12  and  C12_13 
REMARK    2  A    between atoms: C16_18  and  O1_19 
ROOT
HETATM    1  C1  UNL     1       4.646   0.562  -0.101  1.00  0.00     0.036 C 
HETATM    2  C2  UNL     1       3.271   0.334   0.492  1.00  0.00     0.102 C 
HETATM    3  C3  UNL     1       3.333  -0.505   1.714  1.00  0.00    -0.002 C 
HETATM    4  C4  UNL     1       2.851  -1.726   1.878  1.00  0.00     0.002 C 
HETATM    5  C5  UNL     1       2.159  -2.441   0.821  1.00  0.00    -0.062 A 
HETATM    6  C6  UNL     1       1.034  -1.987   0.359  1.00  0.00     0.030 A 
HETATM    7  C7  UNL     1       1.486  -3.187  -0.245  1.00  0.00     0.035 A 
HETATM    8  C8  UNL     1       0.698  -4.414   0.177  1.00  0.00     0.037 C 
HETATM    9  C9  UNL     1      -0.768  -4.175  -0.043  1.00  0.00    -0.028 C 
HETATM   10  C10 UNL     1      -1.129  -2.896  -0.278  1.00  0.00    -0.004 C 
HETATM   11  C11 UNL     1      -0.224  -1.716  -0.336  1.00  0.00     0.126 C 
HETATM   12  N1  UNL     1      -0.901  -0.528   0.209  1.00  0.00    -0.356 N 
HETATM   13  C18 UNL     1      -0.107   0.620   0.010  1.00  0.00     0.092 C 
HETATM   14  C19 UNL     1       0.396   1.578  -0.736  1.00  0.00     0.034 C 
HETATM   15  C20 UNL     1       1.265   2.740  -0.701  1.00  0.00     0.028 A 
HETATM   16  C21 UNL     1       0.812   3.733  -1.539  1.00  0.00     0.133 A 
HETATM   17  N2  UNL     1       1.540   4.862  -1.575  1.00  0.00    -0.253 NA
HETATM   18  C22 UNL     1       2.633   4.904  -0.792  1.00  0.00     0.234 A 
HETATM   19  N3  UNL     1       3.055   3.903   0.027  1.00  0.00    -0.224 NA
HETATM   20  C23 UNL     1       2.374   2.745   0.112  1.00  0.00     0.137 A 
HETATM   21  N4  UNL     1       2.672   1.611   0.906  1.00  0.00    -0.367 N 
HETATM   22  H23 UNL     1       2.327   2.021   1.805  1.00  0.00     0.161 HD
ENDROOT
BRANCH  12  23
HETATM   23  C12 UNL     1      -2.093  -0.129   0.875  1.00  0.00     0.102 C 
HETATM   24  C13 UNL     1      -3.216   0.080   0.230  1.00  0.00    -0.021 A 
HETATM   25  C14 UNL     1      -3.263  -0.099  -1.218  1.00  0.00    -0.003 A 
HETATM   26  C17 UNL     1      -4.400   0.488   0.977  1.00  0.00     0.031 A 
HETATM   27  C15 UNL     1      -4.399   0.112  -1.874  1.00  0.00    -0.074 A 
HETATM   28  B1  UNL     1      -5.701   0.554  -1.109  1.00  0.00     0.249 B 
HETATM   29  C16 UNL     1      -5.583   0.726   0.434  1.00  0.00    -0.001 A 
HETATM   30  H16 UNL     1      -6.724   0.701  -1.665  1.00  0.00    -0.014 HD
BRANCH  29  31
HETATM   31  O1  UNL     1      -6.664   1.111   1.213  1.00  0.00    -0.377 OA
HETATM   32  H17 UNL     1      -6.465   1.553   2.097  1.00  0.00     0.215 HD
ENDBRANCH  29  31
ENDBRANCH  12  23
TORSDOF 2
