REMARK  5 active torsions:
REMARK  status: ('A' for Active; 'I' for Inactive)
REMARK    1  A    between atoms: O1_2  and  C2_3 
REMARK    2  A    between atoms: C3_4  and  C4_5 
REMARK    3  A    between atoms: C10_14  and  N4_15 
REMARK    4  A    between atoms: N4_15  and  C11_16 
REMARK    5  A    between atoms: C11_16  and  C13_18 
ROOT
HETATM    1  C4  UNL     1       2.996   0.225   1.553  1.00  0.00     0.005 C 
HETATM    2  C5  UNL     1       2.490  -0.825   0.935  1.00  0.00    -0.074 C 
HETATM    3  C6  UNL     1       3.449  -1.802   0.412  1.00  0.00     0.054 C 
HETATM    4  C7  UNL     1       3.750  -1.701  -1.025  1.00  0.00     0.125 C 
HETATM    5  N1  UNL     1       2.705  -1.227  -1.870  1.00  0.00    -0.374 N 
HETATM    6  C8  UNL     1       1.289  -1.239  -1.717  1.00  0.00     0.135 A 
HETATM    7  N2  UNL     1       0.651  -1.451  -2.890  1.00  0.00    -0.224 NA
HETATM    8  C9  UNL     1      -0.689  -1.498  -2.929  1.00  0.00     0.237 A 
HETATM    9  N3  UNL     1      -1.406  -1.334  -1.805  1.00  0.00    -0.224 NA
HETATM   10  C10 UNL     1      -0.791  -1.121  -0.622  1.00  0.00     0.135 A 
HETATM   11  C19 UNL     1       0.604  -1.061  -0.517  1.00  0.00     0.037 A 
HETATM   12  C20 UNL     1       1.007  -0.815   0.888  1.00  0.00     0.080 C 
HETATM   13  H11 UNL     1       3.018  -0.780  -2.786  1.00  0.00     0.161 HD
ENDROOT
BRANCH  10  14
HETATM   14  N4  UNL     1      -1.615  -0.956   0.539  1.00  0.00    -0.366 N 
HETATM   15  H13 UNL     1      -1.213  -0.787   1.485  1.00  0.00     0.161 HD
BRANCH  14  16
HETATM   16  C11 UNL     1      -3.061  -1.016   0.454  1.00  0.00     0.112 C 
HETATM   17  C12 UNL     1      -3.719  -0.812   1.819  1.00  0.00     0.037 C 
BRANCH  16  18
HETATM   18  C13 UNL     1      -3.628  -0.117  -0.577  1.00  0.00    -0.036 A 
HETATM   19  C14 UNL     1      -4.627  -0.548  -1.459  1.00  0.00     0.009 A 
HETATM   20  C15 UNL     1      -5.175   0.285  -2.438  1.00  0.00     0.001 A 
HETATM   21  C16 UNL     1      -4.681   1.572  -2.497  1.00  0.00     0.000 A 
HETATM   22  C17 UNL     1      -3.700   2.055  -1.658  1.00  0.00     0.001 A 
HETATM   23  C18 UNL     1      -3.188   1.200  -0.708  1.00  0.00     0.009 A 
ENDBRANCH  16  18
ENDBRANCH  14  16
ENDBRANCH  10  14
BRANCH   1  24
HETATM   24  C3  UNL     1       4.126   0.976   2.023  1.00  0.00     0.024 C 
HETATM   25  C2  UNL     1       4.638   2.023   2.638  1.00  0.00     0.134 C 
BRANCH  25  26
HETATM   26  O1  UNL     1       3.437   2.645   2.949  1.00  0.00    -0.368 OA
HETATM   27  C1  UNL     1       2.873   3.725   2.269  1.00  0.00     0.208 C 
ENDBRANCH  25  26
ENDBRANCH   1  24
TORSDOF 5
