REMARK  0 active torsions:
REMARK  status: ('A' for Active; 'I' for Inactive)
ROOT
HETATM    1  C1  UNL     1      -3.974   2.832   1.097  1.00  0.00     0.000 C 
HETATM    2  O1  UNL     1      -2.918   2.362   0.223  1.00  0.00     0.000 OA
HETATM    3  C2  UNL     1      -1.678   2.798   0.482  1.00  0.00     0.006 A 
HETATM    4  C3  UNL     1      -1.947   1.792  -0.410  1.00  0.00     0.010 A 
HETATM    5  C4  UNL     1      -2.867   0.886  -1.127  1.00  0.00     0.045 C 
HETATM    6  C5  UNL     1      -2.512  -0.558  -1.021  1.00  0.00    -0.049 A 
HETATM    7  C6  UNL     1      -3.423  -1.299  -1.717  1.00  0.00     0.007 A 
HETATM    8  C7  UNL     1      -3.385  -2.664  -1.852  1.00  0.00     0.001 A 
HETATM    9  C8  UNL     1      -2.324  -3.339  -1.223  1.00  0.00     0.001 A 
HETATM   10  C9  UNL     1      -1.404  -2.545  -0.513  1.00  0.00     0.010 A 
HETATM   11  C10 UNL     1      -1.439  -1.171  -0.374  1.00  0.00    -0.028 A 
HETATM   12  C11 UNL     1      -0.317  -0.687   0.454  1.00  0.00     0.129 C 
HETATM   13  C12 UNL     1       0.038  -1.677   1.559  1.00  0.00     0.039 C 
HETATM   14  N1  UNL     1       0.901  -0.444  -0.287  1.00  0.00    -0.319 N 
HETATM   15  N2  UNL     1       2.228   0.028  -0.042  1.00  0.00    -0.245 N 
HETATM   16  C13 UNL     1       2.812   1.240   0.047  1.00  0.00     0.040 A 
HETATM   17  C14 UNL     1       4.133   0.958   0.336  1.00  0.00     0.044 A 
HETATM   18  C15 UNL     1       4.408  -0.381   0.434  1.00  0.00     0.031 A 
HETATM   19  C16 UNL     1       5.566  -1.075   0.692  1.00  0.00     0.133 A 
HETATM   20  N3  UNL     1       5.515  -2.429   0.707  1.00  0.00    -0.253 NA
HETATM   21  C17 UNL     1       4.315  -2.987   0.465  1.00  0.00     0.235 A 
HETATM   22  N4  UNL     1       3.178  -2.319   0.213  1.00  0.00    -0.222 NA
HETATM   23  C18 UNL     1       3.165  -0.947   0.185  1.00  0.00     0.161 A 
HETATM   24  C19 UNL     1       2.289   2.592  -0.124  1.00  0.00     0.086 C 
HETATM   25  C20 UNL     1       0.879   2.749   0.164  1.00  0.00    -0.024 C 
HETATM   26  C21 UNL     1      -0.287   2.940   0.458  1.00  0.00    -0.018 C 
HETATM   27  H15 UNL     1       0.870  -0.680  -1.305  1.00  0.00     0.181 HD
ENDROOT
TORSDOF 0
