REMARK  2 active torsions:
REMARK  status: ('A' for Active; 'I' for Inactive)
REMARK    1  A    between atoms: C3_3  and  O1_4 
REMARK    2  A    between atoms: C17_21  and  N4_22 
ROOT
HETATM    1  C1  UNL     1       2.051  -0.199   0.833  1.00  0.00     0.044 C 
HETATM    2  C2  UNL     1       1.936   0.270  -0.374  1.00  0.00    -0.014 A 
HETATM    3  C3  UNL     1       3.177   0.928  -0.783  1.00  0.00     0.070 A 
HETATM    4  C4  UNL     1       3.297   1.491  -1.977  1.00  0.00     0.036 A 
HETATM    5  C5  UNL     1       2.171   1.453  -2.898  1.00  0.00     0.002 A 
HETATM    6  C6  UNL     1       1.095   0.838  -2.443  1.00  0.00     0.010 A 
HETATM    7  C7  UNL     1       0.693   0.118  -1.141  1.00  0.00     0.086 A 
HETATM    8  N1  UNL     1       0.616  -1.249  -1.664  1.00  0.00    -0.358 N 
HETATM    9  C8  UNL     1      -0.200  -2.342  -1.301  1.00  0.00     0.121 C 
HETATM   10  C9  UNL     1       0.363  -2.626  -0.127  1.00  0.00     0.026 C 
HETATM   11  C10 UNL     1      -0.606  -2.216   0.955  1.00  0.00     0.073 C 
HETATM   12  C11 UNL     1      -1.795  -1.418   0.387  1.00  0.00     0.100 C 
HETATM   13  C12 UNL     1      -2.735  -2.501   0.046  1.00  0.00     0.045 C 
HETATM   14  C13 UNL     1      -2.355  -3.427  -0.879  1.00  0.00     0.086 C 
HETATM   15  N2  UNL     1      -1.357  -3.140  -1.711  1.00  0.00    -0.230 NA
HETATM   16  N3  UNL     1      -1.693  -0.939  -0.961  1.00  0.00    -0.302 NA
HETATM   17  C14 UNL     1      -1.633   0.172  -1.498  1.00  0.00     0.140 C 
HETATM   18  C15 UNL     1      -0.491   0.813  -0.714  1.00  0.00     0.085 C 
HETATM   19  C16 UNL     1      -1.100   0.821   0.638  1.00  0.00    -0.013 A 
HETATM   20  C17 UNL     1      -1.054   1.944   1.435  1.00  0.00     0.033 A 
HETATM   21  C18 UNL     1      -1.662   1.989   2.675  1.00  0.00     0.029 A 
HETATM   22  C19 UNL     1      -2.345   0.902   3.172  1.00  0.00     0.003 A 
HETATM   23  C20 UNL     1      -2.406  -0.234   2.397  1.00  0.00     0.011 A 
HETATM   24  C21 UNL     1      -1.814  -0.297   1.176  1.00  0.00    -0.015 A 
HETATM   25  H7  UNL     1       1.184  -1.660  -2.434  1.00  0.00     0.162 HD
ENDROOT
BRANCH   3  26
HETATM   26  O1  UNL     1       4.328   1.042  -0.017  1.00  0.00    -0.360 OA
HETATM   27  H3  UNL     1       4.638   1.990   0.184  1.00  0.00     0.217 HD
ENDBRANCH   3  26
BRANCH  20  28
HETATM   28  N4  UNL     1      -0.343   3.072   0.916  1.00  0.00    -0.399 N 
HETATM   29  H14 UNL     1       0.537   2.893   0.346  1.00  0.00     0.156 HD
HETATM   30  H15 UNL     1      -0.467   4.098   0.951  1.00  0.00     0.156 HD
ENDBRANCH  20  28
TORSDOF 2
