REMARK  6 active torsions:
REMARK  status: ('A' for Active; 'I' for Inactive)
REMARK    1  A    between atoms: C2_2  and  N1_3 
REMARK    2  A    between atoms: C2_2  and  C15_21 
REMARK    3  A    between atoms: N1_3  and  C3_4 
REMARK    4  A    between atoms: N4_9  and  C6_10 
REMARK    5  A    between atoms: C6_10  and  C7_11 
REMARK    6  A    between atoms: C10_14  and  O1_15 
ROOT
HETATM    1  C3  UNL     1      -0.243  -0.138   1.374  1.00  0.00     0.111 C 
HETATM    2  N2  UNL     1      -0.850   0.799   0.772  1.00  0.00    -0.229 NA
HETATM    3  C4  UNL     1      -0.621   2.141   1.120  1.00  0.00     0.230 C 
HETATM    4  N3  UNL     1       0.068   3.175   0.766  1.00  0.00    -0.264 NA
HETATM    5  C5  UNL     1       0.980   3.142  -0.358  1.00  0.00     0.270 C 
HETATM    6  N4  UNL     1       2.033   2.218  -0.079  1.00  0.00    -0.383 N 
HETATM    7  C13 UNL     1       2.505   2.139   1.225  1.00  0.00     0.193 C 
HETATM    8  S1  UNL     1       1.389   1.724   2.545  1.00  0.00    -0.142 SA
HETATM    9  C14 UNL     1       0.719   0.074   2.479  1.00  0.00     0.153 C 
ENDROOT
BRANCH   1  10
HETATM   10  N1  UNL     1      -0.543  -1.478   0.950  1.00  0.00    -0.369 N 
HETATM   11  H5  UNL     1      -0.074  -2.249   1.474  1.00  0.00     0.161 HD
BRANCH  10  12
HETATM   12  C2  UNL     1      -1.474  -1.686  -0.174  1.00  0.00     0.113 C 
HETATM   13  C1  UNL     1      -1.540  -3.203  -0.336  1.00  0.00     0.037 C 
BRANCH  12  14
HETATM   14  C15 UNL     1      -2.839  -1.287   0.190  1.00  0.00    -0.025 A 
HETATM   15  C16 UNL     1      -3.131  -1.256   1.560  1.00  0.00     0.010 A 
HETATM   16  C17 UNL     1      -4.372  -0.898   2.050  1.00  0.00     0.002 A 
HETATM   17  C18 UNL     1      -5.380  -0.553   1.165  1.00  0.00     0.012 A 
HETATM   18  C19 UNL     1      -5.122  -0.575  -0.189  1.00  0.00    -0.025 A 
HETATM   19  C20 UNL     1      -6.066  -0.247  -1.127  1.00  0.00     0.012 A 
HETATM   20  C24 UNL     1      -3.856  -0.941  -0.658  1.00  0.00    -0.018 A 
HETATM   21  C21 UNL     1      -5.808  -0.268  -2.496  1.00  0.00     0.001 A 
HETATM   22  C22 UNL     1      -4.535  -0.638  -2.933  1.00  0.00     0.001 A 
HETATM   23  C23 UNL     1      -3.582  -0.969  -1.987  1.00  0.00     0.013 A 
ENDBRANCH  12  14
ENDBRANCH  10  12
ENDBRANCH   1  10
BRANCH   6  24
HETATM   24  C6  UNL     1       2.972   2.054  -1.135  1.00  0.00     0.158 C 
BRANCH  24  25
HETATM   25  C7  UNL     1       4.045   1.118  -0.746  1.00  0.00    -0.041 A 
HETATM   26  C8  UNL     1       3.772  -0.224  -1.007  1.00  0.00     0.011 A 
HETATM   27  C9  UNL     1       4.703  -1.199  -0.698  1.00  0.00     0.037 A 
HETATM   28  C10 UNL     1       5.909  -0.910  -0.137  1.00  0.00     0.065 A 
HETATM   29  C11 UNL     1       6.184   0.412   0.121  1.00  0.00     0.037 A 
HETATM   30  C12 UNL     1       5.284   1.412  -0.171  1.00  0.00     0.011 A 
BRANCH  28  31
HETATM   31  O1  UNL     1       6.854  -1.892   0.175  1.00  0.00    -0.361 OA
HETATM   32  H13 UNL     1       7.818  -1.614   0.353  1.00  0.00     0.217 HD
ENDBRANCH  28  31
ENDBRANCH  24  25
ENDBRANCH   6  24
TORSDOF 6
