REMARK  2 active torsions:
REMARK  status: ('A' for Active; 'I' for Inactive)
REMARK    1  A    between atoms: N4_10  and  C7_11 
REMARK    2  A    between atoms: C7_11  and  C8_12 
ROOT
HETATM    1  C1  UNL     1      -4.490   0.561   0.234  1.00  0.00     0.037 C 
HETATM    2  C2  UNL     1      -3.036   0.570  -0.266  1.00  0.00     0.110 C 
HETATM    3  N1  UNL     1      -2.368   1.420   0.692  1.00  0.00    -0.391 N 
HETATM    4  C3  UNL     1      -2.949   2.710   0.874  1.00  0.00     0.159 C 
HETATM    5  C4  UNL     1      -2.462   3.964   0.936  1.00  0.00     0.102 C 
HETATM    6  N2  UNL     1      -1.155   3.855   0.896  1.00  0.00    -0.269 NA
HETATM    7  C5  UNL     1      -0.692   3.130  -0.277  1.00  0.00     0.223 C 
HETATM    8  N3  UNL     1       0.607   2.958  -0.434  1.00  0.00    -0.253 NA
HETATM    9  C6  UNL     1       1.108   2.242  -1.591  1.00  0.00     0.422 C 
HETATM   10  N4  UNL     1       1.702   1.015  -1.126  1.00  0.00     0.112 N 
HETATM   11  C14 UNL     1       0.766   0.152  -0.464  1.00  0.00     0.279 C 
HETATM   12  C15 UNL     1      -0.271  -0.349  -1.422  1.00  0.00     0.069 C 
HETATM   13  C16 UNL     1      -1.278  -1.227  -0.795  1.00  0.00    -0.048 A 
HETATM   14  C17 UNL     1      -0.939  -2.562  -0.728  1.00  0.00     0.008 A 
HETATM   15  C18 UNL     1      -1.740  -3.549  -0.178  1.00  0.00     0.001 A 
HETATM   16  C19 UNL     1      -2.964  -3.166   0.340  1.00  0.00     0.001 A 
HETATM   17  C20 UNL     1      -3.289  -1.822   0.265  1.00  0.00     0.010 A 
HETATM   18  C21 UNL     1      -2.487  -0.808  -0.291  1.00  0.00    -0.030 A 
HETATM   19  H5  UNL     1      -1.692   1.657   1.359  1.00  0.00     0.159 HD
ENDROOT
BRANCH  10  20
HETATM   20  C7  UNL     1       2.907   1.245  -0.382  1.00  0.00     0.313 C 
BRANCH  20  21
HETATM   21  C8  UNL     1       3.480  -0.043   0.046  1.00  0.00    -0.030 A 
HETATM   22  C9  UNL     1       4.310  -0.683  -0.885  1.00  0.00     0.009 A 
HETATM   23  C10 UNL     1       4.971  -1.881  -0.709  1.00  0.00     0.001 A 
HETATM   24  C11 UNL     1       4.796  -2.508   0.505  1.00  0.00     0.000 A 
HETATM   25  C12 UNL     1       3.992  -1.927   1.461  1.00  0.00     0.001 A 
HETATM   26  C13 UNL     1       3.343  -0.731   1.259  1.00  0.00     0.009 A 
ENDBRANCH  20  21
ENDBRANCH  10  20
TORSDOF 2
