REMARK  3 active torsions:
REMARK  status: ('A' for Active; 'I' for Inactive)
REMARK    1  A    between atoms: C4_4  and  C7_7 
REMARK    2  A    between atoms: C9_9  and  N1_10 
REMARK    3  A    between atoms: C10_11  and  N2_12 
ROOT
HETATM    1  C1  UNL     1       1.167  -1.395   1.851  1.00  0.00     0.033 C 
HETATM    2  C2  UNL     1      -0.103  -0.680   1.790  1.00  0.00     0.097 C 
HETATM    3  C3  UNL     1      -0.970  -1.489   0.524  1.00  0.00     0.037 A 
HETATM    4  C4  UNL     1      -1.670  -2.346   1.257  1.00  0.00     0.053 A 
HETATM    5  C5  UNL     1      -1.704  -3.471   0.358  1.00  0.00    -0.036 A 
HETATM    6  C6  UNL     1      -1.003  -2.620  -0.373  1.00  0.00     0.053 A 
HETATM    7  C7  UNL     1      -0.774  -1.265   0.303  1.00  0.00     0.060 A 
HETATM    8  C8  UNL     1      -0.160  -0.834  -0.630  1.00  0.00    -0.017 A 
HETATM    9  C9  UNL     1       0.585  -0.036  -1.659  1.00  0.00     0.236 C 
HETATM   10  N3  UNL     1      -0.110   1.199  -1.943  1.00  0.00    -0.362 N 
HETATM   11  C11 UNL     1      -0.725   1.956  -0.933  1.00  0.00     0.056 A 
HETATM   12  C12 UNL     1      -1.308   3.169  -1.113  1.00  0.00     0.031 A 
HETATM   13  C13 UNL     1      -1.945   3.773  -0.055  1.00  0.00     0.002 A 
HETATM   14  C14 UNL     1      -1.972   3.122   1.163  1.00  0.00     0.002 A 
HETATM   15  C15 UNL     1      -1.418   1.894   1.470  1.00  0.00     0.031 A 
HETATM   16  C16 UNL     1      -0.799   1.392   0.289  1.00  0.00     0.058 A 
HETATM   17  N4  UNL     1      -0.465   0.188   0.857  1.00  0.00    -0.360 N 
HETATM   18  H12 UNL     1      -0.266   1.667  -2.842  1.00  0.00     0.162 HD
ENDROOT
BRANCH   9  19
HETATM   19  N1  UNL     1       1.960   0.051  -1.365  1.00  0.00    -0.255 NA
HETATM   20  C10 UNL     1       2.919  -0.401  -2.073  1.00  0.00     0.196 C 
BRANCH  20  21
HETATM   21  N2  UNL     1       4.113  -0.059  -1.351  1.00  0.00    -0.394 N 
HETATM   22  H10 UNL     1       4.345  -0.228  -0.350  1.00  0.00     0.156 HD
HETATM   23  H11 UNL     1       5.069   0.319  -1.163  1.00  0.00     0.156 HD
ENDBRANCH  20  21
ENDBRANCH   9  19
TORSDOF 3
