REMARK  4 active torsions:
REMARK  status: ('A' for Active; 'I' for Inactive)
REMARK    1  A    between atoms: C2_2  and  N1_3 
REMARK    2  A    between atoms: C2_2  and  C14_19 
REMARK    3  A    between atoms: N1_3  and  C3_4 
REMARK    4  A    between atoms: C6_10  and  C7_11 
ROOT
HETATM    1  C3  UNL     1       0.912   0.016  -0.700  1.00  0.00     0.135 A 
HETATM    2  N2  UNL     1       1.220  -0.959   0.095  1.00  0.00    -0.224 NA
HETATM    3  C4  UNL     1       0.490  -2.171   0.105  1.00  0.00     0.232 A 
HETATM    4  N3  UNL     1      -0.503  -2.509  -0.583  1.00  0.00    -0.252 NA
HETATM    5  C5  UNL     1      -1.226  -1.814  -1.590  1.00  0.00     0.246 A 
HETATM    6  N4  UNL     1      -2.531  -1.420  -1.102  1.00  0.00    -0.362 N 
HETATM    7  C6  UNL     1      -2.910  -0.087  -0.934  1.00  0.00     0.041 A 
HETATM    8  C13 UNL     1      -1.971   0.784  -1.274  1.00  0.00     0.048 A 
HETATM    9  P1  UNL     1      -0.484  -0.119  -1.854  1.00  0.00     0.027 P 
HETATM   10  H8  UNL     1      -3.069  -2.319  -0.921  1.00  0.00     0.162 HD
ENDROOT
BRANCH   1  11
HETATM   11  N1  UNL     1       1.759   1.141  -0.561  1.00  0.00    -0.366 N 
HETATM   12  H5  UNL     1       1.665   1.890  -1.313  1.00  0.00     0.162 HD
BRANCH  11  13
HETATM   13  C2  UNL     1       2.707   1.293   0.527  1.00  0.00     0.112 C 
HETATM   14  C1  UNL     1       3.430   2.609   0.345  1.00  0.00     0.037 C 
BRANCH  13  15
HETATM   15  C14 UNL     1       3.702   0.221   0.617  1.00  0.00    -0.036 A 
HETATM   16  C15 UNL     1       4.391  -0.291  -0.469  1.00  0.00     0.009 A 
HETATM   17  C16 UNL     1       5.328  -1.315  -0.313  1.00  0.00     0.001 A 
HETATM   18  C17 UNL     1       5.593  -1.848   0.939  1.00  0.00     0.000 A 
HETATM   19  C18 UNL     1       4.947  -1.386   2.051  1.00  0.00     0.001 A 
HETATM   20  C19 UNL     1       4.033  -0.376   1.839  1.00  0.00     0.009 A 
ENDBRANCH  13  15
ENDBRANCH  11  13
ENDBRANCH   1  11
BRANCH   7  21
HETATM   21  C7  UNL     1      -4.249   0.193  -0.422  1.00  0.00    -0.010 A 
HETATM   22  C8  UNL     1      -5.206  -0.718  -0.075  1.00  0.00     0.013 A 
HETATM   23  C9  UNL     1      -6.442  -0.359   0.400  1.00  0.00     0.001 A 
HETATM   24  C10 UNL     1      -6.789   0.966   0.556  1.00  0.00     0.000 A 
HETATM   25  C11 UNL     1      -5.817   1.869   0.204  1.00  0.00     0.001 A 
HETATM   26  C12 UNL     1      -4.571   1.523  -0.275  1.00  0.00     0.013 A 
ENDBRANCH   7  21
TORSDOF 4
