REMARK  2 active torsions:
REMARK  status: ('A' for Active; 'I' for Inactive)
REMARK    1  A    between atoms: N1_1  and  C1_2 
REMARK    2  A    between atoms: C5_6  and  C6_7 
ROOT
HETATM    1  C6  UNL     1       0.626   0.212   0.673  1.00  0.00     0.148 C 
HETATM    2  N2  UNL     1      -0.023  -0.774   1.548  1.00  0.00    -0.365 N 
HETATM    3  C7  UNL     1      -1.400  -1.200   1.406  1.00  0.00     0.105 C 
HETATM    4  N3  UNL     1      -1.174  -2.303   0.734  1.00  0.00    -0.226 NA
HETATM    5  C8  UNL     1      -2.254  -3.142   0.320  1.00  0.00     0.264 C 
HETATM    6  N4  UNL     1      -2.095  -2.566  -0.826  1.00  0.00    -0.126 NA
HETATM    7  O1  UNL     1      -1.120  -1.622  -0.957  1.00  0.00    -0.241 OA
HETATM    8  C9  UNL     1      -1.320  -0.281  -1.207  1.00  0.00     0.219 C 
HETATM    9  C10 UNL     1      -2.662   0.136  -0.604  1.00  0.00    -0.026 C 
HETATM   10  C11 UNL     1      -3.435  -0.466   0.328  1.00  0.00    -0.009 C 
HETATM   11  C12 UNL     1      -2.862  -0.889   1.676  1.00  0.00     0.106 C 
HETATM   12  C13 UNL     1      -3.537   1.291  -0.755  1.00  0.00     0.010 C 
HETATM   13  C14 UNL     1      -3.199   2.524  -1.145  1.00  0.00     0.001 C 
HETATM   14  C15 UNL     1      -1.939   3.258  -1.336  1.00  0.00     0.000 C 
HETATM   15  C16 UNL     1      -0.660   2.998  -1.064  1.00  0.00     0.000 C 
HETATM   16  C17 UNL     1       0.051   1.827  -0.566  1.00  0.00     0.008 C 
HETATM   17  C18 UNL     1      -0.281   0.558  -0.454  1.00  0.00    -0.017 C 
HETATM   18  H7  UNL     1       0.576  -1.153   2.286  1.00  0.00     0.161 HD
ENDROOT
BRANCH   1  19
HETATM   19  C5  UNL     1       1.939  -0.316   0.290  1.00  0.00    -0.029 A 
HETATM   20  C4  UNL     1       2.210  -1.575  -0.187  1.00  0.00     0.010 A 
HETATM   21  C3  UNL     1       3.444  -2.077  -0.536  1.00  0.00     0.003 A 
HETATM   22  C2  UNL     1       4.545  -1.257  -0.405  1.00  0.00     0.029 A 
HETATM   23  C1  UNL     1       4.353   0.024   0.069  1.00  0.00     0.026 A 
HETATM   24  C19 UNL     1       3.090   0.465   0.402  1.00  0.00     0.038 A 
BRANCH  23  25
HETATM   25  N1  UNL     1       5.537   0.802   0.174  1.00  0.00    -0.399 N 
HETATM   26  H1  UNL     1       6.178   1.261   0.872  1.00  0.00     0.156 HD
HETATM   27  H2  UNL     1       5.934   1.005  -0.766  1.00  0.00     0.156 HD
ENDBRANCH  23  25
ENDBRANCH   1  19
TORSDOF 2
