REMARK  3 active torsions:
REMARK  status: ('A' for Active; 'I' for Inactive)
REMARK    1  A    between atoms: C2_2  and  C3_3 
REMARK    2  A    between atoms: C4_5  and  C5_6 
REMARK    3  A    between atoms: C6_7  and  C7_8 
ROOT
HETATM    1  C7  UNL     1       1.517  -1.234  -0.715  1.00  0.00     0.139 A 
HETATM    2  N1  UNL     1       1.240  -2.520  -1.265  1.00  0.00    -0.363 N 
HETATM    3  C8  UNL     1       0.323  -2.036  -2.237  1.00  0.00     0.130 A 
HETATM    4  C9  UNL     1       0.546  -0.822  -1.760  1.00  0.00    -0.007 A 
HETATM    5  C10 UNL     1      -0.137   0.323  -2.341  1.00  0.00     0.054 C 
HETATM    6  C11 UNL     1      -0.949   1.156  -1.384  1.00  0.00    -0.015 C 
HETATM    7  C12 UNL     1      -1.551   2.264  -2.263  1.00  0.00     0.020 C 
HETATM    8  C13 UNL     1      -0.047   1.838  -0.381  1.00  0.00     0.020 C 
HETATM    9  C14 UNL     1      -2.068   0.469  -0.744  1.00  0.00    -0.023 A 
HETATM   10  C15 UNL     1      -2.742   1.310   0.120  1.00  0.00     0.010 A 
HETATM   11  C16 UNL     1      -3.836   0.936   0.865  1.00  0.00     0.001 A 
HETATM   12  C17 UNL     1      -4.324  -0.347   0.774  1.00  0.00     0.002 A 
HETATM   13  C18 UNL     1      -3.641  -1.180  -0.096  1.00  0.00     0.030 A 
HETATM   14  C19 UNL     1      -2.544  -0.818  -0.848  1.00  0.00     0.040 A 
HETATM   15  N2  UNL     1      -2.028  -1.854  -1.672  1.00  0.00    -0.350 N 
HETATM   16  C20 UNL     1      -1.884  -2.112  -3.071  1.00  0.00     0.209 C 
HETATM   17  N3  UNL     1      -0.603  -2.203  -3.333  1.00  0.00    -0.226 NA
HETATM   18  H8  UNL     1       1.603  -3.461  -1.013  1.00  0.00     0.162 HD
HETATM   19  H21 UNL     1      -1.675  -2.606  -1.016  1.00  0.00     0.166 HD
ENDROOT
BRANCH   1  20
HETATM   20  C6  UNL     1       1.173  -0.959   0.673  1.00  0.00     0.003 C 
HETATM   21  C5  UNL     1       1.997  -0.546   1.628  1.00  0.00     0.001 C 
BRANCH  21  22
HETATM   22  C4  UNL     1       3.393  -0.320   1.355  1.00  0.00     0.042 C 
HETATM   23  C3  UNL     1       4.224   0.087   2.294  1.00  0.00     0.112 C 
HETATM   24  F1  UNL     1       5.543   0.346   2.206  1.00  0.00    -0.206 F 
BRANCH  23  25
HETATM   25  C2  UNL     1       3.903   0.362   3.682  1.00  0.00     0.016 C 
HETATM   26  C1  UNL     1       4.320   0.740   4.855  1.00  0.00     0.034 C 
ENDBRANCH  23  25
ENDBRANCH  21  22
ENDBRANCH   1  20
TORSDOF 3
