REMARK  5 active torsions:
REMARK  status: ('A' for Active; 'I' for Inactive)
REMARK    1  A    between atoms: N1_2  and  C2_3 
REMARK    2  A    between atoms: C2_3  and  C14_18 
REMARK    3  A    between atoms: C3_4  and  C4_5 
REMARK    4  A    between atoms: N4_10  and  C7_11 
REMARK    5  A    between atoms: C7_11  and  C8_12 
ROOT
HETATM    1  C4  UNL     1      -0.328  -0.720  -0.345  1.00  0.00     0.236 A 
HETATM    2  N2  UNL     1      -0.051  -1.666  -1.389  1.00  0.00    -0.253 NA
HETATM    3  C5  UNL     1      -0.745  -1.802  -2.469  1.00  0.00     0.230 A 
HETATM    4  N3  UNL     1      -1.897  -1.001  -2.749  1.00  0.00    -0.238 NA
HETATM    5  C6  UNL     1      -2.223  -0.113  -1.852  1.00  0.00     0.208 A 
HETATM    6  N4  UNL     1      -1.498   0.089  -0.634  1.00  0.00    -0.345 N 
ENDROOT
BRANCH   1   7
HETATM    7  C3  UNL     1       0.882   0.086  -0.098  1.00  0.00     0.051 C 
HETATM    8  C2  UNL     1       2.085  -0.439  -0.254  1.00  0.00     0.037 C 
BRANCH   8   9
HETATM    9  N1  UNL     1       2.188  -1.796  -0.663  1.00  0.00    -0.394 N 
HETATM   10  C1  UNL     1       2.234  -2.835   0.362  1.00  0.00     0.146 C 
HETATM   11  H4  UNL     1       2.242  -2.254  -1.608  1.00  0.00     0.159 HD
ENDBRANCH   8   9
BRANCH   8  12
HETATM   12  C14 UNL     1       3.301   0.326  -0.020  1.00  0.00    -0.010 A 
HETATM   13  C15 UNL     1       3.307   1.644   0.379  1.00  0.00     0.013 A 
HETATM   14  C16 UNL     1       4.466   2.370   0.601  1.00  0.00     0.001 A 
HETATM   15  C17 UNL     1       5.697   1.765   0.421  1.00  0.00     0.000 A 
HETATM   16  C18 UNL     1       5.726   0.425   0.016  1.00  0.00     0.001 A 
HETATM   17  C19 UNL     1       4.540  -0.253  -0.192  1.00  0.00     0.013 A 
ENDBRANCH   8  12
ENDBRANCH   1   7
BRANCH   6  18
HETATM   18  C7  UNL     1      -1.937   1.102   0.303  1.00  0.00     0.164 C 
BRANCH  18  19
HETATM   19  C8  UNL     1      -3.314   0.877   0.805  1.00  0.00    -0.040 A 
HETATM   20  C9  UNL     1      -4.404   1.407   0.157  1.00  0.00     0.009 A 
HETATM   21  C10 UNL     1      -5.704   1.215   0.601  1.00  0.00     0.001 A 
HETATM   22  C11 UNL     1      -5.861   0.449   1.750  1.00  0.00     0.000 A 
HETATM   23  C12 UNL     1      -4.774  -0.085   2.405  1.00  0.00     0.001 A 
HETATM   24  C13 UNL     1      -3.505   0.122   1.943  1.00  0.00     0.009 A 
ENDBRANCH  18  19
ENDBRANCH   6  18
TORSDOF 5
