REMARK  2 active torsions:
REMARK  status: ('A' for Active; 'I' for Inactive)
REMARK    1  A    between atoms: N4_10  and  C7_11 
REMARK    2  A    between atoms: C7_11  and  C8_12 
ROOT
HETATM    1  C1  UNL     1      -4.035  -1.141  -0.778  1.00  0.00     0.037 C 
HETATM    2  C2  UNL     1      -2.676  -0.828  -0.186  1.00  0.00     0.106 C 
HETATM    3  N1  UNL     1      -1.724  -0.970  -1.272  1.00  0.00    -0.407 N 
HETATM    4  C3  UNL     1      -1.796  -0.222  -2.424  1.00  0.00     0.109 A 
HETATM    5  C4  UNL     1      -2.008   0.345  -3.567  1.00  0.00     0.045 A 
HETATM    6  C5  UNL     1      -0.981   1.147  -2.936  1.00  0.00     0.139 A 
HETATM    7  N2  UNL     1      -0.096   1.702  -2.208  1.00  0.00    -0.265 NA
HETATM    8  C6  UNL     1       0.212   1.138  -0.930  1.00  0.00     0.152 C 
HETATM    9  N3  UNL     1       1.190   0.301  -1.093  1.00  0.00    -0.161 NA
HETATM   10  N4  UNL     1       1.521  -0.274   0.149  1.00  0.00    -0.297 N 
HETATM   11  C13 UNL     1       0.403  -0.072   1.038  1.00  0.00     0.116 C 
HETATM   12  C14 UNL     1       0.871   0.171   2.470  1.00  0.00     0.035 C 
HETATM   13  C15 UNL     1      -0.195   1.196   0.482  1.00  0.00     0.116 C 
HETATM   14  C16 UNL     1      -1.637   1.358   0.722  1.00  0.00    -0.036 A 
HETATM   15  C17 UNL     1      -1.969   2.575   1.337  1.00  0.00     0.009 A 
HETATM   16  C18 UNL     1      -3.228   3.011   1.694  1.00  0.00     0.001 A 
HETATM   17  C19 UNL     1      -4.280   2.161   1.420  1.00  0.00     0.001 A 
HETATM   18  C20 UNL     1      -3.964   0.961   0.815  1.00  0.00     0.010 A 
HETATM   19  C21 UNL     1      -2.688   0.507   0.447  1.00  0.00    -0.029 A 
HETATM   20  H5  UNL     1      -0.926  -1.670  -1.205  1.00  0.00     0.154 HD
ENDROOT
BRANCH  10  21
HETATM   21  C7  UNL     1       2.695  -0.989   0.678  1.00  0.00     0.159 C 
BRANCH  21  22
HETATM   22  C8  UNL     1       3.767  -1.109  -0.391  1.00  0.00    -0.000 A 
HETATM   23  C9  UNL     1       4.263   0.226  -0.907  1.00  0.00     0.021 C 
HETATM   24  C10 UNL     1       3.500  -2.099  -1.416  1.00  0.00     0.022 A 
HETATM   25  C11 UNL     1       4.490  -2.854  -1.017  1.00  0.00     0.092 A 
HETATM   26  F1  UNL     1       5.038  -4.051  -1.396  1.00  0.00    -0.211 F 
HETATM   27  C12 UNL     1       4.898  -1.962   0.071  1.00  0.00     0.084 A 
ENDBRANCH  21  22
ENDBRANCH  10  21
TORSDOF 2
