REMARK  2 active torsions:
REMARK  status: ('A' for Active; 'I' for Inactive)
REMARK    1  A    between atoms: C1_2  and  C2_3 
REMARK    2  A    between atoms: N1_7  and  C6_8 
ROOT
HETATM    1  C6  UNL     1      -1.139   0.602   0.573  1.00  0.00     0.140 C 
HETATM    2  N2  UNL     1      -1.710   1.714   0.967  1.00  0.00    -0.224 NA
HETATM    3  C7  UNL     1      -1.236   3.065   1.129  1.00  0.00     0.230 C 
HETATM    4  N3  UNL     1      -0.302   3.800   0.631  1.00  0.00    -0.263 NA
HETATM    5  C8  UNL     1       0.741   3.611  -0.354  1.00  0.00     0.272 C 
HETATM    6  N4  UNL     1       1.573   2.471  -0.125  1.00  0.00    -0.370 N 
HETATM    7  C9  UNL     1       1.275   1.063  -0.129  1.00  0.00     0.054 A 
HETATM    8  C10 UNL     1       0.220   0.311   0.141  1.00  0.00     0.038 A 
HETATM    9  C11 UNL     1       0.515  -1.099  -0.043  1.00  0.00     0.026 A 
HETATM   10  C12 UNL     1       1.774  -1.208  -0.433  1.00  0.00    -0.038 A 
HETATM   11  C13 UNL     1       2.574  -2.417  -0.756  1.00  0.00     0.109 A 
HETATM   12  C14 UNL     1       3.948  -2.049  -1.149  1.00  0.00     0.098 A 
HETATM   13  F1  UNL     1       4.805  -3.028  -1.474  1.00  0.00    -0.210 F 
HETATM   14  C15 UNL     1       4.414  -0.813  -1.207  1.00  0.00     0.039 A 
HETATM   15  C16 UNL     1       3.594   0.347  -0.880  1.00  0.00     0.017 A 
HETATM   16  C17 UNL     1       2.349   0.130  -0.517  1.00  0.00    -0.002 A 
HETATM   17  H10 UNL     1       2.608   2.582   0.094  1.00  0.00     0.161 HD
ENDROOT
BRANCH   1  18
HETATM   18  N1  UNL     1      -2.067  -0.502   0.587  1.00  0.00    -0.351 N 
HETATM   19  C2  UNL     1      -3.023  -1.305  -0.190  1.00  0.00     0.142 C 
HETATM   20  C3  UNL     1      -4.237  -1.174   0.661  1.00  0.00    -0.002 C 
HETATM   21  C4  UNL     1      -3.789  -1.154   1.925  1.00  0.00    -0.009 C 
HETATM   22  C5  UNL     1      -2.289  -1.275   1.801  1.00  0.00     0.152 C 
BRANCH  19  23
HETATM   23  C1  UNL     1      -3.213  -0.812  -1.560  1.00  0.00     0.420 C 
HETATM   24  O1  UNL     1      -2.447   0.144  -1.521  1.00  0.00    -0.428 OA
ENDBRANCH  19  23
ENDBRANCH   1  18
TORSDOF 2
