REMARK  2 active torsions:
REMARK  status: ('A' for Active; 'I' for Inactive)
REMARK    1  A    between atoms: C3_4  and  C4_5 
REMARK    2  A    between atoms: C15_19  and  C16_20 
ROOT
HETATM    1  C1  UNL     1       1.633  -1.021  -3.477  1.00  0.00     0.048 C 
HETATM    2  C2  UNL     1       1.308  -1.010  -2.016  1.00  0.00     0.252 C 
HETATM    3  N1  UNL     1       2.146  -0.102  -1.235  1.00  0.00     0.106 N 
HETATM    4  C3  UNL     1       1.708   0.129   0.136  1.00  0.00     0.294 C 
HETATM    5  C10 UNL     1       0.392   0.818   0.151  1.00  0.00     0.131 C 
HETATM    6  N2  UNL     1      -0.735   1.303   0.202  1.00  0.00    -0.254 NA
HETATM    7  C11 UNL     1      -1.464   2.435  -0.072  1.00  0.00     0.254 C 
HETATM    8  N3  UNL     1      -2.078   1.850  -1.169  1.00  0.00    -0.161 NA
HETATM    9  N4  UNL     1      -1.568   0.502  -1.297  1.00  0.00    -0.243 N 
HETATM   10  C12 UNL     1      -0.435   0.619  -1.979  1.00  0.00     0.128 A 
HETATM   11  C13 UNL     1      -0.089  -0.673  -1.677  1.00  0.00    -0.006 A 
HETATM   12  C14 UNL     1      -0.924  -1.472  -0.923  1.00  0.00     0.043 A 
HETATM   13  C15 UNL     1      -1.985  -0.587  -0.665  1.00  0.00     0.069 A 
HETATM   14  H5  UNL     1       3.131  -0.333  -1.314  1.00  0.00     0.318 HD
ENDROOT
BRANCH  13  15
HETATM   15  C16 UNL     1      -3.190  -0.855   0.079  1.00  0.00    -0.007 A 
HETATM   16  C17 UNL     1      -3.790  -2.072  -0.270  1.00  0.00     0.017 A 
HETATM   17  C18 UNL     1      -4.963  -2.541   0.318  1.00  0.00     0.043 A 
HETATM   18  C19 UNL     1      -5.526  -1.736   1.285  1.00  0.00     0.116 A 
HETATM   19  F1  UNL     1      -6.667  -2.167   1.874  1.00  0.00    -0.206 F 
HETATM   20  C20 UNL     1      -4.988  -0.523   1.681  1.00  0.00     0.043 A 
HETATM   21  C21 UNL     1      -3.828  -0.127   1.055  1.00  0.00     0.017 A 
ENDBRANCH  13  15
BRANCH   4  22
HETATM   22  C4  UNL     1       2.750   0.680   0.961  1.00  0.00    -0.020 A 
HETATM   23  C5  UNL     1       4.022   0.170   1.005  1.00  0.00     0.010 A 
HETATM   24  C6  UNL     1       4.996   0.729   1.805  1.00  0.00     0.001 A 
HETATM   25  C7  UNL     1       4.765   1.840   2.620  1.00  0.00     0.000 A 
HETATM   26  C8  UNL     1       3.469   2.304   2.530  1.00  0.00     0.001 A 
HETATM   27  C9  UNL     1       2.461   1.791   1.755  1.00  0.00     0.010 A 
ENDBRANCH   4  22
TORSDOF 2
