REMARK  7 active torsions:
REMARK  status: ('A' for Active; 'I' for Inactive)
REMARK    1  A    between atoms: C2_2  and  N1_3 
REMARK    2  A    between atoms: C2_2  and  C15_21 
REMARK    3  A    between atoms: N1_3  and  C3_4 
REMARK    4  A    between atoms: C6_9  and  C7_10 
REMARK    5  A    between atoms: C8_11  and  N4_12 
REMARK    6  A    between atoms: C8_11  and  C9_13 
REMARK    7  A    between atoms: C9_13  and  C10_14 
ROOT
HETATM    1  C3  UNL     1      -1.152   0.644  -1.244  1.00  0.00     0.137 A 
HETATM    2  N2  UNL     1      -2.015   1.328  -1.975  1.00  0.00    -0.224 NA
HETATM    3  C4  UNL     1      -1.818   1.457  -3.295  1.00  0.00     0.234 A 
HETATM    4  N3  UNL     1      -0.755   0.908  -3.920  1.00  0.00    -0.253 NA
HETATM    5  C5  UNL     1       0.171   0.191  -3.223  1.00  0.00     0.133 A 
HETATM    6  C6  UNL     1      -0.038   0.063  -1.869  1.00  0.00     0.029 A 
ENDROOT
BRANCH   6   7
HETATM    7  C7  UNL     1       0.925  -0.708  -1.095  1.00  0.00     0.041 C 
HETATM    8  C8  UNL     1       2.259  -0.702  -1.247  1.00  0.00     0.007 C 
BRANCH   8   9
HETATM    9  N4  UNL     1       2.792   0.137  -2.259  1.00  0.00    -0.402 N 
HETATM   10  H9  UNL     1       3.427  -0.069  -3.059  1.00  0.00     0.156 HD
HETATM   11  H10 UNL     1       2.464   1.127  -2.142  1.00  0.00     0.156 HD
ENDBRANCH   8   9
BRANCH   8  12
HETATM   12  C9  UNL     1       3.082  -1.557  -0.368  1.00  0.00     0.092 C 
BRANCH  12  13
HETATM   13  C10 UNL     1       4.010  -0.726   0.415  1.00  0.00    -0.055 A 
HETATM   14  C11 UNL     1       3.912  -0.760   1.743  1.00  0.00     0.093 A 
HETATM   15  N5  UNL     1       4.725  -0.025   2.641  1.00  0.00    -0.343 N 
HETATM   16  C12 UNL     1       5.739   0.829   2.143  1.00  0.00     0.184 A 
HETATM   17  H14 UNL     1       4.580  -0.110   3.661  1.00  0.00     0.167 HD
HETATM   18  F1  UNL     1       6.557   1.564   2.915  1.00  0.00    -0.187 F 
HETATM   19  C13 UNL     1       5.831   0.858   0.827  1.00  0.00     0.039 A 
HETATM   20  C14 UNL     1       5.043   0.139  -0.204  1.00  0.00     0.067 A 
ENDBRANCH  12  13
ENDBRANCH   8  12
ENDBRANCH   6   7
BRANCH   1  21
HETATM   21  N1  UNL     1      -1.372   0.545   0.168  1.00  0.00    -0.366 N 
HETATM   22  H5  UNL     1      -0.609   0.004   0.684  1.00  0.00     0.161 HD
BRANCH  21  23
HETATM   23  C2  UNL     1      -2.453   1.071   0.908  1.00  0.00     0.112 C 
HETATM   24  C1  UNL     1      -2.750   2.550   0.645  1.00  0.00     0.037 C 
BRANCH  23  25
HETATM   25  C15 UNL     1      -3.701   0.341   0.981  1.00  0.00    -0.036 A 
HETATM   26  C16 UNL     1      -4.372  -0.331  -0.012  1.00  0.00     0.009 A 
HETATM   27  C17 UNL     1      -5.557  -1.014   0.083  1.00  0.00     0.001 A 
HETATM   28  C18 UNL     1      -6.184  -1.054   1.311  1.00  0.00     0.000 A 
HETATM   29  C19 UNL     1      -5.609  -0.416   2.389  1.00  0.00     0.001 A 
HETATM   30  C20 UNL     1      -4.418   0.241   2.187  1.00  0.00     0.009 A 
ENDBRANCH  23  25
ENDBRANCH  21  23
ENDBRANCH   1  21
TORSDOF 7
