REMARK  6 active torsions:
REMARK  status: ('A' for Active; 'I' for Inactive)
REMARK    1  A    between atoms: C2_2  and  N1_3 
REMARK    2  A    between atoms: C2_2  and  C14_19 
REMARK    3  A    between atoms: N1_3  and  C3_4 
REMARK    4  A    between atoms: C6_9  and  C7_10 
REMARK    5  A    between atoms: C7_10  and  N4_11 
REMARK    6  A    between atoms: C7_10  and  C8_12 
ROOT
HETATM    1  C3  UNL     1       0.148  -1.250  -1.093  1.00  0.00     0.135 A 
HETATM    2  N2  UNL     1       1.155  -2.121  -1.011  1.00  0.00    -0.224 NA
HETATM    3  C4  UNL     1       1.057  -3.449  -0.940  1.00  0.00     0.234 A 
HETATM    4  N3  UNL     1      -0.188  -3.957  -0.954  1.00  0.00    -0.253 NA
HETATM    5  C5  UNL     1      -1.231  -3.118  -1.035  1.00  0.00     0.131 A 
HETATM    6  C6  UNL     1      -1.143  -1.718  -1.110  1.00  0.00     0.042 A 
ENDROOT
BRANCH   6   7
HETATM    7  C7  UNL     1      -2.340  -0.855  -1.177  1.00  0.00     0.289 C 
BRANCH   7   8
HETATM    8  N4  UNL     1      -2.442  -0.022  -2.333  1.00  0.00     0.091 NA
HETATM    9  H9  UNL     1      -2.615   0.964  -2.098  1.00  0.00     0.314 HD
HETATM   10  H10 UNL     1      -1.745  -0.121  -3.060  1.00  0.00     0.314 HD
ENDBRANCH   7   8
BRANCH   7  11
HETATM   11  C8  UNL     1      -2.741  -0.237   0.097  1.00  0.00    -0.021 A 
HETATM   12  C9  UNL     1      -2.560   1.050   0.552  1.00  0.00     0.012 A 
HETATM   13  C10 UNL     1      -2.962   1.515   1.763  1.00  0.00     0.043 A 
HETATM   14  C11 UNL     1      -3.604   0.690   2.650  1.00  0.00     0.116 A 
HETATM   15  F1  UNL     1      -4.001   1.157   3.853  1.00  0.00    -0.206 F 
HETATM   16  C12 UNL     1      -3.834  -0.620   2.289  1.00  0.00     0.043 A 
HETATM   17  C13 UNL     1      -3.403  -1.033   1.047  1.00  0.00     0.012 A 
ENDBRANCH   7  11
ENDBRANCH   6   7
BRANCH   1  18
HETATM   18  N1  UNL     1       0.460   0.128  -1.201  1.00  0.00    -0.366 N 
HETATM   19  H5  UNL     1      -0.371   0.738  -1.313  1.00  0.00     0.161 HD
BRANCH  18  20
HETATM   20  C2  UNL     1       1.685   0.868  -1.195  1.00  0.00     0.112 C 
HETATM   21  C1  UNL     1       2.669   0.198  -2.159  1.00  0.00     0.037 C 
BRANCH  20  22
HETATM   22  C14 UNL     1       2.314   1.126   0.089  1.00  0.00    -0.036 A 
HETATM   23  C15 UNL     1       2.497   0.290   1.167  1.00  0.00     0.009 A 
HETATM   24  C16 UNL     1       3.109   0.606   2.353  1.00  0.00     0.001 A 
HETATM   25  C17 UNL     1       3.602   1.874   2.520  1.00  0.00     0.000 A 
HETATM   26  C18 UNL     1       3.482   2.800   1.517  1.00  0.00     0.001 A 
HETATM   27  C19 UNL     1       2.852   2.392   0.363  1.00  0.00     0.009 A 
ENDBRANCH  20  22
ENDBRANCH  18  20
ENDBRANCH   1  18
TORSDOF 6
