REMARK  7 active torsions:
REMARK  status: ('A' for Active; 'I' for Inactive)
REMARK    1  A    between atoms: N1_1  and  C1_2 
REMARK    2  A    between atoms: C3_4  and  N2_5 
REMARK    3  A    between atoms: N2_5  and  C4_6 
REMARK    4  A    between atoms: C5_7  and  C6_8 
REMARK    5  A    between atoms: N3_9  and  C7_10 
REMARK    6  A    between atoms: C7_10  and  C8_11 
REMARK    7  A    between atoms: N4_18  and  C14_19 
ROOT
HETATM    1  C4  UNL     1      -0.521  -0.171  -0.829  1.00  0.00     0.279 A 
HETATM    2  C5  UNL     1       0.622  -0.590  -0.897  1.00  0.00     0.018 A 
HETATM    3  C14 UNL     1       0.924   0.671   0.280  1.00  0.00     0.159 A 
ENDROOT
BRANCH   1   4
HETATM    4  N2  UNL     1      -1.340  -0.354   0.396  1.00  0.00     0.102 N 
HETATM    5  H5  UNL     1      -0.972   0.244   1.149  1.00  0.00     0.317 HD
BRANCH   4   6
HETATM    6  C3  UNL     1      -2.630   0.202   0.039  1.00  0.00     0.249 C 
HETATM    7  C2  UNL     1      -3.613   0.116   1.158  1.00  0.00     0.033 C 
HETATM    8  C1  UNL     1      -4.797   0.688   1.150  1.00  0.00     0.004 C 
HETATM    9  C18 UNL     1      -5.444   1.531   0.082  1.00  0.00     0.083 C 
HETATM   10  C17 UNL     1      -5.439   0.777  -1.200  1.00  0.00    -0.025 C 
HETATM   11  C16 UNL     1      -4.464  -0.016  -1.628  1.00  0.00    -0.028 C 
HETATM   12  C15 UNL     1      -3.154  -0.475  -1.167  1.00  0.00     0.066 C 
BRANCH   8  13
HETATM   13  N1  UNL     1      -5.483   0.405   2.378  1.00  0.00    -0.402 N 
HETATM   14  H1  UNL     1      -5.298   1.305   2.890  1.00  0.00     0.156 HD
HETATM   15  H2  UNL     1      -6.007  -0.479   2.630  1.00  0.00     0.156 HD
ENDBRANCH   8  13
ENDBRANCH   4   6
ENDBRANCH   1   4
BRANCH   2  16
HETATM   16  C6  UNL     1       1.447  -0.875  -0.930  1.00  0.00     0.121 A 
HETATM   17  N3  UNL     1       2.437  -1.198  -0.953  1.00  0.00    -0.288 N 
HETATM   18  N4  UNL     1       2.110  -0.038  -0.028  1.00  0.00    -0.164 NA
BRANCH  17  19
HETATM   19  C7  UNL     1       3.764  -1.661  -1.010  1.00  0.00     0.183 C 
BRANCH  19  20
HETATM   20  C8  UNL     1       4.693  -0.936  -0.099  1.00  0.00    -0.039 A 
HETATM   21  C9  UNL     1       4.860  -1.415   1.183  1.00  0.00     0.010 A 
HETATM   22  C10 UNL     1       5.712  -0.771   2.057  1.00  0.00     0.019 A 
HETATM   23  C11 UNL     1       6.408   0.360   1.660  1.00  0.00     0.011 A 
HETATM   24 BR1  UNL     1       7.558   1.185   2.922  1.00  0.00    -0.051 Br
HETATM   25  C12 UNL     1       6.262   0.866   0.379  1.00  0.00     0.019 A 
HETATM   26  C13 UNL     1       5.401   0.190  -0.457  1.00  0.00     0.010 A 
ENDBRANCH  19  20
ENDBRANCH  17  19
ENDBRANCH   2  16
TORSDOF 7
