REMARK  7 active torsions:
REMARK  status: ('A' for Active; 'I' for Inactive)
REMARK    1  A    between atoms: C2_2  and  C3_3 
REMARK    2  A    between atoms: C2_2  and  C9_10 
REMARK    3  A    between atoms: C4_4  and  C5_5 
REMARK    4  A    between atoms: C5_5  and  C6_6 
REMARK    5  A    between atoms: C6_6  and  C7_7 
REMARK    6  A    between atoms: C7_7  and  C8_8 
REMARK    7  A    between atoms: N2_22  and  N3_23 
ROOT
HETATM    1  C9  UNL     1       0.187   0.644   0.160  1.00  0.00     0.037 C 
HETATM    2  C10 UNL     1      -0.649   0.878   1.364  1.00  0.00     0.091 C 
HETATM    3  N1  UNL     1      -1.596   0.168   1.839  1.00  0.00    -0.279 NA
HETATM    4  C11 UNL     1      -1.948  -1.040   1.156  1.00  0.00     0.226 C 
HETATM    5  C12 UNL     1      -1.782  -0.791  -0.298  1.00  0.00    -0.039 C 
HETATM    6  C13 UNL     1      -2.722  -0.820  -1.244  1.00  0.00     0.015 C 
HETATM    7  C14 UNL     1      -4.073  -1.135  -0.795  1.00  0.00    -0.034 A 
HETATM    8  C15 UNL     1      -5.170  -1.626  -1.345  1.00  0.00     0.010 A 
HETATM    9  C16 UNL     1      -6.195  -1.679  -0.277  1.00  0.00     0.017 A 
HETATM   10  C17 UNL     1      -5.662  -1.216   0.868  1.00  0.00     0.012 A 
HETATM   11 BR1  UNL     1      -6.754  -1.164   2.440  1.00  0.00    -0.054 Br
HETATM   12  C18 UNL     1      -4.259  -0.811   0.667  1.00  0.00     0.150 A 
HETATM   13  N2  UNL     1      -3.295  -1.467   1.482  1.00  0.00    -0.212 NA
HETATM   14  C19 UNL     1      -0.362  -0.474  -0.697  1.00  0.00     0.048 C 
ENDROOT
BRANCH   1  15
HETATM   15  C2  UNL     1       1.621   0.332   0.490  1.00  0.00     0.013 C 
HETATM   16  C1  UNL     1       1.781  -0.904   1.339  1.00  0.00     0.015 C 
BRANCH  15  17
HETATM   17  C3  UNL     1       2.320   1.457   1.118  1.00  0.00    -0.022 C 
HETATM   18  C4  UNL     1       3.361   2.210   0.875  1.00  0.00    -0.007 C 
BRANCH  18  19
HETATM   19  C5  UNL     1       4.122   1.936  -0.354  1.00  0.00    -0.021 C 
BRANCH  19  20
HETATM   20  C6  UNL     1       5.034   2.040  -1.273  1.00  0.00     0.023 C 
BRANCH  20  21
HETATM   21  C7  UNL     1       6.192   2.839  -1.595  1.00  0.00     0.037 C 
BRANCH  21  22
HETATM   22  C8  UNL     1       6.646   2.339  -2.751  1.00  0.00     0.419 C 
HETATM   23  F1  UNL     1       6.845   1.624  -3.888  1.00  0.00    -0.455 F 
ENDBRANCH  21  22
ENDBRANCH  20  21
ENDBRANCH  19  20
ENDBRANCH  18  19
ENDBRANCH  15  17
ENDBRANCH   1  15
BRANCH  13  24
HETATM   24  N3  UNL     1      -3.370  -2.836   1.497  1.00  0.00    -0.265 NA
HETATM   25  H18 UNL     1      -2.766  -3.223   0.735  1.00  0.00     0.137 HD
HETATM   26  H19 UNL     1      -2.901  -3.182   2.383  1.00  0.00     0.137 HD
ENDBRANCH  13  24
TORSDOF 7
