REMARK  2 active torsions:
REMARK  status: ('A' for Active; 'I' for Inactive)
REMARK    1  A    between atoms: C8_8  and  N1_9 
REMARK    2  A    between atoms: N1_9  and  C9_10 
ROOT
HETATM    1  C1  UNL     1      -4.795   0.176   1.355  1.00  0.00     0.032 C 
HETATM    2  C2  UNL     1      -4.461  -0.752   0.200  1.00  0.00     0.083 C 
HETATM    3  C3  UNL     1      -3.904  -0.008  -0.993  1.00  0.00     0.083 C 
HETATM    4  C4  UNL     1      -2.465   0.041  -0.694  1.00  0.00     0.034 C 
HETATM    5  C5  UNL     1      -2.056  -0.828   0.227  1.00  0.00     0.032 C 
HETATM    6  C6  UNL     1      -0.837  -1.252   0.921  1.00  0.00     0.089 C 
HETATM    7  C7  UNL     1       0.269  -0.326   1.009  1.00  0.00     0.029 C 
HETATM    8  C8  UNL     1       0.875   0.705   0.471  1.00  0.00     0.121 C 
HETATM    9  N2  UNL     1       0.540   1.451  -0.706  1.00  0.00    -0.227 NA
HETATM   10  C15 UNL     1      -0.469   1.591  -1.469  1.00  0.00     0.209 C 
HETATM   11  N3  UNL     1      -1.757   1.020  -1.451  1.00  0.00    -0.352 N 
HETATM   12  N4  UNL     1      -3.260  -1.509   0.583  1.00  0.00    -0.387 N 
HETATM   13  H18 UNL     1      -2.345   1.453  -2.222  1.00  0.00     0.166 HD
HETATM   14  H19 UNL     1      -3.374  -2.440   1.063  1.00  0.00     0.159 HD
ENDROOT
BRANCH   8  15
HETATM   15  N1  UNL     1       2.047   1.203   1.106  1.00  0.00    -0.367 N 
HETATM   16  H10 UNL     1       1.577   1.856   1.799  1.00  0.00     0.161 HD
BRANCH  15  17
HETATM   17  C9  UNL     1       3.402   0.836   0.794  1.00  0.00     0.110 A 
HETATM   18  C10 UNL     1       3.678  -0.591   0.965  1.00  0.00     0.001 A 
HETATM   19  C11 UNL     1       4.234  -1.556   0.258  1.00  0.00     0.040 A 
HETATM   20  C12 UNL     1       4.705  -1.096  -1.040  1.00  0.00     0.112 A 
HETATM   21  F1  UNL     1       5.308  -1.906  -1.935  1.00  0.00    -0.206 F 
HETATM   22  C13 UNL     1       4.488   0.187  -1.264  1.00  0.00     0.018 A 
HETATM   23  C14 UNL     1       3.877   1.313  -0.527  1.00  0.00     0.059 A 
ENDBRANCH  15  17
ENDBRANCH   8  15
TORSDOF 2
