REMARK  3 active torsions:
REMARK  status: ('A' for Active; 'I' for Inactive)
REMARK    1  A    between atoms: C2_2  and  N1_3 
REMARK    2  A    between atoms: C2_2  and  C13_17 
REMARK    3  A    between atoms: N1_3  and  C3_4 
ROOT
HETATM    1  C3  UNL     1      -0.446   0.058  -0.099  1.00  0.00     0.295 A 
HETATM    2  C4  UNL     1       0.706   0.798   0.280  1.00  0.00    -0.003 A 
HETATM    3  C5  UNL     1       0.799  -0.644  -0.049  1.00  0.00     0.027 A 
HETATM    4  S1  UNL     1       2.190  -1.743  -0.067  1.00  0.00    -0.099 SA
HETATM    5  C6  UNL     1       3.773  -0.999  -0.418  1.00  0.00     0.211 C 
HETATM    6  N2  UNL     1       3.703   0.392  -0.837  1.00  0.00    -0.370 N 
HETATM    7  C7  UNL     1       3.243   1.084   0.361  1.00  0.00     0.029 C 
HETATM    8  C8  UNL     1       1.969   1.459   0.659  1.00  0.00     0.040 C 
HETATM    9  C9  UNL     1       4.078   1.525   1.538  1.00  0.00     0.029 C 
HETATM   10  C10 UNL     1       5.130   0.792   1.980  1.00  0.00     0.005 C 
HETATM   11  C11 UNL     1       5.513  -0.566   1.536  1.00  0.00     0.041 C 
HETATM   12  C12 UNL     1       4.818  -1.252   0.611  1.00  0.00     0.126 C 
HETATM   13  F1  UNL     1       5.222  -2.567   0.663  1.00  0.00    -0.208 F 
HETATM   14  H8  UNL     1       3.989   0.593  -1.863  1.00  0.00     0.161 HD
ENDROOT
BRANCH   1  15
HETATM   15  N1  UNL     1      -1.054   0.204  -1.422  1.00  0.00     0.106 N 
HETATM   16  H5  UNL     1      -1.252   1.186  -1.659  1.00  0.00     0.318 HD
BRANCH  15  17
HETATM   17  C2  UNL     1      -2.205  -0.646  -1.570  1.00  0.00     0.250 C 
HETATM   18  C1  UNL     1      -2.854  -0.523  -2.919  1.00  0.00     0.048 C 
BRANCH  17  19
HETATM   19  C13 UNL     1      -3.206  -0.353  -0.491  1.00  0.00    -0.026 A 
HETATM   20  C14 UNL     1      -3.469   0.982  -0.231  1.00  0.00     0.009 A 
HETATM   21  C15 UNL     1      -4.395   1.304   0.767  1.00  0.00     0.001 A 
HETATM   22  C16 UNL     1      -5.058   0.342   1.503  1.00  0.00     0.000 A 
HETATM   23  C17 UNL     1      -4.751  -0.966   1.194  1.00  0.00     0.001 A 
HETATM   24  C18 UNL     1      -3.851  -1.351   0.226  1.00  0.00     0.009 A 
ENDBRANCH  17  19
ENDBRANCH  15  17
ENDBRANCH   1  15
TORSDOF 3
