REMARK  4 active torsions:
REMARK  status: ('A' for Active; 'I' for Inactive)
REMARK    1  A    between atoms: C2_3  and  N2_4 
REMARK    2  A    between atoms: C2_3  and  C11_13 
REMARK    3  A    between atoms: N2_4  and  C3_5 
REMARK    4  A    between atoms: C3_5  and  C5_7 
ROOT
HETATM    1  C1  UNL     1      -1.524  -1.790  -2.385  1.00  0.00     0.179 C 
HETATM    2  N1  UNL     1      -0.476  -1.108  -1.692  1.00  0.00    -0.277 NA
HETATM    3  C2  UNL     1      -0.573  -0.253  -0.791  1.00  0.00     0.128 C 
ENDROOT
BRANCH   3   4
HETATM    4  N2  UNL     1       0.742   0.180  -0.369  1.00  0.00    -0.366 N 
HETATM    5  H4  UNL     1       0.939   1.112   0.111  1.00  0.00     0.161 HD
BRANCH   4   6
HETATM    6  C3  UNL     1       1.931  -0.630  -0.564  1.00  0.00     0.112 C 
HETATM    7  C4  UNL     1       1.743  -1.928   0.174  1.00  0.00     0.037 C 
BRANCH   6   8
HETATM    8  C5  UNL     1       3.167   0.045  -0.178  1.00  0.00    -0.036 A 
HETATM    9  C6  UNL     1       3.210   1.355  -0.653  1.00  0.00     0.009 A 
HETATM   10  C7  UNL     1       4.303   2.191  -0.403  1.00  0.00     0.001 A 
HETATM   11  C8  UNL     1       5.368   1.691   0.339  1.00  0.00     0.000 A 
HETATM   12  C9  UNL     1       5.333   0.396   0.811  1.00  0.00     0.001 A 
HETATM   13  C10 UNL     1       4.251  -0.414   0.557  1.00  0.00     0.009 A 
ENDBRANCH   6   8
ENDBRANCH   4   6
ENDBRANCH   3   4
BRANCH   3  14
HETATM   14  C11 UNL     1      -1.589   0.454  -0.016  1.00  0.00     0.029 C 
HETATM   15  C12 UNL     1      -1.851   1.366   0.949  1.00  0.00     0.105 C 
HETATM   16  N3  UNL     1      -3.290   1.146   0.798  1.00  0.00    -0.353 N 
HETATM   17  C13 UNL     1      -4.430   1.395   1.613  1.00  0.00     0.091 C 
HETATM   18  C17 UNL     1      -2.950   0.431  -0.394  1.00  0.00     0.149 C 
HETATM   19  C14 UNL     1      -5.333   0.424   1.315  1.00  0.00     0.017 C 
HETATM   20  C15 UNL     1      -5.027  -0.577   0.258  1.00  0.00    -0.000 C 
HETATM   21  C16 UNL     1      -3.925  -0.616  -0.536  1.00  0.00     0.004 C 
ENDBRANCH   3  14
TORSDOF 4
