REMARK  4 active torsions:
REMARK  status: ('A' for Active; 'I' for Inactive)
REMARK    1  A    between atoms: C2_2  and  N1_3 
REMARK    2  A    between atoms: C2_2  and  C14_19 
REMARK    3  A    between atoms: N1_3  and  C3_4 
REMARK    4  A    between atoms: C7_10  and  C8_11 
ROOT
HETATM    1  C3  UNL     1      -0.075  -0.716  -1.867  1.00  0.00     0.138 A 
HETATM    2  N2  UNL     1      -0.711  -1.585  -2.661  1.00  0.00    -0.224 NA
HETATM    3  C4  UNL     1      -0.037  -2.344  -3.543  1.00  0.00     0.237 A 
HETATM    4  N3  UNL     1       1.306  -2.238  -3.639  1.00  0.00    -0.224 NA
HETATM    5  C5  UNL     1       2.011  -1.386  -2.871  1.00  0.00     0.138 A 
HETATM    6  C6  UNL     1       1.306  -0.596  -1.954  1.00  0.00     0.060 A 
HETATM    7  C7  UNL     1       2.522   0.073  -1.453  1.00  0.00     0.157 A 
HETATM    8  N4  UNL     1       3.207  -0.765  -2.417  1.00  0.00    -0.361 N 
HETATM    9  H12 UNL     1       4.223  -0.882  -2.692  1.00  0.00     0.162 HD
ENDROOT
BRANCH   1  10
HETATM   10  N1  UNL     1      -0.788   0.087  -0.936  1.00  0.00    -0.366 N 
HETATM   11  H5  UNL     1      -0.279   0.761  -0.324  1.00  0.00     0.161 HD
BRANCH  10  12
HETATM   12  C2  UNL     1      -2.228   0.010  -0.795  1.00  0.00     0.112 C 
HETATM   13  C1  UNL     1      -2.689  -1.376  -0.380  1.00  0.00     0.037 C 
BRANCH  12  14
HETATM   14  C14 UNL     1      -2.741   1.037   0.145  1.00  0.00    -0.036 A 
HETATM   15  C15 UNL     1      -3.665   0.891   1.157  1.00  0.00     0.009 A 
HETATM   16  C16 UNL     1      -4.021   1.973   1.937  1.00  0.00     0.001 A 
HETATM   17  C17 UNL     1      -3.496   3.235   1.764  1.00  0.00     0.000 A 
HETATM   18  C18 UNL     1      -2.571   3.372   0.748  1.00  0.00     0.001 A 
HETATM   19  C19 UNL     1      -2.190   2.306  -0.055  1.00  0.00     0.009 A 
ENDBRANCH  12  14
ENDBRANCH  10  12
ENDBRANCH   1  10
BRANCH   7  20
HETATM   20  C8  UNL     1       2.888  -0.249  -0.047  1.00  0.00    -0.031 A 
HETATM   21  C9  UNL     1       3.174   0.750   0.859  1.00  0.00     0.011 A 
HETATM   22  C10 UNL     1       3.502   0.332   2.134  1.00  0.00     0.019 A 
HETATM   23  C11 UNL     1       3.558  -0.983   2.541  1.00  0.00     0.011 A 
HETATM   24 BR1  UNL     1       4.025  -1.445   4.339  1.00  0.00    -0.051 Br
HETATM   25  C12 UNL     1       3.259  -1.919   1.578  1.00  0.00     0.019 A 
HETATM   26  C13 UNL     1       2.924  -1.589   0.289  1.00  0.00     0.011 A 
ENDBRANCH   7  20
TORSDOF 4
