REMARK  6 active torsions:
REMARK  status: ('A' for Active; 'I' for Inactive)
REMARK    1  A    between atoms: C2_2  and  C3_3 
REMARK    2  A    between atoms: C4_4  and  C5_5 
REMARK    3  A    between atoms: C6_6  and  C7_7 
REMARK    4  A    between atoms: C7_7  and  C8_8 
REMARK    5  A    between atoms: C8_8  and  N1_10 
REMARK    6  A    between atoms: N1_10  and  C10_11 
ROOT
HETATM    1  C10 UNL     1      -1.303  -0.688   0.043  1.00  0.00     0.138 A 
HETATM    2  N2  UNL     1      -0.467  -1.733   0.044  1.00  0.00    -0.224 NA
HETATM    3  C11 UNL     1      -0.735  -2.971   0.466  1.00  0.00     0.237 A 
HETATM    4  N3  UNL     1      -1.968  -3.207   0.945  1.00  0.00    -0.224 NA
HETATM    5  C12 UNL     1      -2.882  -2.221   0.987  1.00  0.00     0.139 A 
HETATM    6  C13 UNL     1      -2.582  -0.957   0.545  1.00  0.00     0.066 A 
HETATM    7  C14 UNL     1      -3.925  -0.407   0.845  1.00  0.00     0.091 A 
HETATM    8  C15 UNL     1      -3.971   0.625   1.879  1.00  0.00     0.011 A 
HETATM    9  C16 UNL     1      -4.599   1.779   1.998  1.00  0.00     0.017 A 
HETATM   10  C17 UNL     1      -5.436   2.112   0.855  1.00  0.00     0.007 A 
HETATM   11 BR1  UNL     1      -6.448   3.719   0.772  1.00  0.00    -0.051 Br
HETATM   12  C18 UNL     1      -5.439   1.218  -0.116  1.00  0.00    -0.000 A 
HETATM   13  C19 UNL     1      -4.777  -0.090  -0.337  1.00  0.00     0.042 A 
HETATM   14  C20 UNL     1      -3.968   0.056  -1.635  1.00  0.00     0.017 C 
HETATM   15  N4  UNL     1      -4.187  -1.762   1.306  1.00  0.00    -0.356 N 
HETATM   16  H25 UNL     1      -5.080  -2.108   1.706  1.00  0.00     0.162 HD
ENDROOT
BRANCH   1  17
HETATM   17  N1  UNL     1      -0.831   0.546  -0.470  1.00  0.00    -0.370 N 
HETATM   18  H16 UNL     1      -1.636   1.240  -0.411  1.00  0.00     0.161 HD
BRANCH  17  19
HETATM   19  C8  UNL     1       0.376   1.070  -1.009  1.00  0.00     0.082 C 
HETATM   20  C9  UNL     1       0.838   0.198  -2.186  1.00  0.00     0.032 C 
BRANCH  19  21
HETATM   21  C7  UNL     1       1.495   1.348  -0.075  1.00  0.00     0.051 C 
BRANCH  21  22
HETATM   22  C6  UNL     1       2.154   0.224   0.566  1.00  0.00    -0.025 C 
HETATM   23  C5  UNL     1       3.441  -0.112   0.449  1.00  0.00    -0.004 C 
BRANCH  23  24
HETATM   24  C4  UNL     1       4.436   0.582  -0.343  1.00  0.00    -0.004 C 
HETATM   25  C3  UNL     1       5.688   0.193  -0.411  1.00  0.00    -0.027 C 
BRANCH  25  26
HETATM   26  C2  UNL     1       6.442  -0.927   0.201  1.00  0.00     0.022 C 
HETATM   27  C1  UNL     1       7.587  -0.423   1.065  1.00  0.00     0.009 C 
ENDBRANCH  25  26
ENDBRANCH  23  24
ENDBRANCH  21  22
ENDBRANCH  19  21
ENDBRANCH  17  19
ENDBRANCH   1  17
TORSDOF 6
