REMARK  7 active torsions:
REMARK  status: ('A' for Active; 'I' for Inactive)
REMARK    1  A    between atoms: C4_5  and  C5_6 
REMARK    2  A    between atoms: C5_6  and  C6_7 
REMARK    3  A    between atoms: C9_12  and  N3_13 
REMARK    4  A    between atoms: N3_13  and  C10_14 
REMARK    5  A    between atoms: C10_14  and  C11_15 
REMARK    6  A    between atoms: C11_15  and  C12_16 
REMARK    7  A    between atoms: C12_16  and  C13_17 
ROOT
HETATM    1  C6  UNL     1       1.808  -0.539  -1.181  1.00  0.00     0.028 A 
HETATM    2  C7  UNL     1       2.979  -1.252  -1.261  1.00  0.00     0.133 A 
HETATM    3  N1  UNL     1       2.964  -2.546  -0.903  1.00  0.00    -0.253 NA
HETATM    4  C8  UNL     1       1.797  -3.113  -0.473  1.00  0.00     0.234 A 
HETATM    5  N2  UNL     1       0.669  -2.390  -0.407  1.00  0.00    -0.224 NA
HETATM    6  C9  UNL     1       0.597  -1.090  -0.746  1.00  0.00     0.136 A 
ENDROOT
BRANCH   6   7
HETATM    7  N3  UNL     1      -0.593  -0.351  -0.666  1.00  0.00    -0.374 N 
HETATM    8  H5  UNL     1      -0.526   0.659  -0.959  1.00  0.00     0.161 HD
BRANCH   7   9
HETATM    9  C10 UNL     1      -1.860  -0.891  -0.218  1.00  0.00     0.121 C 
BRANCH   9  10
HETATM   10  C11 UNL     1      -1.791  -1.421   1.199  1.00  0.00     0.024 C 
BRANCH  10  11
HETATM   11  C12 UNL     1      -3.093  -1.977   1.699  1.00  0.00     0.040 C 
BRANCH  11  12
HETATM   12  C13 UNL     1      -4.188  -0.972   1.714  1.00  0.00    -0.058 A 
HETATM   13  C14 UNL     1      -5.381  -0.781   1.184  1.00  0.00     0.007 A 
HETATM   14  C15 UNL     1      -5.476   0.466   1.887  1.00  0.00     0.001 A 
HETATM   15  C16 UNL     1      -4.269   0.308   2.444  1.00  0.00     0.007 A 
ENDBRANCH  11  12
ENDBRANCH  10  11
ENDBRANCH   9  10
ENDBRANCH   7   9
ENDBRANCH   6   7
BRANCH   1  16
HETATM   16  C5  UNL     1       1.819   0.848  -1.541  1.00  0.00     0.028 C 
BRANCH  16  17
HETATM   17  C4  UNL     1       2.550   1.899  -1.374  1.00  0.00    -0.038 C 
HETATM   18  C3  UNL     1       3.603   1.329  -0.582  1.00  0.00     0.038 C 
HETATM   19  C2  UNL     1       4.580   2.073  -0.045  1.00  0.00     0.018 C 
HETATM   20  C1  UNL     1       4.634   3.303  -0.471  1.00  0.00    -0.002 C 
HETATM   21 BR1  UNL     1       6.175   4.368  -0.032  1.00  0.00    -0.055 Br
HETATM   22  C18 UNL     1       3.611   3.975  -1.272  1.00  0.00     0.016 C 
HETATM   23  C17 UNL     1       2.554   3.287  -1.737  1.00  0.00     0.012 C 
ENDBRANCH  16  17
ENDBRANCH   1  16
TORSDOF 7
