REMARK  6 active torsions:
REMARK  status: ('A' for Active; 'I' for Inactive)
REMARK    1  A    between atoms: C2_2  and  N1_3 
REMARK    2  A    between atoms: C3_4  and  N2_5 
REMARK    3  A    between atoms: C4_6  and  N3_7 
REMARK    4  A    between atoms: C4_6  and  C13_16 
REMARK    5  A    between atoms: N3_7  and  C5_8 
REMARK    6  A    between atoms: C5_8  and  C7_10 
ROOT
HETATM    1  N2  UNL     1      -0.209   1.761   0.692  1.00  0.00    -0.224 NA
HETATM    2  C4  UNL     1       0.219   0.640   0.260  1.00  0.00     0.138 C 
ENDROOT
BRANCH   2   3
HETATM    3  N3  UNL     1      -0.741  -0.224  -0.277  1.00  0.00    -0.366 N 
HETATM    4  H7  UNL     1      -0.481  -0.452  -1.295  1.00  0.00     0.161 HD
BRANCH   3   5
HETATM    5  C5  UNL     1      -1.875  -0.683   0.475  1.00  0.00     0.112 C 
HETATM    6  C6  UNL     1      -1.473  -1.476   1.723  1.00  0.00     0.037 C 
BRANCH   5   7
HETATM    7  C7  UNL     1      -2.704  -1.624  -0.355  1.00  0.00    -0.036 A 
HETATM    8  C8  UNL     1      -3.178  -2.794   0.187  1.00  0.00     0.009 A 
HETATM    9  C9  UNL     1      -3.923  -3.595  -0.627  1.00  0.00     0.001 A 
HETATM   10  C10 UNL     1      -4.178  -3.222  -1.949  1.00  0.00     0.000 A 
HETATM   11  C11 UNL     1      -3.682  -2.039  -2.450  1.00  0.00     0.001 A 
HETATM   12  C12 UNL     1      -2.925  -1.197  -1.664  1.00  0.00     0.009 A 
ENDBRANCH   5   7
ENDBRANCH   3   5
ENDBRANCH   2   3
BRANCH   2  13
HETATM   13  C13 UNL     1       1.663   0.565   0.389  1.00  0.00     0.035 A 
HETATM   14  C14 UNL     1       2.305   1.632   0.832  1.00  0.00     0.099 A 
HETATM   15  N4  UNL     1       3.733   1.639   0.987  1.00  0.00    -0.394 N 
HETATM   16  C15 UNL     1       4.590   0.540   0.661  1.00  0.00     0.158 A 
HETATM   17  H18 UNL     1       4.271   2.440   1.346  1.00  0.00     0.159 HD
HETATM   18  C16 UNL     1       3.858  -0.661   0.232  1.00  0.00    -0.029 A 
HETATM   19  C17 UNL     1       4.591  -1.797  -0.011  1.00  0.00     0.011 A 
HETATM   20  C21 UNL     1       2.492  -0.571   0.103  1.00  0.00    -0.012 A 
HETATM   21  C18 UNL     1       3.971  -2.959  -0.415  1.00  0.00     0.020 A 
HETATM   22  C19 UNL     1       2.585  -2.904  -0.555  1.00  0.00     0.011 A 
HETATM   23 BR1  UNL     1       1.772  -4.542  -1.118  1.00  0.00    -0.051 Br
HETATM   24  C20 UNL     1       1.911  -1.735  -0.296  1.00  0.00     0.032 A 
ENDBRANCH   2  13
BRANCH   1  25
HETATM   25  C3  UNL     1      -1.492   2.295   0.726  1.00  0.00     0.228 C 
HETATM   26  N1  UNL     1      -1.772   3.517   0.418  1.00  0.00    -0.283 NA
BRANCH  26  27
HETATM   27  C2  UNL     1      -0.657   4.355   0.015  1.00  0.00     0.145 C 
HETATM   28  C1  UNL     1      -1.046   5.809   0.000  1.00  0.00     0.028 C 
ENDBRANCH  26  27
ENDBRANCH   1  25
TORSDOF 6
