REMARK  5 active torsions:
REMARK  status: ('A' for Active; 'I' for Inactive)
REMARK    1  A    between atoms: C7_7  and  C8_8 
REMARK    2  A    between atoms: C8_8  and  C10_10 
REMARK    3  A    between atoms: C11_11  and  C12_12 
REMARK    4  A    between atoms: C12_12  and  C13_14 
REMARK    5  A    between atoms: C20_23  and  N3_24 
ROOT
HETATM    1  C10 UNL     1      -0.306   0.784   0.349  1.00  0.00     0.099 A 
HETATM    2  C11 UNL     1       1.139   0.495   0.435  1.00  0.00     0.001 A 
HETATM    3  C19 UNL     1       1.636   0.991   1.558  1.00  0.00     0.129 A 
HETATM    4  N2  UNL     1       0.599   1.655   2.310  1.00  0.00    -0.247 NA
HETATM    5  C20 UNL     1      -0.504   1.555   1.646  1.00  0.00     0.106 A 
ENDROOT
BRANCH   2   6
HETATM    6  C12 UNL     1       2.122  -0.152  -0.412  1.00  0.00     0.067 C 
HETATM    7  N1  UNL     1       1.400  -0.468  -1.406  1.00  0.00    -0.299 NA
HETATM    8  H13 UNL     1       1.630  -0.935  -2.250  1.00  0.00     0.187 HD
BRANCH   6   9
HETATM    9  C13 UNL     1       3.514  -0.489  -0.425  1.00  0.00    -0.007 A 
HETATM   10  C14 UNL     1       3.913  -1.135  -1.579  1.00  0.00     0.015 A 
HETATM   11  C15 UNL     1       5.251  -1.525  -1.719  1.00  0.00     0.020 A 
HETATM   12  C16 UNL     1       6.148  -1.259  -0.709  1.00  0.00     0.011 A 
HETATM   13 BR1  UNL     1       7.983  -1.767  -0.846  1.00  0.00    -0.051 Br
HETATM   14  C17 UNL     1       5.800  -0.619   0.457  1.00  0.00     0.020 A 
HETATM   15  C18 UNL     1       4.474  -0.266   0.528  1.00  0.00     0.015 A 
ENDBRANCH   6   9
ENDBRANCH   2   6
BRANCH   1  16
HETATM   16  C8  UNL     1      -1.237  -0.360   0.466  1.00  0.00     0.031 C 
HETATM   17  C9  UNL     1      -0.903  -1.685  -0.114  1.00  0.00     0.016 C 
BRANCH  16  18
HETATM   18  C7  UNL     1      -2.686  -0.021   0.364  1.00  0.00    -0.047 A 
HETATM   19  C2  UNL     1      -3.265   0.531  -0.755  1.00  0.00    -0.055 A 
HETATM   20  C1  UNL     1      -2.539   0.836  -1.980  1.00  0.00     0.049 C 
HETATM   21  C3  UNL     1      -4.625   0.838  -0.804  1.00  0.00     0.007 A 
HETATM   22  C4  UNL     1      -5.450   0.605   0.260  1.00  0.00     0.001 A 
HETATM   23  C5  UNL     1      -4.948   0.061   1.399  1.00  0.00     0.001 A 
HETATM   24  C6  UNL     1      -3.603  -0.227   1.408  1.00  0.00     0.008 A 
ENDBRANCH  16  18
ENDBRANCH   1  16
BRANCH   5  25
HETATM   25  N3  UNL     1      -1.850   2.017   1.870  1.00  0.00    -0.387 N 
HETATM   26  H19 UNL     1      -2.055   1.738   2.854  1.00  0.00     0.157 HD
HETATM   27  H20 UNL     1      -2.424   2.505   1.179  1.00  0.00     0.157 HD
ENDBRANCH   5  25
TORSDOF 5
