REMARK  8 active torsions:
REMARK  status: ('A' for Active; 'I' for Inactive)
REMARK    1  A    between atoms: C2_2  and  C3_3 
REMARK    2  A    between atoms: C4_4  and  C5_5 
REMARK    3  A    between atoms: C5_5  and  C6_6 
REMARK    4  A    between atoms: C6_6  and  N1_7 
REMARK    5  A    between atoms: N1_7  and  C7_8 
REMARK    6  A    between atoms: C10_13  and  C11_14 
REMARK    7  A    between atoms: C11_14  and  N4_15 
REMARK    8  A    between atoms: C11_14  and  C12_16 
ROOT
HETATM    1  C12 UNL     1      -3.209  -0.210  -0.375  1.00  0.00    -0.021 A 
HETATM    2  C13 UNL     1      -4.292  -0.118  -1.250  1.00  0.00     0.011 A 
HETATM    3  C14 UNL     1      -5.098   1.019  -1.287  1.00  0.00     0.023 A 
HETATM    4  C15 UNL     1      -4.852   2.091  -0.460  1.00  0.00     0.044 A 
HETATM    5  C16 UNL     1      -5.683   3.261  -0.498  1.00  0.00     0.099 C 
HETATM    6  N5  UNL     1      -6.357   4.198  -0.511  1.00  0.00    -0.191 NA
HETATM    7  C17 UNL     1      -3.778   1.981   0.396  1.00  0.00     0.023 A 
HETATM    8  C18 UNL     1      -2.963   0.855   0.447  1.00  0.00     0.011 A 
ENDROOT
BRANCH   1   9
HETATM    9  C11 UNL     1      -2.521  -1.495  -0.522  1.00  0.00     0.289 C 
BRANCH   9  10
HETATM   10  C10 UNL     1      -1.516  -1.795   0.510  1.00  0.00     0.042 A 
HETATM   11  C7  UNL     1      -0.280  -1.141   0.545  1.00  0.00     0.135 A 
HETATM   12  N2  UNL     1       0.579  -1.475   1.525  1.00  0.00    -0.224 NA
HETATM   13  C8  UNL     1       0.301  -2.405   2.465  1.00  0.00     0.234 A 
HETATM   14  N3  UNL     1      -0.897  -3.021   2.412  1.00  0.00    -0.253 NA
HETATM   15  C9  UNL     1      -1.813  -2.757   1.479  1.00  0.00     0.131 A 
BRANCH  11  16
HETATM   16  N1  UNL     1       0.053  -0.166  -0.416  1.00  0.00    -0.374 N 
HETATM   17  H12 UNL     1      -0.656   0.061  -1.162  1.00  0.00     0.161 HD
BRANCH  16  18
HETATM   18  C6  UNL     1       1.327   0.542  -0.429  1.00  0.00     0.125 C 
BRANCH  18  19
HETATM   19  C5  UNL     1       2.469  -0.441  -0.610  1.00  0.00     0.046 C 
BRANCH  19  20
HETATM   20  C4  UNL     1       3.765   0.302  -0.621  1.00  0.00    -0.029 C 
HETATM   21  C3  UNL     1       4.857   0.270   0.125  1.00  0.00    -0.031 C 
BRANCH  21  22
HETATM   22  C2  UNL     1       6.090   1.119  -0.051  1.00  0.00     0.022 C 
HETATM   23  C1  UNL     1       6.378   1.962   1.150  1.00  0.00     0.009 C 
ENDBRANCH  21  22
ENDBRANCH  19  20
ENDBRANCH  18  19
ENDBRANCH  16  18
ENDBRANCH  11  16
ENDBRANCH   9  10
BRANCH   9  24
HETATM   24  N4  UNL     1      -3.521  -2.548  -0.555  1.00  0.00     0.091 N 
HETATM   25  H16 UNL     1      -3.076  -3.470  -0.582  1.00  0.00     0.314 HD
HETATM   26  H17 UNL     1      -4.208  -2.388   0.208  1.00  0.00     0.314 HD
ENDBRANCH   9  24
ENDBRANCH   1   9
TORSDOF 8
