REMARK  8 active torsions:
REMARK  status: ('A' for Active; 'I' for Inactive)
REMARK    1  A    between atoms: C2_2  and  N1_3 
REMARK    2  A    between atoms: N1_3  and  C3_4 
REMARK    3  A    between atoms: C3_4  and  N2_5 
REMARK    4  A    between atoms: C7_10  and  C8_11 
REMARK    5  A    between atoms: C13_16  and  C14_17 
REMARK    6  A    between atoms: C14_17  and  C15_18 
REMARK    7  A    between atoms: C16_19  and  C17_20 
REMARK    8  A    between atoms: C18_21  and  C19_22 
ROOT
HETATM    1  N2  UNL     1      -2.292   0.262  -0.026  1.00  0.00    -0.329 N 
HETATM    2  C4  UNL     1      -2.955   0.834   1.001  1.00  0.00     0.044 A 
HETATM    3  N3  UNL     1      -2.558   1.360   2.049  1.00  0.00     0.000 N 
HETATM    4  C5  UNL     1      -1.530   1.633   2.670  1.00  0.00    -0.046 A 
HETATM    5  C6  UNL     1      -2.644   2.030   3.333  1.00  0.00     0.034 A 
HETATM    6  C7  UNL     1      -3.966   1.832   2.828  1.00  0.00     0.016 A 
HETATM    7  C8  UNL     1      -4.134   1.187   1.572  1.00  0.00     0.018 A 
HETATM    8  C9  UNL     1      -5.087   0.735   0.628  1.00  0.00     0.023 C 
HETATM    9  C10 UNL     1      -0.290   1.277   2.097  1.00  0.00     0.014 C 
HETATM   10  C11 UNL     1      -0.042   0.727   0.910  1.00  0.00    -0.035 C 
HETATM   11  C12 UNL     1       1.402   0.900   0.961  1.00  0.00     0.048 C 
HETATM   12  C13 UNL     1       1.850   0.798  -0.488  1.00  0.00     0.033 C 
HETATM   13  C20 UNL     1       0.808   1.085  -1.456  1.00  0.00     0.091 C 
HETATM   14  N5  UNL     1      -0.400   0.797  -1.353  1.00  0.00    -0.275 NA
HETATM   15  C21 UNL     1      -0.861   0.113  -0.172  1.00  0.00     0.238 C 
ENDROOT
BRANCH  12  16
HETATM   16  C14 UNL     1       2.552  -0.531  -0.660  1.00  0.00     0.037 C 
BRANCH  16  17
HETATM   17  C15 UNL     1       3.716  -0.564   0.247  1.00  0.00    -0.026 C 
HETATM   18  C16 UNL     1       4.931  -0.706  -0.306  1.00  0.00    -0.004 C 
BRANCH  18  19
HETATM   19  C17 UNL     1       6.174  -0.755   0.484  1.00  0.00     0.001 C 
HETATM   20  C18 UNL     1       7.370  -0.893  -0.040  1.00  0.00     0.019 C 
BRANCH  20  21
HETATM   21  C19 UNL     1       8.554  -0.934   0.789  1.00  0.00     0.107 C 
HETATM   22  N4  UNL     1       9.724  -1.069   0.286  1.00  0.00    -0.312 NA
HETATM   23  H25 UNL     1       9.877  -1.156  -0.761  1.00  0.00     0.186 HD
ENDBRANCH  20  21
ENDBRANCH  18  19
ENDBRANCH  16  17
ENDBRANCH  12  16
BRANCH   1  24
HETATM   24  C3  UNL     1      -3.518  -0.048  -0.717  1.00  0.00     0.397 C 
BRANCH  24  25
HETATM   25  N1  UNL     1      -2.911  -0.739  -1.921  1.00  0.00     0.100 N 
HETATM   26  H6  UNL     1      -2.346  -1.533  -1.640  1.00  0.00     0.318 HD
BRANCH  25  27
HETATM   27  C2  UNL     1      -3.974  -1.208  -2.782  1.00  0.00     0.267 C 
HETATM   28  C1  UNL     1      -4.799  -2.317  -2.221  1.00  0.00     0.037 C 
ENDBRANCH  25  27
ENDBRANCH  24  25
ENDBRANCH   1  24
TORSDOF 8
