REMARK  9 active torsions:
REMARK  status: ('A' for Active; 'I' for Inactive)
REMARK    1  A    between atoms: C2_2  and  N1_3 
REMARK    2  A    between atoms: C2_2  and  C15_19 
REMARK    3  A    between atoms: N1_3  and  C3_4 
REMARK    4  A    between atoms: C3_4  and  C4_5 
REMARK    5  A    between atoms: C3_4  and  C8_10 
REMARK    6  A    between atoms: C4_5  and  C5_6 
REMARK    7  A    between atoms: C5_6  and  C6_7 
REMARK    8  A    between atoms: C8_10  and  C9_11 
REMARK    9  A    between atoms: C10_12  and  C11_13 
ROOT
HETATM    1  C6  UNL     1      -0.508  -5.232   0.611  1.00  0.00     0.150 C 
HETATM    2  C7  UNL     1      -0.818  -5.803  -0.683  1.00  0.00     0.062 C 
HETATM    3  N2  UNL     1      -1.059  -6.271  -1.693  1.00  0.00    -0.197 NA
ENDROOT
BRANCH   1   4
HETATM    4  C5  UNL     1      -0.316  -3.775   0.475  1.00  0.00    -0.015 C 
BRANCH   4   5
HETATM    5  C4  UNL     1       0.216  -2.597   0.499  1.00  0.00     0.005 C 
BRANCH   5   6
HETATM    6  C3  UNL     1       0.600  -1.172   0.436  1.00  0.00     0.247 C 
BRANCH   6   7
HETATM    7  N1  UNL     1      -0.415  -0.318  -0.083  1.00  0.00     0.100 N 
HETATM    8  H5  UNL     1      -0.520  -0.526  -1.084  1.00  0.00     0.317 HD
BRANCH   7   9
HETATM    9  C2  UNL     1      -1.598  -0.287   0.705  1.00  0.00     0.250 C 
HETATM   10  C1  UNL     1      -1.267   0.221   2.088  1.00  0.00     0.048 C 
BRANCH   9  11
HETATM   11  C15 UNL     1      -2.667   0.556   0.119  1.00  0.00    -0.026 A 
HETATM   12  C16 UNL     1      -2.859   0.303  -1.226  1.00  0.00     0.009 A 
HETATM   13  C17 UNL     1      -3.825   1.008  -1.944  1.00  0.00     0.001 A 
HETATM   14  C18 UNL     1      -4.620   1.973  -1.358  1.00  0.00     0.000 A 
HETATM   15  C19 UNL     1      -4.410   2.211  -0.002  1.00  0.00     0.001 A 
HETATM   16  C20 UNL     1      -3.457   1.517   0.712  1.00  0.00     0.009 A 
ENDBRANCH   9  11
ENDBRANCH   7   9
ENDBRANCH   6   7
BRANCH   6  17
HETATM   17  C8  UNL     1       1.761  -1.126  -0.579  1.00  0.00     0.066 C 
BRANCH  17  18
HETATM   18  C9  UNL     1       2.274   0.233  -0.734  1.00  0.00    -0.023 C 
HETATM   19  C10 UNL     1       3.431   0.847  -0.555  1.00  0.00     0.010 C 
BRANCH  19  20
HETATM   20  C11 UNL     1       3.729   2.235  -0.773  1.00  0.00    -0.001 A 
HETATM   21  C12 UNL     1       5.021   2.635  -0.514  1.00  0.00     0.130 A 
HETATM   22  N3  UNL     1       5.319   3.936  -0.713  1.00  0.00    -0.253 NA
HETATM   23  C13 UNL     1       4.360   4.790  -1.154  1.00  0.00     0.232 A 
HETATM   24  N4  UNL     1       3.099   4.387  -1.404  1.00  0.00    -0.253 NA
HETATM   25  C14 UNL     1       2.772   3.101  -1.215  1.00  0.00     0.130 A 
ENDBRANCH  19  20
ENDBRANCH  17  18
ENDBRANCH   6  17
ENDBRANCH   5   6
ENDBRANCH   4   5
ENDBRANCH   1   4
TORSDOF 9
