REMARK  6 active torsions:
REMARK  status: ('A' for Active; 'I' for Inactive)
REMARK    1  A    between atoms: C2_2  and  N1_3 
REMARK    2  A    between atoms: C2_2  and  C15_20 
REMARK    3  A    between atoms: N1_3  and  C3_4 
REMARK    4  A    between atoms: C5_8  and  C6_9 
REMARK    5  A    between atoms: C7_10  and  N4_11 
REMARK    6  A    between atoms: C7_10  and  C8_12 
ROOT
HETATM    1  C8  UNL     1       3.713  -0.583   0.661  1.00  0.00    -0.010 A 
HETATM    2  C9  UNL     1       4.908  -1.109   1.108  1.00  0.00     0.015 A 
HETATM    3  C10 UNL     1       6.148  -0.751   0.651  1.00  0.00     0.023 A 
HETATM    4  C11 UNL     1       6.270   0.197  -0.325  1.00  0.00     0.044 A 
HETATM    5  C12 UNL     1       7.568   0.540  -0.771  1.00  0.00     0.099 C 
HETATM    6  N5  UNL     1       8.635   0.825  -1.127  1.00  0.00    -0.191 NA
HETATM    7  C13 UNL     1       5.123   0.773  -0.827  1.00  0.00     0.023 A 
HETATM    8  C14 UNL     1       3.918   0.372  -0.328  1.00  0.00     0.015 A 
ENDROOT
BRANCH   1   9
HETATM    9  C7  UNL     1       2.403  -0.980   1.172  1.00  0.00     0.034 C 
HETATM   10  C6  UNL     1       1.200  -0.571   0.816  1.00  0.00     0.038 C 
BRANCH  10  11
HETATM   11  C5  UNL     1       0.505   0.343  -0.125  1.00  0.00     0.203 A 
HETATM   12  C3  UNL     1      -0.943   0.154  -0.191  1.00  0.00     0.130 A 
HETATM   13  N2  UNL     1      -1.539   1.285   0.095  1.00  0.00    -0.227 NA
HETATM   14  C4  UNL     1      -0.508   2.232   0.353  1.00  0.00     0.230 A 
HETATM   15  N3  UNL     1       0.662   1.726   0.235  1.00  0.00    -0.266 NA
BRANCH  12  16
HETATM   16  N1  UNL     1      -1.685  -1.025  -0.505  1.00  0.00    -0.368 N 
HETATM   17  H5  UNL     1      -1.245  -1.956  -0.235  1.00  0.00     0.161 HD
BRANCH  16  18
HETATM   18  C2  UNL     1      -2.984  -0.961  -1.162  1.00  0.00     0.112 C 
HETATM   19  C1  UNL     1      -2.851  -0.277  -2.526  1.00  0.00     0.037 C 
BRANCH  18  20
HETATM   20  C15 UNL     1      -3.979  -0.207  -0.360  1.00  0.00    -0.036 A 
HETATM   21  C16 UNL     1      -4.800   0.728  -0.958  1.00  0.00     0.009 A 
HETATM   22  C17 UNL     1      -5.752   1.468  -0.270  1.00  0.00     0.001 A 
HETATM   23  C18 UNL     1      -5.887   1.260   1.091  1.00  0.00     0.000 A 
HETATM   24  C19 UNL     1      -5.071   0.320   1.726  1.00  0.00     0.001 A 
HETATM   25  C20 UNL     1      -4.125  -0.404   0.998  1.00  0.00     0.009 A 
ENDBRANCH  18  20
ENDBRANCH  16  18
ENDBRANCH  12  16
ENDBRANCH  10  11
BRANCH   9  26
HETATM   26  N4  UNL     1       2.507  -1.964   2.231  1.00  0.00    -0.399 N 
HETATM   27  H9  UNL     1       2.432  -2.960   1.921  1.00  0.00     0.156 HD
HETATM   28  H10 UNL     1       2.648  -1.794   3.271  1.00  0.00     0.156 HD
ENDBRANCH   9  26
ENDBRANCH   1   9
TORSDOF 6
