REMARK  1 active torsions:
REMARK  status: ('A' for Active; 'I' for Inactive)
REMARK    1  A    between atoms: C4_5  and  C5_6 
ROOT
HETATM    1  C5  UNL     1      -1.224  -0.608  -0.698  1.00  0.00     0.139 C 
HETATM    2  C6  UNL     1      -0.635  -1.616   0.264  1.00  0.00    -0.001 C 
HETATM    3  C7  UNL     1       0.431  -2.389   0.438  1.00  0.00    -0.025 C 
HETATM    4  C8  UNL     1       1.733  -2.742  -0.229  1.00  0.00     0.053 C 
HETATM    5  C9  UNL     1       2.846  -2.334   0.705  1.00  0.00    -0.027 C 
HETATM    6  C10 UNL     1       3.789  -1.440   0.570  1.00  0.00    -0.025 C 
HETATM    7  C11 UNL     1       3.840  -0.655  -0.696  1.00  0.00     0.082 C 
HETATM    8  C12 UNL     1       3.470   0.780  -0.400  1.00  0.00     0.022 C 
HETATM    9  N1  UNL     1       3.750   1.944   0.137  1.00  0.00    -0.237 NA
HETATM   10  C13 UNL     1       2.511   2.634   0.390  1.00  0.00     0.161 A 
HETATM   11  N2  UNL     1       1.906   3.712   0.979  1.00  0.00    -0.222 NA
HETATM   12  C14 UNL     1       0.536   3.745   1.006  1.00  0.00     0.237 A 
HETATM   13  N3  UNL     1      -0.359   2.830   0.516  1.00  0.00    -0.224 NA
HETATM   14  C15 UNL     1       0.112   1.736  -0.085  1.00  0.00     0.136 A 
HETATM   15  C16 UNL     1       1.479   1.865  -0.027  1.00  0.00     0.041 A 
HETATM   16  C17 UNL     1       2.119   0.889  -0.963  1.00  0.00     0.101 C 
HETATM   17  N4  UNL     1      -0.500   0.626  -0.653  1.00  0.00    -0.362 N 
HETATM   18  H15 UNL     1      -0.252   1.021  -1.608  1.00  0.00     0.162 HD
ENDROOT
BRANCH   1  19
HETATM   19  C4  UNL     1      -2.662  -0.394  -0.334  1.00  0.00    -0.032 A 
HETATM   20  C3  UNL     1      -3.075   0.816  -0.901  1.00  0.00     0.012 A 
HETATM   21  C2  UNL     1      -4.385   1.255  -0.722  1.00  0.00     0.043 A 
HETATM   22  C1  UNL     1      -5.316   0.542  -0.001  1.00  0.00     0.116 A 
HETATM   23  F1  UNL     1      -6.585   0.913   0.203  1.00  0.00    -0.206 F 
HETATM   24  C19 UNL     1      -4.872  -0.637   0.537  1.00  0.00     0.043 A 
HETATM   25  C18 UNL     1      -3.596  -1.102   0.385  1.00  0.00     0.012 A 
ENDBRANCH   1  19
TORSDOF 1
