REMARK  1 active torsions:
REMARK  status: ('A' for Active; 'I' for Inactive)
REMARK    1  A    between atoms: C14_19  and  C15_20 
ROOT
HETATM    1  C1  UNL     1       0.388  -1.799  -2.242  1.00  0.00     0.042 C 
HETATM    2  C2  UNL     1       0.961  -1.890  -1.075  1.00  0.00    -0.043 A 
HETATM    3  C3  UNL     1       1.990  -2.921  -0.978  1.00  0.00     0.006 A 
HETATM    4  C4  UNL     1       2.639  -3.080   0.167  1.00  0.00     0.000 A 
HETATM    5  C5  UNL     1       2.316  -2.228   1.302  1.00  0.00    -0.001 A 
HETATM    6  C6  UNL     1       1.395  -1.334   1.159  1.00  0.00     0.013 A 
HETATM    7  C7  UNL     1       0.517  -0.959  -0.026  1.00  0.00     0.099 A 
HETATM    8  N1  UNL     1      -0.769  -1.106   0.478  1.00  0.00    -0.379 N 
HETATM    9  C8  UNL     1      -1.912  -1.304  -0.285  1.00  0.00     0.218 C 
HETATM   10  C9  UNL     1      -2.765  -0.061  -0.457  1.00  0.00     0.165 C 
HETATM   11  N2  UNL     1      -2.657   0.601   0.846  1.00  0.00    -0.198 NA
HETATM   12  N3  UNL     1      -3.031  -0.275   1.812  1.00  0.00    -0.311 N 
HETATM   13  C10 UNL     1      -3.431  -1.645   1.549  1.00  0.00     0.214 C 
HETATM   14  N4  UNL     1      -2.782  -2.183   0.538  1.00  0.00    -0.257 NA
HETATM   15  C11 UNL     1      -1.444   1.332   0.968  1.00  0.00     0.217 C 
HETATM   16  C12 UNL     1      -1.835   2.811   0.881  1.00  0.00     0.059 C 
HETATM   17  O1  UNL     1      -0.647   0.963  -0.140  1.00  0.00    -0.341 OA
HETATM   18  C13 UNL     1       0.499   1.643  -0.438  1.00  0.00     0.147 C 
HETATM   19  C14 UNL     1       0.928   0.436  -0.319  1.00  0.00     0.002 C 
HETATM   20  H7  UNL     1      -0.899  -1.272   1.493  1.00  0.00     0.157 HD
HETATM   21  H11 UNL     1      -3.031   0.056   2.819  1.00  0.00     0.181 HD
ENDROOT
BRANCH  19  22
HETATM   22  C15 UNL     1       2.274   0.884  -0.624  1.00  0.00     0.049 C 
HETATM   23  C16 UNL     1       2.890   2.009  -0.909  1.00  0.00     0.090 C 
HETATM   24  C17 UNL     1       2.451   3.398  -1.051  1.00  0.00     0.082 C 
HETATM   25  F1  UNL     1       4.252   1.834  -1.119  1.00  0.00    -0.211 F 
ENDBRANCH  19  22
TORSDOF 1
