REMARK  5 active torsions:
REMARK  status: ('A' for Active; 'I' for Inactive)
REMARK    1  A    between atoms: C2_2  and  N1_3 
REMARK    2  A    between atoms: C2_2  and  C15_20 
REMARK    3  A    between atoms: N1_3  and  C3_4 
REMARK    4  A    between atoms: C8_11  and  P1_12 
REMARK    5  A    between atoms: P1_12  and  C9_13 
ROOT
HETATM    1  C3  UNL     1      -1.327  -0.645   0.477  1.00  0.00     0.135 A 
HETATM    2  N2  UNL     1      -2.030  -1.401  -0.387  1.00  0.00    -0.224 NA
HETATM    3  C4  UNL     1      -1.419  -2.003  -1.424  1.00  0.00     0.237 A 
HETATM    4  N3  UNL     1      -0.080  -1.888  -1.661  1.00  0.00    -0.224 NA
HETATM    5  C5  UNL     1       0.638  -1.133  -0.803  1.00  0.00     0.139 A 
HETATM    6  C6  UNL     1       0.029  -0.520   0.250  1.00  0.00     0.039 A 
HETATM    7  C7  UNL     1       1.015   0.257   1.058  1.00  0.00     0.105 A 
HETATM    8  C8  UNL     1       2.300   0.023   0.342  1.00  0.00     0.029 A 
HETATM    9  N4  UNL     1       2.024  -0.819  -0.771  1.00  0.00    -0.342 N 
HETATM   10  H14 UNL     1       2.798  -1.089  -1.385  1.00  0.00     0.167 HD
ENDROOT
BRANCH   1  11
HETATM   11  N1  UNL     1      -2.007  -0.025   1.560  1.00  0.00    -0.366 N 
HETATM   12  H5  UNL     1      -1.399   0.559   2.207  1.00  0.00     0.161 HD
BRANCH  11  13
HETATM   13  C2  UNL     1      -3.430  -0.171   1.777  1.00  0.00     0.112 C 
HETATM   14  C1  UNL     1      -3.742  -1.657   1.976  1.00  0.00     0.037 C 
BRANCH  13  15
HETATM   15  C15 UNL     1      -4.244   0.382   0.655  1.00  0.00    -0.036 A 
HETATM   16  C16 UNL     1      -5.331  -0.310   0.116  1.00  0.00     0.012 A 
HETATM   17  C17 UNL     1      -6.084   0.196  -0.917  1.00  0.00     0.043 A 
HETATM   18  C18 UNL     1      -5.750   1.420  -1.428  1.00  0.00     0.116 A 
HETATM   19  F1  UNL     1      -6.495   1.914  -2.447  1.00  0.00    -0.206 F 
HETATM   20  C19 UNL     1      -4.670   2.090  -0.881  1.00  0.00     0.043 A 
HETATM   21  C20 UNL     1      -3.897   1.615   0.150  1.00  0.00     0.012 A 
ENDBRANCH  13  15
ENDBRANCH  11  13
ENDBRANCH   1  11
BRANCH   8  22
HETATM   22  P1  UNL     1       3.627   0.749   0.976  1.00  0.00     0.003 P 
BRANCH  22  23
HETATM   23  C9  UNL     1       5.319   0.622   0.291  1.00  0.00    -0.020 A 
HETATM   24  C10 UNL     1       5.922  -0.617   0.185  1.00  0.00     0.013 A 
HETATM   25  C11 UNL     1       7.187  -0.664  -0.333  1.00  0.00     0.001 A 
HETATM   26  C12 UNL     1       7.850   0.485  -0.739  1.00  0.00     0.000 A 
HETATM   27  C13 UNL     1       7.246   1.727  -0.633  1.00  0.00     0.001 A 
HETATM   28  C14 UNL     1       5.951   1.789  -0.104  1.00  0.00     0.013 A 
ENDBRANCH  22  23
ENDBRANCH   8  22
TORSDOF 5
