REMARK  4 active torsions:
REMARK  status: ('A' for Active; 'I' for Inactive)
REMARK    1  A    between atoms: C2_2  and  N1_3 
REMARK    2  A    between atoms: C2_2  and  C14_19 
REMARK    3  A    between atoms: N1_3  and  C3_4 
REMARK    4  A    between atoms: C3_4  and  C4_5 
ROOT
HETATM    1  C4  UNL     1      -0.989  -0.306   0.506  1.00  0.00     0.191 A 
HETATM    2  C5  UNL     1      -1.500  -1.116  -0.420  1.00  0.00     0.270 A 
HETATM    3  N2  UNL     1      -2.345  -0.006  -0.327  1.00  0.00    -0.061 NA
HETATM    4  C6  UNL     1      -1.969   0.842   0.521  1.00  0.00     0.618 A 
HETATM    5  N3  UNL     1      -2.071   2.040   1.237  1.00  0.00    -0.412 N 
HETATM    6  B1  UNL     1      -0.941   1.000   1.407  1.00  0.00     0.377 B 
HETATM    7  C7  UNL     1      -3.210   2.905   0.945  1.00  0.00     0.071 A 
HETATM    8  C8  UNL     1      -4.173   2.695   0.085  1.00  0.00     0.015 A 
HETATM    9  C9  UNL     1      -5.135   2.293  -0.902  1.00  0.00    -0.002 A 
HETATM   10  C10 UNL     1      -5.146   1.168  -1.649  1.00  0.00    -0.016 A 
HETATM   11  C11 UNL     1      -4.790  -0.138  -2.241  1.00  0.00     0.059 A 
HETATM   12  C12 UNL     1      -3.764  -1.009  -2.051  1.00  0.00     0.070 A 
HETATM   13  N4  UNL     1      -2.489  -1.425  -1.380  1.00  0.00    -0.361 N 
HETATM   14  C13 UNL     1      -1.939  -2.679  -1.849  1.00  0.00     0.151 C 
HETATM   15  H9  UNL     1      -0.011   1.285   2.022  1.00  0.00     0.013 HD
ENDROOT
BRANCH   1  16
HETATM   16  C3  UNL     1       0.215  -1.142   0.890  1.00  0.00     0.150 C 
BRANCH  16  17
HETATM   17  N1  UNL     1       1.413  -0.407   0.610  1.00  0.00    -0.412 N 
HETATM   18  H5  UNL     1       1.426   0.582   0.828  1.00  0.00     0.153 HD
BRANCH  17  19
HETATM   19  C2  UNL     1       2.581  -1.116   0.987  1.00  0.00     0.105 C 
HETATM   20  C1  UNL     1       2.758  -2.381   0.222  1.00  0.00     0.037 C 
BRANCH  19  21
HETATM   21  C14 UNL     1       3.806  -0.271   0.816  1.00  0.00    -0.036 A 
HETATM   22  C15 UNL     1       3.743   1.009   1.332  1.00  0.00     0.012 A 
HETATM   23  C16 UNL     1       4.810   1.893   1.234  1.00  0.00     0.043 A 
HETATM   24  C17 UNL     1       5.987   1.512   0.606  1.00  0.00     0.116 A 
HETATM   25  F1  UNL     1       7.086   2.274   0.449  1.00  0.00    -0.206 F 
HETATM   26  C18 UNL     1       6.043   0.235   0.094  1.00  0.00     0.043 A 
HETATM   27  C19 UNL     1       4.984  -0.624   0.198  1.00  0.00     0.012 A 
ENDBRANCH  19  21
ENDBRANCH  17  19
ENDBRANCH  16  17
ENDBRANCH   1  16
TORSDOF 4
