REMARK  3 active torsions:
REMARK  status: ('A' for Active; 'I' for Inactive)
REMARK    1  A    between atoms: C2_2  and  N1_3 
REMARK    2  A    between atoms: C2_2  and  C15_19 
REMARK    3  A    between atoms: N1_3  and  C3_4 
ROOT
HETATM    1  C3  UNL     1       0.685   0.409   1.587  1.00  0.00     0.265 C 
HETATM    2  C4  UNL     1       1.160   1.888   1.520  1.00  0.00     0.126 C 
HETATM    3  N2  UNL     1       0.597   2.980   1.122  1.00  0.00    -0.254 NA
HETATM    4  C5  UNL     1      -0.665   3.273   0.593  1.00  0.00     0.254 C 
HETATM    5  N3  UNL     1      -1.738   2.903  -0.041  1.00  0.00    -0.168 NA
HETATM    6  N4  UNL     1      -2.075   1.666  -0.574  1.00  0.00    -0.277 N 
HETATM    7  C6  UNL     1      -2.699   0.482   0.002  1.00  0.00     0.056 C 
HETATM    8  C7  UNL     1      -3.965  -0.076  -0.402  1.00  0.00    -0.008 A 
HETATM    9  C8  UNL     1      -4.504  -1.194   0.180  1.00  0.00     0.014 A 
HETATM   10  C9  UNL     1      -5.739  -1.656  -0.287  1.00  0.00     0.001 A 
HETATM   11  C10 UNL     1      -6.352  -0.961  -1.312  1.00  0.00     0.000 A 
HETATM   12  C11 UNL     1      -5.808   0.168  -1.899  1.00  0.00     0.001 A 
HETATM   13  C12 UNL     1      -4.587   0.609  -1.424  1.00  0.00     0.014 A 
HETATM   14  C13 UNL     1      -1.906  -0.038   0.993  1.00  0.00     0.008 C 
HETATM   15  C14 UNL     1      -0.680   0.573   1.315  1.00  0.00     0.070 C 
HETATM   16  H9  UNL     1      -1.957   1.279  -1.550  1.00  0.00     0.189 HD
ENDROOT
BRANCH   1  17
HETATM   17  N1  UNL     1       1.459  -0.228   0.547  1.00  0.00     0.102 N 
HETATM   18  H5  UNL     1       1.239  -1.260   0.530  1.00  0.00     0.317 HD
BRANCH  17  19
HETATM   19  C2  UNL     1       2.888  -0.122   0.749  1.00  0.00     0.250 C 
HETATM   20  C1  UNL     1       3.353  -0.758   2.027  1.00  0.00     0.048 C 
BRANCH  19  21
HETATM   21  C15 UNL     1       3.650  -0.705  -0.375  1.00  0.00    -0.026 A 
HETATM   22  C16 UNL     1       4.744  -1.544  -0.395  1.00  0.00     0.012 A 
HETATM   23  C17 UNL     1       5.281  -1.954  -1.589  1.00  0.00     0.043 A 
HETATM   24  C18 UNL     1       4.754  -1.547  -2.796  1.00  0.00     0.116 A 
HETATM   25  F1  UNL     1       5.382  -2.026  -3.892  1.00  0.00    -0.206 F 
HETATM   26  C19 UNL     1       3.661  -0.708  -2.809  1.00  0.00     0.043 A 
HETATM   27  C20 UNL     1       3.110  -0.287  -1.593  1.00  0.00     0.012 A 
ENDBRANCH  19  21
ENDBRANCH  17  19
ENDBRANCH   1  17
TORSDOF 3
