REMARK  7 active torsions:
REMARK  status: ('A' for Active; 'I' for Inactive)
REMARK    1  A    between atoms: C3_3  and  N1_4 
REMARK    2  A    between atoms: C7_8  and  N2_9 
REMARK    3  A    between atoms: N2_9  and  C8_10 
REMARK    4  A    between atoms: C10_13  and  C11_14 
REMARK    5  A    between atoms: C11_14  and  N4_15 
REMARK    6  A    between atoms: N4_15  and  C12_16 
REMARK    7  A    between atoms: C12_16  and  C14_18 
ROOT
HETATM    1  C8  UNL     1      -0.973   1.244   0.151  1.00  0.00     0.112 C 
HETATM    2  C9  UNL     1      -1.354   2.650   0.225  1.00  0.00     0.117 C 
HETATM    3  N3  UNL     1      -1.645   3.791   0.295  1.00  0.00    -0.190 NA
HETATM    4  C10 UNL     1       0.109   0.874  -0.559  1.00  0.00     0.044 C 
ENDROOT
BRANCH   1   5
HETATM    5  N2  UNL     1      -1.842   0.408   0.884  1.00  0.00    -0.347 N 
HETATM    6  H9  UNL     1      -1.144   0.218   1.637  1.00  0.00     0.167 HD
BRANCH   5   7
HETATM    7  C7  UNL     1      -3.142  -0.091   0.808  1.00  0.00     0.041 A 
HETATM    8  C2  UNL     1      -3.958   0.213  -0.248  1.00  0.00    -0.009 A 
HETATM    9  C1  UNL     1      -3.552   1.066  -1.379  1.00  0.00     0.053 C 
HETATM   10  C3  UNL     1      -5.238  -0.348  -0.192  1.00  0.00     0.034 A 
HETATM   11  C4  UNL     1      -5.683  -1.156   0.836  1.00  0.00     0.029 A 
HETATM   12  C5  UNL     1      -4.796  -1.421   1.877  1.00  0.00     0.004 A 
HETATM   13  C6  UNL     1      -3.528  -0.888   1.859  1.00  0.00     0.030 A 
BRANCH  10  14
HETATM   14  N1  UNL     1      -6.192  -0.105  -1.241  1.00  0.00    -0.399 N 
HETATM   15  H4  UNL     1      -6.647  -0.568  -2.043  1.00  0.00     0.156 HD
HETATM   16  H5  UNL     1      -6.532   0.895  -1.132  1.00  0.00     0.156 HD
ENDBRANCH  10  14
ENDBRANCH   5   7
ENDBRANCH   1   5
BRANCH   4  17
HETATM   17  C11 UNL     1       0.459  -0.578  -0.598  1.00  0.00     0.300 C 
BRANCH  17  18
HETATM   18  N4  UNL     1       1.752  -0.847  -0.064  1.00  0.00     0.095 N 
HETATM   19  H13 UNL     1       1.833  -0.443   0.882  1.00  0.00     0.317 HD
BRANCH  18  20
HETATM   20  C12 UNL     1       2.799  -0.319  -0.906  1.00  0.00     0.249 C 
HETATM   21  C13 UNL     1       2.870  -1.034  -2.210  1.00  0.00     0.048 C 
BRANCH  20  22
HETATM   22  C14 UNL     1       4.089  -0.196  -0.181  1.00  0.00    -0.026 A 
HETATM   23  C15 UNL     1       5.363  -0.605  -0.513  1.00  0.00     0.012 A 
HETATM   24  C16 UNL     1       6.466  -0.399   0.277  1.00  0.00     0.043 A 
HETATM   25  C17 UNL     1       6.355   0.251   1.488  1.00  0.00     0.116 A 
HETATM   26  F1  UNL     1       7.480   0.424   2.220  1.00  0.00    -0.206 F 
HETATM   27  C18 UNL     1       5.087   0.672   1.846  1.00  0.00     0.043 A 
HETATM   28  C19 UNL     1       3.988   0.461   1.049  1.00  0.00     0.012 A 
ENDBRANCH  20  22
ENDBRANCH  18  20
ENDBRANCH  17  18
ENDBRANCH   4  17
TORSDOF 7
