REMARK  4 active torsions:
REMARK  status: ('A' for Active; 'I' for Inactive)
REMARK    1  A    between atoms: C2_2  and  N1_3 
REMARK    2  A    between atoms: C2_2  and  C15_19 
REMARK    3  A    between atoms: N1_3  and  C3_4 
REMARK    4  A    between atoms: C13_17  and  C14_18 
ROOT
HETATM    1  C3  UNL     1       0.437   0.830  -0.130  1.00  0.00     0.107 C 
HETATM    2  N2  UNL     1      -0.450   1.731   0.347  1.00  0.00    -0.229 NA
HETATM    3  C4  UNL     1       0.350   2.968   0.545  1.00  0.00     0.230 C 
HETATM    4  N3  UNL     1       0.853   4.021   1.003  1.00  0.00    -0.264 NA
HETATM    5  C5  UNL     1       1.928   4.560   0.045  1.00  0.00     0.267 C 
HETATM    6  N4  UNL     1       2.996   3.557   0.546  1.00  0.00    -0.398 N 
HETATM    7  C6  UNL     1       2.803   2.243   0.482  1.00  0.00     0.019 A 
HETATM    8  C7  UNL     1       2.993   1.345  -0.646  1.00  0.00     0.092 A 
HETATM    9  C8  UNL     1       1.743   0.445  -0.588  1.00  0.00     0.071 A 
HETATM   10  C9  UNL     1       2.357  -0.813   0.366  1.00  0.00     0.006 A 
HETATM   11  C10 UNL     1       1.839  -1.263   1.538  1.00  0.00    -0.015 A 
HETATM   12  C11 UNL     1       1.619  -0.413   2.601  1.00  0.00    -0.006 A 
HETATM   13  C12 UNL     1       2.045   0.720   1.990  1.00  0.00    -0.015 A 
HETATM   14  C13 UNL     1       2.552   0.654   0.530  1.00  0.00     0.007 A 
HETATM   15  C14 UNL     1       2.808  -0.344  -0.619  1.00  0.00     0.027 A 
HETATM   16  H9  UNL     1       3.681   2.843   0.871  1.00  0.00     0.178 HD
ENDROOT
BRANCH   1  17
HETATM   17  N1  UNL     1      -0.477  -0.281  -0.251  1.00  0.00    -0.369 N 
HETATM   18  H5  UNL     1      -0.121  -1.253  -0.567  1.00  0.00     0.161 HD
BRANCH  17  19
HETATM   19  C2  UNL     1      -1.892  -0.397  -0.008  1.00  0.00     0.112 C 
HETATM   20  C1  UNL     1      -2.589   0.495  -1.049  1.00  0.00     0.037 C 
BRANCH  19  21
HETATM   21  C15 UNL     1      -2.428  -1.765  -0.246  1.00  0.00    -0.036 A 
HETATM   22  C16 UNL     1      -3.302  -2.509   0.548  1.00  0.00     0.012 A 
HETATM   23  C17 UNL     1      -3.634  -3.768   0.059  1.00  0.00     0.043 A 
HETATM   24  C18 UNL     1      -3.140  -4.280  -1.142  1.00  0.00     0.116 A 
HETATM   25  F1  UNL     1      -3.583  -5.575  -1.447  1.00  0.00    -0.206 F 
HETATM   26  C19 UNL     1      -2.280  -3.518  -1.901  1.00  0.00     0.043 A 
HETATM   27  C20 UNL     1      -1.918  -2.244  -1.448  1.00  0.00     0.012 A 
ENDBRANCH  19  21
ENDBRANCH  17  19
ENDBRANCH   1  17
TORSDOF 4
