REMARK  3 active torsions:
REMARK  status: ('A' for Active; 'I' for Inactive)
REMARK    1  A    between atoms: C2_2  and  N1_3 
REMARK    2  A    between atoms: C2_2  and  C12_16 
REMARK    3  A    between atoms: N1_3  and  C3_4 
ROOT
HETATM    1  C3  UNL     1      -1.066   0.461  -0.069  1.00  0.00     0.137 A 
HETATM    2  N2  UNL     1      -1.106   1.797   0.067  1.00  0.00    -0.224 NA
HETATM    3  C4  UNL     1      -2.239   2.492   0.030  1.00  0.00     0.235 A 
HETATM    4  N3  UNL     1      -3.447   1.929  -0.147  1.00  0.00    -0.242 NA
HETATM    5  C5  UNL     1      -3.491   0.573  -0.293  1.00  0.00     0.087 A 
HETATM    6  C6  UNL     1      -2.288  -0.143  -0.251  1.00  0.00     0.038 A 
HETATM    7  C7  UNL     1      -2.118  -1.607  -0.377  1.00  0.00     0.030 C 
HETATM    8  C8  UNL     1      -2.806  -2.423  -1.159  1.00  0.00    -0.013 C 
HETATM    9  C9  UNL     1      -4.089  -2.417  -1.166  1.00  0.00    -0.015 C 
HETATM   10  C10 UNL     1      -4.796  -1.351  -0.905  1.00  0.00     0.029 C 
HETATM   11  C11 UNL     1      -4.885   0.091  -0.482  1.00  0.00     0.246 C 
HETATM   12  F1  UNL     1      -5.567   0.179   0.703  1.00  0.00    -0.238 F 
ENDROOT
BRANCH   1  13
HETATM   13  N1  UNL     1       0.172  -0.232  -0.035  1.00  0.00    -0.366 N 
HETATM   14  H5  UNL     1       0.432  -1.213  -0.133  1.00  0.00     0.161 HD
BRANCH  13  15
HETATM   15  C2  UNL     1       1.360   0.571   0.173  1.00  0.00     0.112 C 
HETATM   16  C1  UNL     1       1.331   1.320   1.496  1.00  0.00     0.037 C 
BRANCH  15  17
HETATM   17  C12 UNL     1       2.626  -0.173   0.039  1.00  0.00    -0.036 A 
HETATM   18  C13 UNL     1       3.738   0.294  -0.669  1.00  0.00     0.012 A 
HETATM   19  C14 UNL     1       4.866  -0.507  -0.714  1.00  0.00     0.043 A 
HETATM   20  C15 UNL     1       4.911  -1.738  -0.083  1.00  0.00     0.116 A 
HETATM   21  F2  UNL     1       6.046  -2.480  -0.163  1.00  0.00    -0.206 F 
HETATM   22  C16 UNL     1       3.814  -2.219   0.626  1.00  0.00     0.043 A 
HETATM   23  C17 UNL     1       2.684  -1.409   0.668  1.00  0.00     0.012 A 
ENDBRANCH  15  17
ENDBRANCH  13  15
ENDBRANCH   1  13
TORSDOF 3
