REMARK  5 active torsions:
REMARK  status: ('A' for Active; 'I' for Inactive)
REMARK    1  A    between atoms: C3_3  and  C4_4 
REMARK    2  A    between atoms: C5_5  and  C6_6 
REMARK    3  A    between atoms: C9_12  and  C10_13 
REMARK    4  A    between atoms: C10_13  and  C11_14 
REMARK    5  A    between atoms: C10_13  and  C13_16 
ROOT
HETATM    1  C6  UNL     1       1.636  -0.814  -0.624  1.00  0.00     0.145 A 
HETATM    2  N1  UNL     1       2.108  -2.171  -0.448  1.00  0.00    -0.362 N 
HETATM    3  C7  UNL     1       0.900  -2.674   0.155  1.00  0.00     0.136 A 
HETATM    4  N2  UNL     1       0.013  -3.512   0.723  1.00  0.00    -0.224 NA
HETATM    5  C8  UNL     1      -1.226  -3.157   1.109  1.00  0.00     0.235 A 
HETATM    6  N3  UNL     1      -1.687  -1.881   0.947  1.00  0.00    -0.245 NA
HETATM    7  C9  UNL     1      -0.844  -1.000   0.385  1.00  0.00     0.057 A 
HETATM    8  C19 UNL     1       0.419  -1.389  -0.002  1.00  0.00     0.039 A 
HETATM    9  H9  UNL     1       2.917  -2.852  -0.582  1.00  0.00     0.162 HD
ENDROOT
BRANCH   7  10
HETATM   10  C10 UNL     1      -1.425   0.361   0.244  1.00  0.00     0.071 C 
BRANCH  10  11
HETATM   11  C11 UNL     1      -1.634   1.047   1.584  1.00  0.00     0.011 C 
HETATM   12  C12 UNL     1      -2.219   2.409   1.400  1.00  0.00     0.006 C 
ENDBRANCH  10  11
BRANCH  10  13
HETATM   13  C13 UNL     1      -2.720   0.241  -0.436  1.00  0.00    -0.048 A 
HETATM   14  C14 UNL     1      -2.750   0.316  -1.806  1.00  0.00     0.011 A 
HETATM   15  C15 UNL     1      -3.911   0.217  -2.569  1.00  0.00     0.043 A 
HETATM   16  C16 UNL     1      -5.116   0.031  -1.931  1.00  0.00     0.116 A 
HETATM   17  F1  UNL     1      -6.328  -0.084  -2.524  1.00  0.00    -0.206 F 
HETATM   18  C17 UNL     1      -5.120  -0.048  -0.555  1.00  0.00     0.043 A 
HETATM   19  C18 UNL     1      -3.939   0.054   0.188  1.00  0.00     0.011 A 
ENDBRANCH  10  13
ENDBRANCH   7  10
BRANCH   1  20
HETATM   20  C5  UNL     1       2.284   0.250   0.127  1.00  0.00     0.003 C 
HETATM   21  C4  UNL     1       3.561   0.562   0.204  1.00  0.00    -0.002 C 
BRANCH  21  22
HETATM   22  C3  UNL     1       4.610  -0.156  -0.499  1.00  0.00    -0.005 C 
HETATM   23  C2  UNL     1       5.895   0.176  -0.406  1.00  0.00    -0.031 C 
HETATM   24  C1  UNL     1       6.202   1.337   0.468  1.00  0.00     0.036 C 
ENDBRANCH  21  22
ENDBRANCH   1  20
TORSDOF 5
