REMARK  3 active torsions:
REMARK  status: ('A' for Active; 'I' for Inactive)
REMARK    1  A    between atoms: C7_8  and  N1_9 
REMARK    2  A    between atoms: N1_9  and  C8_10 
REMARK    3  A    between atoms: C9_11  and  C10_12 
ROOT
HETATM    1  C10 UNL     1       0.023   1.521   1.987  1.00  0.00     0.058 C 
HETATM    2  B1  UNL     1      -1.007   2.428   1.182  1.00  0.00     0.235 B 
HETATM    3  P1  UNL     1      -1.734   1.691  -0.446  1.00  0.00    -0.104 P 
HETATM    4  N2  UNL     1      -3.470   2.118  -0.562  1.00  0.00    -0.304 NA
HETATM    5  C11 UNL     1      -4.209   1.187   0.271  1.00  0.00     0.089 C 
HETATM    6  C12 UNL     1      -5.667   1.580   0.169  1.00  0.00     0.031 C 
HETATM    7  C13 UNL     1      -4.028  -0.210  -0.149  1.00  0.00    -0.014 A 
HETATM    8  C14 UNL     1      -4.516  -0.594  -1.379  1.00  0.00     0.014 A 
HETATM    9  C15 UNL     1      -4.446  -1.859  -1.949  1.00  0.00     0.043 A 
HETATM   10  C16 UNL     1      -3.818  -2.808  -1.184  1.00  0.00     0.118 A 
HETATM   11  F2  UNL     1      -3.714  -4.072  -1.684  1.00  0.00    -0.206 F 
HETATM   12  C17 UNL     1      -3.306  -2.463   0.071  1.00  0.00     0.072 A 
HETATM   13  C18 UNL     1      -3.402  -1.189   0.593  1.00  0.00     0.040 A 
HETATM   14  N3  UNL     1      -2.830  -0.998   1.885  1.00  0.00    -0.363 N 
HETATM   15  C19 UNL     1      -1.864   0.043   1.907  1.00  0.00     0.410 C 
HETATM   16  N4  UNL     1      -0.588   0.180   2.022  1.00  0.00    -0.423 NA
HETATM   17  H9  UNL     1      -0.796   3.593   1.187  1.00  0.00    -0.017 HD
HETATM   18  H10 UNL     1      -1.605   0.268  -0.537  1.00  0.00     0.061 HD
HETATM   19  H11 UNL     1      -3.854   2.012  -1.524  1.00  0.00     0.126 HD
HETATM   20  H19 UNL     1      -3.256  -1.681   2.549  1.00  0.00     0.162 HD
ENDROOT
BRANCH   1  21
HETATM   21  C9  UNL     1       1.321   1.440   1.225  1.00  0.00    -0.039 A 
HETATM   22  C8  UNL     1       2.365   0.940   0.575  1.00  0.00     0.017 A 
HETATM   23  C20 UNL     1       2.327   2.412   0.726  1.00  0.00     0.094 A 
BRANCH  22  24
HETATM   24  N1  UNL     1       2.973  -0.265   0.118  1.00  0.00    -0.359 N 
HETATM   25  H7  UNL     1       2.447  -1.159   0.008  1.00  0.00     0.166 HD
BRANCH  24  26
HETATM   26  C7  UNL     1       4.353  -0.317  -0.222  1.00  0.00     0.041 A 
HETATM   27  C2  UNL     1       4.984  -1.476  -0.663  1.00  0.00    -0.035 A 
HETATM   28  C1  UNL     1       4.143  -2.703  -0.772  1.00  0.00     0.050 C 
HETATM   29  C3  UNL     1       6.328  -1.463  -0.978  1.00  0.00     0.012 A 
HETATM   30  C4  UNL     1       7.065  -0.310  -0.862  1.00  0.00     0.043 A 
HETATM   31  C5  UNL     1       6.465   0.862  -0.424  1.00  0.00     0.118 A 
HETATM   32  F1  UNL     1       7.214   1.976  -0.321  1.00  0.00    -0.206 F 
HETATM   33  C6  UNL     1       5.105   0.853  -0.105  1.00  0.00     0.072 A 
ENDBRANCH  24  26
ENDBRANCH  22  24
ENDBRANCH   1  21
TORSDOF 3
