REMARK  4 active torsions:
REMARK  status: ('A' for Active; 'I' for Inactive)
REMARK    1  A    between atoms: C3_3  and  C4_5 
REMARK    2  A    between atoms: C4_5  and  C5_6 
REMARK    3  A    between atoms: C8_9  and  C9_10 
REMARK    4  A    between atoms: C9_10  and  N1_11 
ROOT
HETATM    1  C5  UNL     1       2.045   0.341  -0.019  1.00  0.00    -0.057 C 
HETATM    2  C6  UNL     1       0.898   0.751  -0.546  1.00  0.00    -0.016 C 
HETATM    3  C7  UNL     1      -0.559   0.668  -0.360  1.00  0.00     0.083 C 
HETATM    4  C8  UNL     1      -1.009  -0.331   0.635  1.00  0.00     0.035 C 
HETATM    5  N2  UNL     1      -0.556  -0.633   1.804  1.00  0.00    -0.249 NA
HETATM    6  C15 UNL     1       0.478  -0.251   2.697  1.00  0.00     0.226 C 
HETATM    7  N3  UNL     1       1.745  -0.204   2.357  1.00  0.00    -0.279 NA
HETATM    8  C16 UNL     1       2.422  -0.486   1.130  1.00  0.00     0.184 C 
ENDROOT
BRANCH   4   9
HETATM    9  C9  UNL     1      -2.171  -1.142   0.260  1.00  0.00     0.177 C 
BRANCH   9  10
HETATM   10  N1  UNL     1      -3.387  -0.444   0.020  1.00  0.00    -0.379 N 
HETATM   11  C10 UNL     1      -4.426  -1.384  -0.328  1.00  0.00     0.128 A 
HETATM   12  C11 UNL     1      -5.684  -1.043  -0.576  1.00  0.00     0.131 A 
HETATM   13  F2  UNL     1      -6.701  -1.907  -0.909  1.00  0.00    -0.205 F 
HETATM   14  C12 UNL     1      -6.118   0.346  -0.527  1.00  0.00     0.041 A 
HETATM   15  C13 UNL     1      -5.148   1.213  -0.219  1.00  0.00    -0.004 A 
HETATM   16  C14 UNL     1      -3.715   0.953   0.073  1.00  0.00     0.150 A 
ENDBRANCH   9  10
ENDBRANCH   4   9
BRANCH   1  17
HETATM   17  C4  UNL     1       3.210   0.853  -0.798  1.00  0.00     0.105 C 
BRANCH  17  18
HETATM   18  C3  UNL     1       4.066  -0.195  -1.359  1.00  0.00     0.093 C 
HETATM   19  C2  UNL     1       5.361  -0.249  -1.000  1.00  0.00     0.007 C 
HETATM   20  C1  UNL     1       6.284   0.513  -0.111  1.00  0.00     0.038 C 
HETATM   21  F1  UNL     1       3.408  -1.019  -2.214  1.00  0.00    -0.211 F 
ENDBRANCH  17  18
ENDBRANCH   1  17
TORSDOF 4
