REMARK  10 active torsions:
REMARK  status: ('A' for Active; 'I' for Inactive)
REMARK    1  A    between atoms: C2_2  and  C3_4 
REMARK    2  A    between atoms: C4_5  and  C5_6 
REMARK    3  A    between atoms: C5_6  and  C6_7 
REMARK    4  A    between atoms: C6_7  and  N1_8 
REMARK    5  A    between atoms: C6_7  and  N2_9 
REMARK    6  A    between atoms: N2_9  and  C7_10 
REMARK    7  A    between atoms: C7_10  and  C17_22 
REMARK    8  A    between atoms: N3_12  and  C9_13 
REMARK    9  A    between atoms: C10_14  and  C11_15 
REMARK   10  A    between atoms: C17_22  and  C18_23 
ROOT
HETATM    1  C7  UNL     1      -0.211  -1.240   0.035  1.00  0.00     0.151 A 
HETATM    2  C8  UNL     1       0.175  -1.368   1.417  1.00  0.00     0.068 A 
HETATM    3  N3  UNL     1      -0.958  -1.757   1.353  1.00  0.00    -0.263 N 
ENDROOT
BRANCH   1   4
HETATM    4  N2  UNL     1       0.578  -0.272  -0.702  1.00  0.00    -0.276 N 
HETATM    5  H12 UNL     1       0.626   0.598  -0.130  1.00  0.00     0.125 HD
BRANCH   4   6
HETATM    6  C6  UNL     1       1.867  -0.821  -0.848  1.00  0.00     0.295 C 
BRANCH   6   7
HETATM    7  C5  UNL     1       2.701  -0.018  -1.828  1.00  0.00     0.078 C 
BRANCH   7   8
HETATM    8  C4  UNL     1       3.092   1.292  -1.340  1.00  0.00    -0.024 C 
HETATM    9  C3  UNL     1       4.296   1.818  -1.118  1.00  0.00     0.005 C 
BRANCH   9  10
HETATM   10  C2  UNL     1       4.441   3.217  -0.600  1.00  0.00     0.188 C 
HETATM   11  C1  UNL     1       5.903   3.602  -0.716  1.00  0.00     0.049 C 
HETATM   12  F1  UNL     1       3.971   3.335   0.660  1.00  0.00    -0.246 F 
ENDBRANCH   9  10
ENDBRANCH   7   8
ENDBRANCH   6   7
BRANCH   6  13
HETATM   13  N1  UNL     1       2.564  -1.031   0.394  1.00  0.00     0.096 N 
HETATM   14  H10 UNL     1       3.485  -0.473   0.294  1.00  0.00     0.314 HD
HETATM   15  H11 UNL     1       2.944  -2.009   0.505  1.00  0.00     0.314 HD
ENDBRANCH   6  13
ENDBRANCH   4   6
ENDBRANCH   1   4
BRANCH   1  16
HETATM   16  C17 UNL     1      -1.676  -1.127  -0.090  1.00  0.00     0.034 A 
HETATM   17  C10 UNL     1      -3.186  -1.004  -0.066  1.00  0.00     0.029 A 
HETATM   18  C9  UNL     1      -2.049  -1.201   0.496  1.00  0.00     0.050 A 
HETATM   19  C18 UNL     1      -2.235  -0.889  -1.174  1.00  0.00     0.042 A 
BRANCH  17  20
HETATM   20  C11 UNL     1      -4.357  -0.988   0.954  1.00  0.00    -0.046 A 
HETATM   21  C12 UNL     1      -4.750   0.098   1.798  1.00  0.00     0.009 A 
HETATM   22  C13 UNL     1      -5.812  -0.033   2.650  1.00  0.00     0.019 A 
HETATM   23  C14 UNL     1      -6.511  -1.214   2.704  1.00  0.00     0.011 A 
HETATM   24 BR1  UNL     1      -7.948  -1.110   3.958  1.00  0.00    -0.051 Br
HETATM   25  C15 UNL     1      -6.215  -2.308   1.945  1.00  0.00     0.019 A 
HETATM   26  C16 UNL     1      -5.150  -2.144   1.105  1.00  0.00     0.009 A 
ENDBRANCH  17  20
ENDBRANCH   1  16
TORSDOF 10
