REMARK  2 active torsions:
REMARK  status: ('A' for Active; 'I' for Inactive)
REMARK    1  A    between atoms: C2_2  and  C3_3 
REMARK    2  A    between atoms: C4_4  and  C5_5 
ROOT
HETATM    1  C5  UNL     1       4.426   1.581   1.600  1.00  0.00     0.059 C 
HETATM    2  C6  UNL     1       4.560   2.844   1.867  1.00  0.00     0.221 C 
HETATM    3  O1  UNL     1       4.842   4.020   2.143  1.00  0.00    -0.284 OA
ENDROOT
BRANCH   1   4
HETATM    4  C4  UNL     1       3.091   1.145   1.203  1.00  0.00     0.004 C 
HETATM    5  C3  UNL     1       2.663   0.369   0.228  1.00  0.00     0.026 C 
BRANCH   5   6
HETATM    6  C2  UNL     1       1.491  -0.227  -0.406  1.00  0.00     0.120 C 
HETATM    7  C1  UNL     1       1.454   0.193  -1.859  1.00  0.00     0.068 C 
HETATM    8  N1  UNL     1       0.272   0.168   0.311  1.00  0.00    -0.360 N 
HETATM    9  C7  UNL     1      -1.086  -0.152   0.074  1.00  0.00     0.041 C 
HETATM   10  H7  UNL     1       0.457   0.799   1.150  1.00  0.00     0.162 HD
HETATM   11  C8  UNL     1      -2.064   0.877   0.356  1.00  0.00    -0.010 A 
HETATM   12  C14 UNL     1      -1.440  -1.340  -0.378  1.00  0.00     0.046 C 
HETATM   13  C9  UNL     1      -3.426   0.765   0.229  1.00  0.00     0.015 A 
HETATM   14  C13 UNL     1      -1.664   2.110   0.789  1.00  0.00     0.015 A 
HETATM   15  C10 UNL     1      -4.353   1.744   0.490  1.00  0.00     0.020 A 
HETATM   16  C11 UNL     1      -3.907   2.969   0.923  1.00  0.00     0.011 A 
HETATM   17 BR1  UNL     1      -5.155   4.359   1.299  1.00  0.00    -0.051 Br
HETATM   18  C12 UNL     1      -2.532   3.143   1.072  1.00  0.00     0.020 A 
HETATM   19  C15 UNL     1      -0.706  -2.563  -0.743  1.00  0.00     0.029 A 
HETATM   20  C16 UNL     1      -1.539  -3.588  -1.125  1.00  0.00     0.133 A 
HETATM   21  C18 UNL     1       0.688  -2.642  -0.695  1.00  0.00     0.138 A 
HETATM   22  N2  UNL     1      -0.886  -4.730  -1.467  1.00  0.00    -0.253 NA
HETATM   23  C17 UNL     1       0.453  -4.853  -1.436  1.00  0.00     0.234 A 
HETATM   24  N3  UNL     1       1.240  -3.831  -1.057  1.00  0.00    -0.224 NA
HETATM   25  N4  UNL     1       1.663  -1.678  -0.326  1.00  0.00    -0.345 N 
HETATM   26  H15 UNL     1       2.577  -2.091   0.032  1.00  0.00     0.164 HD
ENDBRANCH   5   6
ENDBRANCH   1   4
TORSDOF 2
