REMARK  6 active torsions:
REMARK  status: ('A' for Active; 'I' for Inactive)
REMARK    1  A    between atoms: C5_5  and  N1_6 
REMARK    2  A    between atoms: N1_6  and  C6_7 
REMARK    3  A    between atoms: C9_12  and  C10_13 
REMARK    4  A    between atoms: C10_13  and  B1_14 
REMARK    5  A    between atoms: B1_14  and  C11_15 
REMARK    6  A    between atoms: C11_15  and  C12_16 
ROOT
HETATM    1  C6  UNL     1      -0.588  -0.533   0.586  1.00  0.00     0.132 A 
HETATM    2  N2  UNL     1      -0.505  -1.372   1.630  1.00  0.00    -0.224 NA
HETATM    3  C7  UNL     1      -1.518  -2.091   2.125  1.00  0.00     0.234 A 
HETATM    4  N3  UNL     1      -2.728  -1.970   1.531  1.00  0.00    -0.253 NA
HETATM    5  C8  UNL     1      -2.887  -1.149   0.480  1.00  0.00     0.128 A 
HETATM    6  C9  UNL     1      -1.839  -0.396  -0.045  1.00  0.00    -0.004 A 
ENDROOT
BRANCH   1   7
HETATM    7  N1  UNL     1       0.507   0.203   0.082  1.00  0.00    -0.366 N 
HETATM    8  H8  UNL     1       0.393   0.851  -0.711  1.00  0.00     0.161 HD
BRANCH   7   9
HETATM    9  C5  UNL     1       1.836   0.118   0.618  1.00  0.00     0.112 A 
HETATM   10  C4  UNL     1       2.431  -1.248   0.431  1.00  0.00     0.057 A 
HETATM   11  C3  UNL     1       3.827  -1.205  -0.113  1.00  0.00    -0.015 A 
HETATM   12  C2  UNL     1       4.578  -0.190  -0.493  1.00  0.00    -0.027 A 
HETATM   13  C1  UNL     1       5.974  -0.106  -1.043  1.00  0.00     0.051 C 
HETATM   14  C14 UNL     1       3.986   1.158  -0.351  1.00  0.00     0.120 A 
HETATM   15  C13 UNL     1       2.744   1.201   0.159  1.00  0.00     0.041 A 
HETATM   16  F2  UNL     1       4.556   2.328  -0.673  1.00  0.00    -0.206 F 
ENDBRANCH   7   9
ENDBRANCH   1   7
BRANCH   6  17
HETATM   17  C10 UNL     1      -2.133   0.482  -1.184  1.00  0.00    -0.010 C 
BRANCH  17  18
HETATM   18  B1  UNL     1      -3.816   1.022  -1.195  1.00  0.00     0.172 B 
BRANCH  18  19
HETATM   19  C11 UNL     1      -5.503   1.519  -1.006  1.00  0.00    -0.083 C 
BRANCH  19  20
HETATM   20  C12 UNL     1      -6.283   1.479   0.289  1.00  0.00     0.233 C 
HETATM   21  F1  UNL     1      -6.999   0.273   0.280  1.00  0.00    -0.253 F 
ENDBRANCH  19  20
ENDBRANCH  18  19
ENDBRANCH  17  18
ENDBRANCH   6  17
TORSDOF 6
