REMARK  4 active torsions:
REMARK  status: ('A' for Active; 'I' for Inactive)
REMARK    1  A    between atoms: C2_2  and  N1_3 
REMARK    2  A    between atoms: C2_2  and  C13_16 
REMARK    3  A    between atoms: N1_3  and  C3_4 
REMARK    4  A    between atoms: C8_10  and  C9_11 
ROOT
HETATM    1  C3  UNL     1      -0.658  -1.105   0.190  1.00  0.00     0.129 A 
HETATM    2  N2  UNL     1      -0.524  -2.357   0.288  1.00  0.00    -0.269 NA
HETATM    3  C4  UNL     1      -1.517  -3.374   0.264  1.00  0.00     0.178 A 
HETATM    4  C5  UNL     1      -2.901  -2.918   0.106  1.00  0.00    -0.004 A 
HETATM    5  C6  UNL     1      -3.083  -1.628   0.001  1.00  0.00     0.013 A 
HETATM    6  C7  UNL     1      -2.043  -0.611   0.027  1.00  0.00     0.010 A 
HETATM    7  C8  UNL     1      -2.238   0.686  -0.090  1.00  0.00     0.028 C 
ENDROOT
BRANCH   1   8
HETATM    8  N1  UNL     1       0.481  -0.227   0.238  1.00  0.00    -0.366 N 
HETATM    9  H5  UNL     1       0.284   0.684   0.709  1.00  0.00     0.161 HD
BRANCH   8  10
HETATM   10  C2  UNL     1       1.721  -0.686  -0.344  1.00  0.00     0.112 C 
HETATM   11  C1  UNL     1       1.559  -0.983  -1.812  1.00  0.00     0.037 C 
BRANCH  10  12
HETATM   12  C13 UNL     1       2.863   0.172  -0.051  1.00  0.00    -0.036 A 
HETATM   13  C14 UNL     1       2.766   1.553  -0.155  1.00  0.00     0.012 A 
HETATM   14  C15 UNL     1       3.797   2.426   0.105  1.00  0.00     0.043 A 
HETATM   15  C16 UNL     1       5.015   1.907   0.495  1.00  0.00     0.116 A 
HETATM   16  F1  UNL     1       6.106   2.667   0.779  1.00  0.00    -0.206 F 
HETATM   17  C17 UNL     1       5.196   0.539   0.624  1.00  0.00     0.043 A 
HETATM   18  C18 UNL     1       4.124  -0.275   0.349  1.00  0.00     0.012 A 
ENDBRANCH  10  12
ENDBRANCH   8  10
ENDBRANCH   1   8
BRANCH   7  19
HETATM   19  C9  UNL     1      -3.383   1.569  -0.260  1.00  0.00    -0.018 A 
HETATM   20  C10 UNL     1      -3.795   2.813  -0.393  1.00  0.00     0.021 A 
HETATM   21 BR1  UNL     1      -2.761   4.418  -0.426  1.00  0.00    -0.050 Br
HETATM   22  C11 UNL     1      -5.187   2.393  -0.481  1.00  0.00     0.021 A 
HETATM   23  C12 UNL     1      -4.776   1.152  -0.349  1.00  0.00     0.014 A 
ENDBRANCH   7  19
TORSDOF 4
