REMARK  5 active torsions:
REMARK  status: ('A' for Active; 'I' for Inactive)
REMARK    1  A    between atoms: C3_4  and  C4_5 
REMARK    2  A    between atoms: C4_5  and  C5_6 
REMARK    3  A    between atoms: C5_6  and  C7_8 
REMARK    4  A    between atoms: C7_8  and  N1_9 
REMARK    5  A    between atoms: C13_18  and  C14_19 
ROOT
HETATM    1  N1  UNL     1       0.310  -0.852   1.534  1.00  0.00    -0.384 N 
HETATM    2  C8  UNL     1       0.586  -2.185   1.223  1.00  0.00     0.113 C 
HETATM    3  C9  UNL     1       0.845  -2.915   0.183  1.00  0.00     0.058 C 
HETATM    4  C10 UNL     1       1.021  -2.752  -1.314  1.00  0.00     0.139 C 
HETATM    5  C11 UNL     1      -0.450  -2.687  -1.636  1.00  0.00     0.107 C 
HETATM    6  N2  UNL     1      -1.009  -3.799  -1.499  1.00  0.00    -0.229 NA
HETATM    7  C12 UNL     1      -0.429  -4.748  -0.519  1.00  0.00     0.235 C 
HETATM    8  N3  UNL     1       0.701  -4.374   0.210  1.00  0.00    -0.245 NA
HETATM    9  N4  UNL     1      -1.305  -1.652  -2.021  1.00  0.00    -0.369 N 
HETATM   10  C13 UNL     1      -2.179  -0.784  -1.251  1.00  0.00     0.117 C 
HETATM   11  C20 UNL     1      -1.365  -0.017  -0.164  1.00  0.00     0.050 C 
HETATM   12  C21 UNL     1      -1.028  -0.923   0.965  1.00  0.00     0.125 C 
HETATM   13  H13 UNL     1      -1.046  -1.782  -3.030  1.00  0.00     0.161 HD
ENDROOT
BRANCH   1  14
HETATM   14  C7  UNL     1       1.016   0.174   2.248  1.00  0.00     0.156 C 
BRANCH  14  15
HETATM   15  C5  UNL     1       2.246   0.674   1.651  1.00  0.00    -0.065 C 
HETATM   16  C6  UNL     1       2.087  -0.164   0.645  1.00  0.00     0.040 C 
BRANCH  15  17
HETATM   17  C4  UNL     1       2.717   1.680   2.590  1.00  0.00    -0.006 C 
BRANCH  17  18
HETATM   18  C3  UNL     1       3.086   2.595   3.502  1.00  0.00     0.091 A 
HETATM   19  C2  UNL     1       4.334   3.262   3.239  1.00  0.00     0.043 A 
HETATM   20  C1  UNL     1       5.003   4.125   3.870  1.00  0.00     0.025 C 
HETATM   21 BR1  UNL     1       3.851   4.008   4.975  1.00  0.00    -0.145 Br
ENDBRANCH  17  18
ENDBRANCH  15  17
ENDBRANCH  14  15
ENDBRANCH   1  14
BRANCH  10  22
HETATM   22  C14 UNL     1      -2.770   0.255  -2.127  1.00  0.00    -0.035 A 
HETATM   23  C15 UNL     1      -4.079   0.605  -2.176  1.00  0.00     0.012 A 
HETATM   24  C16 UNL     1      -4.740   1.542  -2.934  1.00  0.00     0.043 A 
HETATM   25  C17 UNL     1      -3.844   2.206  -3.773  1.00  0.00     0.116 A 
HETATM   26  F1  UNL     1      -4.301   3.174  -4.606  1.00  0.00    -0.206 F 
HETATM   27  C18 UNL     1      -2.482   1.973  -3.848  1.00  0.00     0.043 A 
HETATM   28  C19 UNL     1      -1.962   0.985  -3.009  1.00  0.00     0.012 A 
ENDBRANCH  10  22
TORSDOF 5
