REMARK  4 active torsions:
REMARK  status: ('A' for Active; 'I' for Inactive)
REMARK    1  A    between atoms: C2_2  and  N1_3 
REMARK    2  A    between atoms: C2_2  and  C11_15 
REMARK    3  A    between atoms: N1_3  and  C3_4 
REMARK    4  A    between atoms: C8_11  and  N4_12 
ROOT
HETATM    1  C3  UNL     1      -0.993  -0.941   0.430  1.00  0.00     0.138 A 
HETATM    2  N2  UNL     1      -1.012  -2.223   0.832  1.00  0.00    -0.224 NA
HETATM    3  C4  UNL     1      -2.183  -2.837   1.071  1.00  0.00     0.235 A 
HETATM    4  N3  UNL     1      -3.397  -2.236   0.932  1.00  0.00    -0.241 NA
HETATM    5  C5  UNL     1      -3.432  -0.941   0.529  1.00  0.00     0.072 A 
HETATM    6  C6  UNL     1      -4.641  -0.332   0.387  1.00  0.00     0.035 A 
HETATM    7  C7  UNL     1      -4.648   0.973  -0.021  1.00  0.00     0.031 A 
HETATM    8  C8  UNL     1      -3.476   1.662  -0.283  1.00  0.00     0.026 A 
HETATM    9  C9  UNL     1      -2.291   0.980  -0.118  1.00  0.00     0.046 A 
HETATM   10  C10 UNL     1      -2.220  -0.331   0.289  1.00  0.00     0.041 A 
ENDROOT
BRANCH   1  11
HETATM   11  N1  UNL     1       0.245  -0.293   0.179  1.00  0.00    -0.366 N 
HETATM   12  H5  UNL     1       0.392   0.688  -0.133  1.00  0.00     0.161 HD
BRANCH  11  13
HETATM   13  C2  UNL     1       1.478  -1.037   0.361  1.00  0.00     0.112 C 
HETATM   14  C1  UNL     1       1.615  -2.238  -0.503  1.00  0.00     0.037 C 
BRANCH  13  15
HETATM   15  C11 UNL     1       2.689  -0.203   0.229  1.00  0.00    -0.036 A 
HETATM   16  C12 UNL     1       2.573   0.991   0.909  1.00  0.00     0.012 A 
HETATM   17  C13 UNL     1       3.622   1.916   0.902  1.00  0.00     0.043 A 
HETATM   18  C14 UNL     1       4.797   1.663   0.217  1.00  0.00     0.116 A 
HETATM   19  F1  UNL     1       5.852   2.500   0.160  1.00  0.00    -0.206 F 
HETATM   20  C15 UNL     1       4.888   0.451  -0.461  1.00  0.00     0.043 A 
HETATM   21  C16 UNL     1       3.858  -0.463  -0.456  1.00  0.00     0.012 A 
ENDBRANCH  13  15
ENDBRANCH  11  13
ENDBRANCH   1  11
BRANCH   8  22
HETATM   22  N4  UNL     1      -3.506   3.018  -0.706  1.00  0.00    -0.399 N 
HETATM   23  H9  UNL     1      -2.629   3.448  -1.034  1.00  0.00     0.156 HD
HETATM   24  H10 UNL     1      -4.409   3.538  -0.672  1.00  0.00     0.156 HD
ENDBRANCH   8  22
TORSDOF 4
