REMARK  4 active torsions:
REMARK  status: ('A' for Active; 'I' for Inactive)
REMARK    1  A    between atoms: C9_11  and  N3_12 
REMARK    2  A    between atoms: N3_12  and  C10_13 
REMARK    3  A    between atoms: C10_13  and  C12_15 
REMARK    4  A    between atoms: C20_24  and  N4_25 
ROOT
HETATM    1  C1  UNL     1      -4.848   2.011  -0.920  1.00  0.00     0.020 C 
HETATM    2  C2  UNL     1      -3.544   1.397  -0.825  1.00  0.00     0.052 C 
HETATM    3  C3  UNL     1      -3.584  -0.181  -0.823  1.00  0.00    -0.024 C 
HETATM    4  C4  UNL     1      -4.702  -0.359  -0.011  1.00  0.00     0.011 C 
HETATM    5  C5  UNL     1      -4.299   0.618   1.196  1.00  0.00     0.011 C 
HETATM    6  C6  UNL     1      -3.134   0.985   0.639  1.00  0.00    -0.020 C 
HETATM    7  C7  UNL     1      -1.764   0.783   1.098  1.00  0.00     0.079 A 
HETATM    8  N1  UNL     1      -1.603   1.382   2.263  1.00  0.00    -0.241 NA
HETATM    9  C8  UNL     1      -0.322   1.075   2.733  1.00  0.00     0.236 A 
HETATM   10  N2  UNL     1       0.533   0.296   2.048  1.00  0.00    -0.224 NA
HETATM   11  C9  UNL     1       0.363  -0.299   0.880  1.00  0.00     0.138 A 
HETATM   12  C18 UNL     1      -0.850  -0.062   0.346  1.00  0.00     0.041 A 
HETATM   13  C19 UNL     1      -1.212  -0.792  -0.950  1.00  0.00     0.047 C 
HETATM   14  C20 UNL     1      -2.531  -1.089  -1.295  1.00  0.00     0.033 C 
ENDROOT
BRANCH  11  15
HETATM   15  N3  UNL     1       1.139  -1.150   0.116  1.00  0.00    -0.366 N 
HETATM   16  H8  UNL     1       1.033  -1.662  -0.748  1.00  0.00     0.161 HD
BRANCH  15  17
HETATM   17  C10 UNL     1       2.422  -1.332   0.751  1.00  0.00     0.112 C 
HETATM   18  C11 UNL     1       3.042  -2.612   0.129  1.00  0.00     0.037 C 
BRANCH  17  19
HETATM   19  C12 UNL     1       3.350  -0.210   0.345  1.00  0.00    -0.036 A 
HETATM   20  C13 UNL     1       4.706  -0.548   0.187  1.00  0.00     0.012 A 
HETATM   21  C14 UNL     1       5.733   0.295  -0.188  1.00  0.00     0.043 A 
HETATM   22  C15 UNL     1       5.381   1.601  -0.429  1.00  0.00     0.116 A 
HETATM   23  F1  UNL     1       6.340   2.473  -0.798  1.00  0.00    -0.206 F 
HETATM   24  C16 UNL     1       4.076   1.996  -0.293  1.00  0.00     0.043 A 
HETATM   25  C17 UNL     1       3.113   1.117   0.079  1.00  0.00     0.012 A 
ENDBRANCH  17  19
ENDBRANCH  15  17
ENDBRANCH  11  15
BRANCH  14  26
HETATM   26  N4  UNL     1      -3.093  -2.144  -1.946  1.00  0.00    -0.399 N 
HETATM   27  H18 UNL     1      -3.278  -2.236  -2.950  1.00  0.00     0.156 HD
HETATM   28  H19 UNL     1      -3.259  -2.787  -1.121  1.00  0.00     0.156 HD
ENDBRANCH  14  26
TORSDOF 4
