REMARK  3 active torsions:
REMARK  status: ('A' for Active; 'I' for Inactive)
REMARK    1  A    between atoms: C9_9  and  N1_10 
REMARK    2  A    between atoms: N1_10  and  C10_11 
REMARK    3  A    between atoms: C10_11  and  C12_13 
ROOT
HETATM    1  N1  UNL     1      -0.869  -0.467   0.217  1.00  0.00    -0.385 N 
HETATM    2  H9  UNL     1      -1.180  -1.462   0.237  1.00  0.00     0.160 HD
ENDROOT
BRANCH   1   3
HETATM    3  C9  UNL     1       0.520  -0.162   0.272  1.00  0.00     0.010 A 
HETATM    4  C8  UNL     1       1.632  -1.156   0.088  1.00  0.00     0.096 A 
HETATM    5  C7  UNL     1       2.842  -0.344   0.236  1.00  0.00    -0.036 A 
HETATM    6  C2  UNL     1       4.173  -0.727   0.164  1.00  0.00    -0.054 A 
HETATM    7  C6  UNL     1       2.526   0.976   0.480  1.00  0.00    -0.027 A 
HETATM    8  C1  UNL     1       4.600  -2.104  -0.090  1.00  0.00     0.049 C 
HETATM    9  C3  UNL     1       5.127   0.247   0.343  1.00  0.00     0.007 A 
HETATM   10  C4  UNL     1       4.838   1.573   0.588  1.00  0.00     0.001 A 
HETATM   11  C5  UNL     1       3.502   1.935   0.656  1.00  0.00     0.012 A 
HETATM   12  C18 UNL     1       1.086   1.011   0.488  1.00  0.00     0.037 A 
ENDBRANCH   1   3
BRANCH   1  13
HETATM   13  C10 UNL     1      -1.799   0.640   0.135  1.00  0.00     0.110 C 
HETATM   14  C11 UNL     1      -1.564   1.472  -1.096  1.00  0.00     0.037 C 
BRANCH  13  15
HETATM   15  C12 UNL     1      -3.207   0.185   0.276  1.00  0.00    -0.036 A 
HETATM   16  C13 UNL     1      -3.622  -0.947  -0.434  1.00  0.00     0.012 A 
HETATM   17  C14 UNL     1      -4.925  -1.426  -0.347  1.00  0.00     0.043 A 
HETATM   18  C15 UNL     1      -5.806  -0.739   0.473  1.00  0.00     0.116 A 
HETATM   19  F1  UNL     1      -7.088  -1.170   0.589  1.00  0.00    -0.206 F 
HETATM   20  C16 UNL     1      -5.428   0.369   1.178  1.00  0.00     0.043 A 
HETATM   21  C17 UNL     1      -4.122   0.854   1.094  1.00  0.00     0.012 A 
ENDBRANCH  13  15
ENDBRANCH   1  13
TORSDOF 3
