REMARK  7 active torsions:
REMARK  status: ('A' for Active; 'I' for Inactive)
REMARK    1  A    between atoms: C3_3  and  C4_5 
REMARK    2  A    between atoms: C5_6  and  C6_7 
REMARK    3  A    between atoms: C6_7  and  C7_8 
REMARK    4  A    between atoms: C7_8  and  C8_9 
REMARK    5  A    between atoms: C11_12  and  N1_13 
REMARK    6  A    between atoms: N1_13  and  C12_14 
REMARK    7  A    between atoms: N4_25  and  N5_26 
ROOT
HETATM    1  C8  UNL     1       0.804   0.896  -1.108  1.00  0.00     0.022 C 
HETATM    2  C9  UNL     1       0.278   0.072  -0.182  1.00  0.00     0.007 C 
HETATM    3  C10 UNL     1      -0.437  -0.182   1.078  1.00  0.00     0.107 C 
HETATM    4  C11 UNL     1      -1.792  -0.773   0.786  1.00  0.00     0.109 C 
HETATM    5  N2  UNL     1      -2.411  -0.353  -0.313  1.00  0.00    -0.229 NA
HETATM    6  C18 UNL     1      -1.719   0.633  -1.121  1.00  0.00     0.230 C 
HETATM    7  N3  UNL     1      -1.434   1.558  -0.234  1.00  0.00    -0.262 NA
HETATM    8  C19 UNL     1      -0.718   2.772  -0.572  1.00  0.00     0.292 C 
HETATM    9  N4  UNL     1       0.618   2.327  -0.985  1.00  0.00    -0.298 N 
ENDROOT
BRANCH   4  10
HETATM   10  N1  UNL     1      -2.491  -1.703   1.604  1.00  0.00    -0.344 N 
HETATM   11  H14 UNL     1      -1.826  -2.051   2.355  1.00  0.00     0.167 HD
BRANCH  10  12
HETATM   12  C12 UNL     1      -3.851  -2.006   1.327  1.00  0.00     0.033 A 
HETATM   13  C13 UNL     1      -3.996  -3.084   0.446  1.00  0.00     0.032 A 
HETATM   14  C14 UNL     1      -5.258  -3.523   0.061  1.00  0.00     0.044 A 
HETATM   15  C15 UNL     1      -6.373  -2.889   0.552  1.00  0.00     0.116 A 
HETATM   16  F1  UNL     1      -7.628  -3.276   0.209  1.00  0.00    -0.206 F 
HETATM   17  C16 UNL     1      -6.235  -1.811   1.434  1.00  0.00     0.044 A 
HETATM   18  C17 UNL     1      -4.961  -1.391   1.804  1.00  0.00     0.032 A 
ENDBRANCH  10  12
ENDBRANCH   4  10
BRANCH   1  19
HETATM   19  C7  UNL     1       1.524   0.640  -2.365  1.00  0.00     0.062 C 
BRANCH  19  20
HETATM   20  C6  UNL     1       2.926   1.163  -2.371  1.00  0.00     0.033 C 
BRANCH  20  21
HETATM   21  C5  UNL     1       3.788   0.590  -1.322  1.00  0.00    -0.025 C 
HETATM   22  C4  UNL     1       4.096  -0.164  -0.305  1.00  0.00     0.015 C 
BRANCH  22  23
HETATM   23  C3  UNL     1       5.112  -0.582   0.630  1.00  0.00     0.006 C 
HETATM   24  C2  UNL     1       4.650  -1.481   1.481  1.00  0.00    -0.012 C 
HETATM   25  C1  UNL     1       3.417  -2.240   1.830  1.00  0.00     0.037 C 
HETATM   26 BR1  UNL     1       6.755   0.317   0.298  1.00  0.00    -0.051 Br
ENDBRANCH  22  23
ENDBRANCH  20  21
ENDBRANCH  19  20
ENDBRANCH   1  19
BRANCH   9  27
HETATM   27  N5  UNL     1       1.441   3.393  -1.198  1.00  0.00    -0.241 NA
HETATM   28  C20 UNL     1       1.549   4.338  -0.127  1.00  0.00     0.133 C 
HETATM   29  H22 UNL     1       1.290   3.891  -2.087  1.00  0.00     0.146 HD
ENDBRANCH   9  27
TORSDOF 7
