REMARK  3 active torsions:
REMARK  status: ('A' for Active; 'I' for Inactive)
REMARK    1  A    between atoms: C10_12  and  N3_13 
REMARK    2  A    between atoms: N3_13  and  C11_14 
REMARK    3  A    between atoms: C11_14  and  C13_16 
ROOT
HETATM    1  C1  UNL     1       5.387   0.823   0.008  1.00  0.00     0.046 C 
HETATM    2  C2  UNL     1       3.916   1.082  -0.176  1.00  0.00    -0.050 C 
HETATM    3  C3  UNL     1       3.384   2.247   0.172  1.00  0.00    -0.018 C 
HETATM    4  C4  UNL     1       1.966   2.639   0.049  1.00  0.00     0.055 C 
HETATM    5  C5  UNL     1       1.059   1.450   0.289  1.00  0.00    -0.012 C 
HETATM    6  C6  UNL     1       1.633   0.308  -0.141  1.00  0.00    -0.009 C 
HETATM    7  C7  UNL     1       0.785  -0.889   0.065  1.00  0.00     0.044 A 
HETATM    8  C8  UNL     1       1.389  -2.053   0.579  1.00  0.00     0.078 A 
HETATM    9  N1  UNL     1       0.566  -3.123   0.790  1.00  0.00    -0.244 NA
HETATM   10  C9  UNL     1      -0.733  -2.961   0.487  1.00  0.00     0.235 A 
HETATM   11  N2  UNL     1      -1.305  -1.849  -0.005  1.00  0.00    -0.224 NA
HETATM   12  C10 UNL     1      -0.553  -0.727  -0.248  1.00  0.00     0.138 A 
HETATM   13  C18 UNL     1       2.830  -1.812   0.771  1.00  0.00     0.331 C 
HETATM   14  N4  UNL     1       3.489  -1.226  -0.368  1.00  0.00     0.102 N 
HETATM   15  C19 UNL     1       2.987   0.073  -0.745  1.00  0.00     0.283 C 
HETATM   16  H19 UNL     1       3.300  -1.874  -1.165  1.00  0.00     0.317 HD
ENDROOT
BRANCH  12  17
HETATM   17  N3  UNL     1      -1.143   0.386  -0.817  1.00  0.00    -0.366 N 
HETATM   18  H9  UNL     1      -0.831   1.299  -1.183  1.00  0.00     0.161 HD
BRANCH  17  19
HETATM   19  C11 UNL     1      -2.599   0.322  -1.036  1.00  0.00     0.111 C 
HETATM   20  C12 UNL     1      -3.171   1.579  -1.618  1.00  0.00     0.037 C 
BRANCH  19  21
HETATM   21  C13 UNL     1      -3.314  -0.079   0.202  1.00  0.00    -0.050 C 
HETATM   22  C14 UNL     1      -2.923   0.554   1.334  1.00  0.00    -0.069 C 
HETATM   23  B1  UNL     1      -4.119   0.585   2.670  1.00  0.00     0.251 B 
HETATM   24  C15 UNL     1      -5.022  -1.205   2.453  1.00  0.00     0.043 C 
HETATM   25  F1  UNL     1      -5.256  -1.392   3.733  1.00  0.00    -0.225 F 
HETATM   26  C16 UNL     1      -5.043  -1.529   1.124  1.00  0.00     0.025 C 
HETATM   27  C17 UNL     1      -4.289  -1.038   0.105  1.00  0.00     0.009 C 
ENDBRANCH  19  21
ENDBRANCH  17  19
ENDBRANCH  12  17
TORSDOF 3
