REMARK  4 active torsions:
REMARK  status: ('A' for Active; 'I' for Inactive)
REMARK    1  A    between atoms: C2_2  and  N1_3 
REMARK    2  A    between atoms: C2_2  and  C9_12 
REMARK    3  A    between atoms: N1_3  and  C3_4 
REMARK    4  A    between atoms: C12_15  and  C13_16 
ROOT
HETATM    1  C13 UNL     1       3.752  -0.115  -0.405  1.00  0.00    -0.026 A 
HETATM    2  C14 UNL     1       4.572  -1.042  -1.016  1.00  0.00     0.014 A 
HETATM    3  C15 UNL     1       5.952  -0.949  -0.908  1.00  0.00     0.023 A 
HETATM    4  C16 UNL     1       6.454   0.107  -0.166  1.00  0.00     0.044 A 
HETATM    5  C17 UNL     1       7.895   0.236  -0.032  1.00  0.00     0.099 C 
HETATM    6  N4  UNL     1       9.056   0.342   0.091  1.00  0.00    -0.191 NA
HETATM    7  C18 UNL     1       5.644   1.041   0.449  1.00  0.00     0.023 A 
HETATM    8  C19 UNL     1       4.275   0.940   0.335  1.00  0.00     0.014 A 
ENDROOT
BRANCH   1   9
HETATM    9  C12 UNL     1       2.292  -0.209  -0.517  1.00  0.00    -0.026 A 
HETATM   10  C11 UNL     1       1.447   0.881  -0.513  1.00  0.00     0.013 A 
HETATM   11  C10 UNL     1       0.077   0.755  -0.619  1.00  0.00     0.010 A 
HETATM   12  C9  UNL     1      -0.473  -0.522  -0.735  1.00  0.00    -0.036 A 
HETATM   13  C21 UNL     1       0.381  -1.618  -0.739  1.00  0.00     0.010 A 
HETATM   14  C20 UNL     1       1.759  -1.496  -0.632  1.00  0.00     0.013 A 
BRANCH  12  15
HETATM   15  C2  UNL     1      -1.931  -0.633  -0.848  1.00  0.00     0.112 C 
HETATM   16  C1  UNL     1      -2.335  -2.080  -0.715  1.00  0.00     0.037 C 
BRANCH  15  17
HETATM   17  N1  UNL     1      -2.593   0.212   0.103  1.00  0.00    -0.366 N 
HETATM   18  H5  UNL     1      -1.997   0.754   0.799  1.00  0.00     0.161 HD
BRANCH  17  19
HETATM   19  C3  UNL     1      -3.994   0.402   0.210  1.00  0.00     0.138 A 
HETATM   20  N2  UNL     1      -4.823  -0.242  -0.630  1.00  0.00    -0.224 NA
HETATM   21  C4  UNL     1      -6.159  -0.115  -0.595  1.00  0.00     0.235 A 
HETATM   22  N3  UNL     1      -6.713   0.698   0.327  1.00  0.00    -0.241 NA
HETATM   23  C5  UNL     1      -5.957   1.379   1.204  1.00  0.00     0.072 A 
HETATM   24  C6  UNL     1      -4.573   1.231   1.148  1.00  0.00     0.038 A 
HETATM   25  C8  UNL     1      -5.694   2.297   2.322  1.00  0.00     0.034 A 
HETATM   26  C7  UNL     1      -4.374   2.146   2.258  1.00  0.00     0.020 A 
ENDBRANCH  17  19
ENDBRANCH  15  17
ENDBRANCH  12  15
ENDBRANCH   1   9
TORSDOF 4
