REMARK  3 active torsions:
REMARK  status: ('A' for Active; 'I' for Inactive)
REMARK    1  A    between atoms: C3_3  and  N1_4 
REMARK    2  A    between atoms: C5_8  and  N4_9 
REMARK    3  A    between atoms: C6_10  and  C7_11 
ROOT
HETATM    1  C7  UNL     1       3.440  -0.184   0.292  1.00  0.00    -0.026 A 
HETATM    2  C8  UNL     1       4.060   0.919  -0.235  1.00  0.00     0.013 A 
HETATM    3  C9  UNL     1       5.405   1.030  -0.503  1.00  0.00     0.023 A 
HETATM    4  C10 UNL     1       6.238  -0.027  -0.236  1.00  0.00     0.044 A 
HETATM    5  C11 UNL     1       7.641   0.061  -0.505  1.00  0.00     0.099 C 
HETATM    6  N5  UNL     1       8.759   0.142  -0.711  1.00  0.00    -0.191 NA
HETATM    7  C12 UNL     1       5.668  -1.161   0.296  1.00  0.00     0.023 A 
HETATM    8  C13 UNL     1       4.314  -1.210   0.541  1.00  0.00     0.013 A 
ENDROOT
BRANCH   1   9
HETATM    9  C6  UNL     1       2.034  -0.329   0.618  1.00  0.00     0.001 C 
HETATM   10  C5  UNL     1       1.533  -1.636   1.108  1.00  0.00     0.374 C 
HETATM   11  N3  UNL     1       0.081  -1.699   1.072  1.00  0.00    -0.243 NA
HETATM   12  C4  UNL     1      -0.578  -2.746   0.654  1.00  0.00     0.231 C 
HETATM   13  N2  UNL     1      -1.844  -2.100   0.894  1.00  0.00    -0.229 NA
HETATM   14  C3  UNL     1      -2.360  -1.382  -0.073  1.00  0.00     0.107 C 
HETATM   15  C2  UNL     1      -3.613  -0.625  -0.109  1.00  0.00     0.083 C 
HETATM   16  C1  UNL     1      -4.406  -0.815   1.194  1.00  0.00     0.023 C 
HETATM   17  C21 UNL     1      -3.477   0.823  -0.344  1.00  0.00    -0.052 A 
HETATM   18  C16 UNL     1      -2.429   1.696  -0.547  1.00  0.00    -0.093 A 
HETATM   19  C20 UNL     1      -4.759   1.387  -0.345  1.00  0.00     0.010 A 
HETATM   20  B1  UNL     1      -0.911   1.397  -0.603  1.00  0.00     0.198 B 
HETATM   21  C17 UNL     1      -2.729   3.029  -0.730  1.00  0.00     0.037 A 
HETATM   22  C15 UNL     1      -0.161   1.030   0.743  1.00  0.00    -0.021 C 
HETATM   23  H18 UNL     1      -0.278   1.953  -1.424  1.00  0.00    -0.021 HD
HETATM   24  C14 UNL     1       1.247   0.736   0.494  1.00  0.00    -0.024 C 
HETATM   25  C18 UNL     1      -3.991   3.618  -0.735  1.00  0.00     0.116 A 
HETATM   26  F1  UNL     1      -4.191   4.924  -0.920  1.00  0.00    -0.206 F 
HETATM   27  C19 UNL     1      -5.041   2.724  -0.530  1.00  0.00     0.043 A 
BRANCH  10  28
HETATM   28  N4  UNL     1       1.969  -2.757   0.281  1.00  0.00     0.107 N 
HETATM   29  H9  UNL     1       1.808  -3.615   0.888  1.00  0.00     0.316 HD
HETATM   30  H10 UNL     1       1.337  -2.904  -0.548  1.00  0.00     0.316 HD
ENDBRANCH  10  28
BRANCH  14  31
HETATM   31  N1  UNL     1      -1.681  -1.260  -1.311  1.00  0.00    -0.387 N 
HETATM   32  H5  UNL     1      -1.180  -1.152  -2.211  1.00  0.00     0.157 HD
HETATM   33  H6  UNL     1      -1.779  -2.177  -1.794  1.00  0.00     0.157 HD
ENDBRANCH  14  31
ENDBRANCH   1   9
TORSDOF 3
