REMARK  7 active torsions:
REMARK  status: ('A' for Active; 'I' for Inactive)
REMARK    1  A    between atoms: O1_2  and  C2_3 
REMARK    2  A    between atoms: C3_4  and  C4_5 
REMARK    3  A    between atoms: C4_5  and  O2_6 
REMARK    4  A    between atoms: O2_6  and  C5_7 
REMARK    5  A    between atoms: C5_7  and  C6_8 
REMARK       I    between atoms: N1_11  and  C9_12 
REMARK    6  A    between atoms: C15_21  and  N4_22 
REMARK    7  A    between atoms: N4_22  and  C16_23 
ROOT
HETATM    1  C4  UNL     1      -0.321  -1.643   1.969  1.00  0.00     0.082 C 
HETATM    2  C12 UNL     1      -1.627  -1.521   2.095  1.00  0.00     0.041 A 
HETATM    3  C13 UNL     1      -2.265  -1.973   3.376  1.00  0.00     0.195 A 
HETATM    4  N2  UNL     1      -3.681  -1.780   3.307  1.00  0.00    -0.278 NA
HETATM    5  C14 UNL     1      -4.364  -1.298   2.343  1.00  0.00     0.229 A 
HETATM    6  N3  UNL     1      -3.775  -0.856   1.120  1.00  0.00    -0.224 NA
HETATM    7  C15 UNL     1      -2.484  -0.972   1.028  1.00  0.00     0.140 A 
ENDROOT
BRANCH   1   8
HETATM    8  C3  UNL     1       0.295  -2.229   3.162  1.00  0.00     0.061 C 
HETATM    9  C2  UNL     1       1.601  -2.437   3.257  1.00  0.00     0.137 C 
BRANCH   9  10
HETATM   10  O1  UNL     1       2.918  -2.422   2.825  1.00  0.00    -0.368 OA
HETATM   11  C1  UNL     1       3.281  -3.231   1.724  1.00  0.00     0.208 C 
ENDBRANCH   9  10
ENDBRANCH   1   8
BRANCH   1  12
HETATM   12  O2  UNL     1       0.574  -1.350   0.990  1.00  0.00    -0.350 OA
BRANCH  12  13
HETATM   13  C5  UNL     1       1.217  -0.071   1.003  1.00  0.00     0.182 C 
BRANCH  13  14
HETATM   14  C6  UNL     1       2.288   0.085  -0.010  1.00  0.00     0.030 C 
HETATM   15  C7  UNL     1       2.932   1.477   0.062  1.00  0.00     0.028 C 
HETATM   16  C8  UNL     1       3.824   1.411  -1.167  1.00  0.00     0.126 C 
HETATM   17  N1  UNL     1       2.942   0.761  -2.134  1.00  0.00    -0.352 N 
HETATM   18  C9  UNL     1       2.968   0.713  -3.576  1.00  0.00     0.215 C 
HETATM   19  C11 UNL     1       1.864   0.051  -1.438  1.00  0.00     0.132 C 
HETATM   20  C10 UNL     1       4.053   1.426  -4.318  1.00  0.00     0.117 C 
HETATM   21  O3  UNL     1       2.156   0.121  -4.315  1.00  0.00    -0.274 OA
ENDBRANCH  13  14
ENDBRANCH  12  13
ENDBRANCH   1  12
BRANCH   7  22
HETATM   22  N4  UNL     1      -1.878  -0.530  -0.208  1.00  0.00    -0.344 N 
HETATM   23  H21 UNL     1      -1.052  -1.126  -0.521  1.00  0.00     0.167 HD
BRANCH  22  24
HETATM   24  C16 UNL     1      -2.506   0.635  -0.789  1.00  0.00     0.014 C 
HETATM   25  C17 UNL     1      -3.451   0.255  -1.632  1.00  0.00     0.025 C 
HETATM   26  C18 UNL     1      -4.353   1.090  -2.453  1.00  0.00     0.005 C 
HETATM   27  C19 UNL     1      -4.734   2.353  -2.196  1.00  0.00     0.042 C 
HETATM   28  C20 UNL     1      -4.328   3.172  -1.032  1.00  0.00     0.113 C 
HETATM   29  F1  UNL     1      -5.176   4.172  -0.673  1.00  0.00    -0.206 F 
HETATM   30  C21 UNL     1      -3.210   2.975  -0.352  1.00  0.00     0.021 C 
HETATM   31  C22 UNL     1      -2.078   2.033  -0.427  1.00  0.00     0.087 C 
ENDBRANCH  22  24
ENDBRANCH   7  22
TORSDOF 7
