REMARK  3 active torsions:
REMARK  status: ('A' for Active; 'I' for Inactive)
REMARK    1  A    between atoms: C5_5  and  C6_6 
REMARK    2  A    between atoms: C6_6  and  N1_7 
REMARK    3  A    between atoms: N1_7  and  C7_8 
ROOT
HETATM    1  C7  UNL     1      -0.417   1.336   0.025  1.00  0.00     0.139 A 
HETATM    2  N2  UNL     1      -0.487   2.675  -0.177  1.00  0.00    -0.224 NA
HETATM    3  C8  UNL     1      -1.679   3.335  -0.246  1.00  0.00     0.237 A 
HETATM    4  N3  UNL     1      -2.845   2.674  -0.113  1.00  0.00    -0.223 NA
HETATM    5  C9  UNL     1      -2.829   1.343   0.090  1.00  0.00     0.145 A 
HETATM    6  C10 UNL     1      -1.626   0.686   0.157  1.00  0.00     0.058 A 
HETATM    7  C11 UNL     1      -1.940  -0.612   0.364  1.00  0.00     0.044 A 
HETATM    8  C12 UNL     1      -3.329  -0.741   0.422  1.00  0.00     0.018 A 
HETATM    9  N4  UNL     1      -3.863   0.487   0.248  1.00  0.00    -0.333 N 
HETATM   10  C13 UNL     1      -5.318   0.589   0.269  1.00  0.00     0.152 C 
HETATM   11  C14 UNL     1      -5.872  -0.147  -0.867  1.00  0.00     0.170 C 
HETATM   12  N5  UNL     1      -5.612  -1.535  -1.089  1.00  0.00    -0.285 NA
HETATM   13  C15 UNL     1      -6.575  -2.283  -0.615  1.00  0.00     0.091 C 
HETATM   14  C16 UNL     1      -6.697  -1.963   0.666  1.00  0.00     0.004 C 
HETATM   15  C17 UNL     1      -5.449  -1.839   1.135  1.00  0.00    -0.006 C 
HETATM   16  C18 UNL     1      -4.068  -1.975   0.632  1.00  0.00     0.085 C 
ENDROOT
BRANCH   1  17
HETATM   17  N1  UNL     1       0.835   0.664   0.093  1.00  0.00    -0.370 N 
HETATM   18  H8  UNL     1       0.816  -0.361   0.250  1.00  0.00     0.161 HD
BRANCH  17  19
HETATM   19  C6  UNL     1       2.043   1.432  -0.057  1.00  0.00     0.155 C 
BRANCH  19  20
HETATM   20  C5  UNL     1       3.253   0.573   0.041  1.00  0.00    -0.059 C 
HETATM   21  C4  UNL     1       4.093   0.895   1.038  1.00  0.00     0.005 C 
HETATM   22  C3  UNL     1       5.358   0.224   1.369  1.00  0.00     0.007 C 
HETATM   23  C2  UNL     1       6.147  -0.460   0.529  1.00  0.00    -0.062 C 
HETATM   24  C1  UNL     1       7.397  -1.060   1.107  1.00  0.00     0.048 C 
HETATM   25  C21 UNL     1       5.947  -0.704  -0.909  1.00  0.00     0.003 C 
HETATM   26  C20 UNL     1       4.739  -0.709  -1.477  1.00  0.00    -0.022 C 
HETATM   27  C19 UNL     1       3.380  -0.503  -0.943  1.00  0.00     0.063 C 
ENDBRANCH  19  20
ENDBRANCH  17  19
ENDBRANCH   1  17
TORSDOF 3
