REMARK  5 active torsions:
REMARK  status: ('A' for Active; 'I' for Inactive)
REMARK    1  A    between atoms: C2_2  and  N1_3 
REMARK    2  A    between atoms: C2_2  and  C13_17 
REMARK    3  A    between atoms: N1_3  and  C3_4 
REMARK    4  A    between atoms: N4_11  and  C8_12 
REMARK    5  A    between atoms: C8_12  and  C9_13 
ROOT
HETATM    1  C3  UNL     1      -0.637   0.080  -0.252  1.00  0.00     0.137 A 
HETATM    2  N2  UNL     1      -1.205   1.292  -0.147  1.00  0.00    -0.224 NA
HETATM    3  C4  UNL     1      -0.574   2.316   0.457  1.00  0.00     0.237 A 
HETATM    4  N3  UNL     1       0.675   2.146   0.984  1.00  0.00    -0.224 NA
HETATM    5  C5  UNL     1       1.281   0.949   0.901  1.00  0.00     0.139 A 
HETATM    6  C6  UNL     1       0.642  -0.106   0.284  1.00  0.00     0.051 A 
HETATM    7  C7  UNL     1       1.758  -1.057   0.509  1.00  0.00     0.171 A 
HETATM    8  N4  UNL     1       2.373   0.079   1.141  1.00  0.00    -0.357 N 
ENDROOT
BRANCH   1   9
HETATM    9  N1  UNL     1      -1.294  -1.006  -0.882  1.00  0.00    -0.366 N 
HETATM   10  H5  UNL     1      -0.821  -1.938  -0.940  1.00  0.00     0.161 HD
BRANCH   9  11
HETATM   11  C2  UNL     1      -2.624  -0.908  -1.470  1.00  0.00     0.112 C 
HETATM   12  C1  UNL     1      -2.613   0.127  -2.599  1.00  0.00     0.037 C 
BRANCH  11  13
HETATM   13  C13 UNL     1      -3.662  -0.497  -0.525  1.00  0.00    -0.036 A 
HETATM   14  C14 UNL     1      -4.630   0.438  -0.862  1.00  0.00     0.012 A 
HETATM   15  C15 UNL     1      -5.608   0.818   0.037  1.00  0.00     0.043 A 
HETATM   16  C16 UNL     1      -5.622   0.255   1.298  1.00  0.00     0.116 A 
HETATM   17  F1  UNL     1      -6.591   0.622   2.203  1.00  0.00    -0.206 F 
HETATM   18  C17 UNL     1      -4.683  -0.679   1.685  1.00  0.00     0.043 A 
HETATM   19  C18 UNL     1      -3.710  -1.036   0.745  1.00  0.00     0.012 A 
ENDBRANCH  11  13
ENDBRANCH   9  11
ENDBRANCH   1   9
BRANCH   8  20
HETATM   20  C8  UNL     1       3.681   0.102   1.748  1.00  0.00     0.158 C 
BRANCH  20  21
HETATM   21  C9  UNL     1       4.739  -0.034   0.720  1.00  0.00    -0.066 A 
HETATM   22  C10 UNL     1       4.846  -0.161  -0.562  1.00  0.00    -0.022 A 
HETATM   23  C11 UNL     1       6.288  -0.208  -0.539  1.00  0.00     0.032 A 
HETATM   24  C12 UNL     1       6.177  -0.072   0.942  1.00  0.00     0.039 A 
ENDBRANCH  20  21
ENDBRANCH   8  20
TORSDOF 5
