REMARK  5 active torsions:
REMARK  status: ('A' for Active; 'I' for Inactive)
REMARK    1  A    between atoms: C2_2  and  N1_3 
REMARK    2  A    between atoms: C2_2  and  C17_21 
REMARK    3  A    between atoms: N1_3  and  C3_4 
REMARK    4  A    between atoms: C6_9  and  C7_10 
REMARK    5  A    between atoms: C19_23  and  C20_24 
ROOT
HETATM    1  C7  UNL     1       3.080  -0.314   0.281  1.00  0.00    -0.010 A 
HETATM    2  C8  UNL     1       3.957   0.051   1.280  1.00  0.00     0.015 A 
HETATM    3  C9  UNL     1       4.989  -0.766   1.719  1.00  0.00     0.023 A 
HETATM    4  C10 UNL     1       5.178  -2.009   1.155  1.00  0.00     0.044 A 
HETATM    5  C11 UNL     1       6.239  -2.868   1.596  1.00  0.00     0.099 C 
HETATM    6  N4  UNL     1       7.090  -3.572   1.955  1.00  0.00    -0.191 NA
HETATM    7  C12 UNL     1       4.317  -2.402   0.154  1.00  0.00     0.023 A 
HETATM    8  C13 UNL     1       3.309  -1.559  -0.250  1.00  0.00     0.015 A 
ENDROOT
BRANCH   1   9
HETATM    9  C6  UNL     1       2.016   0.574  -0.144  1.00  0.00     0.037 C 
HETATM   10  N3  UNL     1       1.002   0.486  -1.110  1.00  0.00    -0.367 N 
HETATM   11  C5  UNL     1       0.602  -0.595  -1.960  1.00  0.00     0.146 C 
HETATM   12  C16 UNL     1       0.249   1.717  -1.241  1.00  0.00     0.157 C 
HETATM   13  C4  UNL     1      -0.689  -0.282  -2.683  1.00  0.00     0.170 C 
HETATM   14  N2  UNL     1      -1.578   0.437  -1.806  1.00  0.00    -0.273 NA
HETATM   15  C3  UNL     1      -1.197   1.406  -1.090  1.00  0.00     0.118 C 
HETATM   16  C15 UNL     1       0.761   2.540  -0.091  1.00  0.00     0.062 C 
HETATM   17  C14 UNL     1       1.874   1.751   0.436  1.00  0.00     0.006 C 
BRANCH  15  18
HETATM   18  N1  UNL     1      -2.105   2.088  -0.239  1.00  0.00    -0.369 N 
HETATM   19  H5  UNL     1      -1.834   3.093  -0.012  1.00  0.00     0.161 HD
BRANCH  18  20
HETATM   20  C2  UNL     1      -3.266   1.476   0.257  1.00  0.00     0.108 C 
HETATM   21  C1  UNL     1      -4.125   1.062  -0.929  1.00  0.00     0.037 C 
BRANCH  20  22
HETATM   22  C17 UNL     1      -3.066   0.318   1.133  1.00  0.00    -0.051 A 
HETATM   23  C18 UNL     1      -2.397  -0.671   1.841  1.00  0.00    -0.010 A 
HETATM   24  C19 UNL     1      -3.812  -0.666   1.951  1.00  0.00     0.068 A 
BRANCH  24  25
HETATM   25  C20 UNL     1      -4.571  -1.770   1.248  1.00  0.00     0.235 C 
HETATM   26  F1  UNL     1      -5.545  -1.273   0.393  1.00  0.00    -0.254 F 
ENDBRANCH  24  25
ENDBRANCH  20  22
ENDBRANCH  18  20
ENDBRANCH  15  18
ENDBRANCH   1   9
TORSDOF 5
