REMARK  7 active torsions:
REMARK  status: ('A' for Active; 'I' for Inactive)
REMARK    1  A    between atoms: N1_2  and  C2_3 
REMARK    2  A    between atoms: C2_3  and  C3_4 
REMARK    3  A    between atoms: C3_4  and  C4_5 
REMARK    4  A    between atoms: C5_6  and  C6_7 
REMARK    5  A    between atoms: C9_13  and  N5_14 
REMARK    6  A    between atoms: N5_14  and  C10_15 
REMARK    7  A    between atoms: C10_15  and  C12_17 
ROOT
HETATM    1  C6  UNL     1       1.269  -0.368  -0.976  1.00  0.00     0.000 C 
HETATM    2  C7  UNL     1       1.753  -0.620  -2.157  1.00  0.00     0.118 C 
HETATM    3  N2  UNL     1       1.645   0.176  -3.129  1.00  0.00    -0.171 NA
HETATM    4  N3  UNL     1       0.653   0.906  -3.814  1.00  0.00    -0.271 N 
HETATM    5  C8  UNL     1      -0.708   1.108  -3.435  1.00  0.00     0.227 C 
HETATM    6  N4  UNL     1      -1.417   0.987  -2.353  1.00  0.00    -0.225 NA
HETATM    7  C9  UNL     1      -1.052   0.568  -1.025  1.00  0.00     0.126 C 
HETATM    8  C18 UNL     1      -0.009   0.019  -0.387  1.00  0.00     0.064 C 
HETATM    9  H11 UNL     1       0.980   1.333  -4.697  1.00  0.00     0.190 HD
ENDROOT
BRANCH   7  10
HETATM   10  N5  UNL     1      -2.158   0.837  -0.173  1.00  0.00    -0.366 N 
HETATM   11  H13 UNL     1      -1.885   1.604   0.446  1.00  0.00     0.161 HD
BRANCH  10  12
HETATM   12  C10 UNL     1      -3.237  -0.095  -0.530  1.00  0.00     0.112 C 
HETATM   13  C11 UNL     1      -2.813  -1.543  -0.348  1.00  0.00     0.037 C 
BRANCH  12  14
HETATM   14  C12 UNL     1      -4.495   0.191   0.198  1.00  0.00    -0.036 A 
HETATM   15  C13 UNL     1      -5.731   0.181  -0.454  1.00  0.00     0.009 A 
HETATM   16  C14 UNL     1      -6.956   0.432   0.126  1.00  0.00     0.001 A 
HETATM   17  C15 UNL     1      -6.952   0.715   1.459  1.00  0.00     0.000 A 
HETATM   18  C16 UNL     1      -5.772   0.746   2.184  1.00  0.00     0.001 A 
HETATM   19  C17 UNL     1      -4.567   0.485   1.546  1.00  0.00     0.009 A 
ENDBRANCH  12  14
ENDBRANCH  10  12
ENDBRANCH   7  10
BRANCH   1  20
HETATM   20  C5  UNL     1       2.260  -0.505   0.086  1.00  0.00     0.010 C 
HETATM   21  C4  UNL     1       3.496  -0.853  -0.232  1.00  0.00    -0.024 C 
BRANCH  21  22
HETATM   22  C3  UNL     1       4.718  -1.074   0.588  1.00  0.00     0.057 C 
BRANCH  22  23
HETATM   23  C2  UNL     1       5.835  -0.138   0.189  1.00  0.00     0.272 C 
BRANCH  23  24
HETATM   24  N1  UNL     1       7.043  -0.328   0.967  1.00  0.00     0.079 N 
HETATM   25  C1  UNL     1       6.830   0.078   2.325  1.00  0.00     0.306 C 
HETATM   26  H4  UNL     1       7.868   0.065   0.506  1.00  0.00     0.315 HD
ENDBRANCH  23  24
ENDBRANCH  22  23
ENDBRANCH  21  22
ENDBRANCH   1  20
TORSDOF 7
