REMARK  6 active torsions:
REMARK  status: ('A' for Active; 'I' for Inactive)
REMARK    1  A    between atoms: C1_2  and  C2_3 
REMARK    2  A    between atoms: C2_3  and  N2_4 
REMARK    3  A    between atoms: N3_7  and  C5_8 
REMARK    4  A    between atoms: C5_8  and  C6_9 
REMARK    5  A    between atoms: N6_20  and  C15_21 
REMARK    6  A    between atoms: C15_21  and  C16_22 
ROOT
HETATM    1  C6  UNL     1       1.770  -0.824   0.108  1.00  0.00    -0.034 C 
HETATM    2  C7  UNL     1       0.927  -0.866  -0.914  1.00  0.00    -0.013 C 
HETATM    3  C8  UNL     1      -0.432  -0.315  -1.134  1.00  0.00     0.069 C 
HETATM    4  C9  UNL     1      -1.298  -0.417   0.082  1.00  0.00    -0.018 C 
HETATM    5  C10 UNL     1      -1.044  -0.271   1.407  1.00  0.00     0.036 C 
HETATM    6  C11 UNL     1       0.315   0.056   1.916  1.00  0.00     0.030 C 
HETATM    7  C12 UNL     1       1.546  -0.153   1.409  1.00  0.00     0.011 C 
HETATM    8  N4  UNL     1      -2.250  -0.462   2.208  1.00  0.00    -0.376 N 
HETATM    9  C13 UNL     1      -2.945  -1.389   1.368  1.00  0.00     0.159 A 
HETATM   10  C14 UNL     1      -4.310  -1.753   1.653  1.00  0.00     0.141 A 
HETATM   11  N5  UNL     1      -5.204  -1.518   0.778  1.00  0.00    -0.187 NA
HETATM   12  N6  UNL     1      -5.008  -0.915  -0.468  1.00  0.00    -0.277 N 
HETATM   13  C22 UNL     1      -3.697  -0.485  -0.848  1.00  0.00     0.122 A 
HETATM   14  C23 UNL     1      -2.753  -0.696   0.037  1.00  0.00    -0.004 A 
HETATM   15  H16 UNL     1      -2.358   0.034   3.097  1.00  0.00     0.160 HD
ENDROOT
BRANCH   1  16
HETATM   16  C5  UNL     1       3.110  -1.474   0.083  1.00  0.00     0.310 C 
BRANCH  16  17
HETATM   17  N3  UNL     1       4.206  -0.569   0.273  1.00  0.00     0.096 N 
HETATM   18  C4  UNL     1       5.413  -1.332   0.234  1.00  0.00     0.303 C 
HETATM   19  C3  UNL     1       6.663  -0.542   0.117  1.00  0.00     0.303 C 
HETATM   20  N2  UNL     1       6.540   0.295  -1.061  1.00  0.00     0.096 N 
HETATM   21  C25 UNL     1       5.497   1.235  -0.809  1.00  0.00     0.303 C 
HETATM   22  C24 UNL     1       4.179   0.626  -0.464  1.00  0.00     0.303 C 
BRANCH  20  23
HETATM   23  C2  UNL     1       7.804   0.978  -1.214  1.00  0.00     0.318 C 
BRANCH  23  24
HETATM   24  C1  UNL     1       8.061   1.963  -0.145  1.00  0.00     0.110 C 
HETATM   25  N1  UNL     1       8.802   1.625   0.858  1.00  0.00    -0.315 NA
HETATM   26  H1  UNL     1       8.987   2.315   1.615  1.00  0.00     0.185 HD
ENDBRANCH  23  24
ENDBRANCH  20  23
ENDBRANCH  16  17
ENDBRANCH   1  16
BRANCH  12  27
HETATM   27  C15 UNL     1      -6.086  -0.703  -1.409  1.00  0.00     0.189 C 
BRANCH  27  28
HETATM   28  C16 UNL     1      -7.119   0.181  -0.765  1.00  0.00    -0.038 A 
HETATM   29  C17 UNL     1      -8.134  -0.423  -0.025  1.00  0.00     0.009 A 
HETATM   30  C18 UNL     1      -9.111   0.371   0.584  1.00  0.00     0.001 A 
HETATM   31  C19 UNL     1      -9.042   1.725   0.434  1.00  0.00     0.000 A 
HETATM   32  C20 UNL     1      -8.052   2.330  -0.289  1.00  0.00     0.001 A 
HETATM   33  C21 UNL     1      -7.070   1.557  -0.902  1.00  0.00     0.009 A 
ENDBRANCH  27  28
ENDBRANCH  12  27
TORSDOF 6
