REMARK  7 active torsions:
REMARK  status: ('A' for Active; 'I' for Inactive)
REMARK    1  A    between atoms: C2_2  and  N1_3 
REMARK    2  A    between atoms: N2_6  and  C5_7 
REMARK    3  A    between atoms: C5_7  and  C6_8 
REMARK    4  A    between atoms: C6_8  and  C7_9 
REMARK    5  A    between atoms: C7_9  and  N3_10 
REMARK    6  A    between atoms: C7_9  and  C19_23 
REMARK    7  A    between atoms: N3_10  and  C8_11 
ROOT
HETATM    1  C7  UNL     1      -0.347  -0.545   0.430  1.00  0.00     0.117 C 
ENDROOT
BRANCH   1   2
HETATM    2  C6  UNL     1      -0.105   0.656   1.274  1.00  0.00     0.060 C 
BRANCH   2   3
HETATM    3  C5  UNL     1       0.842   1.562   0.512  1.00  0.00     0.275 C 
BRANCH   3   4
HETATM    4  N2  UNL     1       2.069   0.955   0.096  1.00  0.00     0.094 N 
HETATM    5  C4  UNL     1       2.975   0.590   1.157  1.00  0.00     0.287 C 
HETATM    6  C3  UNL     1       3.803  -0.604   0.668  1.00  0.00     0.124 C 
HETATM    7  N1  UNL     1       4.772  -0.236  -0.298  1.00  0.00    -0.290 NA
HETATM    8  P1  UNL     1       4.375   1.237  -1.256  1.00  0.00    -0.025 P 
HETATM    9  C25 UNL     1       2.788   2.004  -0.659  1.00  0.00     0.319 C 
HETATM   10  H31 UNL     1       4.091   0.798  -2.638  1.00  0.00     0.075 HD
BRANCH   7  11
HETATM   11  C2  UNL     1       6.143  -0.218   0.185  1.00  0.00     0.090 C 
HETATM   12  C1  UNL     1       7.054   0.121  -0.979  1.00  0.00     0.021 C 
ENDBRANCH   7  11
ENDBRANCH   3   4
ENDBRANCH   2   3
ENDBRANCH   1   2
BRANCH   1  13
HETATM   13  N3  UNL     1      -0.884  -0.373  -0.850  1.00  0.00    -0.369 N 
HETATM   14  H15 UNL     1      -0.842  -0.893  -1.739  1.00  0.00     0.161 HD
BRANCH  13  15
HETATM   15  C8  UNL     1      -1.705   0.576  -1.416  1.00  0.00     0.110 C 
HETATM   16  C9  UNL     1      -2.979   0.902  -1.042  1.00  0.00     0.041 A 
HETATM   17  C10 UNL     1      -3.234  -0.319  -0.088  1.00  0.00     0.034 C 
HETATM   18  C15 UNL     1      -4.467   1.798  -1.159  1.00  0.00     0.005 A 
HETATM   19  C16 UNL     1      -3.457   1.303  -1.108  1.00  0.00     0.002 A 
HETATM   20  C11 UNL     1      -4.593   0.280  -0.712  1.00  0.00    -0.005 A 
HETATM   21  C12 UNL     1      -5.665  -0.392  -0.425  1.00  0.00    -0.019 A 
HETATM   22  C14 UNL     1      -5.791   1.468  -0.954  1.00  0.00     0.032 A 
HETATM   23  C13 UNL     1      -6.662   0.570  -0.622  1.00  0.00    -0.023 A 
HETATM   24  C17 UNL     1      -2.825   2.713  -1.593  1.00  0.00     0.059 C 
HETATM   25  C18 UNL     1      -2.153   2.424  -2.903  1.00  0.00     0.092 C 
HETATM   26  N4  UNL     1      -1.403   1.420  -2.588  1.00  0.00    -0.251 NA
ENDBRANCH  13  15
ENDBRANCH   1  13
BRANCH   1  27
HETATM   27  C19 UNL     1      -0.785  -1.767   1.121  1.00  0.00    -0.035 A 
HETATM   28  C20 UNL     1      -0.778  -2.834   0.196  1.00  0.00     0.009 A 
HETATM   29  C21 UNL     1      -1.127  -4.118   0.548  1.00  0.00     0.001 A 
HETATM   30  C22 UNL     1      -1.503  -4.422   1.845  1.00  0.00     0.000 A 
HETATM   31  C23 UNL     1      -1.500  -3.372   2.707  1.00  0.00     0.001 A 
HETATM   32  C24 UNL     1      -1.159  -2.077   2.391  1.00  0.00     0.009 A 
ENDBRANCH   1  27
TORSDOF 7
