REMARK  6 active torsions:
REMARK  status: ('A' for Active; 'I' for Inactive)
REMARK    1  A    between atoms: C4_6  and  C5_7 
REMARK    2  A    between atoms: C5_7  and  C6_8 
REMARK    3  A    between atoms: N3_9  and  N4_10 
REMARK    4  A    between atoms: N4_10  and  C7_11 
REMARK    5  A    between atoms: C7_11  and  P1_12 
REMARK    6  A    between atoms: P1_12  and  C8_13 
ROOT
HETATM    1  N4  UNL     1      -0.680  -0.244   0.205  1.00  0.00    -0.289 N 
HETATM    2  H7  UNL     1      -0.907  -0.175  -0.806  1.00  0.00     0.188 HD
ENDROOT
BRANCH   1   3
HETATM    3  N3  UNL     1       0.150   0.867   0.470  1.00  0.00    -0.191 NA
HETATM    4  C6  UNL     1       1.388   0.785   0.065  1.00  0.00     0.119 C 
BRANCH   4   5
HETATM    5  C5  UNL     1       2.368   1.902   0.289  1.00  0.00     0.135 C 
BRANCH   5   6
HETATM    6  C4  UNL     1       3.712   1.266   0.523  1.00  0.00     0.153 A 
HETATM    7  N2  UNL     1       4.463   1.367   1.575  1.00  0.00    -0.221 NA
HETATM    8  C3  UNL     1       5.730   0.701   1.663  1.00  0.00     0.238 A 
HETATM    9  N1  UNL     1       6.215  -0.046   0.705  1.00  0.00    -0.218 NA
HETATM   10  C2  UNL     1       5.407  -0.177  -0.472  1.00  0.00     0.163 A 
HETATM   11  C1  UNL     1       5.760  -0.898  -1.526  1.00  0.00     0.074 C 
HETATM   12  O1  UNL     1       4.183   0.479  -0.531  1.00  0.00    -0.278 OA
ENDBRANCH   5   6
ENDBRANCH   4   5
ENDBRANCH   1   3
BRANCH   1  13
HETATM   13  C7  UNL     1      -0.998  -1.135   1.267  1.00  0.00     0.125 C 
BRANCH  13  14
HETATM   14  P1  UNL     1      -2.509  -1.624   1.717  1.00  0.00    -0.004 P 
BRANCH  14  15
HETATM   15  C8  UNL     1      -3.988  -1.018   0.829  1.00  0.00    -0.019 A 
HETATM   16  C9  UNL     1      -5.168  -1.711   0.973  1.00  0.00     0.013 A 
HETATM   17  C10 UNL     1      -6.273  -1.241   0.297  1.00  0.00     0.003 A 
HETATM   18  C11 UNL     1      -6.265  -0.123  -0.512  1.00  0.00     0.024 A 
HETATM   19  C12 UNL     1      -5.075   0.569  -0.652  1.00  0.00     0.035 A 
HETATM   20 CL1  UNL     1      -5.001   1.995  -1.664  1.00  0.00    -0.084 Cl
HETATM   21  C13 UNL     1      -3.960   0.099   0.027  1.00  0.00     0.036 A 
ENDBRANCH  14  15
ENDBRANCH  13  14
ENDBRANCH   1  13
TORSDOF 6
