REMARK  8 active torsions:
REMARK  status: ('A' for Active; 'I' for Inactive)
REMARK    1  A    between atoms: C2_2  and  C3_3 
REMARK    2  A    between atoms: C3_3  and  S1_4 
REMARK    3  A    between atoms: S1_4  and  N1_7 
REMARK    4  A    between atoms: N1_7  and  C4_8 
REMARK    5  A    between atoms: C8_13  and  C9_14 
REMARK    6  A    between atoms: C9_14  and  N2_15 
REMARK    7  A    between atoms: N2_15  and  C10_16 
REMARK    8  A    between atoms: C10_16  and  C11_17 
ROOT
HETATM    1  C4  UNL     1       1.503   0.667   0.198  1.00  0.00     0.081 A 
HETATM    2  C5  UNL     1       1.474   0.004   1.405  1.00  0.00     0.036 A 
HETATM    3  C6  UNL     1       0.360  -0.405   2.101  1.00  0.00     0.045 A 
HETATM    4  C7  UNL     1      -0.868  -0.106   1.502  1.00  0.00     0.127 A 
HETATM    5  F1  UNL     1      -2.001  -0.497   2.165  1.00  0.00    -0.205 F 
HETATM    6  C8  UNL     1      -0.919   0.555   0.296  1.00  0.00     0.049 A 
HETATM    7  C15 UNL     1       0.250   0.935  -0.344  1.00  0.00     0.154 A 
HETATM    8  F2  UNL     1       0.182   1.585  -1.531  1.00  0.00    -0.203 F 
ENDROOT
BRANCH   6   9
HETATM    9  C9  UNL     1      -2.241   0.861  -0.322  1.00  0.00     0.315 C 
BRANCH   9  10
HETATM   10  N2  UNL     1      -2.731  -0.380  -0.883  1.00  0.00     0.092 N 
HETATM   11  H13 UNL     1      -2.035  -0.819  -1.521  1.00  0.00     0.316 HD
BRANCH  10  12
HETATM   12  C10 UNL     1      -3.999  -0.261  -1.528  1.00  0.00     0.311 C 
BRANCH  12  13
HETATM   13  C11 UNL     1      -5.123   0.015  -0.627  1.00  0.00     0.006 A 
HETATM   14  C12 UNL     1      -5.932   1.059  -0.643  1.00  0.00     0.041 A 
HETATM   15 CL1  UNL     1      -6.005   2.480  -1.689  1.00  0.00    -0.086 Cl
HETATM   16  C13 UNL     1      -6.951   1.004   0.414  1.00  0.00     0.200 A 
HETATM   17  N3  UNL     1      -6.655  -0.235   1.095  1.00  0.00    -0.296 NA
HETATM   18  C14 UNL     1      -5.642  -0.751   0.494  1.00  0.00     0.121 A 
ENDBRANCH  12  13
ENDBRANCH  10  12
ENDBRANCH   9  10
ENDBRANCH   6   9
BRANCH   1  19
HETATM   19  N1  UNL     1       2.689   1.055  -0.450  1.00  0.00    -0.282 N 
HETATM   20  H8  UNL     1       2.600   1.675  -1.295  1.00  0.00     0.178 HD
BRANCH  19  21
HETATM   21  S1  UNL     1       4.271   0.584   0.045  1.00  0.00     0.231 S 
HETATM   22  O1  UNL     1       4.422   1.028   1.477  1.00  0.00    -0.206 OA
HETATM   23  O2  UNL     1       5.310   1.188  -0.853  1.00  0.00    -0.206 OA
BRANCH  21  24
HETATM   24  C3  UNL     1       4.425  -1.182  -0.049  1.00  0.00     0.163 C 
BRANCH  24  25
HETATM   25  C2  UNL     1       5.821  -1.583   0.388  1.00  0.00     0.012 C 
HETATM   26  C1  UNL     1       6.854  -0.942  -0.512  1.00  0.00     0.006 C 
ENDBRANCH  24  25
ENDBRANCH  21  24
ENDBRANCH  19  21
ENDBRANCH   1  19
TORSDOF 8
