REMARK  8 active torsions:
REMARK  status: ('A' for Active; 'I' for Inactive)
REMARK    1  A    between atoms: C3_3  and  C4_4 
REMARK    2  A    between atoms: C4_4  and  C5_6 
REMARK    3  A    between atoms: C9_11  and  N1_12 
REMARK    4  A    between atoms: N1_12  and  S1_13 
REMARK    5  A    between atoms: S1_13  and  C10_16 
REMARK    6  A    between atoms: C10_16  and  C11_17 
REMARK    7  A    between atoms: N3_24  and  C16_25 
REMARK    8  A    between atoms: C16_25  and  C17_26 
ROOT
HETATM    1  C5  UNL     1       0.057  -0.840   0.062  1.00  0.00     0.094 A 
HETATM    2  C6  UNL     1       0.074  -1.055  -1.292  1.00  0.00     0.133 A 
HETATM    3  F1  UNL     1       1.186  -0.887  -2.017  1.00  0.00    -0.205 F 
HETATM    4  C7  UNL     1      -0.962  -1.452  -2.090  1.00  0.00     0.046 A 
HETATM    5  C8  UNL     1      -2.155  -1.655  -1.441  1.00  0.00     0.036 A 
HETATM    6  C9  UNL     1      -2.293  -1.472  -0.096  1.00  0.00     0.082 A 
HETATM    7  C13 UNL     1      -1.192  -1.074   0.604  1.00  0.00     0.160 A 
HETATM    8  F2  UNL     1      -1.449  -0.923   1.950  1.00  0.00    -0.203 F 
ENDROOT
BRANCH   1   9
HETATM    9  C4  UNL     1       1.129  -0.422   0.890  1.00  0.00     0.200 C 
HETATM   10  O1  UNL     1       0.760  -0.325   2.115  1.00  0.00    -0.286 OA
BRANCH   9  11
HETATM   11  C3  UNL     1       2.505  -0.060   0.868  1.00  0.00     0.044 A 
HETATM   12  C2  UNL     1       3.254   0.328   2.051  1.00  0.00     0.016 A 
HETATM   13  C1  UNL     1       2.967   0.453   3.327  1.00  0.00     0.028 C 
HETATM   14  C15 UNL     1       4.638   0.629   1.622  1.00  0.00     0.137 A 
HETATM   15  N2  UNL     1       4.678   0.418   0.221  1.00  0.00    -0.349 N 
HETATM   16  N3  UNL     1       5.616   1.014   2.398  1.00  0.00    -0.242 NA
HETATM   17  C14 UNL     1       3.366   0.013  -0.124  1.00  0.00     0.106 A 
HETATM   18  H14 UNL     1       5.574   0.575  -0.299  1.00  0.00     0.167 HD
BRANCH  16  19
HETATM   19  C16 UNL     1       6.885   1.259   1.807  1.00  0.00     0.131 C 
BRANCH  19  20
HETATM   20  C17 UNL     1       7.767   0.760   0.953  1.00  0.00     0.237 C 
HETATM   21 CL1  UNL     1       9.150   0.453  -0.071  1.00  0.00    -0.229 Cl
ENDBRANCH  19  20
ENDBRANCH  16  19
ENDBRANCH   9  11
ENDBRANCH   1   9
BRANCH   6  22
HETATM   22  N1  UNL     1      -3.533  -1.717   0.499  1.00  0.00    -0.281 N 
HETATM   23  H5  UNL     1      -3.412  -2.198   1.442  1.00  0.00     0.178 HD
BRANCH  22  24
HETATM   24  S1  UNL     1      -5.146  -1.403   0.018  1.00  0.00     0.231 S 
HETATM   25  O2  UNL     1      -6.138  -2.019   0.966  1.00  0.00    -0.206 OA
HETATM   26  O3  UNL     1      -5.321  -1.997  -1.370  1.00  0.00    -0.206 OA
BRANCH  24  27
HETATM   27  C10 UNL     1      -5.388   0.338  -0.144  1.00  0.00     0.163 C 
BRANCH  27  28
HETATM   28  C11 UNL     1      -4.440   0.883  -1.164  1.00  0.00     0.012 C 
HETATM   29  C12 UNL     1      -4.629   2.379  -1.368  1.00  0.00     0.006 C 
ENDBRANCH  27  28
ENDBRANCH  24  27
ENDBRANCH  22  24
ENDBRANCH   6  22
TORSDOF 8
