REMARK  3 active torsions:
REMARK  status: ('A' for Active; 'I' for Inactive)
REMARK    1  A    between atoms: C2_2  and  C3_3 
REMARK    2  A    between atoms: C3_3  and  N1_4 
REMARK    3  A    between atoms: C8_10  and  C9_11 
ROOT
HETATM    1  N1  UNL     1      -2.681  -0.456   0.617  1.00  0.00    -0.368 N 
HETATM    2  C4  UNL     1      -2.590   0.067   1.957  1.00  0.00     0.493 A 
HETATM    3  O1  UNL     1      -2.879   0.350   3.169  1.00  0.00    -0.413 OA
HETATM    4  C5  UNL     1      -1.439   0.245   0.794  1.00  0.00     0.187 A 
HETATM    5  C6  UNL     1      -1.321   1.302  -0.218  1.00  0.00     0.007 A 
HETATM    6  C7  UNL     1      -0.251   1.083  -0.951  1.00  0.00     0.012 A 
HETATM    7  C8  UNL     1       0.453  -0.123  -0.518  1.00  0.00     0.028 A 
HETATM    8  C17 UNL     1      -0.240  -0.606   0.495  1.00  0.00     0.132 A 
HETATM    9  F2  UNL     1      -0.062  -1.697   1.282  1.00  0.00    -0.207 F 
ENDROOT
BRANCH   7  10
HETATM   10  C9  UNL     1       1.690  -0.757  -1.036  1.00  0.00     0.195 A 
HETATM   11  F1  UNL     1       1.661  -1.048  -2.365  1.00  0.00    -0.226 F 
HETATM   12  C10 UNL     1       2.045  -1.985  -0.284  1.00  0.00     0.045 A 
HETATM   13  C11 UNL     1       3.219  -1.907   0.347  1.00  0.00     0.091 A 
HETATM   14  N2  UNL     1       3.779  -0.625   0.089  1.00  0.00    -0.353 N 
HETATM   15  C12 UNL     1       5.054  -0.169   0.608  1.00  0.00     0.157 A 
HETATM   16  C16 UNL     1       2.887   0.107  -0.744  1.00  0.00     0.062 A 
HETATM   17  C13 UNL     1       5.317   1.214   0.137  1.00  0.00     0.017 A 
HETATM   18  C14 UNL     1       4.539   1.969  -0.643  1.00  0.00     0.033 A 
HETATM   19 CL1  UNL     1       4.891   3.615  -1.181  1.00  0.00    -0.085 Cl
HETATM   20  C15 UNL     1       3.280   1.337  -1.073  1.00  0.00     0.053 A 
ENDBRANCH   7  10
BRANCH   1  21
HETATM   21  C3  UNL     1      -3.866  -1.184   0.280  1.00  0.00     0.120 C 
BRANCH  21  22
HETATM   22  C2  UNL     1      -4.955  -0.289  -0.278  1.00  0.00     0.015 C 
HETATM   23  C1  UNL     1      -4.528   0.423  -1.524  1.00  0.00     0.006 C 
ENDBRANCH  21  22
ENDBRANCH   1  21
TORSDOF 3
