REMARK  6 active torsions:
REMARK  status: ('A' for Active; 'I' for Inactive)
REMARK    1  A    between atoms: C3_3  and  C4_4 
REMARK       I    between atoms: N2_8  and  C7_9 
REMARK    2  A    between atoms: C7_9  and  C8_11 
REMARK    3  A    between atoms: C12_16  and  N3_17 
REMARK    4  A    between atoms: N3_17  and  S1_18 
REMARK    5  A    between atoms: S1_18  and  C13_21 
REMARK    6  A    between atoms: C13_21  and  C14_22 
ROOT
HETATM    1  C1  UNL     1      -5.444  -3.543  -4.174  1.00  0.00     0.011 C 
HETATM    2  C2  UNL     1      -5.050  -3.407  -2.780  1.00  0.00    -0.006 C 
HETATM    3  C3  UNL     1      -4.585  -3.315  -1.576  1.00  0.00     0.021 C 
ENDROOT
BRANCH   3   4
HETATM    4  C4  UNL     1      -4.400  -3.139  -0.194  1.00  0.00    -0.011 C 
HETATM    5  C5  UNL     1      -3.131  -3.327   0.171  1.00  0.00    -0.022 C 
HETATM    6  C6  UNL     1      -1.957  -3.678  -0.666  1.00  0.00     0.147 C 
HETATM    7  C17 UNL     1      -2.433  -3.288   1.486  1.00  0.00     0.194 C 
HETATM    8  N1  UNL     1      -0.889  -3.209  -0.089  1.00  0.00    -0.181 NA
HETATM    9  N2  UNL     1      -1.239  -2.545   1.109  1.00  0.00    -0.230 N 
HETATM   10  C7  UNL     1      -0.881  -1.507   1.987  1.00  0.00     0.280 C 
HETATM   11  O1  UNL     1      -1.391  -1.099   3.066  1.00  0.00    -0.265 OA
BRANCH  10  12
HETATM   12  C8  UNL     1       0.186  -0.463   2.057  1.00  0.00     0.113 A 
HETATM   13  C9  UNL     1       1.363  -0.866   2.706  1.00  0.00     0.135 A 
HETATM   14  F1  UNL     1       1.503  -2.127   3.226  1.00  0.00    -0.205 F 
HETATM   15  C10 UNL     1       2.461  -0.007   2.860  1.00  0.00     0.046 A 
HETATM   16  C11 UNL     1       2.236   1.231   2.312  1.00  0.00     0.036 A 
HETATM   17  C12 UNL     1       1.132   1.738   1.655  1.00  0.00     0.082 A 
HETATM   18  C16 UNL     1       0.088   0.802   1.554  1.00  0.00     0.162 A 
HETATM   19  F2  UNL     1      -1.081   1.130   0.940  1.00  0.00    -0.203 F 
BRANCH  17  20
HETATM   20  N3  UNL     1       0.972   3.024   1.117  1.00  0.00    -0.281 N 
HETATM   21  H10 UNL     1       0.184   3.605   1.474  1.00  0.00     0.178 HD
BRANCH  20  22
HETATM   22  S1  UNL     1       2.017   3.635  -0.072  1.00  0.00     0.231 S 
HETATM   23  O2  UNL     1       1.531   4.997  -0.501  1.00  0.00    -0.206 OA
HETATM   24  O3  UNL     1       1.882   2.758  -1.287  1.00  0.00    -0.206 OA
BRANCH  22  25
HETATM   25  C13 UNL     1       3.698   3.787   0.371  1.00  0.00     0.163 C 
BRANCH  25  26
HETATM   26  C14 UNL     1       4.423   4.363  -0.861  1.00  0.00     0.012 C 
HETATM   27  C15 UNL     1       5.877   4.495  -0.491  1.00  0.00     0.006 C 
ENDBRANCH  25  26
ENDBRANCH  22  25
ENDBRANCH  20  22
ENDBRANCH  17  20
ENDBRANCH  10  12
ENDBRANCH   3   4
TORSDOF 6
