REMARK  11 active torsions:
REMARK  status: ('A' for Active; 'I' for Inactive)
REMARK    1  A    between atoms: C2_2  and  N1_3 
REMARK    2  A    between atoms: N2_6  and  C5_7 
REMARK    3  A    between atoms: C5_7  and  C6_8 
REMARK    4  A    between atoms: C6_8  and  C7_9 
REMARK    5  A    between atoms: C7_9  and  C8_10 
REMARK    6  A    between atoms: C10_12  and  C11_13 
REMARK    7  A    between atoms: C15_19  and  N5_20 
REMARK    8  A    between atoms: N5_20  and  C16_21 
REMARK    9  A    between atoms: C16_21  and  C17_22 
REMARK   10  A    between atoms: C16_21  and  C18_24 
REMARK   11  A    between atoms: C17_22  and  N6_23 
ROOT
HETATM    1  C11 UNL     1      -1.160   0.115   1.707  1.00  0.00    -0.007 C 
HETATM    2  C12 UNL     1      -1.252   0.195   0.361  1.00  0.00    -0.035 A 
HETATM    3  C13 UNL     1      -0.642  -0.886  -0.442  1.00  0.00     0.086 A 
HETATM    4  C14 UNL     1      -0.728  -0.563  -1.910  1.00  0.00     0.115 A 
HETATM    5  N3  UNL     1      -1.299   0.491  -2.361  1.00  0.00    -0.194 NA
HETATM    6  N4  UNL     1      -1.889   1.433  -1.526  1.00  0.00    -0.288 N 
HETATM    7  C15 UNL     1      -1.974   1.443  -0.104  1.00  0.00     0.226 A 
HETATM    8  H22 UNL     1      -2.319   2.230  -2.036  1.00  0.00     0.185 HD
ENDROOT
BRANCH   1   9
HETATM    9  C10 UNL     1      -0.629  -0.722   2.787  1.00  0.00     0.060 A 
HETATM   10  C8  UNL     1       0.052  -1.997   2.295  1.00  0.00    -0.071 A 
HETATM   11  C9  UNL     1      -1.074  -2.042   3.140  1.00  0.00    -0.010 A 
BRANCH  10  12
HETATM   12  C7  UNL     1       0.776  -3.181   1.771  1.00  0.00     0.036 C 
BRANCH  12  13
HETATM   13  C6  UNL     1       2.243  -3.097   2.256  1.00  0.00     0.034 C 
BRANCH  13  14
HETATM   14  C5  UNL     1       2.784  -1.827   1.691  1.00  0.00     0.273 C 
BRANCH  14  15
HETATM   15  N2  UNL     1       4.165  -1.548   2.006  1.00  0.00     0.091 N 
HETATM   16  C4  UNL     1       4.625  -0.325   1.397  1.00  0.00     0.302 C 
HETATM   17  C3  UNL     1       5.222  -0.469   0.062  1.00  0.00     0.302 C 
HETATM   18  N1  UNL     1       5.574  -1.740  -0.430  1.00  0.00     0.091 N 
HETATM   19  C25 UNL     1       5.014  -2.869   0.230  1.00  0.00     0.302 C 
HETATM   20  C24 UNL     1       5.035  -2.665   1.703  1.00  0.00     0.302 C 
BRANCH  18  21
HETATM   21  C2  UNL     1       5.527  -1.853  -1.873  1.00  0.00     0.268 C 
HETATM   22  C1  UNL     1       6.546  -1.069  -2.614  1.00  0.00     0.037 C 
ENDBRANCH  18  21
ENDBRANCH  14  15
ENDBRANCH  13  14
ENDBRANCH  12  13
ENDBRANCH  10  12
ENDBRANCH   1   9
BRANCH   7  23
HETATM   23  N5  UNL     1      -3.300   1.381   0.398  1.00  0.00    -0.387 N 
HETATM   24  H24 UNL     1      -3.733   0.458   0.318  1.00  0.00     0.156 HD
BRANCH  23  25
HETATM   25  C16 UNL     1      -4.176   2.465   0.142  1.00  0.00     0.140 C 
BRANCH  25  26
HETATM   26  C17 UNL     1      -3.536   3.829   0.198  1.00  0.00     0.296 C 
BRANCH  26  27
HETATM   27  N6  UNL     1      -4.553   4.820  -0.085  1.00  0.00     0.080 N 
HETATM   28  H28 UNL     1      -4.602   4.915  -1.131  1.00  0.00     0.312 HD
HETATM   29  H29 UNL     1      -4.242   5.765   0.274  1.00  0.00     0.312 HD
ENDBRANCH  26  27
ENDBRANCH  25  26
BRANCH  25  30
HETATM   30  C18 UNL     1      -5.158   2.310  -0.894  1.00  0.00    -0.034 A 
HETATM   31  C19 UNL     1      -5.270   1.679  -2.089  1.00  0.00     0.009 A 
HETATM   32  C20 UNL     1      -6.214   1.586  -3.071  1.00  0.00     0.001 A 
HETATM   33  C21 UNL     1      -7.358   2.343  -2.746  1.00  0.00     0.000 A 
HETATM   34  C22 UNL     1      -7.455   3.069  -1.565  1.00  0.00     0.001 A 
HETATM   35  C23 UNL     1      -6.359   3.021  -0.696  1.00  0.00     0.009 A 
ENDBRANCH  25  30
ENDBRANCH  23  25
ENDBRANCH   7  23
TORSDOF 11
