REMARK  7 active torsions:
REMARK  status: ('A' for Active; 'I' for Inactive)
REMARK    1  A    between atoms: O1_2  and  C2_3 
REMARK    2  A    between atoms: C4_5  and  O2_6 
REMARK    3  A    between atoms: O2_6  and  C5_7 
REMARK    4  A    between atoms: N1_10  and  C8_11 
REMARK    5  A    between atoms: C8_11  and  O3_13 
REMARK    6  A    between atoms: C12_16  and  N2_17 
REMARK    7  A    between atoms: N2_17  and  C13_18 
ROOT
HETATM    1  C2  UNL     1      -0.717   3.957   0.158  1.00  0.00     0.073 A 
HETATM    2  C3  UNL     1       0.078   2.825   0.103  1.00  0.00     0.074 A 
HETATM    3  C4  UNL     1      -0.381   1.528   0.033  1.00  0.00     0.088 A 
HETATM    4  C11 UNL     1      -1.751   1.406   0.021  1.00  0.00     0.072 A 
HETATM    5  C12 UNL     1      -2.332   0.165  -0.040  1.00  0.00     0.144 A 
HETATM    6  N3  UNL     1      -3.672   0.087  -0.044  1.00  0.00    -0.223 NA
HETATM    7  C19 UNL     1      -4.477   1.145   0.007  1.00  0.00     0.236 A 
HETATM    8  N4  UNL     1      -3.914   2.366   0.067  1.00  0.00    -0.241 NA
HETATM    9  C20 UNL     1      -2.576   2.527   0.076  1.00  0.00     0.077 A 
HETATM   10  C21 UNL     1      -2.089   3.814   0.145  1.00  0.00     0.069 A 
ENDROOT
BRANCH   3  11
HETATM   11  O2  UNL     1       0.438   0.440  -0.020  1.00  0.00    -0.343 OA
BRANCH  11  12
HETATM   12  C5  UNL     1       1.825   0.486   0.035  1.00  0.00     0.159 C 
HETATM   13  C6  UNL     1       2.426   0.262  -1.349  1.00  0.00     0.064 C 
HETATM   14  C7  UNL     1       2.955  -1.127  -1.323  1.00  0.00     0.278 C 
HETATM   15  N1  UNL     1       3.059  -1.568   0.024  1.00  0.00     0.119 N 
HETATM   16  C10 UNL     1       2.440  -0.584   0.877  1.00  0.00     0.307 C 
BRANCH  15  17
HETATM   17  C8  UNL     1       4.380  -1.929   0.465  1.00  0.00     0.352 C 
HETATM   18  C9  UNL     1       5.383  -0.827   0.443  1.00  0.00     0.073 C 
BRANCH  17  19
HETATM   19  O3  UNL     1       4.868  -2.952  -0.341  1.00  0.00    -0.368 OA
HETATM   20  H14 UNL     1       4.292  -3.049  -1.124  1.00  0.00     0.212 HD
ENDBRANCH  17  19
ENDBRANCH  15  17
ENDBRANCH  11  12
ENDBRANCH   3  11
BRANCH   1  21
HETATM   21  O1  UNL     1      -0.189   5.239   0.226  1.00  0.00    -0.356 OA
HETATM   22  C1  UNL     1      -1.020   6.378   0.280  1.00  0.00     0.210 C 
ENDBRANCH   1  21
BRANCH   5  23
HETATM   23  N2  UNL     1      -1.616  -1.052  -0.123  1.00  0.00    -0.340 N 
HETATM   24  H17 UNL     1      -0.642  -1.387  -0.222  1.00  0.00     0.167 HD
BRANCH  23  25
HETATM   25  C13 UNL     1      -2.281  -2.325  -0.069  1.00  0.00     0.035 A 
HETATM   26  C14 UNL     1      -1.956  -3.492  -0.761  1.00  0.00     0.032 A 
HETATM   27  C15 UNL     1      -2.641  -4.674  -0.629  1.00  0.00     0.046 A 
HETATM   28  C16 UNL     1      -3.716  -4.728   0.233  1.00  0.00     0.138 A 
HETATM   29  F1  UNL     1      -4.351  -5.919   0.322  1.00  0.00    -0.204 F 
HETATM   30  C17 UNL     1      -4.082  -3.608   0.943  1.00  0.00     0.074 A 
HETATM   31 CL1  UNL     1      -5.462  -3.824   1.995  1.00  0.00    -0.081 Cl
HETATM   32  C18 UNL     1      -3.368  -2.411   0.793  1.00  0.00     0.056 A 
ENDBRANCH  23  25
ENDBRANCH   5  23
TORSDOF 7
