REMARK  4 active torsions:
REMARK  status: ('A' for Active; 'I' for Inactive)
REMARK    1  A    between atoms: C3_3  and  C4_4 
REMARK    2  A    between atoms: C3_3  and  C11_13 
REMARK    3  A    between atoms: C4_4  and  N1_5 
REMARK    4  A    between atoms: N2_8  and  C7_9 
ROOT
HETATM    1  C11 UNL     1      -0.677  -1.484  -0.366  1.00  0.00     0.092 C 
HETATM    2  N3  UNL     1      -1.502  -2.462  -0.240  1.00  0.00    -0.240 NA
HETATM    3  C12 UNL     1      -2.892  -2.292  -0.058  1.00  0.00     0.227 C 
HETATM    4  N4  UNL     1      -4.102  -1.906  -0.177  1.00  0.00    -0.282 NA
HETATM    5  C13 UNL     1      -4.475  -0.960  -1.177  1.00  0.00     0.165 C 
HETATM    6  C14 UNL     1      -5.073   0.319  -0.650  1.00  0.00     0.078 C 
HETATM    7  C15 UNL     1      -6.384   0.050   0.051  1.00  0.00    -0.017 C 
HETATM    8  C16 UNL     1      -6.897   0.730   1.071  1.00  0.00    -0.011 C 
HETATM    9  C17 UNL     1      -6.152   1.909   1.649  1.00  0.00     0.146 C 
HETATM   10  N5  UNL     1      -4.732   1.528   1.583  1.00  0.00    -0.389 N 
HETATM   11  C18 UNL     1      -4.230   0.997   0.361  1.00  0.00     0.022 C 
HETATM   12  C19 UNL     1      -2.951   1.141   0.163  1.00  0.00    -0.015 C 
HETATM   13  C20 UNL     1      -2.024   0.778  -0.893  1.00  0.00     0.042 C 
HETATM   14  C21 UNL     1      -1.275  -0.128  -0.290  1.00  0.00     0.058 C 
HETATM   15  N6  UNL     1      -0.936   0.546   0.946  1.00  0.00    -0.384 N 
HETATM   16  C22 UNL     1      -1.801   1.743   0.931  1.00  0.00     0.160 C 
HETATM   17  H28 UNL     1      -4.113   1.646   2.415  1.00  0.00     0.159 HD
HETATM   18  H30 UNL     1      -0.275   0.381   1.765  1.00  0.00     0.160 HD
ENDROOT
BRANCH   1  19
HETATM   19  C3  UNL     1       0.756  -1.631  -0.553  1.00  0.00    -0.003 C 
HETATM   20  C2  UNL     1       0.763  -2.956  -0.516  1.00  0.00    -0.020 C 
HETATM   21  C1  UNL     1       0.050  -4.224  -0.373  1.00  0.00     0.036 C 
BRANCH  19  22
HETATM   22  C4  UNL     1       1.575  -0.426  -0.709  1.00  0.00     0.313 C 
BRANCH  22  23
HETATM   23  N1  UNL     1       2.972  -0.619  -0.896  1.00  0.00     0.096 N 
HETATM   24  C5  UNL     1       3.718  -1.108   0.207  1.00  0.00     0.303 C 
HETATM   25  C6  UNL     1       5.165  -0.617   0.047  1.00  0.00     0.302 C 
HETATM   26  N2  UNL     1       5.176   0.823   0.227  1.00  0.00     0.091 N 
HETATM   27  C9  UNL     1       4.032   1.457  -0.390  1.00  0.00     0.302 C 
HETATM   28  C10 UNL     1       3.610   0.525  -1.524  1.00  0.00     0.303 C 
BRANCH  26  29
HETATM   29  C7  UNL     1       6.380   1.437  -0.252  1.00  0.00     0.268 C 
HETATM   30  C8  UNL     1       6.304   2.928  -0.025  1.00  0.00     0.037 C 
ENDBRANCH  26  29
ENDBRANCH  22  23
ENDBRANCH  19  22
ENDBRANCH   1  19
TORSDOF 4
