REMARK  5 active torsions:
REMARK  status: ('A' for Active; 'I' for Inactive)
REMARK    1  A    between atoms: O1_2  and  C2_3 
REMARK    2  A    between atoms: C8_9  and  C9_10 
REMARK    3  A    between atoms: C10_13  and  S1_14 
REMARK    4  A    between atoms: S1_14  and  C11_15 
REMARK    5  A    between atoms: C11_15  and  C12_16 
ROOT
HETATM    1  C9  UNL     1       0.882  -0.241  -0.503  1.00  0.00     0.206 A 
HETATM    2  N1  UNL     1       0.275  -1.068   0.371  1.00  0.00    -0.120 NA
HETATM    3  N2  UNL     1      -0.943  -1.292  -0.094  1.00  0.00    -0.114 NA
HETATM    4  C10 UNL     1      -1.110  -0.618  -1.247  1.00  0.00     0.231 A 
HETATM    5  O2  UNL     1       0.014   0.016  -1.477  1.00  0.00    -0.263 OA
ENDROOT
BRANCH   1   6
HETATM    6  C8  UNL     1       2.265   0.283  -0.391  1.00  0.00     0.052 A 
HETATM    7  C2  UNL     1       3.031  -0.102   0.684  1.00  0.00     0.083 A 
HETATM    8  C3  UNL     1       4.330   0.404   0.774  1.00  0.00     0.044 A 
HETATM    9  C4  UNL     1       4.843   1.275  -0.192  1.00  0.00    -0.059 A 
HETATM   10  C5  UNL     1       6.225   1.810  -0.088  1.00  0.00     0.048 C 
HETATM   11  C6  UNL     1       4.010   1.620  -1.249  1.00  0.00     0.008 A 
HETATM   12  C7  UNL     1       2.702   1.141  -1.386  1.00  0.00     0.019 A 
BRANCH   7  13
HETATM   13  O1  UNL     1       2.589  -0.960   1.675  1.00  0.00    -0.355 OA
HETATM   14  C1  UNL     1       3.340  -1.369   2.774  1.00  0.00     0.210 C 
ENDBRANCH   7  13
ENDBRANCH   1   6
BRANCH   4  15
HETATM   15  S1  UNL     1      -2.359  -0.349  -2.496  1.00  0.00    -0.078 SA
BRANCH  15  16
HETATM   16  C11 UNL     1      -3.855  -1.238  -2.103  1.00  0.00     0.121 C 
BRANCH  16  17
HETATM   17  C12 UNL     1      -4.566  -0.751  -0.899  1.00  0.00    -0.049 A 
HETATM   18  C13 UNL     1      -4.401  -1.164   0.418  1.00  0.00     0.008 A 
HETATM   19  C14 UNL     1      -5.142  -0.609   1.424  1.00  0.00     0.001 A 
HETATM   20  C15 UNL     1      -6.084   0.377   1.222  1.00  0.00     0.000 A 
HETATM   21  C16 UNL     1      -6.259   0.798  -0.079  1.00  0.00     0.001 A 
HETATM   22  C17 UNL     1      -5.518   0.242  -1.086  1.00  0.00     0.008 A 
ENDBRANCH  16  17
ENDBRANCH  15  16
ENDBRANCH   4  15
TORSDOF 5
