REMARK  6 active torsions:
REMARK  status: ('A' for Active; 'I' for Inactive)
REMARK    1  A    between atoms: C5_7  and  O1_8 
REMARK    2  A    between atoms: O1_8  and  C6_9 
REMARK    3  A    between atoms: C6_9  and  S1_10 
REMARK    4  A    between atoms: S1_10  and  C7_11 
REMARK    5  A    between atoms: C7_11  and  C8_12 
REMARK    6  A    between atoms: C14_18  and  O2_19 
ROOT
HETATM    1  C1  UNL     1      -5.851   1.267  -1.663  1.00  0.00     0.048 C 
HETATM    2  C2  UNL     1      -4.612   0.491  -1.410  1.00  0.00    -0.058 C 
HETATM    3  C3  UNL     1      -4.515  -0.732  -1.955  1.00  0.00     0.027 C 
HETATM    4  C4  UNL     1      -3.490  -1.782  -1.944  1.00  0.00     0.141 C 
HETATM    5  N1  UNL     1      -2.376  -1.959  -1.318  1.00  0.00    -0.160 NA
HETATM    6  N2  UNL     1      -1.634  -1.223  -0.359  1.00  0.00    -0.122 NA
HETATM    7  C5  UNL     1      -1.698  -0.052   0.184  1.00  0.00     0.220 C 
HETATM    8  C14 UNL     1      -2.588   1.100   0.064  1.00  0.00     0.121 C 
HETATM    9  C15 UNL     1      -3.737   1.316  -0.564  1.00  0.00     0.048 C 
ENDROOT
BRANCH   7  10
HETATM   10  O1  UNL     1      -0.639   0.033   1.064  1.00  0.00    -0.321 OA
BRANCH  10  11
HETATM   11  C6  UNL     1       0.553  -0.685   0.800  1.00  0.00     0.251 C 
BRANCH  11  12
HETATM   12  S1  UNL     1       1.697  -0.320   2.171  1.00  0.00    -0.138 SA
BRANCH  12  13
HETATM   13  C7  UNL     1       3.278  -1.184   1.954  1.00  0.00     0.114 C 
BRANCH  13  14
HETATM   14  C8  UNL     1       3.959  -0.626   0.758  1.00  0.00    -0.049 A 
HETATM   15  C9  UNL     1       4.815   0.453   0.920  1.00  0.00     0.008 A 
HETATM   16  C10 UNL     1       5.515   1.081  -0.073  1.00  0.00     0.001 A 
HETATM   17  C11 UNL     1       5.337   0.574  -1.349  1.00  0.00     0.000 A 
HETATM   18  C12 UNL     1       4.503  -0.496  -1.588  1.00  0.00     0.001 A 
HETATM   19  C13 UNL     1       3.816  -1.093  -0.529  1.00  0.00     0.008 A 
ENDBRANCH  13  14
ENDBRANCH  12  13
ENDBRANCH  11  12
ENDBRANCH  10  11
ENDBRANCH   7  10
BRANCH   8  20
HETATM   20  O2  UNL     1      -2.064   2.161   0.782  1.00  0.00    -0.356 OA
HETATM   21  H15 UNL     1      -1.412   2.796   0.298  1.00  0.00     0.218 HD
ENDBRANCH   8  20
TORSDOF 6
