REMARK  7 active torsions:
REMARK  status: ('A' for Active; 'I' for Inactive)
REMARK    1  A    between atoms: C2_2  and  C3_3 
REMARK    2  A    between atoms: C4_4  and  C5_5 
REMARK    3  A    between atoms: C5_5  and  N1_6 
REMARK    4  A    between atoms: N1_6  and  C6_7 
REMARK    5  A    between atoms: C10_13  and  O1_14 
REMARK    6  A    between atoms: C13_17  and  O2_18 
REMARK    7  A    between atoms: O2_18  and  C14_19 
REMARK       I    between atoms: N4_22  and  C17_23 
ROOT
HETATM    1  C6  UNL     1       2.099   1.192  -1.415  1.00  0.00     0.140 A 
HETATM    2  N2  UNL     1       3.032   1.672  -2.249  1.00  0.00    -0.224 NA
HETATM    3  C7  UNL     1       2.762   2.423  -3.323  1.00  0.00     0.236 A 
HETATM    4  N3  UNL     1       1.476   2.716  -3.583  1.00  0.00    -0.241 NA
HETATM    5  C8  UNL     1       0.492   2.260  -2.777  1.00  0.00     0.077 A 
HETATM    6  C9  UNL     1      -0.778   2.630  -3.154  1.00  0.00     0.069 A 
HETATM    7  C10 UNL     1      -1.818   2.187  -2.360  1.00  0.00     0.073 A 
HETATM    8  C12 UNL     1      -1.526   1.413  -1.257  1.00  0.00     0.074 A 
HETATM    9  C13 UNL     1      -0.265   1.029  -0.858  1.00  0.00     0.088 A 
HETATM   10  C21 UNL     1       0.770   1.473  -1.652  1.00  0.00     0.072 A 
ENDROOT
BRANCH   9  11
HETATM   11  O2  UNL     1       0.003   0.271   0.227  1.00  0.00    -0.345 OA
BRANCH  11  12
HETATM   12  C14 UNL     1      -0.857  -0.268   1.196  1.00  0.00     0.132 C 
HETATM   13  C15 UNL     1      -1.740   0.720   1.885  1.00  0.00     0.052 C 
HETATM   14  C16 UNL     1      -3.185   0.412   1.966  1.00  0.00     0.128 C 
HETATM   15  N4  UNL     1      -3.611  -0.891   1.598  1.00  0.00    -0.352 N 
HETATM   16  C17 UNL     1      -4.958  -1.113   1.201  1.00  0.00     0.215 C 
HETATM   17  C19 UNL     1      -2.593  -1.904   1.665  1.00  0.00     0.128 C 
HETATM   18  C18 UNL     1      -5.398  -2.489   0.815  1.00  0.00     0.117 C 
HETATM   19  O3  UNL     1      -5.631  -0.034   1.238  1.00  0.00    -0.274 OA
HETATM   20  C20 UNL     1      -1.540  -1.472   0.634  1.00  0.00     0.052 C 
ENDBRANCH  11  12
ENDBRANCH   9  11
BRANCH   7  21
HETATM   21  O1  UNL     1      -3.110   2.539  -2.707  1.00  0.00    -0.356 OA
HETATM   22  C11 UNL     1      -3.370   3.332  -3.843  1.00  0.00     0.210 C 
ENDBRANCH   7  21
BRANCH   1  23
HETATM   23  N1  UNL     1       2.505   0.401  -0.301  1.00  0.00    -0.370 N 
HETATM   24  H10 UNL     1       2.104  -0.098   0.489  1.00  0.00     0.161 HD
BRANCH  23  25
HETATM   25  C5  UNL     1       3.929   0.175  -0.158  1.00  0.00     0.148 C 
BRANCH  25  26
HETATM   26  C4  UNL     1       4.349  -0.634   0.980  1.00  0.00    -0.011 C 
HETATM   27  C3  UNL     1       5.024  -1.783   0.801  1.00  0.00    -0.029 C 
BRANCH  27  28
HETATM   28  C2  UNL     1       5.598  -2.837   1.686  1.00  0.00     0.022 C 
HETATM   29  C1  UNL     1       5.346  -2.512   3.155  1.00  0.00     0.009 C 
ENDBRANCH  27  28
ENDBRANCH  25  26
ENDBRANCH  23  25
ENDBRANCH   1  23
TORSDOF 7
