REMARK  2 active torsions:
REMARK  status: ('A' for Active; 'I' for Inactive)
REMARK    1  A    between atoms: C5_5  and  C6_6 
REMARK    2  A    between atoms: C15_18  and  O1_19 
ROOT
HETATM    1  C6  UNL     1      -0.315   0.031  -0.164  1.00  0.00     0.086 C 
HETATM    2  N1  UNL     1      -1.251   0.370  -1.090  1.00  0.00    -0.152 NA
HETATM    3  N2  UNL     1      -2.562   0.237  -0.781  1.00  0.00    -0.156 NA
HETATM    4  C7  UNL     1      -3.602  -0.263  -1.226  1.00  0.00     0.185 C 
HETATM    5  S1  UNL     1      -4.640   0.285   0.173  1.00  0.00    -0.120 SA
HETATM    6  C8  UNL     1      -4.109  -0.742   1.654  1.00  0.00     0.096 C 
HETATM    7  C9  UNL     1      -2.618  -0.487   1.723  1.00  0.00     0.013 A 
HETATM    8  C10 UNL     1      -2.120  -1.623   1.173  1.00  0.00     0.042 A 
HETATM    9  C11 UNL     1      -0.900  -1.703   0.568  1.00  0.00    -0.026 A 
HETATM   10  C12 UNL     1      -1.112  -0.447   1.017  1.00  0.00     0.041 A 
HETATM   11  C13 UNL     1      -1.361   0.794   1.479  1.00  0.00    -0.010 A 
HETATM   12  C14 UNL     1      -2.590   0.825   2.079  1.00  0.00    -0.017 A 
ENDROOT
BRANCH   1  13
HETATM   13  C5  UNL     1       1.118   0.115  -0.333  1.00  0.00     0.025 A 
HETATM   14  C4  UNL     1       2.001  -0.249   0.663  1.00  0.00     0.017 A 
HETATM   15  C3  UNL     1       3.341  -0.121   0.365  1.00  0.00     0.008 A 
HETATM   16  C2  UNL     1       3.778   0.345  -0.859  1.00  0.00    -0.059 A 
HETATM   17  C1  UNL     1       5.255   0.424  -1.024  1.00  0.00     0.048 C 
HETATM   18  C16 UNL     1       2.855   0.699  -1.829  1.00  0.00     0.044 A 
HETATM   19  C15 UNL     1       1.487   0.581  -1.561  1.00  0.00     0.078 A 
BRANCH  19  20
HETATM   20  O1  UNL     1       0.656   0.959  -2.593  1.00  0.00    -0.360 OA
HETATM   21  H13 UNL     1       0.737   0.419  -3.464  1.00  0.00     0.217 HD
ENDBRANCH  19  20
ENDBRANCH   1  13
TORSDOF 2
