REMARK  5 active torsions:
REMARK  status: ('A' for Active; 'I' for Inactive)
REMARK    1  A    between atoms: C6_6  and  C7_7 
REMARK    2  A    between atoms: C7_7  and  S1_8 
REMARK    3  A    between atoms: S1_8  and  C8_9 
REMARK    4  A    between atoms: C9_12  and  C10_13 
REMARK    5  A    between atoms: C16_19  and  O1_20 
ROOT
HETATM    1  C8  UNL     1       0.864   1.132  -0.202  1.00  0.00     0.231 A 
HETATM    2  N1  UNL     1       0.900   0.131  -1.089  1.00  0.00    -0.114 NA
HETATM    3  N2  UNL     1      -0.311  -0.362  -1.106  1.00  0.00    -0.120 NA
HETATM    4  C9  UNL     1      -1.124   0.312  -0.239  1.00  0.00     0.206 A 
HETATM    5  O2  UNL     1      -0.341   1.221   0.287  1.00  0.00    -0.263 OA
ENDROOT
BRANCH   4   6
HETATM    6  C10 UNL     1      -2.519  -0.105  -0.127  1.00  0.00     0.052 A 
HETATM    7  C11 UNL     1      -3.130  -1.133  -0.820  1.00  0.00     0.019 A 
HETATM    8  C12 UNL     1      -4.468  -1.347  -0.547  1.00  0.00     0.008 A 
HETATM    9  C13 UNL     1      -5.178  -0.590   0.362  1.00  0.00    -0.059 A 
HETATM   10  C14 UNL     1      -6.612  -1.001   0.495  1.00  0.00     0.048 C 
HETATM   11  C15 UNL     1      -4.554   0.435   1.047  1.00  0.00     0.044 A 
HETATM   12  C16 UNL     1      -3.205   0.668   0.788  1.00  0.00     0.080 A 
BRANCH  12  13
HETATM   13  O1  UNL     1      -2.677   1.717   1.527  1.00  0.00    -0.360 OA
HETATM   14  H14 UNL     1      -3.178   2.590   1.554  1.00  0.00     0.217 HD
ENDBRANCH  12  13
ENDBRANCH   4   6
BRANCH   1  15
HETATM   15  S1  UNL     1       2.165   2.258   0.338  1.00  0.00    -0.078 SA
BRANCH  15  16
HETATM   16  C7  UNL     1       3.707   1.862  -0.533  1.00  0.00     0.122 C 
BRANCH  16  17
HETATM   17  C6  UNL     1       4.213   0.516  -0.132  1.00  0.00    -0.039 A 
HETATM   18  C2  UNL     1       5.409  -0.166  -0.595  1.00  0.00    -0.038 A 
HETATM   19  C1  UNL     1       6.279   0.304  -1.476  1.00  0.00     0.024 C 
HETATM   20  C3  UNL     1       5.364  -1.426   0.148  1.00  0.00     0.011 A 
HETATM   21  C4  UNL     1       4.306  -1.459   0.916  1.00  0.00     0.001 A 
HETATM   22  C5  UNL     1       3.553  -0.208   0.743  1.00  0.00     0.009 A 
ENDBRANCH  16  17
ENDBRANCH  15  16
ENDBRANCH   1  15
TORSDOF 5
