REMARK  6 active torsions:
REMARK  status: ('A' for Active; 'I' for Inactive)
REMARK    1  A    between atoms: C3_3  and  C5_5 
REMARK    2  A    between atoms: C5_5  and  C6_6 
REMARK    3  A    between atoms: C6_6  and  O1_7 
REMARK    4  A    between atoms: C6_6  and  C7_8 
REMARK    5  A    between atoms: C8_11  and  S1_12 
REMARK    6  A    between atoms: S1_12  and  C9_13 
ROOT
HETATM    1  C1  UNL     1       5.375  -1.591  -0.174  1.00  0.00     0.097 C 
HETATM    2  C2  UNL     1       4.938  -0.466  -0.689  1.00  0.00    -0.148 C 
HETATM    3  C3  UNL     1       4.501   0.632  -1.286  1.00  0.00    -0.018 C 
HETATM    4  C4  UNL     1       4.592   0.640  -2.757  1.00  0.00     0.057 C 
ENDROOT
BRANCH   3   5
HETATM    5  C5  UNL     1       4.019   1.606  -0.352  1.00  0.00     0.056 C 
BRANCH   5   6
HETATM    6  C6  UNL     1       3.035   2.055   0.356  1.00  0.00     0.122 C 
BRANCH   6   7
HETATM    7  O1  UNL     1       3.057   3.155   1.204  1.00  0.00    -0.356 OA
HETATM    8  H7  UNL     1       2.895   2.949   2.200  1.00  0.00     0.218 HD
ENDBRANCH   6   7
BRANCH   6   9
HETATM    9  C7  UNL     1       1.761   1.313   0.242  1.00  0.00     0.226 A 
HETATM   10  N1  UNL     1       1.549   0.219  -0.532  1.00  0.00    -0.118 NA
HETATM   11  N2  UNL     1       0.289  -0.155  -0.365  1.00  0.00    -0.114 NA
HETATM   12  C8  UNL     1      -0.284   0.691   0.501  1.00  0.00     0.236 A 
HETATM   13  O2  UNL     1       0.626   1.565   0.851  1.00  0.00    -0.262 OA
BRANCH  12  14
HETATM   14  S1  UNL     1      -1.886   0.943   1.281  1.00  0.00    -0.047 SA
BRANCH  14  15
HETATM   15  C9  UNL     1      -3.011  -0.315   0.711  1.00  0.00    -0.007 A 
HETATM   16  C10 UNL     1      -4.224  -0.225   1.222  1.00  0.00    -0.049 A 
HETATM   17  C11 UNL     1      -4.593   0.835   2.181  1.00  0.00     0.049 C 
HETATM   18  C12 UNL     1      -5.246  -1.211   0.827  1.00  0.00     0.004 A 
HETATM   19  C13 UNL     1      -4.846  -2.127  -0.031  1.00  0.00    -0.026 A 
HETATM   20  C14 UNL     1      -3.520  -2.327  -0.669  1.00  0.00     0.032 A 
HETATM   21  C15 UNL     1      -2.499  -1.315  -0.253  1.00  0.00     0.050 A 
ENDBRANCH  14  15
ENDBRANCH  12  14
ENDBRANCH   6   9
ENDBRANCH   5   6
ENDBRANCH   3   5
TORSDOF 6
