REMARK  5 active torsions:
REMARK  status: ('A' for Active; 'I' for Inactive)
REMARK    1  A    between atoms: C6_6  and  O1_7 
REMARK    2  A    between atoms: O1_7  and  C7_8 
REMARK    3  A    between atoms: C8_11  and  S1_12 
REMARK    4  A    between atoms: S1_12  and  C9_13 
REMARK    5  A    between atoms: C9_13  and  C10_14 
ROOT
HETATM    1  C7  UNL     1       0.370   1.293   0.161  1.00  0.00     0.319 A 
HETATM    2  N1  UNL     1      -0.770   1.982   0.422  1.00  0.00    -0.095 NA
HETATM    3  N2  UNL     1      -1.659   1.532  -0.477  1.00  0.00    -0.112 NA
HETATM    4  C8  UNL     1      -1.071   0.612  -1.240  1.00  0.00     0.233 A 
HETATM    5  O2  UNL     1       0.153   0.477  -0.846  1.00  0.00    -0.244 OA
ENDROOT
BRANCH   1   6
HETATM    6  O1  UNL     1       1.454   1.586   0.971  1.00  0.00    -0.271 OA
BRANCH   6   7
HETATM    7  C6  UNL     1       2.698   1.023   0.896  1.00  0.00     0.080 A 
HETATM    8  C5  UNL     1       2.942  -0.123   1.651  1.00  0.00     0.037 A 
HETATM    9  C4  UNL     1       4.183  -0.762   1.635  1.00  0.00     0.003 A 
HETATM   10  C3  UNL     1       5.224  -0.260   0.851  1.00  0.00     0.007 A 
HETATM   11  C2  UNL     1       4.961   0.879   0.109  1.00  0.00    -0.059 A 
HETATM   12  C1  UNL     1       6.049   1.444  -0.741  1.00  0.00     0.048 C 
HETATM   13  C16 UNL     1       3.728   1.509   0.129  1.00  0.00     0.044 A 
ENDBRANCH   6   7
ENDBRANCH   1   6
BRANCH   4  14
HETATM   14  S1  UNL     1      -2.011  -0.172  -2.534  1.00  0.00    -0.078 SA
BRANCH  14  15
HETATM   15  C9  UNL     1      -2.844  -1.656  -1.926  1.00  0.00     0.121 C 
BRANCH  15  16
HETATM   16  C10 UNL     1      -3.865  -1.251  -0.937  1.00  0.00    -0.049 A 
HETATM   17  C11 UNL     1      -3.393  -1.197   0.373  1.00  0.00     0.008 A 
HETATM   18  C12 UNL     1      -4.250  -0.831   1.399  1.00  0.00     0.001 A 
HETATM   19  C13 UNL     1      -5.571  -0.529   1.061  1.00  0.00     0.000 A 
HETATM   20  C14 UNL     1      -6.042  -0.583  -0.249  1.00  0.00     0.001 A 
HETATM   21  C15 UNL     1      -5.171  -0.950  -1.261  1.00  0.00     0.008 A 
ENDBRANCH  15  16
ENDBRANCH  14  15
ENDBRANCH   4  14
TORSDOF 5
