REMARK  7 active torsions:
REMARK  status: ('A' for Active; 'I' for Inactive)
REMARK    1  A    between atoms: C2_2  and  C3_3 
REMARK    2  A    between atoms: C4_4  and  C5_5 
REMARK    3  A    between atoms: C5_5  and  C6_6 
REMARK    4  A    between atoms: C6_6  and  P1_7 
REMARK    5  A    between atoms: P1_7  and  S1_8 
REMARK    6  A    between atoms: S1_8  and  C7_9 
REMARK    7  A    between atoms: C8_12  and  C9_13 
ROOT
HETATM    1  C7  UNL     1       0.190   0.317  -1.118  1.00  0.00     0.237 A 
HETATM    2  N1  UNL     1      -0.237   1.528  -1.465  1.00  0.00    -0.114 NA
HETATM    3  N2  UNL     1      -1.465   1.656  -0.975  1.00  0.00    -0.121 NA
HETATM    4  C8  UNL     1      -1.806   0.522  -0.320  1.00  0.00     0.201 A 
HETATM    5  O2  UNL     1      -0.763  -0.272  -0.432  1.00  0.00    -0.263 OA
ENDROOT
BRANCH   1   6
HETATM    6  S1  UNL     1       1.810  -0.272  -1.579  1.00  0.00    -0.032 SA
BRANCH   6   7
HETATM    7  P1  UNL     1       3.278   0.246  -0.066  1.00  0.00     0.073 P 
BRANCH   7   8
HETATM    8  C6  UNL     1       4.660   1.016  -0.595  1.00  0.00    -0.128 C 
BRANCH   8   9
HETATM    9  C5  UNL     1       5.779   1.312  -1.256  1.00  0.00     0.074 C 
BRANCH   9  10
HETATM   10  C4  UNL     1       6.684   0.249  -1.761  1.00  0.00    -0.007 C 
HETATM   11  C3  UNL     1       7.297   0.213  -0.610  1.00  0.00     0.025 C 
BRANCH  11  12
HETATM   12  C2  UNL     1       8.412  -0.635  -0.225  1.00  0.00    -0.005 C 
HETATM   13  C1  UNL     1       8.670  -0.289   1.047  1.00  0.00     0.006 C 
ENDBRANCH  11  12
ENDBRANCH   9  10
ENDBRANCH   8   9
ENDBRANCH   7   8
ENDBRANCH   6   7
ENDBRANCH   1   6
BRANCH   4  14
HETATM   14  C9  UNL     1      -3.041   0.162   0.390  1.00  0.00     0.022 C 
HETATM   15  C10 UNL     1      -3.243  -0.981   0.987  1.00  0.00    -0.006 C 
HETATM   16  C11 UNL     1      -4.514  -1.292   1.692  1.00  0.00     0.029 C 
HETATM   17  C12 UNL     1      -5.017  -2.650   1.201  1.00  0.00     0.016 C 
HETATM   18  C13 UNL     1      -5.577  -0.274   1.387  1.00  0.00     0.176 C 
HETATM   19  O1  UNL     1      -5.092   1.010   1.314  1.00  0.00    -0.381 OA
HETATM   20  C14 UNL     1      -4.094   1.209   0.395  1.00  0.00     0.154 C 
HETATM   21  C15 UNL     1      -4.622   1.478  -1.007  1.00  0.00     0.045 C 
ENDBRANCH   4  14
TORSDOF 7
