REMARK  5 active torsions:
REMARK  status: ('A' for Active; 'I' for Inactive)
REMARK    1  A    between atoms: C3_3  and  C4_4 
REMARK    2  A    between atoms: C3_3  and  C14_18 
REMARK    3  A    between atoms: C7_8  and  S1_9 
REMARK    4  A    between atoms: S1_9  and  C8_10 
REMARK    5  A    between atoms: C13_15  and  N1_16 
ROOT
HETATM    1  C4  UNL     1      -2.147  -1.397  -0.133  1.00  0.00     0.034 C 
HETATM    2  C5  UNL     1      -0.834  -1.301  -0.120  1.00  0.00     0.032 C 
HETATM    3  C6  UNL     1       0.389  -2.134  -0.410  1.00  0.00     0.228 C 
HETATM    4  O1  UNL     1       1.175  -1.226  -1.107  1.00  0.00    -0.352 OA
HETATM    5  C7  UNL     1       1.090  -0.018  -0.418  1.00  0.00     0.287 C 
HETATM    6  N2  UNL     1      -0.205  -0.063   0.263  1.00  0.00    -0.357 N 
HETATM    7  H17 UNL     1      -0.369   0.764   0.838  1.00  0.00     0.162 HD
ENDROOT
BRANCH   5   8
HETATM    8  S1  UNL     1       2.480   0.159   0.694  1.00  0.00    -0.105 SA
BRANCH   8   9
HETATM    9  C8  UNL     1       3.971   0.308  -0.325  1.00  0.00     0.104 A 
HETATM   10  C9  UNL     1       4.000   1.558  -1.129  1.00  0.00     0.048 A 
HETATM   11  C10 UNL     1       5.266   2.280  -0.870  1.00  0.00    -0.025 A 
HETATM   12  C11 UNL     1       6.339   2.096  -0.125  1.00  0.00    -0.002 A 
HETATM   13  C12 UNL     1       6.311   0.873   0.664  1.00  0.00     0.025 A 
HETATM   14  C13 UNL     1       5.203   0.180   0.477  1.00  0.00     0.017 A 
BRANCH  14  15
HETATM   15  N1  UNL     1       5.095  -1.049   1.228  1.00  0.00    -0.401 N 
HETATM   16  H15 UNL     1       5.170  -2.064   1.014  1.00  0.00     0.156 HD
HETATM   17  H16 UNL     1       4.987  -1.832   1.904  1.00  0.00     0.156 HD
ENDBRANCH  14  15
ENDBRANCH   8   9
ENDBRANCH   5   8
BRANCH   1  18
HETATM   18  C3  UNL     1      -3.420  -0.741   0.100  1.00  0.00    -0.053 C 
HETATM   19  C2  UNL     1      -4.546  -1.439  -0.136  1.00  0.00    -0.023 C 
HETATM   20  C1  UNL     1      -4.410  -2.836  -0.620  1.00  0.00     0.036 C 
BRANCH  18  21
HETATM   21  C14 UNL     1      -3.573   0.673   0.602  1.00  0.00    -0.024 C 
HETATM   22  C15 UNL     1      -2.972   0.835   1.992  1.00  0.00     0.019 C 
HETATM   23  C16 UNL     1      -5.024   1.061   0.645  1.00  0.00     0.019 C 
HETATM   24  C17 UNL     1      -2.864   1.612  -0.345  1.00  0.00     0.019 C 
ENDBRANCH  18  21
ENDBRANCH   1  18
TORSDOF 5
