REMARK  6 active torsions:
REMARK  status: ('A' for Active; 'I' for Inactive)
REMARK    1  A    between atoms: C3_3  and  C4_4 
REMARK    2  A    between atoms: C9_9  and  P1_10 
REMARK    3  A    between atoms: P1_10  and  C10_11 
REMARK    4  A    between atoms: C10_11  and  C11_12 
REMARK    5  A    between atoms: C16_19  and  S1_20 
REMARK    6  A    between atoms: S1_20  and  C17_21 
ROOT
HETATM    1  C4  UNL     1      -2.163  -0.933  -0.487  1.00  0.00     0.102 C 
HETATM    2  C5  UNL     1      -0.955  -1.614   0.122  1.00  0.00    -0.042 C 
HETATM    3  C6  UNL     1      -0.458  -1.403   1.399  1.00  0.00     0.039 C 
HETATM    4  C7  UNL     1       0.420  -0.241   0.921  1.00  0.00     0.051 C 
HETATM    5  C8  UNL     1       1.700  -0.012   0.473  1.00  0.00     0.039 C 
HETATM    6  C9  UNL     1       2.407  -1.002  -0.402  1.00  0.00    -0.042 C 
HETATM    7  C13 UNL     1       2.154  -2.260  -1.147  1.00  0.00     0.067 C 
HETATM    8  C14 UNL     1       0.729  -2.520  -1.473  1.00  0.00    -0.021 C 
HETATM    9  C15 UNL     1      -0.580  -2.398  -1.107  1.00  0.00     0.004 C 
HETATM   10  N1  UNL     1      -0.063   1.154   0.758  1.00  0.00    -0.278 N 
HETATM   11  N2  UNL     1      -1.416   1.486   0.370  1.00  0.00    -0.171 NA
HETATM   12  C16 UNL     1      -2.212   0.548  -0.144  1.00  0.00     0.103 C 
HETATM   13  H20 UNL     1       0.742   1.820   0.960  1.00  0.00     0.189 HD
ENDROOT
BRANCH   6  14
HETATM   14  P1  UNL     1       3.929  -0.370  -0.491  1.00  0.00    -0.054 P 
BRANCH  14  15
HETATM   15  C10 UNL     1       4.447   1.178   0.344  1.00  0.00     0.043 C 
BRANCH  15  16
HETATM   16  C11 UNL     1       5.945   1.149   0.639  1.00  0.00     0.001 C 
HETATM   17  C12 UNL     1       6.751   1.010  -0.631  1.00  0.00     0.005 C 
ENDBRANCH  15  16
ENDBRANCH  14  15
ENDBRANCH   6  14
BRANCH   1  18
HETATM   18  C3  UNL     1      -3.366  -1.635  -0.105  1.00  0.00    -0.015 C 
HETATM   19  C2  UNL     1      -4.587  -1.591   0.449  1.00  0.00    -0.034 C 
HETATM   20  C1  UNL     1      -5.629  -2.657   0.682  1.00  0.00     0.036 C 
ENDBRANCH   1  18
BRANCH  12  21
HETATM   21  S1  UNL     1      -3.806   1.240  -0.555  1.00  0.00    -0.112 SA
BRANCH  21  22
HETATM   22  C17 UNL     1      -3.900   3.003  -0.147  1.00  0.00     0.076 C 
HETATM   23  C18 UNL     1      -2.966   3.824  -1.006  1.00  0.00     0.016 C 
ENDBRANCH  21  22
ENDBRANCH  12  21
TORSDOF 6
