REMARK  6 active torsions:
REMARK  status: ('A' for Active; 'I' for Inactive)
REMARK       I    between atoms: C2_2  and  N1_4 
REMARK    1  A    between atoms: C5_7  and  O2_8 
REMARK    2  A    between atoms: O2_8  and  C6_9 
REMARK    3  A    between atoms: C8_11  and  O3_12 
REMARK    4  A    between atoms: O3_12  and  C9_13 
REMARK    5  A    between atoms: C9_13  and  N2_14 
REMARK    6  A    between atoms: N2_14  and  C10_15 
ROOT
HETATM    1  C6  UNL     1      -0.365  -0.227  -0.083  1.00  0.00     0.080 A 
HETATM    2  C7  UNL     1       0.988  -0.469  -0.231  1.00  0.00     0.074 A 
HETATM    3  C8  UNL     1       1.829  -0.511   0.865  1.00  0.00     0.074 A 
HETATM    4  C16 UNL     1       1.278  -0.304   2.113  1.00  0.00     0.046 A 
HETATM    5  C17 UNL     1      -0.057  -0.056   2.357  1.00  0.00    -0.022 A 
HETATM    6  C18 UNL     1      -0.889  -0.023   1.181  1.00  0.00     0.006 A 
HETATM    7  C19 UNL     1      -1.517   0.205   2.514  1.00  0.00     0.152 A 
HETATM    8 CL1  UNL     1      -2.488  -1.149   3.187  1.00  0.00    -0.115 Cl
ENDROOT
BRANCH   3   9
HETATM    9  O3  UNL     1       3.181  -0.757   0.670  1.00  0.00    -0.332 OA
BRANCH   9  10
HETATM   10  C9  UNL     1       4.005  -0.791   1.821  1.00  0.00     0.298 C 
BRANCH  10  11
HETATM   11  N2  UNL     1       5.373  -1.052   1.488  1.00  0.00    -0.368 N 
HETATM   12  H12 UNL     1       5.851  -1.896   1.875  1.00  0.00     0.161 HD
BRANCH  11  13
HETATM   13  C10 UNL     1       6.127  -0.216   0.648  1.00  0.00     0.029 A 
HETATM   14  C11 UNL     1       7.463  -0.471   0.323  1.00  0.00     0.032 A 
HETATM   15  C12 UNL     1       8.204   0.364  -0.511  1.00  0.00     0.044 A 
HETATM   16  C13 UNL     1       7.632   1.489  -1.051  1.00  0.00     0.116 A 
HETATM   17  F1  UNL     1       8.420   2.235  -1.843  1.00  0.00    -0.206 F 
HETATM   18  C14 UNL     1       6.315   1.790  -0.764  1.00  0.00     0.044 A 
HETATM   19  C15 UNL     1       5.631   0.932   0.064  1.00  0.00     0.032 A 
ENDBRANCH  11  13
ENDBRANCH  10  11
ENDBRANCH   9  10
ENDBRANCH   3   9
BRANCH   1  20
HETATM   20  O2  UNL     1      -1.271  -0.171  -1.155  1.00  0.00    -0.345 OA
BRANCH  20  21
HETATM   21  C5  UNL     1      -2.636   0.074  -0.990  1.00  0.00     0.132 C 
HETATM   22  C4  UNL     1      -3.430  -1.133  -1.497  1.00  0.00     0.052 C 
HETATM   23  C3  UNL     1      -4.872  -1.043  -1.051  1.00  0.00     0.128 C 
HETATM   24  N1  UNL     1      -5.231   0.371  -1.056  1.00  0.00    -0.352 N 
HETATM   25  C2  UNL     1      -6.479   0.552  -0.435  1.00  0.00     0.215 C 
HETATM   26  C21 UNL     1      -4.539   1.537  -1.571  1.00  0.00     0.128 C 
HETATM   27  C1  UNL     1      -7.343   1.706  -0.143  1.00  0.00     0.117 C 
HETATM   28  O1  UNL     1      -6.927  -0.573  -0.052  1.00  0.00    -0.274 OA
HETATM   29  C20 UNL     1      -3.100   1.241  -1.835  1.00  0.00     0.052 C 
ENDBRANCH  20  21
ENDBRANCH   1  20
TORSDOF 6
