REMARK  6 active torsions:
REMARK  status: ('A' for Active; 'I' for Inactive)
REMARK    1  A    between atoms: C3_3  and  C4_4 
REMARK    2  A    between atoms: C5_5  and  C6_6 
REMARK    3  A    between atoms: C6_6  and  S1_7 
REMARK    4  A    between atoms: S1_7  and  C7_8 
REMARK    5  A    between atoms: C8_11  and  C9_12 
REMARK    6  A    between atoms: C12_15  and  C13_16 
ROOT
HETATM    1  C7  UNL     1       2.459  -1.369  -0.065  1.00  0.00     0.231 A 
HETATM    2  N1  UNL     1       2.614  -0.387  -1.002  1.00  0.00    -0.114 NA
HETATM    3  N2  UNL     1       1.397   0.072  -1.233  1.00  0.00    -0.120 NA
HETATM    4  C8  UNL     1       0.487  -0.575  -0.487  1.00  0.00     0.203 A 
HETATM    5  O1  UNL     1       1.159  -1.451   0.219  1.00  0.00    -0.263 OA
ENDROOT
BRANCH   4   6
HETATM    6  C9  UNL     1      -0.966  -0.321  -0.489  1.00  0.00     0.019 A 
HETATM    7  C10 UNL     1      -1.789  -1.062   0.332  1.00  0.00     0.016 A 
HETATM    8  C11 UNL     1      -3.162  -0.793   0.302  1.00  0.00     0.009 A 
HETATM    9  C12 UNL     1      -3.687   0.198  -0.536  1.00  0.00    -0.051 A 
HETATM   10  C17 UNL     1      -2.814   0.915  -1.343  1.00  0.00     0.009 A 
HETATM   11  C18 UNL     1      -1.476   0.656  -1.317  1.00  0.00     0.016 A 
BRANCH   9  12
HETATM   12  C13 UNL     1      -5.161   0.317  -0.410  1.00  0.00    -0.024 C 
HETATM   13  C14 UNL     1      -5.657   1.407  -1.349  1.00  0.00     0.019 C 
HETATM   14  C15 UNL     1      -5.779  -0.993  -0.828  1.00  0.00     0.019 C 
HETATM   15  C16 UNL     1      -5.537   0.677   1.021  1.00  0.00     0.019 C 
ENDBRANCH   9  12
ENDBRANCH   4   6
BRANCH   1  16
HETATM   16  S1  UNL     1       3.405  -2.571   0.900  1.00  0.00    -0.079 SA
BRANCH  16  17
HETATM   17  C6  UNL     1       3.908  -1.795   2.437  1.00  0.00     0.110 C 
BRANCH  17  18
HETATM   18  C5  UNL     1       4.875  -0.723   2.174  1.00  0.00    -0.016 C 
HETATM   19  C4  UNL     1       5.413  -0.263   1.067  1.00  0.00    -0.004 C 
BRANCH  19  20
HETATM   20  C3  UNL     1       6.362   0.836   1.146  1.00  0.00    -0.005 C 
HETATM   21  C2  UNL     1       6.914   1.314   0.046  1.00  0.00    -0.031 C 
HETATM   22  C1  UNL     1       6.677   0.845  -1.342  1.00  0.00     0.036 C 
ENDBRANCH  19  20
ENDBRANCH  17  18
ENDBRANCH  16  17
ENDBRANCH   1  16
TORSDOF 6
