REMARK  3 active torsions:
REMARK  status: ('A' for Active; 'I' for Inactive)
REMARK    1  A    between atoms: C12_13  and  S1_14 
REMARK    2  A    between atoms: S1_14  and  C13_15 
REMARK    3  A    between atoms: C18_20  and  N1_21 
ROOT
HETATM    1  C1  UNL     1      -5.152  -0.672  -0.499  1.00  0.00     0.019 C 
HETATM    2  C2  UNL     1      -3.816  -0.069  -0.078  1.00  0.00    -0.030 C 
HETATM    3  C3  UNL     1      -3.895   0.078   1.413  1.00  0.00     0.019 C 
HETATM    4  C4  UNL     1      -2.767  -1.055  -0.496  1.00  0.00    -0.019 C 
HETATM    5  C5  UNL     1      -1.443  -1.066  -0.332  1.00  0.00     0.017 C 
HETATM    6  C6  UNL     1      -0.381  -0.218   0.280  1.00  0.00     0.218 C 
HETATM    7  C7  UNL     1      -0.522   1.215  -0.094  1.00  0.00     0.017 C 
HETATM    8  C8  UNL     1      -1.404   2.195  -0.264  1.00  0.00    -0.028 C 
HETATM    9  C9  UNL     1      -2.873   2.258  -0.123  1.00  0.00     0.028 C 
HETATM   10  C10 UNL     1      -3.630   1.190  -0.843  1.00  0.00     0.016 C 
HETATM   11  C11 UNL     1      -0.277  -0.423   1.759  1.00  0.00     0.221 C 
HETATM   12  O1  UNL     1       0.774  -1.252   2.038  1.00  0.00    -0.346 OA
HETATM   13  C12 UNL     1       1.490  -1.468   0.887  1.00  0.00     0.424 C 
HETATM   14  N2  UNL     1       0.897  -0.729  -0.181  1.00  0.00     0.141 N 
HETATM   15  H24 UNL     1       1.513   0.118  -0.361  1.00  0.00     0.322 HD
ENDROOT
BRANCH  13  16
HETATM   16  S1  UNL     1       3.190  -0.879   1.243  1.00  0.00    -0.092 SA
BRANCH  16  17
HETATM   17  C13 UNL     1       4.242  -1.111  -0.188  1.00  0.00     0.124 C 
HETATM   18  C14 UNL     1       3.772  -0.227  -1.277  1.00  0.00    -0.005 C 
HETATM   19  C15 UNL     1       4.193   1.037  -1.353  1.00  0.00    -0.002 C 
HETATM   20  C16 UNL     1       5.135   1.520  -0.324  1.00  0.00     0.014 C 
HETATM   21  C17 UNL     1       6.004   0.618   0.089  1.00  0.00    -0.000 C 
HETATM   22  C18 UNL     1       5.606  -0.615   0.182  1.00  0.00     0.032 C 
BRANCH  22  23
HETATM   23  N1  UNL     1       6.579  -1.531   0.681  1.00  0.00    -0.400 N 
HETATM   24  H22 UNL     1       6.153  -1.857   1.583  1.00  0.00     0.156 HD
HETATM   25  H23 UNL     1       7.354  -2.159   0.924  1.00  0.00     0.156 HD
ENDBRANCH  22  23
ENDBRANCH  16  17
ENDBRANCH  13  16
TORSDOF 3
