REMARK  5 active torsions:
REMARK  status: ('A' for Active; 'I' for Inactive)
REMARK    1  A    between atoms: C2_2  and  C5_5 
REMARK    2  A    between atoms: C8_8  and  C9_9 
REMARK    3  A    between atoms: C10_12  and  S1_13 
REMARK    4  A    between atoms: S1_13  and  C11_14 
REMARK    5  A    between atoms: C11_14  and  C12_15 
ROOT
HETATM    1  C9  UNL     1       0.727   0.087  -0.984  1.00  0.00     0.203 A 
HETATM    2  N1  UNL     1       1.502   1.128  -1.392  1.00  0.00    -0.120 NA
HETATM    3  N2  UNL     1       2.726   0.677  -1.588  1.00  0.00    -0.114 NA
HETATM    4  C10 UNL     1       2.749  -0.639  -1.312  1.00  0.00     0.231 A 
HETATM    5  O1  UNL     1       1.513  -0.970  -0.947  1.00  0.00    -0.263 OA
ENDROOT
BRANCH   1   6
HETATM    6  C8  UNL     1      -0.699   0.233  -0.676  1.00  0.00     0.019 A 
HETATM    7  C7  UNL     1      -1.353   1.443  -0.777  1.00  0.00     0.016 A 
HETATM    8  C6  UNL     1      -2.685   1.527  -0.476  1.00  0.00     0.009 A 
HETATM    9  C5  UNL     1      -3.405   0.426  -0.070  1.00  0.00    -0.051 A 
HETATM   10  C18 UNL     1      -2.758  -0.808   0.038  1.00  0.00     0.009 A 
HETATM   11  C17 UNL     1      -1.394  -0.899  -0.269  1.00  0.00     0.016 A 
BRANCH   9  12
HETATM   12  C2  UNL     1      -4.842   0.334   0.290  1.00  0.00    -0.024 C 
HETATM   13  C1  UNL     1      -5.560   1.659   0.152  1.00  0.00     0.019 C 
HETATM   14  C3  UNL     1      -4.933  -0.181   1.715  1.00  0.00     0.019 C 
HETATM   15  C4  UNL     1      -5.529  -0.686  -0.580  1.00  0.00     0.019 C 
ENDBRANCH   9  12
ENDBRANCH   1   6
BRANCH   4  16
HETATM   16  S1  UNL     1       3.834  -2.072  -1.266  1.00  0.00    -0.078 SA
BRANCH  16  17
HETATM   17  C11 UNL     1       4.564  -2.148   0.391  1.00  0.00     0.121 C 
BRANCH  17  18
HETATM   18  C12 UNL     1       5.447  -0.964   0.545  1.00  0.00    -0.052 A 
HETATM   19  C13 UNL     1       5.424   0.047   1.412  1.00  0.00    -0.015 A 
HETATM   20  C14 UNL     1       6.529   0.993   1.158  1.00  0.00     0.054 A 
HETATM   21  C15 UNL     1       7.207   0.374  -0.002  1.00  0.00    -0.022 A 
HETATM   22  C16 UNL     1       6.588  -0.747  -0.354  1.00  0.00     0.004 A 
ENDBRANCH  17  18
ENDBRANCH  16  17
ENDBRANCH   4  16
TORSDOF 5
