REMARK  5 active torsions:
REMARK  status: ('A' for Active; 'I' for Inactive)
REMARK    1  A    between atoms: C2_2  and  C5_5 
REMARK    2  A    between atoms: C8_8  and  C9_9 
REMARK    3  A    between atoms: C10_12  and  S1_13 
REMARK    4  A    between atoms: S1_13  and  C11_14 
REMARK    5  A    between atoms: C11_14  and  C12_15 
ROOT
HETATM    1  C9  UNL     1       0.431   0.551  -0.187  1.00  0.00     0.204 C 
HETATM    2  N1  UNL     1       1.395  -0.313  -0.025  1.00  0.00    -0.104 NA
HETATM    3  O1  UNL     1       2.626   0.313  -0.178  1.00  0.00    -0.209 OA
HETATM    4  C10 UNL     1       2.387   1.539  -0.868  1.00  0.00     0.363 C 
HETATM    5  O2  UNL     1       1.054   1.786  -0.456  1.00  0.00    -0.289 OA
ENDROOT
BRANCH   1   6
HETATM    6  C8  UNL     1      -1.007   0.293  -0.107  1.00  0.00     0.019 A 
HETATM    7  C7  UNL     1      -1.944   1.288  -0.294  1.00  0.00     0.016 A 
HETATM    8  C6  UNL     1      -3.281   0.936  -0.204  1.00  0.00     0.009 A 
HETATM    9  C5  UNL     1      -3.675  -0.378   0.067  1.00  0.00    -0.051 A 
HETATM   10  C19 UNL     1      -2.737  -1.372   0.254  1.00  0.00     0.009 A 
HETATM   11  C18 UNL     1      -1.426  -0.993   0.159  1.00  0.00     0.016 A 
BRANCH   9  12
HETATM   12  C2  UNL     1      -5.140  -0.645   0.136  1.00  0.00    -0.024 C 
HETATM   13  C1  UNL     1      -5.376  -2.095   0.449  1.00  0.00     0.019 C 
HETATM   14  C3  UNL     1      -5.682  -0.425  -1.274  1.00  0.00     0.019 C 
HETATM   15  C4  UNL     1      -5.851   0.209   1.142  1.00  0.00     0.019 C 
ENDBRANCH   9  12
ENDBRANCH   1   6
BRANCH   4  16
HETATM   16  S1  UNL     1       3.558   2.757  -0.226  1.00  0.00    -0.103 SA
BRANCH  16  17
HETATM   17  C11 UNL     1       5.231   2.262  -0.693  1.00  0.00     0.117 C 
BRANCH  17  18
HETATM   18  C12 UNL     1       5.677   1.006  -0.044  1.00  0.00    -0.049 A 
HETATM   19  C13 UNL     1       5.379  -0.149  -0.748  1.00  0.00     0.008 A 
HETATM   20  C14 UNL     1       5.725  -1.401  -0.285  1.00  0.00     0.001 A 
HETATM   21  C15 UNL     1       6.388  -1.469   0.921  1.00  0.00     0.000 A 
HETATM   22  C16 UNL     1       6.695  -0.320   1.641  1.00  0.00     0.001 A 
HETATM   23  C17 UNL     1       6.342   0.938   1.165  1.00  0.00     0.008 A 
ENDBRANCH  17  18
ENDBRANCH  16  17
ENDBRANCH   4  16
TORSDOF 5
