REMARK  6 active torsions:
REMARK  status: ('A' for Active; 'I' for Inactive)
REMARK    1  A    between atoms: C3_3  and  C5_5 
REMARK    2  A    between atoms: C6_6  and  C7_7 
REMARK    3  A    between atoms: C7_7  and  C8_8 
REMARK    4  A    between atoms: C9_11  and  S1_12 
REMARK    5  A    between atoms: S1_12  and  C10_13 
REMARK    6  A    between atoms: C10_13  and  C11_14 
ROOT
HETATM    1  C8  UNL     1       0.475   0.746   1.969  1.00  0.00     0.173 A 
HETATM    2  N1  UNL     1      -0.117   1.835   1.446  1.00  0.00    -0.126 NA
HETATM    3  N2  UNL     1      -1.433   1.713   1.511  1.00  0.00    -0.114 NA
HETATM    4  C9  UNL     1      -1.681   0.516   2.091  1.00  0.00     0.231 A 
HETATM    5  O1  UNL     1      -0.517  -0.025   2.346  1.00  0.00    -0.268 OA
ENDROOT
BRANCH   4   6
HETATM    6  S1  UNL     1      -3.166  -0.394   2.537  1.00  0.00    -0.078 SA
BRANCH   6   7
HETATM    7  C10 UNL     1      -3.708  -1.448   1.164  1.00  0.00     0.121 C 
BRANCH   7   8
HETATM    8  C11 UNL     1      -4.136  -0.561   0.052  1.00  0.00    -0.049 A 
HETATM    9  C12 UNL     1      -3.199  -0.172  -0.875  1.00  0.00     0.008 A 
HETATM   10  C13 UNL     1      -3.625   0.650  -1.895  1.00  0.00     0.001 A 
HETATM   11  C14 UNL     1      -4.938   1.047  -1.953  1.00  0.00     0.000 A 
HETATM   12  C15 UNL     1      -5.890   0.655  -1.015  1.00  0.00     0.001 A 
HETATM   13  C16 UNL     1      -5.439  -0.170  -0.002  1.00  0.00     0.008 A 
ENDBRANCH   7   8
ENDBRANCH   6   7
ENDBRANCH   4   6
BRANCH   1  14
HETATM   14  C7  UNL     1       1.914   0.366   2.146  1.00  0.00     0.115 C 
BRANCH  14  15
HETATM   15  C6  UNL     1       2.419  -0.362   0.981  1.00  0.00    -0.018 C 
HETATM   16  C5  UNL     1       3.437   0.053   0.240  1.00  0.00     0.003 C 
BRANCH  16  17
HETATM   17  C3  UNL     1       4.051  -0.568  -0.952  1.00  0.00    -0.066 C 
HETATM   18  C2  UNL     1       5.076  -0.045  -1.606  1.00  0.00    -0.024 C 
HETATM   19  C1  UNL     1       5.607   1.239  -1.079  1.00  0.00     0.036 C 
HETATM   20  C4  UNL     1       3.342  -1.849  -1.285  1.00  0.00     0.048 C 
ENDBRANCH  16  17
ENDBRANCH  14  15
ENDBRANCH   1  14
TORSDOF 6
