REMARK  3 active torsions:
REMARK  status: ('A' for Active; 'I' for Inactive)
REMARK    1  A    between atoms: C8_9  and  S1_10 
REMARK    2  A    between atoms: S1_10  and  C9_11 
REMARK    3  A    between atoms: C9_11  and  C10_12 
ROOT
HETATM    1  C1  UNL     1       5.924   2.262   0.920  1.00  0.00     0.017 C 
HETATM    2  C2  UNL     1       4.766   1.924   0.692  1.00  0.00    -0.081 C 
HETATM    3  C3  UNL     1       3.362   1.538   0.406  1.00  0.00     0.007 C 
HETATM    4  C4  UNL     1       2.699   2.362  -0.407  1.00  0.00     0.017 C 
HETATM    5  C5  UNL     1       1.503   2.765  -1.130  1.00  0.00    -0.001 C 
HETATM    6  C6  UNL     1       0.259   2.326  -1.243  1.00  0.00    -0.000 C 
HETATM    7  C7  UNL     1      -0.502   1.218  -0.662  1.00  0.00     0.205 C 
HETATM    8  O1  UNL     1      -0.993   0.269  -1.591  1.00  0.00    -0.324 OA
HETATM    9  C8  UNL     1      -0.698  -1.093  -1.245  1.00  0.00     0.225 C 
HETATM   10  N1  UNL     1       0.419  -1.460  -0.738  1.00  0.00    -0.118 NA
HETATM   11  N2  UNL     1       1.535  -0.764  -0.409  1.00  0.00    -0.163 NA
HETATM   12  C16 UNL     1       2.056  -0.478   0.716  1.00  0.00     0.128 C 
HETATM   13  C17 UNL     1       3.257   0.265   1.148  1.00  0.00     0.023 C 
HETATM   14  C18 UNL     1       3.185   0.622   2.620  1.00  0.00     0.027 C 
HETATM   15  C19 UNL     1       4.494  -0.625   0.955  1.00  0.00     0.027 C 
ENDROOT
BRANCH   9  16
HETATM   16  S1  UNL     1      -1.356  -2.741  -1.232  1.00  0.00    -0.079 SA
BRANCH  16  17
HETATM   17  C9  UNL     1      -3.021  -2.724  -1.894  1.00  0.00     0.121 C 
BRANCH  17  18
HETATM   18  C10 UNL     1      -3.974  -1.986  -1.043  1.00  0.00    -0.049 A 
HETATM   19  C11 UNL     1      -4.237  -0.641  -1.186  1.00  0.00     0.008 A 
HETATM   20  C12 UNL     1      -5.103   0.115  -0.438  1.00  0.00     0.001 A 
HETATM   21  C13 UNL     1      -5.766  -0.567   0.551  1.00  0.00     0.000 A 
HETATM   22  C14 UNL     1      -5.569  -1.919   0.772  1.00  0.00     0.001 A 
HETATM   23  C15 UNL     1      -4.675  -2.632  -0.022  1.00  0.00     0.008 A 
ENDBRANCH  17  18
ENDBRANCH  16  17
ENDBRANCH   9  16
TORSDOF 3
