REMARK  2 active torsions:
REMARK  status: ('A' for Active; 'I' for Inactive)
REMARK    1  A    between atoms: C2_2  and  B1_3 
REMARK    2  A    between atoms: B1_3  and  C3_4 
ROOT
HETATM    1  C3  UNL     1      -0.496  -0.857   0.167  1.00  0.00    -0.092 C 
HETATM    2  C4  UNL     1       0.444  -1.680   0.550  1.00  0.00    -0.005 C 
HETATM    3  C5  UNL     1       1.773  -1.415   0.996  1.00  0.00    -0.000 C 
HETATM    4  C6  UNL     1       2.704  -0.516   1.271  1.00  0.00     0.002 C 
HETATM    5  C7  UNL     1       4.025  -0.100   1.703  1.00  0.00     0.034 C 
HETATM    6  C8  UNL     1       4.611  -0.863   0.800  1.00  0.00     0.090 C 
HETATM    7  N1  UNL     1       4.688  -0.360  -0.387  1.00  0.00    -0.203 NA
HETATM    8  C9  UNL     1       3.603   0.475  -0.803  1.00  0.00     0.294 A 
HETATM    9  N2  UNL     1       3.861   1.745  -0.332  1.00  0.00    -0.101 NA
HETATM   10  N3  UNL     1       2.855   2.563  -0.705  1.00  0.00    -0.125 NA
HETATM   11  C10 UNL     1       2.045   1.752  -1.378  1.00  0.00     0.175 A 
HETATM   12  O1  UNL     1       2.436   0.521  -1.466  1.00  0.00    -0.258 OA
HETATM   13  C11 UNL     1       0.750   1.896  -2.082  1.00  0.00     0.129 C 
HETATM   14  C12 UNL     1      -0.332   1.302  -1.220  1.00  0.00    -0.030 C 
HETATM   15  C13 UNL     1      -1.462   1.676  -1.816  1.00  0.00    -0.022 C 
HETATM   16  C14 UNL     1      -2.054   2.662  -1.152  1.00  0.00    -0.010 C 
HETATM   17  C15 UNL     1      -1.996   2.656   0.358  1.00  0.00     0.056 C 
HETATM   18  C16 UNL     1      -1.711   1.213   0.724  1.00  0.00    -0.011 C 
HETATM   19  C17 UNL     1      -0.858   0.535  -0.074  1.00  0.00    -0.037 C 
ENDROOT
BRANCH   1  20
HETATM   20  B1  UNL     1      -1.854  -1.495  -0.258  1.00  0.00     0.195 B 
HETATM   21  H6  UNL     1      -1.970  -1.778  -1.398  1.00  0.00    -0.021 HD
BRANCH  20  22
HETATM   22  C2  UNL     1      -2.957  -1.937   0.767  1.00  0.00    -0.052 C 
HETATM   23  C1  UNL     1      -3.262  -3.433   0.638  1.00  0.00    -0.006 C 
ENDBRANCH  20  22
ENDBRANCH   1  20
TORSDOF 2
