REMARK  4 active torsions:
REMARK  status: ('A' for Active; 'I' for Inactive)
REMARK    1  A    between atoms: O1_1  and  C1_2 
REMARK    2  A    between atoms: C7_10  and  S1_11 
REMARK    3  A    between atoms: S1_11  and  C8_12 
REMARK    4  A    between atoms: C8_12  and  C9_13 
ROOT
HETATM    1  C1  UNL     1      -2.509  -1.656   2.034  1.00  0.00     0.167 A 
HETATM    2  C2  UNL     1      -3.697  -0.823   1.626  1.00  0.00     0.018 A 
HETATM    3  C3  UNL     1      -3.589  -0.355   0.397  1.00  0.00    -0.025 A 
HETATM    4  C4  UNL     1      -4.517   0.485  -0.363  1.00  0.00     0.043 C 
HETATM    5  C5  UNL     1      -3.939   1.848  -0.728  1.00  0.00     0.029 C 
HETATM    6  C6  UNL     1      -2.734   1.749  -1.570  1.00  0.00     0.277 C 
HETATM    7  N1  UNL     1      -1.776   1.718  -2.462  1.00  0.00    -0.230 NA
HETATM    8  N2  UNL     1      -0.504   1.319  -1.973  1.00  0.00    -0.176 NA
HETATM    9  C7  UNL     1      -0.516   0.130  -1.420  1.00  0.00     0.221 C 
HETATM   10  O2  UNL     1      -1.658  -0.688  -1.309  1.00  0.00    -0.285 OA
HETATM   11  C15 UNL     1      -2.325  -0.830  -0.122  1.00  0.00     0.083 A 
HETATM   12  C16 UNL     1      -1.709  -1.562   0.789  1.00  0.00     0.046 A 
ENDROOT
BRANCH   9  13
HETATM   13  S1  UNL     1       1.055  -0.476  -0.762  1.00  0.00    -0.079 SA
BRANCH  13  14
HETATM   14  C8  UNL     1       2.377   0.728  -1.022  1.00  0.00     0.121 C 
BRANCH  14  15
HETATM   15  C9  UNL     1       3.641   0.151  -0.442  1.00  0.00    -0.049 A 
HETATM   16  C10 UNL     1       4.477  -0.625  -1.223  1.00  0.00     0.008 A 
HETATM   17  C11 UNL     1       5.598  -1.093  -0.577  1.00  0.00     0.001 A 
HETATM   18  C12 UNL     1       5.921  -0.843   0.741  1.00  0.00     0.000 A 
HETATM   19  C13 UNL     1       5.022  -0.058   1.431  1.00  0.00     0.001 A 
HETATM   20  C14 UNL     1       3.851   0.473   0.885  1.00  0.00     0.008 A 
ENDBRANCH  14  15
ENDBRANCH  13  14
ENDBRANCH   9  13
BRANCH   1  21
HETATM   21  O1  UNL     1      -1.881  -1.185   3.157  1.00  0.00    -0.388 OA
HETATM   22  H1  UNL     1      -1.340  -0.388   3.007  1.00  0.00     0.210 HD
ENDBRANCH   1  21
TORSDOF 4
