REMARK  5 active torsions:
REMARK  status: ('A' for Active; 'I' for Inactive)
REMARK    1  A    between atoms: N1_1  and  C1_2 
REMARK    2  A    between atoms: C6_7  and  B1_8 
REMARK    3  A    between atoms: C7_11  and  S1_12 
REMARK    4  A    between atoms: S1_12  and  C8_13 
REMARK    5  A    between atoms: C8_13  and  C9_14 
ROOT
HETATM    1  B1  UNL     1       2.277  -0.335   0.247  1.00  0.00     0.515 B 
HETATM    2  N2  UNL     1       1.608  -0.270   1.632  1.00  0.00    -0.325 N 
HETATM    3  N3  UNL     1       0.250  -0.237   1.378  1.00  0.00    -0.160 NA
HETATM    4  C7  UNL     1      -0.038  -0.268   0.145  1.00  0.00     0.206 A 
HETATM    5  O1  UNL     1       1.089  -0.328  -0.673  1.00  0.00    -0.367 OA
HETATM    6  H7  UNL     1       2.145  -0.257   2.531  1.00  0.00     0.164 HD
ENDROOT
BRANCH   1   7
HETATM    7  C6  UNL     1       3.733   0.113  -0.105  1.00  0.00    -0.012 A 
HETATM    8  C1  UNL     1       4.680  -0.746  -0.625  1.00  0.00     0.025 A 
HETATM    9  C2  UNL     1       5.948  -0.259  -0.907  1.00  0.00     0.028 A 
HETATM   10  C3  UNL     1       6.298   1.051  -0.687  1.00  0.00     0.002 A 
HETATM   11  C4  UNL     1       5.383   1.943  -0.170  1.00  0.00    -0.000 A 
HETATM   12  C5  UNL     1       4.132   1.437   0.102  1.00  0.00     0.002 A 
BRANCH   8  13
HETATM   13  N1  UNL     1       4.329  -2.113  -0.858  1.00  0.00    -0.399 N 
HETATM   14  H1  UNL     1       4.281  -2.331  -1.882  1.00  0.00     0.156 HD
HETATM   15  H2  UNL     1       4.166  -2.710  -0.020  1.00  0.00     0.156 HD
ENDBRANCH   8  13
ENDBRANCH   1   7
BRANCH   4  16
HETATM   16  S1  UNL     1      -1.652  -0.245  -0.651  1.00  0.00    -0.080 SA
BRANCH  16  17
HETATM   17  C8  UNL     1      -2.899  -0.166   0.651  1.00  0.00     0.121 C 
BRANCH  17  18
HETATM   18  C9  UNL     1      -4.278  -0.142   0.109  1.00  0.00    -0.049 A 
HETATM   19  C10 UNL     1      -5.023  -1.277  -0.134  1.00  0.00     0.008 A 
HETATM   20  C11 UNL     1      -6.317  -1.128  -0.648  1.00  0.00     0.001 A 
HETATM   21  C12 UNL     1      -6.785   0.165  -0.889  1.00  0.00     0.000 A 
HETATM   22  C13 UNL     1      -6.044   1.313  -0.648  1.00  0.00     0.001 A 
HETATM   23  C14 UNL     1      -4.773   1.132  -0.142  1.00  0.00     0.008 A 
ENDBRANCH  17  18
ENDBRANCH  16  17
ENDBRANCH   4  16
TORSDOF 5
