REMARK  5 active torsions:
REMARK  status: ('A' for Active; 'I' for Inactive)
REMARK    1  A    between atoms: C1_2  and  C2_3 
REMARK    2  A    between atoms: C2_3  and  O1_4 
REMARK    3  A    between atoms: O1_4  and  C3_5 
REMARK    4  A    between atoms: C9_12  and  C10_13 
REMARK    5  A    between atoms: C10_13  and  C11_14 
ROOT
HETATM    1  C3  UNL     1      -2.153  -1.009  -0.775  1.00  0.00     0.104 A 
HETATM    2  C4  UNL     1      -3.083  -1.575  -1.522  1.00  0.00     0.037 A 
HETATM    3  C5  UNL     1      -2.887  -2.962  -1.926  1.00  0.00    -0.001 A 
HETATM    4  C6  UNL     1      -1.790  -3.519  -1.500  1.00  0.00    -0.021 A 
HETATM    5  C7  UNL     1      -0.692  -3.012  -0.678  1.00  0.00     0.098 A 
HETATM    6  C8  UNL     1      -0.883  -1.574  -0.253  1.00  0.00     0.216 A 
HETATM    7  N2  UNL     1       0.235  -0.756  -0.505  1.00  0.00    -0.224 NA
HETATM    8  C9  UNL     1       0.475  -0.557   0.714  1.00  0.00     0.146 A 
HETATM    9  O2  UNL     1      -0.594  -1.337   1.073  1.00  0.00    -0.297 OA
ENDROOT
BRANCH   1  10
HETATM   10  O1  UNL     1      -2.358   0.326  -0.396  1.00  0.00    -0.345 OA
BRANCH  10  11
HETATM   11  C2  UNL     1      -2.999   0.740   0.769  1.00  0.00     0.221 C 
BRANCH  11  12
HETATM   12  C1  UNL     1      -3.052   2.223   0.874  1.00  0.00     0.106 C 
HETATM   13  N1  UNL     1      -2.659   2.995  -0.056  1.00  0.00    -0.314 NA
HETATM   14  H1  UNL     1      -2.701   4.010   0.029  1.00  0.00     0.185 HD
ENDBRANCH  11  12
ENDBRANCH  10  11
ENDBRANCH   1  10
BRANCH   8  15
HETATM   15  C10 UNL     1       1.456   0.180   1.535  1.00  0.00     0.124 C 
BRANCH  15  16
HETATM   16  C11 UNL     1       2.462   0.905   0.753  1.00  0.00    -0.051 A 
HETATM   17  C12 UNL     1       2.335   2.195   0.318  1.00  0.00     0.007 A 
HETATM   18  C13 UNL     1       3.311   2.830  -0.414  1.00  0.00     0.001 A 
HETATM   19  C14 UNL     1       4.475   2.166  -0.738  1.00  0.00     0.000 A 
HETATM   20  C15 UNL     1       4.680   0.853  -0.334  1.00  0.00     0.001 A 
HETATM   21  C16 UNL     1       3.656   0.269   0.402  1.00  0.00     0.007 A 
ENDBRANCH  15  16
ENDBRANCH   8  15
TORSDOF 5
