REMARK  5 active torsions:
REMARK  status: ('A' for Active; 'I' for Inactive)
REMARK    1  A    between atoms: C2_2  and  C3_3 
REMARK    2  A    between atoms: C8_8  and  C9_9 
REMARK    3  A    between atoms: C10_12  and  S1_13 
REMARK    4  A    between atoms: S1_13  and  C11_14 
REMARK    5  A    between atoms: C11_14  and  C12_15 
ROOT
HETATM    1  C9  UNL     1      -0.918   0.788  -0.281  1.00  0.00     0.204 A 
HETATM    2  N1  UNL     1      -1.227   1.713   0.644  1.00  0.00    -0.120 NA
HETATM    3  N2  UNL     1      -0.187   2.541   0.812  1.00  0.00    -0.114 NA
HETATM    4  C10 UNL     1       0.765   2.101  -0.032  1.00  0.00     0.231 A 
HETATM    5  O1  UNL     1       0.307   1.038  -0.687  1.00  0.00    -0.263 OA
ENDROOT
BRANCH   1   6
HETATM    6  C8  UNL     1      -1.782  -0.290  -0.744  1.00  0.00     0.025 A 
HETATM    7  C3  UNL     1      -3.071  -0.406  -0.209  1.00  0.00    -0.044 A 
HETATM    8  C4  UNL     1      -3.890  -1.447  -0.661  1.00  0.00     0.008 A 
HETATM    9  C5  UNL     1      -3.484  -2.363  -1.609  1.00  0.00     0.001 A 
HETATM   10  C6  UNL     1      -2.188  -2.208  -2.115  1.00  0.00     0.001 A 
HETATM   11  C7  UNL     1      -1.356  -1.192  -1.691  1.00  0.00     0.016 A 
BRANCH   7  12
HETATM   12  C2  UNL     1      -3.592   0.540   0.819  1.00  0.00     0.035 C 
HETATM   13  C1  UNL     1      -5.015   0.194   1.224  1.00  0.00     0.010 C 
ENDBRANCH   7  12
ENDBRANCH   1   6
BRANCH   4  14
HETATM   14  S1  UNL     1       2.291   3.031  -0.023  1.00  0.00    -0.078 SA
BRANCH  14  15
HETATM   15  C11 UNL     1       3.392   2.287   1.227  1.00  0.00     0.121 C 
BRANCH  15  16
HETATM   16  C12 UNL     1       3.735   0.931   0.710  1.00  0.00    -0.049 A 
HETATM   17  C13 UNL     1       3.033  -0.237   0.959  1.00  0.00     0.008 A 
HETATM   18  C14 UNL     1       3.452  -1.436   0.419  1.00  0.00     0.001 A 
HETATM   19  C15 UNL     1       4.590  -1.491  -0.388  1.00  0.00     0.000 A 
HETATM   20  C16 UNL     1       5.317  -0.361  -0.662  1.00  0.00     0.001 A 
HETATM   21  C17 UNL     1       4.873   0.843  -0.103  1.00  0.00     0.008 A 
ENDBRANCH  15  16
ENDBRANCH  14  15
ENDBRANCH   4  14
TORSDOF 5
