REMARK  5 active torsions:
REMARK  status: ('A' for Active; 'I' for Inactive)
REMARK    1  A    between atoms: C2_2  and  O1_3 
REMARK    2  A    between atoms: O1_3  and  C3_4 
REMARK    3  A    between atoms: C11_14  and  S1_15 
REMARK    4  A    between atoms: S1_15  and  C12_16 
REMARK    5  A    between atoms: C12_16  and  C13_17 
ROOT
HETATM    1  C3  UNL     1       3.297   0.164   0.349  1.00  0.00     0.078 A 
HETATM    2  C4  UNL     1       3.885  -0.400   1.461  1.00  0.00     0.037 A 
HETATM    3  C5  UNL     1       3.198  -1.133   2.403  1.00  0.00     0.005 A 
HETATM    4  C6  UNL     1       1.847  -1.281   2.174  1.00  0.00     0.038 A 
HETATM    5  C7  UNL     1       1.168  -0.750   1.082  1.00  0.00     0.087 A 
HETATM    6  C8  UNL     1       1.921  -0.017   0.164  1.00  0.00     0.014 A 
HETATM    7  C9  UNL     1       1.582   0.705  -1.114  1.00  0.00     0.093 C 
HETATM    8  C10 UNL     1       0.776  -0.149  -2.021  1.00  0.00     0.118 C 
HETATM    9  N1  UNL     1      -0.290  -0.903  -2.015  1.00  0.00    -0.164 NA
HETATM   10  N2  UNL     1      -1.214  -1.245  -1.011  1.00  0.00    -0.117 NA
HETATM   11  C11 UNL     1      -1.195  -1.340   0.277  1.00  0.00     0.230 C 
HETATM   12  O2  UNL     1      -0.177  -1.122   1.216  1.00  0.00    -0.285 OA
ENDROOT
BRANCH  11  13
HETATM   13  S1  UNL     1      -2.610  -1.818   1.226  1.00  0.00    -0.078 SA
BRANCH  13  14
HETATM   14  C12 UNL     1      -4.072  -2.141   0.246  1.00  0.00     0.121 C 
BRANCH  14  15
HETATM   15  C13 UNL     1      -4.574  -0.900  -0.387  1.00  0.00    -0.049 A 
HETATM   16  C14 UNL     1      -5.443  -0.165   0.427  1.00  0.00     0.008 A 
HETATM   17  C15 UNL     1      -6.035   1.014   0.043  1.00  0.00     0.001 A 
HETATM   18  C16 UNL     1      -5.758   1.510  -1.226  1.00  0.00     0.000 A 
HETATM   19  C17 UNL     1      -4.908   0.809  -2.048  1.00  0.00     0.001 A 
HETATM   20  C18 UNL     1      -4.336  -0.366  -1.628  1.00  0.00     0.008 A 
ENDBRANCH  14  15
ENDBRANCH  13  14
ENDBRANCH  11  13
BRANCH   1  21
HETATM   21  O1  UNL     1       3.925   0.905  -0.626  1.00  0.00    -0.351 OA
BRANCH  21  22
HETATM   22  C2  UNL     1       5.297   1.194  -0.611  1.00  0.00     0.171 C 
HETATM   23  C1  UNL     1       5.766   1.965   0.579  1.00  0.00     0.034 C 
ENDBRANCH  21  22
ENDBRANCH   1  21
TORSDOF 5
