REMARK  5 active torsions:
REMARK  status: ('A' for Active; 'I' for Inactive)
REMARK    1  A    between atoms: C2_2  and  C3_3 
REMARK    2  A    between atoms: C7_7  and  C8_8 
REMARK    3  A    between atoms: C9_11  and  C10_12 
REMARK    4  A    between atoms: C15_17  and  O1_18 
REMARK    5  A    between atoms: O1_18  and  C16_19 
ROOT
HETATM    1  C8  UNL     1      -1.783  -0.109  -0.703  1.00  0.00     0.204 A 
HETATM    2  N1  UNL     1      -2.149   1.086  -1.200  1.00  0.00    -0.121 NA
HETATM    3  N2  UNL     1      -1.104   1.874  -1.030  1.00  0.00    -0.121 NA
HETATM    4  C9  UNL     1      -0.130   1.159  -0.441  1.00  0.00     0.205 A 
HETATM    5  O2  UNL     1      -0.538  -0.078  -0.231  1.00  0.00    -0.268 OA
ENDROOT
BRANCH   4   6
HETATM    6  C10 UNL     1       1.168   1.739  -0.112  1.00  0.00     0.052 A 
HETATM    7  C11 UNL     1       1.502   3.065  -0.373  1.00  0.00     0.019 A 
HETATM    8  C12 UNL     1       2.742   3.561  -0.043  1.00  0.00     0.001 A 
HETATM    9  C13 UNL     1       3.695   2.765   0.558  1.00  0.00     0.003 A 
HETATM   10  C14 UNL     1       3.402   1.439   0.836  1.00  0.00     0.038 A 
HETATM   11  C15 UNL     1       2.149   0.975   0.491  1.00  0.00     0.083 A 
BRANCH  11  12
HETATM   12  O1  UNL     1       1.848  -0.332   0.760  1.00  0.00    -0.350 OA
BRANCH  12  13
HETATM   13  C16 UNL     1       2.597  -1.329   1.341  1.00  0.00     0.171 C 
HETATM   14  C17 UNL     1       3.869  -1.683   0.638  1.00  0.00     0.034 C 
ENDBRANCH  12  13
ENDBRANCH  11  12
ENDBRANCH   4   6
BRANCH   1  15
HETATM   15  C7  UNL     1      -2.514  -1.367  -0.613  1.00  0.00     0.040 C 
HETATM   16  C3  UNL     1      -3.886  -1.627  -0.190  1.00  0.00    -0.024 C 
HETATM   17  C4  UNL     1      -4.234  -2.878  -0.450  1.00  0.00     0.013 C 
HETATM   18  C5  UNL     1      -3.043  -3.453  -1.063  1.00  0.00     0.014 C 
HETATM   19  C6  UNL     1      -2.063  -2.577  -0.909  1.00  0.00    -0.009 C 
BRANCH  16  20
HETATM   20  C2  UNL     1      -4.765  -0.672   0.426  1.00  0.00    -0.014 C 
HETATM   21  C1  UNL     1      -4.676   0.581   0.782  1.00  0.00     0.032 C 
ENDBRANCH  16  20
ENDBRANCH   1  15
TORSDOF 5
