REMARK  4 active torsions:
REMARK  status: ('A' for Active; 'I' for Inactive)
REMARK    1  A    between atoms: C4_4  and  C5_5 
REMARK    2  A    between atoms: C6_8  and  S1_9 
REMARK    3  A    between atoms: S1_9  and  C7_10 
REMARK    4  A    between atoms: C7_10  and  C8_11 
ROOT
HETATM    1  C5  UNL     1      -1.222  -1.008  -1.223  1.00  0.00     0.184 A 
HETATM    2  N1  UNL     1      -0.192  -1.306  -2.060  1.00  0.00    -0.125 NA
HETATM    3  N2  UNL     1       0.895  -1.414  -1.312  1.00  0.00    -0.114 NA
HETATM    4  C6  UNL     1       0.557  -1.189  -0.038  1.00  0.00     0.231 A 
HETATM    5  O1  UNL     1      -0.736  -0.942   0.015  1.00  0.00    -0.267 OA
ENDROOT
BRANCH   1   6
HETATM    6  C4  UNL     1      -2.660  -0.789  -1.612  1.00  0.00     0.149 C 
HETATM    7  C3  UNL     1      -2.944   0.631  -1.287  1.00  0.00    -0.004 C 
HETATM    8  C2  UNL     1      -3.814   0.949  -0.315  1.00  0.00    -0.083 C 
HETATM    9  C1  UNL     1      -4.096   2.380   0.007  1.00  0.00     0.043 C 
HETATM   10  C16 UNL     1      -4.561  -0.031   0.512  1.00  0.00     0.063 C 
HETATM   11  C15 UNL     1      -4.452  -1.422   0.022  1.00  0.00     0.016 C 
HETATM   12  C14 UNL     1      -3.579  -1.725  -0.940  1.00  0.00     0.106 C 
HETATM   13  F1  UNL     1      -3.551  -3.028  -1.323  1.00  0.00    -0.210 F 
ENDBRANCH   1   6
BRANCH   4  14
HETATM   14  S1  UNL     1       1.373  -1.138   1.560  1.00  0.00    -0.078 SA
BRANCH  14  15
HETATM   15  C7  UNL     1       3.130  -1.487   1.386  1.00  0.00     0.121 C 
BRANCH  15  16
HETATM   16  C8  UNL     1       3.853  -0.440   0.635  1.00  0.00    -0.049 A 
HETATM   17  C9  UNL     1       4.333   0.565   1.463  1.00  0.00     0.008 A 
HETATM   18  C10 UNL     1       5.038   1.642   0.967  1.00  0.00     0.001 A 
HETATM   19  C11 UNL     1       5.249   1.676  -0.407  1.00  0.00     0.000 A 
HETATM   20  C12 UNL     1       4.783   0.685  -1.277  1.00  0.00     0.001 A 
HETATM   21  C13 UNL     1       4.087  -0.363  -0.715  1.00  0.00     0.008 A 
ENDBRANCH  15  16
ENDBRANCH  14  15
ENDBRANCH   4  14
TORSDOF 4
