REMARK  8 active torsions:
REMARK  status: ('A' for Active; 'I' for Inactive)
REMARK    1  A    between atoms: N1_1  and  C1_2 
REMARK    2  A    between atoms: C1_2  and  C2_3 
REMARK    3  A    between atoms: C2_3  and  C3_4 
REMARK    4  A    between atoms: C4_5  and  C5_7 
REMARK    5  A    between atoms: C5_7  and  C6_8 
REMARK    6  A    between atoms: C7_11  and  S1_12 
REMARK    7  A    between atoms: S1_12  and  C8_13 
REMARK    8  A    between atoms: C8_13  and  C9_14 
ROOT
HETATM    1  C6  UNL     1       1.485   0.677  -0.335  1.00  0.00     0.176 A 
HETATM    2  N2  UNL     1       0.796   0.933   0.789  1.00  0.00    -0.126 NA
HETATM    3  N3  UNL     1      -0.318   0.228   0.734  1.00  0.00    -0.114 NA
HETATM    4  C7  UNL     1      -0.358  -0.478  -0.410  1.00  0.00     0.231 A 
HETATM    5  O1  UNL     1       0.768  -0.178  -1.045  1.00  0.00    -0.268 OA
ENDROOT
BRANCH   1   6
HETATM    6  C5  UNL     1       2.812   1.298  -0.634  1.00  0.00     0.158 C 
BRANCH   6   7
HETATM    7  C4  UNL     1       3.868   0.416  -0.084  1.00  0.00     0.102 C 
HETATM    8  C3  UNL     1       4.838   0.537   0.805  1.00  0.00     0.048 C 
HETATM    9  F1  UNL     1       3.835  -0.832  -0.625  1.00  0.00    -0.210 F 
BRANCH   8  10
HETATM   10  C2  UNL     1       5.480  -0.774   0.823  1.00  0.00     0.079 C 
BRANCH  10  11
HETATM   11  C1  UNL     1       6.798  -0.858   0.759  1.00  0.00    -0.025 C 
BRANCH  11  12
HETATM   12  N1  UNL     1       8.076  -0.695   0.778  1.00  0.00    -0.258 NA
HETATM   13  H1  UNL     1       8.489  -0.511   1.708  1.00  0.00     0.197 HD
ENDBRANCH  11  12
ENDBRANCH  10  11
ENDBRANCH   8  10
ENDBRANCH   6   7
ENDBRANCH   1   6
BRANCH   4  14
HETATM   14  S1  UNL     1      -1.376  -1.620  -1.296  1.00  0.00    -0.078 SA
BRANCH  14  15
HETATM   15  C8  UNL     1      -2.868  -1.954  -0.343  1.00  0.00     0.121 C 
BRANCH  15  16
HETATM   16  C9  UNL     1      -3.728  -0.765  -0.226  1.00  0.00    -0.049 A 
HETATM   17  C10 UNL     1      -4.653  -0.629  -1.245  1.00  0.00     0.008 A 
HETATM   18  C11 UNL     1      -5.517   0.453  -1.238  1.00  0.00     0.001 A 
HETATM   19  C12 UNL     1      -5.503   1.419  -0.250  1.00  0.00     0.000 A 
HETATM   20  C13 UNL     1      -4.568   1.270   0.767  1.00  0.00     0.001 A 
HETATM   21  C14 UNL     1      -3.720   0.194   0.746  1.00  0.00     0.008 A 
ENDBRANCH  15  16
ENDBRANCH  14  15
ENDBRANCH   4  14
TORSDOF 8
