REMARK  6 active torsions:
REMARK  status: ('A' for Active; 'I' for Inactive)
REMARK    1  A    between atoms: C6_8  and  N3_9 
REMARK    2  A    between atoms: C14_19  and  O1_20 
REMARK    3  A    between atoms: O1_20  and  C15_21 
REMARK    4  A    between atoms: C15_21  and  C16_22 
REMARK    5  A    between atoms: C16_22  and  C17_23 
REMARK    6  A    between atoms: C17_23  and  N4_24 
ROOT
HETATM    1  C1  UNL     1       1.834   2.522   0.796  1.00  0.00     0.051 C 
HETATM    2  C2  UNL     1       0.439   2.221   0.479  1.00  0.00    -0.026 A 
HETATM    3  C3  UNL     1      -0.379   3.301   0.222  1.00  0.00     0.042 A 
HETATM    4  C4  UNL     1      -1.706   3.092  -0.083  1.00  0.00     0.072 A 
HETATM    5  N1  UNL     1      -2.597   4.080  -0.360  1.00  0.00    -0.241 NA
HETATM    6  C5  UNL     1      -3.882   3.736  -0.654  1.00  0.00     0.236 A 
HETATM    7  N2  UNL     1      -4.320   2.460  -0.685  1.00  0.00    -0.223 NA
HETATM    8  C6  UNL     1      -3.450   1.465  -0.413  1.00  0.00     0.144 A 
HETATM    9  C12 UNL     1      -2.159   1.792  -0.118  1.00  0.00     0.042 A 
HETATM   10  C13 UNL     1      -1.344   0.713   0.138  1.00  0.00     0.055 A 
HETATM   11  C14 UNL     1      -0.007   0.919   0.447  1.00  0.00     0.075 A 
ENDROOT
BRANCH  11  12
HETATM   12  O1  UNL     1       0.803  -0.196   0.704  1.00  0.00    -0.351 OA
BRANCH  12  13
HETATM   13  C15 UNL     1       0.305  -1.494   0.659  1.00  0.00     0.177 C 
BRANCH  13  14
HETATM   14  C16 UNL     1       1.385  -2.488   0.974  1.00  0.00     0.057 C 
BRANCH  14  15
HETATM   15  C17 UNL     1       2.537  -2.413   0.009  1.00  0.00     0.274 C 
BRANCH  15  16
HETATM   16  N4  UNL     1       3.153  -1.096   0.120  1.00  0.00     0.092 N 
HETATM   17  C18 UNL     1       4.213  -0.963  -0.890  1.00  0.00     0.298 C 
HETATM   18  C19 UNL     1       4.748   0.443  -0.717  1.00  0.00     0.198 C 
HETATM   19  O2  UNL     1       5.438   0.512   0.459  1.00  0.00    -0.388 OA
HETATM   20  C20 UNL     1       5.163  -0.429   1.406  1.00  0.00     0.198 C 
HETATM   21  C21 UNL     1       3.750  -0.938   1.448  1.00  0.00     0.298 C 
ENDBRANCH  15  16
ENDBRANCH  14  15
ENDBRANCH  13  14
ENDBRANCH  12  13
ENDBRANCH  11  12
BRANCH   8  22
HETATM   22  N3  UNL     1      -4.104   0.200  -0.465  1.00  0.00    -0.336 N 
HETATM   23  C7  UNL     1      -4.411  -0.098  -1.846  1.00  0.00     0.120 A 
HETATM   24  C8  UNL     1      -5.023  -1.189  -2.293  1.00  0.00     0.087 A 
HETATM   25 CL1  UNL     1      -5.401  -1.565  -3.949  1.00  0.00    -0.080 Cl
HETATM   26  C9  UNL     1      -5.440  -2.214  -1.315  1.00  0.00     0.137 A 
HETATM   27  F1  UNL     1      -6.071  -3.386  -1.558  1.00  0.00    -0.205 F 
HETATM   28  C10 UNL     1      -5.135  -1.893  -0.069  1.00  0.00     0.037 A 
HETATM   29  C11 UNL     1      -4.467  -0.738   0.579  1.00  0.00     0.160 A 
ENDBRANCH   8  22
TORSDOF 6
