REMARK  5 active torsions:
REMARK  status: ('A' for Active; 'I' for Inactive)
REMARK    1  A    between atoms: C1_1  and  P1_2 
REMARK    2  A    between atoms: C1_1  and  C10_15 
REMARK    3  A    between atoms: P1_2  and  S1_3 
REMARK    4  A    between atoms: S1_3  and  C2_4 
REMARK    5  A    between atoms: C3_7  and  C4_8 
ROOT
HETATM    1  C2  UNL     1      -1.462  -1.123  -1.754  1.00  0.00     0.229 C 
HETATM    2  N1  UNL     1      -2.642  -1.484  -2.058  1.00  0.00    -0.143 NA
HETATM    3  N2  UNL     1      -3.187  -2.328  -1.057  1.00  0.00    -0.278 N 
HETATM    4  C3  UNL     1      -2.415  -1.873   0.099  1.00  0.00     0.281 C 
HETATM    5  O1  UNL     1      -1.138  -1.702  -0.526  1.00  0.00    -0.296 OA
HETATM    6  H2  UNL     1      -3.928  -3.086  -1.044  1.00  0.00     0.185 HD
ENDROOT
BRANCH   1   7
HETATM    7  S1  UNL     1      -0.797  -0.053  -3.047  1.00  0.00    -0.042 SA
BRANCH   7   8
HETATM    8  P1  UNL     1       1.472   0.183  -1.698  1.00  0.00     0.017 P 
HETATM    9  H1  UNL     1       1.026   0.149  -1.981  1.00  0.00     0.082 HD
BRANCH   8  10
HETATM   10  C1  UNL     1       2.607   0.286  -1.001  1.00  0.00    -0.105 C 
BRANCH  10  11
HETATM   11  C10 UNL     1       3.753   0.373  -0.279  1.00  0.00     0.010 A 
HETATM   12  C11 UNL     1       4.724  -0.445  -0.780  1.00  0.00     0.020 A 
HETATM   13  C12 UNL     1       5.858  -0.397  -0.004  1.00  0.00     0.001 A 
HETATM   14  C13 UNL     1       5.754   0.445   1.072  1.00  0.00     0.000 A 
HETATM   15  C14 UNL     1       4.757   1.257   1.547  1.00  0.00     0.001 A 
HETATM   16  C15 UNL     1       3.614   1.220   0.782  1.00  0.00     0.020 A 
ENDBRANCH  10  11
ENDBRANCH   8  10
ENDBRANCH   7   8
ENDBRANCH   1   7
BRANCH   4  17
HETATM   17  C4  UNL     1      -2.956  -0.556   0.489  1.00  0.00    -0.008 A 
HETATM   18  C5  UNL     1      -2.267   0.609   0.821  1.00  0.00     0.011 A 
HETATM   19  C6  UNL     1      -2.947   1.748   1.160  1.00  0.00     0.001 A 
HETATM   20  C7  UNL     1      -4.322   1.818   1.196  1.00  0.00     0.000 A 
HETATM   21  C8  UNL     1      -5.036   0.681   0.872  1.00  0.00     0.001 A 
HETATM   22  C9  UNL     1      -4.349  -0.463   0.531  1.00  0.00     0.011 A 
ENDBRANCH   4  17
TORSDOF 5
