REMARK  8 active torsions:
REMARK  status: ('A' for Active; 'I' for Inactive)
REMARK    1  A    between atoms: O1_2  and  C2_3 
REMARK    2  A    between atoms: C6_9  and  N3_10 
REMARK    3  A    between atoms: N3_10  and  C7_11 
REMARK    4  A    between atoms: C15_21  and  O2_22 
REMARK    5  A    between atoms: O2_22  and  C16_23 
REMARK    6  A    between atoms: C16_23  and  C17_24 
REMARK    7  A    between atoms: C17_24  and  C18_25 
REMARK    8  A    between atoms: C18_25  and  N4_26 
ROOT
HETATM    1  C2  UNL     1       0.191   1.067  -2.055  1.00  0.00     0.103 A 
HETATM    2  C3  UNL     1       1.233   1.244  -2.944  1.00  0.00     0.072 A 
HETATM    3  C4  UNL     1       2.473   0.757  -2.617  1.00  0.00     0.075 A 
HETATM    4  N1  UNL     1       3.516   0.918  -3.452  1.00  0.00    -0.241 NA
HETATM    5  C5  UNL     1       4.718   0.438  -3.099  1.00  0.00     0.236 A 
HETATM    6  N2  UNL     1       4.988  -0.209  -1.952  1.00  0.00    -0.224 NA
HETATM    7  C6  UNL     1       3.941  -0.374  -1.108  1.00  0.00     0.142 A 
HETATM    8  C13 UNL     1       2.676   0.103  -1.425  1.00  0.00     0.042 A 
HETATM    9  C14 UNL     1       1.626  -0.064  -0.554  1.00  0.00     0.057 A 
HETATM   10  C15 UNL     1       0.363   0.406  -0.834  1.00  0.00     0.103 A 
ENDROOT
BRANCH   7  11
HETATM   11  N3  UNL     1       4.159  -1.037   0.124  1.00  0.00    -0.340 N 
HETATM   12  H6  UNL     1       3.538  -1.813   0.378  1.00  0.00     0.167 HD
BRANCH  11  13
HETATM   13  C7  UNL     1       5.209  -0.657   1.002  1.00  0.00     0.035 A 
HETATM   14  C8  UNL     1       6.068   0.378   0.764  1.00  0.00     0.032 A 
HETATM   15  C9  UNL     1       7.095   0.777   1.601  1.00  0.00     0.046 A 
HETATM   16  C10 UNL     1       7.259   0.062   2.781  1.00  0.00     0.138 A 
HETATM   17  F1  UNL     1       8.270   0.452   3.622  1.00  0.00    -0.204 F 
HETATM   18  C11 UNL     1       6.415  -0.990   3.064  1.00  0.00     0.074 A 
HETATM   19 CL1  UNL     1       6.727  -1.796   4.565  1.00  0.00    -0.081 Cl
HETATM   20  C12 UNL     1       5.412  -1.336   2.185  1.00  0.00     0.056 A 
ENDBRANCH  11  13
ENDBRANCH   7  11
BRANCH  10  21
HETATM   21  O2  UNL     1      -0.795   0.352  -0.125  1.00  0.00    -0.348 OA
BRANCH  21  22
HETATM   22  C16 UNL     1      -1.036  -0.221   1.129  1.00  0.00     0.177 C 
BRANCH  22  23
HETATM   23  C17 UNL     1      -2.487  -0.016   1.549  1.00  0.00     0.046 C 
BRANCH  23  24
HETATM   24  C18 UNL     1      -3.364  -0.668   0.514  1.00  0.00     0.119 C 
BRANCH  24  25
HETATM   25  N4  UNL     1      -4.744  -0.549   0.782  1.00  0.00    -0.408 N 
HETATM   26  C19 UNL     1      -5.338   0.731   0.707  1.00  0.00     0.143 C 
HETATM   27  C20 UNL     1      -6.814   0.738   1.015  1.00  0.00     0.187 C 
HETATM   28  O3  UNL     1      -7.102  -0.318   1.842  1.00  0.00    -0.388 OA
HETATM   29  C21 UNL     1      -6.918  -1.568   1.252  1.00  0.00     0.187 C 
HETATM   30  C22 UNL     1      -5.590  -1.654   0.534  1.00  0.00     0.143 C 
ENDBRANCH  24  25
ENDBRANCH  23  24
ENDBRANCH  22  23
ENDBRANCH  21  22
ENDBRANCH  10  21
BRANCH   1  31
HETATM   31  O1  UNL     1      -1.034   1.583  -2.446  1.00  0.00    -0.353 OA
HETATM   32  C1  UNL     1      -1.180   2.243  -3.681  1.00  0.00     0.210 C 
ENDBRANCH   1  31
TORSDOF 8
