REMARK  5 active torsions:
REMARK  status: ('A' for Active; 'I' for Inactive)
REMARK    1  A    between atoms: C5_7  and  C6_8 
REMARK    2  A    between atoms: C6_8  and  C7_9 
REMARK    3  A    between atoms: C7_9  and  O2_10 
REMARK    4  A    between atoms: O2_10  and  C8_11 
REMARK    5  A    between atoms: C10_13  and  N2_14 
ROOT
HETATM    1  C8  UNL     1       0.332  -1.133  -0.192  1.00  0.00     0.138 A 
HETATM    2  C9  UNL     1       1.001  -0.793   0.873  1.00  0.00     0.097 A 
HETATM    3  C10 UNL     1       2.358  -1.458   0.275  1.00  0.00     0.060 C 
HETATM    4  C16 UNL     1       2.658  -2.377   1.526  1.00  0.00     0.041 C 
HETATM    5  C17 UNL     1       1.226  -2.730   1.838  1.00  0.00     0.036 C 
HETATM    6  C18 UNL     1       0.658  -2.416   0.619  1.00  0.00     0.130 A 
HETATM    7  O3  UNL     1       0.271  -3.454  -0.367  1.00  0.00    -0.290 OA
HETATM    8  N3  UNL     1       1.666  -3.617  -1.078  1.00  0.00    -0.203 NA
HETATM    9  C19 UNL     1       2.340  -2.355  -0.838  1.00  0.00     0.149 C 
HETATM   10  H19 UNL     1       1.304  -3.624  -2.053  1.00  0.00     0.153 HD
ENDROOT
BRANCH   1  11
HETATM   11  O2  UNL     1       0.041   0.121  -0.937  1.00  0.00    -0.373 OA
BRANCH  11  12
HETATM   12  C7  UNL     1      -1.367   0.357  -1.080  1.00  0.00     0.171 C 
BRANCH  12  13
HETATM   13  C6  UNL     1      -1.798   1.268   0.012  1.00  0.00     0.063 C 
BRANCH  13  14
HETATM   14  C5  UNL     1      -3.244   1.622   0.071  1.00  0.00     0.236 C 
HETATM   15  C2  UNL     1      -3.803   2.315  -1.111  1.00  0.00     0.024 C 
HETATM   16  C1  UNL     1      -3.344   2.882  -2.241  1.00  0.00     0.015 C 
HETATM   17  C3  UNL     1      -5.292   2.462  -1.108  1.00  0.00     0.182 C 
HETATM   18  O1  UNL     1      -5.741   2.079   0.160  1.00  0.00    -0.362 OA
HETATM   19  C4  UNL     1      -5.421   0.791   0.511  1.00  0.00     0.438 C 
HETATM   20  N1  UNL     1      -4.056   0.407   0.233  1.00  0.00     0.112 N 
HETATM   21  H7  UNL     1      -4.046  -0.081  -0.710  1.00  0.00     0.319 HD
ENDBRANCH  13  14
ENDBRANCH  12  13
ENDBRANCH  11  12
ENDBRANCH   1  11
BRANCH   3  22
HETATM   22  N2  UNL     1       3.405  -0.525   0.278  1.00  0.00    -0.352 N 
HETATM   23  C11 UNL     1       3.359   0.707  -0.432  1.00  0.00     0.107 C 
HETATM   24  C12 UNL     1       4.184   1.719  -0.254  1.00  0.00     0.035 C 
HETATM   25  C13 UNL     1       5.423   1.501   0.140  1.00  0.00     0.152 C 
HETATM   26  F1  UNL     1       6.411   2.376  -0.181  1.00  0.00    -0.203 F 
HETATM   27  C14 UNL     1       5.602   0.273   0.917  1.00  0.00     0.089 C 
HETATM   28 CL1  UNL     1       7.116   0.098   1.753  1.00  0.00    -0.080 Cl
HETATM   29  C15 UNL     1       4.664  -0.651   0.972  1.00  0.00     0.118 C 
ENDBRANCH   3  22
TORSDOF 5
