REMARK  3 active torsions:
REMARK  status: ('A' for Active; 'I' for Inactive)
REMARK    1  A    between atoms: N1_2  and  C2_3 
REMARK    2  A    between atoms: C11_15  and  C12_16 
REMARK    3  A    between atoms: C12_16  and  C13_17 
ROOT
HETATM    1  C2  UNL     1      -2.960  -0.900   1.407  1.00  0.00     0.118 C 
HETATM    2  C3  UNL     1      -4.164  -1.701   1.046  1.00  0.00     0.049 C 
HETATM    3  C4  UNL     1      -3.070  -0.161   2.656  1.00  0.00     0.137 C 
HETATM    4  F1  UNL     1      -3.871  -0.810   3.537  1.00  0.00    -0.207 F 
HETATM    5  C5  UNL     1      -2.564   0.954   3.103  1.00  0.00     0.030 C 
HETATM    6  C6  UNL     1      -2.816   1.975   2.277  1.00  0.00     0.100 C 
HETATM    7  N2  UNL     1      -2.724   1.950   0.804  1.00  0.00    -0.369 N 
HETATM    8  C7  UNL     1      -2.222   1.112  -0.380  1.00  0.00     0.149 C 
HETATM    9  C8  UNL     1      -2.467  -0.107   0.228  1.00  0.00     0.078 C 
HETATM   10  C9  UNL     1      -1.966  -1.222  -0.678  1.00  0.00     0.185 C 
HETATM   11  O1  UNL     1      -0.868  -0.707  -1.297  1.00  0.00    -0.389 OA
HETATM   12  C10 UNL     1       0.118  -0.203  -0.355  1.00  0.00     0.176 C 
HETATM   13  C11 UNL     1       1.018   0.607  -1.166  1.00  0.00     0.043 C 
HETATM   14  C16 UNL     1       1.301   1.965  -0.756  1.00  0.00    -0.063 A 
HETATM   15  O3  UNL     1       2.230   2.853  -0.269  1.00  0.00     0.000 OA
HETATM   16  C17 UNL     1       3.629   2.526  -0.319  1.00  0.00     0.000 C 
HETATM   17  C18 UNL     1       0.732   3.167  -0.542  1.00  0.00     0.104 A 
HETATM   18  C19 UNL     1      -0.859   3.037  -0.768  1.00  0.00     0.256 C 
HETATM   19  N4  UNL     1      -2.039   2.486  -0.809  1.00  0.00    -0.417 NA
HETATM   20  H7  UNL     1      -3.221   2.945   0.812  1.00  0.00     0.161 HD
ENDROOT
BRANCH  13  21
HETATM   21  C12 UNL     1       1.828  -0.032  -2.205  1.00  0.00     0.075 C 
BRANCH  21  22
HETATM   22  C13 UNL     1       2.864  -1.033  -1.785  1.00  0.00     0.356 C 
HETATM   23  N3  UNL     1       2.411  -2.118  -0.988  1.00  0.00     0.114 N 
HETATM   24  C14 UNL     1       3.318  -1.948   0.183  1.00  0.00     0.299 C 
HETATM   25  H16 UNL     1       2.440  -3.047  -1.383  1.00  0.00     0.319 HD
HETATM   26  C15 UNL     1       4.601  -1.469  -0.544  1.00  0.00     0.200 C 
HETATM   27  O2  UNL     1       4.094  -0.578  -1.471  1.00  0.00    -0.356 OA
ENDBRANCH  21  22
ENDBRANCH  13  21
BRANCH   1  28
HETATM   28  N1  UNL     1      -1.881  -1.937   1.633  1.00  0.00    -0.294 NA
HETATM   29  C1  UNL     1      -1.755  -2.190   2.919  1.00  0.00     0.144 C 
ENDBRANCH   1  28
TORSDOF 3
