REMARK  0 active torsions:
REMARK  status: ('A' for Active; 'I' for Inactive)
ROOT
HETATM    1  F1  UNL     1      -0.030   2.135  -0.786  1.00  0.00    -0.364 F 
HETATM    2  C1  UNL     1      -0.513   3.013  -1.647  1.00  0.00     0.203 A 
HETATM    3  C2  UNL     1      -1.249   1.902  -1.406  1.00  0.00     0.210 A 
HETATM    4  C3  UNL     1      -2.482   1.191  -1.731  1.00  0.00     0.008 C 
HETATM    5  C4  UNL     1      -3.287   0.103  -1.557  1.00  0.00    -0.019 C 
HETATM    6  C5  UNL     1      -2.701  -0.889  -0.583  1.00  0.00     0.065 C 
HETATM    7  C6  UNL     1      -3.783  -1.818  -0.074  1.00  0.00     0.180 C 
HETATM    8  O1  UNL     1      -4.166  -2.774  -0.992  1.00  0.00    -0.362 OA
HETATM    9  C7  UNL     1      -3.031  -3.532  -1.271  1.00  0.00     0.438 C 
HETATM   10  N1  UNL     1      -2.135  -2.716  -2.078  1.00  0.00     0.111 N 
HETATM   11  C8  UNL     1      -1.583  -1.618  -1.249  1.00  0.00     0.234 C 
HETATM   12  C9  UNL     1      -0.610  -2.132  -0.265  1.00  0.00     0.063 C 
HETATM   13  C10 UNL     1       0.604  -1.360   0.052  1.00  0.00     0.179 C 
HETATM   14  O2  UNL     1       0.486  -0.139   0.661  1.00  0.00    -0.335 OA
HETATM   15  C11 UNL     1       1.549   0.665   1.003  1.00  0.00     0.151 A 
HETATM   16  C12 UNL     1       2.325   0.049   2.001  1.00  0.00     0.073 A 
HETATM   17  C13 UNL     1       3.388   0.868   2.338  1.00  0.00     0.032 A 
HETATM   18  C14 UNL     1       4.434   0.739   3.256  1.00  0.00     0.133 A 
HETATM   19  N2  UNL     1       5.355   1.737   3.374  1.00  0.00    -0.253 NA
HETATM   20  C15 UNL     1       5.220   2.822   2.593  1.00  0.00     0.234 A 
HETATM   21  N3  UNL     1       4.209   2.895   1.737  1.00  0.00    -0.223 NA
HETATM   22  C16 UNL     1       3.251   1.976   1.540  1.00  0.00     0.149 A 
HETATM   23  N4  UNL     1       2.143   1.844   0.742  1.00  0.00    -0.285 N 
HETATM   24  C17 UNL     1       1.890   2.951  -0.126  1.00  0.00     0.124 C 
HETATM   25  C18 UNL     1       0.762   3.056  -0.888  1.00  0.00     0.069 A 
HETATM   26 CL1  UNL     1       0.603   4.520  -1.923  1.00  0.00    -0.133 Cl
HETATM   27  H9  UNL     1      -1.325  -3.317  -2.325  1.00  0.00     0.319 HD
ENDROOT
TORSDOF 0
