REMARK  0 active torsions:
REMARK  status: ('A' for Active; 'I' for Inactive)
ROOT
HETATM    1  C1  UNL     1       2.914   2.288  -0.363  1.00  0.00     0.017 C 
HETATM    2  C2  UNL     1       1.595   1.625  -0.336  1.00  0.00    -0.020 C 
HETATM    3  C3  UNL     1       0.798   2.574   0.102  1.00  0.00     0.027 C 
HETATM    4  C4  UNL     1      -0.467   3.132   0.498  1.00  0.00    -0.003 C 
HETATM    5  C5  UNL     1      -1.739   3.285   0.767  1.00  0.00     0.086 C 
HETATM    6  N1  UNL     1      -2.736   2.292   0.618  1.00  0.00    -0.351 N 
HETATM    7  C6  UNL     1      -2.862   1.171  -0.234  1.00  0.00     0.138 C 
HETATM    8  C7  UNL     1      -2.529  -0.086   0.013  1.00  0.00     0.027 C 
HETATM    9  C8  UNL     1      -2.493  -1.330   0.803  1.00  0.00     0.072 C 
HETATM   10  C9  UNL     1      -2.633  -2.586  -0.071  1.00  0.00    -0.020 C 
HETATM   11  C10 UNL     1      -3.545  -2.279  -1.049  1.00  0.00     0.028 C 
HETATM   12  C11 UNL     1      -2.930  -1.026  -1.673  1.00  0.00     0.067 C 
HETATM   13  C12 UNL     1      -1.745  -0.715  -1.068  1.00  0.00     0.106 C 
HETATM   14  O1  UNL     1      -0.364  -0.848  -1.239  1.00  0.00    -0.342 OA
HETATM   15  C13 UNL     1       0.561  -0.618  -0.219  1.00  0.00     0.137 C 
HETATM   16  C14 UNL     1       1.095  -1.982   0.178  1.00  0.00     0.063 C 
HETATM   17  C15 UNL     1       2.194  -1.947   1.179  1.00  0.00     0.274 C 
HETATM   18  N2  UNL     1       3.012  -0.774   1.052  1.00  0.00     0.084 N 
HETATM   19  C16 UNL     1       4.364  -1.124   1.447  1.00  0.00     0.309 C 
HETATM   20  C17 UNL     1       3.030  -0.369  -0.340  1.00  0.00     0.279 C 
HETATM   21  C18 UNL     1       1.711   0.189  -0.792  1.00  0.00     0.053 C 
HETATM   22  N3  UNL     1      -3.769  -0.324  -2.668  1.00  0.00    -0.348 N 
HETATM   23  C19 UNL     1      -3.914   1.150  -2.482  1.00  0.00     0.209 C 
HETATM   24  N4  UNL     1      -3.451   1.823  -1.414  1.00  0.00    -0.226 NA
HETATM   25  H7  UNL     1      -3.628   2.204   1.133  1.00  0.00     0.166 HD
HETATM   26  H23 UNL     1      -4.104  -1.076  -3.298  1.00  0.00     0.167 HD
ENDROOT
TORSDOF 0
