REMARK  9 active torsions:
REMARK  status: ('A' for Active; 'I' for Inactive)
REMARK    1  A    between atoms: C2_2  and  C3_3 
REMARK    2  A    between atoms: C3_3  and  N1_4 
REMARK    3  A    between atoms: N1_4  and  C4_5 
REMARK    4  A    between atoms: C4_5  and  C5_6 
REMARK    5  A    between atoms: C5_6  and  C6_7 
REMARK    6  A    between atoms: C6_7  and  O1_8 
REMARK    7  A    between atoms: O1_8  and  C7_9 
REMARK    8  A    between atoms: C9_11  and  N2_12 
REMARK    9  A    between atoms: C12_16  and  N3_17 
ROOT
HETATM    1  C7  UNL     1      -0.484  -1.066   1.722  1.00  0.00     0.076 C 
HETATM    2  C8  UNL     1      -1.835  -0.984   1.664  1.00  0.00     0.041 C 
HETATM    3  C9  UNL     1      -2.382  -1.159   0.202  1.00  0.00     0.073 C 
HETATM    4  C15 UNL     1      -1.240  -1.512  -0.708  1.00  0.00     0.096 A 
HETATM    5  C16 UNL     1      -0.539  -2.846  -0.341  1.00  0.00    -0.010 A 
HETATM    6  C17 UNL     1      -0.612  -2.015   0.618  1.00  0.00     0.095 A 
HETATM    7  N4  UNL     1      -1.759  -3.025   1.329  1.00  0.00    -0.401 N 
HETATM    8  C18 UNL     1      -2.942  -2.638   0.484  1.00  0.00     0.151 C 
HETATM    9  H25 UNL     1      -2.276  -3.782   1.997  1.00  0.00     0.154 HD
ENDROOT
BRANCH   3  10
HETATM   10  N2  UNL     1      -3.329  -0.268  -0.172  1.00  0.00    -0.370 N 
HETATM   11  C10 UNL     1      -4.551  -0.173   0.546  1.00  0.00     0.113 A 
HETATM   12  C11 UNL     1      -5.497   0.700   0.185  1.00  0.00     0.075 A 
HETATM   13 CL1  UNL     1      -7.014   0.869   1.018  1.00  0.00    -0.080 Cl
HETATM   14  C12 UNL     1      -5.292   1.577  -0.954  1.00  0.00     0.046 A 
HETATM   15  C13 UNL     1      -4.144   1.468  -1.603  1.00  0.00     0.023 A 
HETATM   16  C14 UNL     1      -3.011   0.554  -1.322  1.00  0.00     0.153 A 
BRANCH  14  17
HETATM   17  N3  UNL     1      -6.197   2.548  -1.453  1.00  0.00    -0.398 N 
HETATM   18  H17 UNL     1      -5.878   3.550  -1.544  1.00  0.00     0.156 HD
HETATM   19  H18 UNL     1      -7.204   2.523  -1.789  1.00  0.00     0.156 HD
ENDBRANCH  14  17
ENDBRANCH   3  10
BRANCH   1  20
HETATM   20  O1  UNL     1       0.676  -0.591   2.397  1.00  0.00    -0.353 OA
BRANCH  20  21
HETATM   21  C6  UNL     1       1.581   0.080   1.509  1.00  0.00     0.177 C 
BRANCH  21  22
HETATM   22  C5  UNL     1       2.719   0.675   2.288  1.00  0.00     0.056 C 
BRANCH  22  23
HETATM   23  C4  UNL     1       3.655   1.386   1.353  1.00  0.00     0.271 C 
BRANCH  23  24
HETATM   24  N1  UNL     1       4.175   0.439   0.394  1.00  0.00     0.083 N 
HETATM   25  H8  UNL     1       3.363   0.153  -0.235  1.00  0.00     0.315 HD
BRANCH  24  26
HETATM   26  C3  UNL     1       5.126   1.140  -0.480  1.00  0.00     0.269 C 
BRANCH  26  27
HETATM   27  C2  UNL     1       5.697   0.160  -1.504  1.00  0.00     0.025 C 
HETATM   28  C1  UNL     1       6.667   0.929  -2.374  1.00  0.00     0.007 C 
ENDBRANCH  26  27
ENDBRANCH  24  26
ENDBRANCH  23  24
ENDBRANCH  22  23
ENDBRANCH  21  22
ENDBRANCH  20  21
ENDBRANCH   1  20
TORSDOF 9
