REMARK  9 active torsions:
REMARK  status: ('A' for Active; 'I' for Inactive)
REMARK    1  A    between atoms: N1_1  and  C1_2 
REMARK    2  A    between atoms: C1_2  and  C2_3 
REMARK    3  A    between atoms: C2_3  and  C3_4 
REMARK    4  A    between atoms: C8_12  and  C9_13 
REMARK    5  A    between atoms: C9_13  and  O1_14 
REMARK    6  A    between atoms: O1_14  and  C10_15 
REMARK    7  A    between atoms: C10_15  and  C11_16 
REMARK    8  A    between atoms: C11_16  and  C12_17 
REMARK    9  A    between atoms: C12_17  and  N4_18 
ROOT
HETATM    1  C2  UNL     1      -3.737   1.322   0.426  1.00  0.00     0.129 A 
HETATM    2  N2  UNL     1      -4.706   1.985  -0.435  1.00  0.00    -0.261 NA
HETATM    3  C5  UNL     1      -4.565   2.217  -1.674  1.00  0.00     0.228 A 
HETATM    4  N3  UNL     1      -3.404   1.842  -2.370  1.00  0.00    -0.254 NA
HETATM    5  C6  UNL     1      -2.430   1.242  -1.761  1.00  0.00     0.128 A 
HETATM    6  C7  UNL     1      -2.519   0.945  -0.336  1.00  0.00    -0.007 A 
HETATM    7  C8  UNL     1      -1.517   0.357   0.248  1.00  0.00     0.010 C 
ENDROOT
BRANCH   1   8
HETATM    8  C1  UNL     1      -3.367   2.294   1.517  1.00  0.00     0.309 C 
BRANCH   8   9
HETATM    9  N1  UNL     1      -2.673   3.400   0.898  1.00  0.00     0.081 N 
HETATM   10  H1  UNL     1      -3.216   4.289   0.944  1.00  0.00     0.312 HD
HETATM   11  H2  UNL     1      -1.698   3.503   1.268  1.00  0.00     0.312 HD
ENDBRANCH   8   9
ENDBRANCH   1   8
BRANCH   1  12
HETATM   12  C3  UNL     1      -4.470   0.118   0.954  1.00  0.00     0.042 C 
HETATM   13  C4  UNL     1      -4.324  -1.165   0.656  1.00  0.00     0.187 C 
HETATM   14  F1  UNL     1      -3.392  -1.532  -0.255  1.00  0.00    -0.220 F 
ENDBRANCH   1  12
BRANCH   7  15
HETATM   15  C9  UNL     1      -0.213  -0.102  -0.333  1.00  0.00     0.195 C 
BRANCH  15  16
HETATM   16  O1  UNL     1       0.767   0.594   0.359  1.00  0.00    -0.387 OA
BRANCH  16  17
HETATM   17  C10 UNL     1       2.008   0.257  -0.095  1.00  0.00     0.169 C 
BRANCH  17  18
HETATM   18  C11 UNL     1       2.382  -1.199   0.051  1.00  0.00     0.043 C 
BRANCH  18  19
HETATM   19  C12 UNL     1       3.787  -1.297  -0.516  1.00  0.00     0.123 C 
BRANCH  19  20
HETATM   20  N4  UNL     1       4.316  -2.641  -0.452  1.00  0.00    -0.195 NA
HETATM   21  C13 UNL     1       5.658  -2.665  -1.010  1.00  0.00     0.148 C 
HETATM   22  C14 UNL     1       6.173  -2.618   0.411  1.00  0.00     0.210 C 
HETATM   23  O2  UNL     1       4.863  -2.936   0.766  1.00  0.00    -0.302 OA
ENDBRANCH  19  20
ENDBRANCH  18  19
ENDBRANCH  17  18
ENDBRANCH  16  17
ENDBRANCH  15  16
ENDBRANCH   7  15
TORSDOF 9
