REMARK  7 active torsions:
REMARK  status: ('A' for Active; 'I' for Inactive)
REMARK    1  A    between atoms: O1_2  and  C2_3 
REMARK    2  A    between atoms: C7_8  and  C8_9 
REMARK    3  A    between atoms: C8_9  and  O2_10 
REMARK    4  A    between atoms: O2_10  and  C9_11 
REMARK    5  A    between atoms: C9_11  and  C10_12 
REMARK    6  A    between atoms: C10_12  and  C11_13 
REMARK    7  A    between atoms: C11_13  and  N1_14 
ROOT
HETATM    1  C2  UNL     1      -0.789  -0.170  -0.902  1.00  0.00     0.082 A 
HETATM    2  C3  UNL     1      -2.053  -0.633  -1.128  1.00  0.00     0.070 A 
HETATM    3  C4  UNL     1      -3.122   0.208  -0.950  1.00  0.00     0.079 A 
HETATM    4  C5  UNL     1      -2.974   1.523  -0.545  1.00  0.00     0.051 A 
HETATM    5  C6  UNL     1      -1.717   2.017  -0.311  1.00  0.00     0.038 A 
HETATM    6  C7  UNL     1      -0.675   1.135  -0.503  1.00  0.00     0.021 A 
HETATM    7  S1  UNL     1      -4.410   2.570  -0.330  1.00  0.00    -0.012 SA
HETATM    8  N2  UNL     1      -5.894   1.612  -0.441  1.00  0.00    -0.324 N 
HETATM    9  C16 UNL     1      -6.550   0.492   0.135  1.00  0.00     0.069 A 
HETATM   10  C17 UNL     1      -7.412   0.956   1.106  1.00  0.00     0.035 A 
HETATM   11  C18 UNL     1      -8.244   0.178   1.923  1.00  0.00     0.046 A 
HETATM   12  C19 UNL     1      -8.143  -1.175   1.682  1.00  0.00     0.140 A 
HETATM   13  F1  UNL     1      -8.953  -1.950   2.478  1.00  0.00    -0.204 F 
HETATM   14  C20 UNL     1      -7.277  -1.659   0.704  1.00  0.00     0.103 A 
HETATM   15 CL1  UNL     1      -7.347  -3.413   0.608  1.00  0.00    -0.078 Cl
HETATM   16  C21 UNL     1      -6.473  -0.861  -0.082  1.00  0.00     0.110 A 
HETATM   17  N3  UNL     1      -5.748  -1.692  -0.954  1.00  0.00    -0.238 NA
HETATM   18  C22 UNL     1      -4.660  -1.431  -1.548  1.00  0.00     0.234 C 
HETATM   19  N4  UNL     1      -4.348  -0.122  -1.134  1.00  0.00    -0.241 NA
HETATM   20  H21 UNL     1      -6.597   1.917  -1.146  1.00  0.00     0.174 HD
ENDROOT
BRANCH   6  21
HETATM   21  C8  UNL     1       0.500   1.649  -0.268  1.00  0.00     0.148 C 
BRANCH  21  22
HETATM   22  O2  UNL     1       1.864   1.655  -0.172  1.00  0.00    -0.362 OA
BRANCH  22  23
HETATM   23  C9  UNL     1       2.756   1.301  -1.210  1.00  0.00     0.176 C 
BRANCH  23  24
HETATM   24  C10 UNL     1       4.177   1.560  -0.706  1.00  0.00     0.057 C 
BRANCH  24  25
HETATM   25  C11 UNL     1       4.365   0.685   0.525  1.00  0.00     0.274 C 
BRANCH  25  26
HETATM   26  N1  UNL     1       5.678   0.837   1.103  1.00  0.00     0.092 N 
HETATM   27  C12 UNL     1       5.886   0.017   2.284  1.00  0.00     0.298 C 
HETATM   28  C13 UNL     1       6.614  -1.273   1.969  1.00  0.00     0.198 C 
HETATM   29  O3  UNL     1       6.196  -1.758   0.709  1.00  0.00    -0.388 OA
HETATM   30  C14 UNL     1       6.653  -0.923  -0.311  1.00  0.00     0.198 C 
HETATM   31  C15 UNL     1       6.729   0.517   0.176  1.00  0.00     0.298 C 
ENDBRANCH  25  26
ENDBRANCH  24  25
ENDBRANCH  23  24
ENDBRANCH  22  23
ENDBRANCH  21  22
ENDBRANCH   6  21
BRANCH   1  32
HETATM   32  O1  UNL     1       0.288  -1.024  -1.084  1.00  0.00    -0.355 OA
HETATM   33  C1  UNL     1       0.090  -2.361  -1.498  1.00  0.00     0.210 C 
ENDBRANCH   1  32
TORSDOF 7
