REMARK  8 active torsions:
REMARK  status: ('A' for Active; 'I' for Inactive)
REMARK    1  A    between atoms: O1_2  and  C2_3 
REMARK    2  A    between atoms: C2_3  and  C3_4 
REMARK    3  A    between atoms: C3_4  and  N1_5 
REMARK    4  A    between atoms: N1_5  and  C5_7 
REMARK    5  A    between atoms: C5_7  and  C6_8 
REMARK    6  A    between atoms: C6_8  and  O2_9 
REMARK    7  A    between atoms: O2_9  and  C7_10 
REMARK    8  A    between atoms: C12_17  and  N4_18 
ROOT
HETATM    1  C7  UNL     1       1.074   0.818   1.868  1.00  0.00     0.075 C 
HETATM    2  C8  UNL     1       2.217   0.343   1.400  1.00  0.00     0.003 C 
HETATM    3  C9  UNL     1       3.250   1.441   1.045  1.00  0.00     0.100 C 
HETATM    4  C10 UNL     1       3.440   1.656   2.575  1.00  0.00     0.040 C 
HETATM    5  N2  UNL     1       4.509   1.004   3.014  1.00  0.00    -0.247 NA
HETATM    6  C11 UNL     1       4.593  -0.500   2.829  1.00  0.00     0.229 C 
HETATM    7  N3  UNL     1       3.860  -1.326   2.076  1.00  0.00    -0.252 NA
HETATM    8  C12 UNL     1       2.620  -1.046   1.297  1.00  0.00     0.246 C 
HETATM    9  C18 UNL     1       2.325   2.418   3.213  1.00  0.00     0.030 C 
HETATM   10  C19 UNL     1       1.094   1.947   2.845  1.00  0.00     0.039 C 
ENDROOT
BRANCH   1  11
HETATM   11  O2  UNL     1       0.045   0.110   1.323  1.00  0.00    -0.349 OA
BRANCH  11  12
HETATM   12  C6  UNL     1      -1.149   0.709   0.898  1.00  0.00     0.206 C 
BRANCH  12  13
HETATM   13  C5  UNL     1      -2.029  -0.363   0.324  1.00  0.00     0.298 C 
BRANCH  13  14
HETATM   14  N1  UNL     1      -3.303   0.113  -0.155  1.00  0.00     0.088 N 
HETATM   15  C4  UNL     1      -4.016   0.869   0.854  1.00  0.00     0.310 C 
BRANCH  14  16
HETATM   16  C3  UNL     1      -4.076  -0.967  -0.694  1.00  0.00     0.298 C 
BRANCH  16  17
HETATM   17  C2  UNL     1      -5.250  -0.522  -1.520  1.00  0.00     0.197 C 
BRANCH  17  18
HETATM   18  O1  UNL     1      -4.890   0.248  -2.615  1.00  0.00    -0.394 OA
HETATM   19  C1  UNL     1      -6.077   0.590  -3.288  1.00  0.00     0.201 C 
ENDBRANCH  17  18
ENDBRANCH  16  17
ENDBRANCH  14  16
ENDBRANCH  13  14
ENDBRANCH  12  13
ENDBRANCH  11  12
ENDBRANCH   1  11
BRANCH   8  20
HETATM   20  N4  UNL     1       3.040  -1.277  -0.090  1.00  0.00    -0.338 N 
HETATM   21  C13 UNL     1       2.097  -1.091  -1.122  1.00  0.00     0.092 A 
HETATM   22  C14 UNL     1       2.433  -1.287  -2.384  1.00  0.00     0.033 A 
HETATM   23  C15 UNL     1       3.780  -1.706  -2.836  1.00  0.00     0.240 A 
HETATM   24  F1  UNL     1       3.651  -2.866  -3.601  1.00  0.00    -0.239 F 
HETATM   25  C16 UNL     1       4.722  -1.885  -1.723  1.00  0.00     0.065 A 
HETATM   26 CL1  UNL     1       6.358  -2.381  -2.101  1.00  0.00    -0.084 Cl
HETATM   27  C17 UNL     1       4.352  -1.681  -0.471  1.00  0.00     0.115 A 
ENDBRANCH   8  20
TORSDOF 8
