REMARK  4 active torsions:
REMARK  status: ('A' for Active; 'I' for Inactive)
REMARK    1  A    between atoms: C6_7  and  C7_8 
REMARK    2  A    between atoms: C7_8  and  C8_9 
REMARK    3  A    between atoms: C8_9  and  O1_10 
REMARK    4  A    between atoms: O1_10  and  C9_11 
ROOT
HETATM    1  C9  UNL     1      -1.890   0.173   0.713  1.00  0.00     0.082 C 
HETATM    2  C10 UNL     1      -2.581   1.253   0.339  1.00  0.00     0.054 C 
HETATM    3  C11 UNL     1      -3.967   1.310  -0.152  1.00  0.00     0.030 A 
HETATM    4  C12 UNL     1      -4.391   2.630  -0.216  1.00  0.00     0.133 A 
HETATM    5  N2  UNL     1      -5.641   2.792  -0.651  1.00  0.00    -0.253 NA
HETATM    6  C13 UNL     1      -6.430   1.765  -1.001  1.00  0.00     0.234 A 
HETATM    7  N3  UNL     1      -5.986   0.485  -0.929  1.00  0.00    -0.224 NA
HETATM    8  C14 UNL     1      -4.729   0.234  -0.497  1.00  0.00     0.141 A 
HETATM    9  N4  UNL     1      -4.456  -1.150  -0.492  1.00  0.00    -0.339 N 
HETATM   10  C15 UNL     1      -3.402  -1.789   0.211  1.00  0.00     0.048 A 
HETATM   11  C16 UNL     1      -3.607  -3.147   0.337  1.00  0.00     0.057 A 
HETATM   12  C17 UNL     1      -2.653  -3.881   1.001  1.00  0.00     0.074 A 
HETATM   13 CL1  UNL     1      -2.871  -5.622   1.185  1.00  0.00    -0.081 Cl
HETATM   14  C18 UNL     1      -1.511  -3.336   1.546  1.00  0.00     0.139 A 
HETATM   15  F1  UNL     1      -0.581  -4.070   2.197  1.00  0.00    -0.204 F 
HETATM   16  C19 UNL     1      -1.276  -1.971   1.436  1.00  0.00     0.060 A 
HETATM   17  C20 UNL     1      -2.251  -1.234   0.759  1.00  0.00     0.027 A 
HETATM   18  H20 UNL     1      -5.089  -1.758  -1.058  1.00  0.00     0.167 HD
ENDROOT
BRANCH   1  19
HETATM   19  O1  UNL     1      -0.607   0.544   1.115  1.00  0.00    -0.350 OA
BRANCH  19  20
HETATM   20  C8  UNL     1       0.437   0.689   0.139  1.00  0.00     0.178 C 
BRANCH  20  21
HETATM   21  C7  UNL     1       1.662   1.111   0.866  1.00  0.00     0.051 C 
BRANCH  21  22
HETATM   22  C6  UNL     1       2.879   1.315  -0.043  1.00  0.00     0.082 C 
HETATM   23  C2  UNL     1       3.237   0.056  -0.769  1.00  0.00     0.004 C 
HETATM   24  C1  UNL     1       2.442  -0.202  -1.994  1.00  0.00     0.012 C 
HETATM   25  C3  UNL     1       4.695   0.201  -1.158  1.00  0.00     0.008 C 
HETATM   26  C4  UNL     1       5.452  -0.027   0.130  1.00  0.00     0.020 C 
HETATM   27  C5  UNL     1       4.983   0.938   1.146  1.00  0.00     0.114 C 
HETATM   28  N1  UNL     1       3.919   1.789   0.779  1.00  0.00    -0.417 N 
HETATM   29  H11 UNL     1       3.698   2.552   1.419  1.00  0.00     0.153 HD
ENDBRANCH  21  22
ENDBRANCH  20  21
ENDBRANCH  19  20
ENDBRANCH   1  19
TORSDOF 4
