REMARK  8 active torsions:
REMARK  status: ('A' for Active; 'I' for Inactive)
REMARK    1  A    between atoms: O1_2  and  B1_3 
REMARK    2  A    between atoms: B1_3  and  C2_4 
REMARK    3  A    between atoms: C3_5  and  C4_6 
REMARK    4  A    between atoms: C4_6  and  C9_12 
REMARK    5  A    between atoms: C8_10  and  O2_11 
REMARK    6  A    between atoms: C10_15  and  S1_16 
REMARK    7  A    between atoms: S1_16  and  C11_17 
REMARK    8  A    between atoms: C11_17  and  C12_18 
ROOT
HETATM    1  C9  UNL     1      -1.606  -0.552  -0.263  1.00  0.00     0.204 A 
HETATM    2  N1  UNL     1      -1.460   0.744  -0.596  1.00  0.00    -0.120 NA
HETATM    3  N2  UNL     1      -0.436   0.909  -1.414  1.00  0.00    -0.114 NA
HETATM    4  C10 UNL     1       0.085  -0.313  -1.608  1.00  0.00     0.231 A 
HETATM    5  O3  UNL     1      -0.634  -1.147  -0.911  1.00  0.00    -0.263 OA
ENDROOT
BRANCH   1   6
HETATM    6  C4  UNL     1      -2.568  -1.250   0.597  1.00  0.00     0.031 C 
HETATM    7  C5  UNL     1      -2.958  -2.471   0.185  1.00  0.00     0.021 A 
HETATM    8  C6  UNL     1      -2.955  -3.580  -0.722  1.00  0.00    -0.014 A 
HETATM    9  C8  UNL     1      -3.738  -3.722   0.327  1.00  0.00     0.084 A 
HETATM   10  C7  UNL     1      -2.460  -4.209  -1.970  1.00  0.00     0.052 C 
BRANCH   6  11
HETATM   11  C3  UNL     1      -3.087  -0.683   1.831  1.00  0.00     0.003 C 
HETATM   12  C2  UNL     1      -2.799   0.474   2.342  1.00  0.00    -0.049 C 
BRANCH  12  13
HETATM   13  B1  UNL     1      -1.936   1.727   2.075  1.00  0.00     0.335 B 
HETATM   14  H4  UNL     1      -2.374   2.557   1.325  1.00  0.00     0.013 HD
BRANCH  13  15
HETATM   15  O1  UNL     1      -0.652   1.999   2.705  1.00  0.00    -0.456 OA
HETATM   16  C1  UNL     1      -0.527   3.395   2.811  1.00  0.00     0.173 C 
ENDBRANCH  13  15
ENDBRANCH  12  13
ENDBRANCH   6  11
BRANCH   9  17
HETATM   17  O2  UNL     1      -4.645  -4.292   1.213  1.00  0.00    -0.359 OA
HETATM   18  H10 UNL     1      -4.559  -5.216   1.608  1.00  0.00     0.217 HD
ENDBRANCH   9  17
ENDBRANCH   1   6
BRANCH   4  19
HETATM   19  S1  UNL     1       1.472  -0.828  -2.590  1.00  0.00    -0.078 SA
BRANCH  19  20
HETATM   20  C11 UNL     1       3.033  -0.811  -1.712  1.00  0.00     0.121 C 
BRANCH  20  21
HETATM   21  C12 UNL     1       3.486   0.546  -1.319  1.00  0.00    -0.049 A 
HETATM   22  C13 UNL     1       4.268   1.322  -2.146  1.00  0.00     0.008 A 
HETATM   23  C14 UNL     1       4.676   2.584  -1.744  1.00  0.00     0.001 A 
HETATM   24  C15 UNL     1       4.312   3.102  -0.504  1.00  0.00     0.000 A 
HETATM   25  C16 UNL     1       3.525   2.306   0.313  1.00  0.00     0.001 A 
HETATM   26  C17 UNL     1       3.108   1.041  -0.074  1.00  0.00     0.008 A 
ENDBRANCH  20  21
ENDBRANCH  19  20
ENDBRANCH   4  19
TORSDOF 8
