REMARK  6 active torsions:
REMARK  status: ('A' for Active; 'I' for Inactive)
REMARK    1  A    between atoms: O1_2  and  C2_3 
REMARK    2  A    between atoms: C4_5  and  S1_6 
REMARK    3  A    between atoms: C7_9  and  C8_10 
REMARK    4  A    between atoms: C9_13  and  S2_14 
REMARK    5  A    between atoms: S2_14  and  C10_15 
REMARK    6  A    between atoms: C10_15  and  C11_16 
ROOT
HETATM    1  C8  UNL     1      -0.626   0.198  -0.964  1.00  0.00     0.203 A 
HETATM    2  N1  UNL     1       0.142   1.269  -1.201  1.00  0.00    -0.120 NA
HETATM    3  N2  UNL     1       1.332   0.830  -1.540  1.00  0.00    -0.114 NA
HETATM    4  C9  UNL     1       1.293  -0.509  -1.510  1.00  0.00     0.231 A 
HETATM    5  O2  UNL     1       0.088  -0.883  -1.156  1.00  0.00    -0.263 OA
ENDROOT
BRANCH   1   6
HETATM    6  C7  UNL     1      -2.025   0.263  -0.559  1.00  0.00     0.023 A 
HETATM    7  C6  UNL     1      -2.677   1.452  -0.387  1.00  0.00     0.034 A 
HETATM    8  C4  UNL     1      -3.993   1.486  -0.005  1.00  0.00     0.003 A 
HETATM    9  C3  UNL     1      -4.689   0.294   0.214  1.00  0.00     0.055 A 
HETATM   10  C2  UNL     1      -4.045  -0.937   0.045  1.00  0.00     0.070 A 
HETATM   11  C17 UNL     1      -2.721  -0.910  -0.340  1.00  0.00     0.052 A 
BRANCH   8  12
HETATM   12  S1  UNL     1      -4.916   2.994   0.241  1.00  0.00    -0.134 SA
HETATM   13  C5  UNL     1      -3.921   4.460  -0.071  1.00  0.00     0.095 C 
ENDBRANCH   8  12
BRANCH  10  14
HETATM   14  O1  UNL     1      -4.798  -2.071   0.280  1.00  0.00    -0.356 OA
HETATM   15  C1  UNL     1      -4.372  -3.392   0.176  1.00  0.00     0.210 C 
ENDBRANCH  10  14
ENDBRANCH   1   6
BRANCH   4  16
HETATM   16  S2  UNL     1       2.476  -1.831  -1.835  1.00  0.00    -0.078 SA
BRANCH  16  17
HETATM   17  C10 UNL     1       3.369  -2.264  -0.322  1.00  0.00     0.121 C 
BRANCH  17  18
HETATM   18  C11 UNL     1       4.197  -1.081   0.038  1.00  0.00    -0.049 A 
HETATM   19  C12 UNL     1       5.482  -1.060  -0.507  1.00  0.00     0.008 A 
HETATM   20  C13 UNL     1       6.378  -0.031  -0.270  1.00  0.00     0.001 A 
HETATM   21  C14 UNL     1       5.979   1.024   0.546  1.00  0.00     0.000 A 
HETATM   22  C15 UNL     1       4.707   0.984   1.074  1.00  0.00     0.001 A 
HETATM   23  C16 UNL     1       3.801  -0.035   0.847  1.00  0.00     0.008 A 
ENDBRANCH  17  18
ENDBRANCH  16  17
ENDBRANCH   4  16
TORSDOF 6
