REMARK  3 active torsions:
REMARK  status: ('A' for Active; 'I' for Inactive)
REMARK    1  A    between atoms: O1_1  and  C1_2 
REMARK    2  A    between atoms: C6_7  and  C7_8 
REMARK    3  A    between atoms: N2_14  and  C12_15 
ROOT
HETATM    1  C7  UNL     1       2.152   0.226  -0.623  1.00  0.00     0.003 C 
HETATM    2  C8  UNL     1       1.945   0.395  -1.931  1.00  0.00     0.075 C 
HETATM    3  C9  UNL     1       0.699   0.497  -2.679  1.00  0.00    -0.023 C 
HETATM    4  C10 UNL     1      -0.666   0.557  -2.809  1.00  0.00    -0.014 C 
HETATM    5  C11 UNL     1      -1.278   0.512  -1.469  1.00  0.00     0.137 C 
HETATM    6  N1  UNL     1      -1.967  -0.699  -1.224  1.00  0.00    -0.234 NA
HETATM    7  N2  UNL     1      -2.272  -0.844   0.164  1.00  0.00    -0.309 N 
HETATM    8  C18 UNL     1      -1.164  -1.613   0.704  1.00  0.00     0.170 C 
HETATM    9  C19 UNL     1       0.159  -0.947   0.574  1.00  0.00    -0.009 C 
HETATM   10  C20 UNL     1       1.389  -0.341   0.548  1.00  0.00    -0.019 C 
HETATM   11  H11 UNL     1      -2.830  -0.834  -1.794  1.00  0.00     0.147 HD
ENDROOT
BRANCH   1  12
HETATM   12  C6  UNL     1       3.476   0.187  -0.100  1.00  0.00    -0.016 A 
HETATM   13  C1  UNL     1       4.024   0.167   1.146  1.00  0.00     0.072 A 
HETATM   14  C2  UNL     1       5.353   0.087   1.455  1.00  0.00     0.037 A 
HETATM   15  C3  UNL     1       6.293   0.018   0.464  1.00  0.00     0.003 A 
HETATM   16  C4  UNL     1       5.840   0.032  -0.832  1.00  0.00     0.001 A 
HETATM   17  C5  UNL     1       4.489   0.114  -1.071  1.00  0.00     0.011 A 
BRANCH  13  18
HETATM   18  O1  UNL     1       3.079   0.241   2.144  1.00  0.00    -0.360 OA
HETATM   19  H1  UNL     1       3.247   0.820   2.979  1.00  0.00     0.217 HD
ENDBRANCH  13  18
ENDBRANCH   1  12
BRANCH   7  20
HETATM   20  C12 UNL     1      -3.414  -0.346   0.849  1.00  0.00     0.047 A 
HETATM   21  C13 UNL     1      -3.661  -0.450   2.202  1.00  0.00     0.031 A 
HETATM   22  C14 UNL     1      -4.819   0.085   2.707  1.00  0.00     0.004 A 
HETATM   23  C15 UNL     1      -5.767   0.734   1.919  1.00  0.00     0.019 A 
HETATM   24  C16 UNL     1      -5.483   0.817   0.575  1.00  0.00     0.013 A 
HETATM   25 BR1  UNL     1      -6.807   1.714  -0.471  1.00  0.00    -0.051 Br
HETATM   26  C17 UNL     1      -4.328   0.290   0.036  1.00  0.00     0.049 A 
ENDBRANCH   7  20
TORSDOF 3
