REMARK  7 active torsions:
REMARK  status: ('A' for Active; 'I' for Inactive)
REMARK    1  A    between atoms: O1_2  and  C2_3 
REMARK    2  A    between atoms: C4_5  and  O2_6 
REMARK    3  A    between atoms: C7_9  and  C8_10 
REMARK    4  A    between atoms: C9_13  and  S1_14 
REMARK    5  A    between atoms: S1_14  and  C10_15 
REMARK    6  A    between atoms: C10_15  and  C11_16 
REMARK    7  A    between atoms: C16_22  and  N4_23 
ROOT
HETATM    1  C8  UNL     1      -0.992  -0.379   0.754  1.00  0.00     0.203 A 
HETATM    2  N1  UNL     1      -0.287  -1.498   0.898  1.00  0.00    -0.120 NA
HETATM    3  N2  UNL     1       0.909  -1.162   1.346  1.00  0.00    -0.114 NA
HETATM    4  C9  UNL     1       0.980   0.171   1.493  1.00  0.00     0.231 A 
HETATM    5  O3  UNL     1      -0.203   0.610   1.120  1.00  0.00    -0.263 OA
ENDROOT
BRANCH   4   6
HETATM    6  S1  UNL     1       2.019   1.569   1.985  1.00  0.00    -0.079 SA
BRANCH   6   7
HETATM    7  C10 UNL     1       2.930   2.174   0.546  1.00  0.00     0.111 C 
BRANCH   7   8
HETATM    8  C11 UNL     1       3.966   1.266   0.046  1.00  0.00    -0.003 C 
HETATM    9  C12 UNL     1       4.520   0.112   0.288  1.00  0.00    -0.009 C 
HETATM   10  C13 UNL     1       4.163  -0.775   1.380  1.00  0.00     0.047 C 
HETATM   11  C16 UNL     1       5.587  -0.384  -0.582  1.00  0.00     0.053 C 
HETATM   12  C14 UNL     1       4.466  -2.042   1.230  1.00  0.00     0.086 C 
HETATM   13  N3  UNL     1       5.656  -2.316   0.799  1.00  0.00    -0.257 NA
HETATM   14  C15 UNL     1       6.123  -1.555  -0.321  1.00  0.00     0.147 C 
BRANCH  11  15
HETATM   15  N4  UNL     1       6.041   0.395  -1.701  1.00  0.00    -0.397 N 
HETATM   16  H14 UNL     1       5.824   0.520  -2.724  1.00  0.00     0.156 HD
HETATM   17  H15 UNL     1       6.822   1.062  -1.511  1.00  0.00     0.156 HD
ENDBRANCH  11  15
ENDBRANCH   7   8
ENDBRANCH   6   7
ENDBRANCH   4   6
BRANCH   1  18
HETATM   18  C7  UNL     1      -2.387  -0.355   0.268  1.00  0.00     0.024 A 
HETATM   19  C6  UNL     1      -3.063  -1.483  -0.073  1.00  0.00     0.052 A 
HETATM   20  C4  UNL     1      -4.359  -1.321  -0.511  1.00  0.00     0.071 A 
HETATM   21  C3  UNL     1      -4.970  -0.075  -0.609  1.00  0.00     0.073 A 
HETATM   22  C2  UNL     1      -4.260   1.078  -0.254  1.00  0.00     0.071 A 
HETATM   23  C17 UNL     1      -2.965   0.895   0.182  1.00  0.00     0.052 A 
BRANCH  20  24
HETATM   24  O2  UNL     1      -5.154  -2.392  -0.889  1.00  0.00    -0.356 OA
HETATM   25  C5  UNL     1      -4.746  -3.743  -0.872  1.00  0.00     0.210 C 
ENDBRANCH  20  24
BRANCH  22  26
HETATM   26  O1  UNL     1      -4.925   2.289  -0.374  1.00  0.00    -0.356 OA
HETATM   27  C1  UNL     1      -4.387   3.547  -0.069  1.00  0.00     0.210 C 
ENDBRANCH  22  26
ENDBRANCH   1  18
TORSDOF 7
