REMARK  5 active torsions:
REMARK  status: ('A' for Active; 'I' for Inactive)
REMARK    1  A    between atoms: N1_1  and  C1_2 
REMARK    2  A    between atoms: C1_2  and  C2_3 
REMARK    3  A    between atoms: C2_3  and  C3_4 
REMARK    4  A    between atoms: C3_4  and  C4_5 
REMARK    5  A    between atoms: N4_14  and  C11_15 
ROOT
HETATM    1  C4  UNL     1      -0.011   0.981   0.504  1.00  0.00    -0.061 C 
HETATM    2  C5  UNL     1       0.111   1.712   1.641  1.00  0.00     0.006 C 
HETATM    3  C6  UNL     1       1.303   2.384   2.226  1.00  0.00     0.028 C 
HETATM    4  C7  UNL     1       2.470   2.622   1.656  1.00  0.00     0.043 C 
HETATM    5  C8  UNL     1       2.829   2.879   0.160  1.00  0.00     0.138 C 
HETATM    6  C9  UNL     1       3.047   1.355  -0.054  1.00  0.00     0.114 C 
HETATM    7  N2  UNL     1       4.231   1.059   0.419  1.00  0.00    -0.228 NA
HETATM    8  C10 UNL     1       4.598   1.679   1.729  1.00  0.00     0.235 C 
HETATM    9  N3  UNL     1       3.723   2.517   2.389  1.00  0.00    -0.246 NA
HETATM   10  N4  UNL     1       2.164   0.368  -0.530  1.00  0.00    -0.331 N 
HETATM   11  C17 UNL     1       0.723   0.319  -0.594  1.00  0.00     0.164 C 
ENDROOT
BRANCH   1  12
HETATM   12  C3  UNL     1      -1.455   0.790   0.304  1.00  0.00     0.041 C 
BRANCH  12  13
HETATM   13  C2  UNL     1      -1.921  -0.638   0.292  1.00  0.00     0.076 C 
BRANCH  13  14
HETATM   14  C1  UNL     1      -3.421  -0.718   0.099  1.00  0.00     0.260 C 
HETATM   15  C18 UNL     1      -3.831   0.007  -1.167  1.00  0.00     0.098 C 
HETATM   16  C19 UNL     1      -5.293  -0.349  -1.331  1.00  0.00    -0.024 C 
HETATM   17  C20 UNL     1      -5.999  -0.421  -0.205  1.00  0.00    -0.005 C 
HETATM   18  C21 UNL     1      -5.410  -0.172   1.139  1.00  0.00     0.198 C 
HETATM   19  O1  UNL     1      -4.055  -0.075   1.147  1.00  0.00    -0.349 OA
BRANCH  14  20
HETATM   20  N1  UNL     1      -3.833  -2.089   0.093  1.00  0.00     0.114 N 
HETATM   21  H1  UNL     1      -4.197  -2.415  -0.825  1.00  0.00     0.316 HD
HETATM   22  H2  UNL     1      -4.395  -2.378   0.911  1.00  0.00     0.316 HD
ENDBRANCH  14  20
ENDBRANCH  13  14
ENDBRANCH  12  13
ENDBRANCH   1  12
BRANCH  10  23
HETATM   23  C11 UNL     1       3.046  -0.656  -0.965  1.00  0.00     0.037 A 
HETATM   24  C12 UNL     1       4.237  -0.438  -1.566  1.00  0.00     0.030 A 
HETATM   25  C13 UNL     1       5.035  -1.483  -1.938  1.00  0.00     0.004 A 
HETATM   26  C14 UNL     1       4.704  -2.791  -1.740  1.00  0.00     0.019 A 
HETATM   27  C15 UNL     1       3.479  -3.039  -1.122  1.00  0.00     0.013 A 
HETATM   28 BR1  UNL     1       3.015  -4.867  -0.845  1.00  0.00    -0.051 Br
HETATM   29  C16 UNL     1       2.678  -1.955  -0.749  1.00  0.00     0.048 A 
ENDBRANCH  10  23
TORSDOF 5
