REMARK  6 active torsions:
REMARK  status: ('A' for Active; 'I' for Inactive)
REMARK    1  A    between atoms: O1_1  and  C1_2 
REMARK    2  A    between atoms: C6_7  and  C7_8 
REMARK    3  A    between atoms: C7_8  and  N1_9 
REMARK    4  A    between atoms: N1_9  and  C8_10 
REMARK    5  A    between atoms: C13_17  and  N4_18 
REMARK    6  A    between atoms: N4_18  and  C14_19 
ROOT
HETATM    1  C8  UNL     1       0.695   0.616  -0.365  1.00  0.00     0.029 A 
HETATM    2  C9  UNL     1       1.156   1.005   0.890  1.00  0.00     0.031 A 
HETATM    3  C10 UNL     1       0.377   1.057   2.025  1.00  0.00     0.035 A 
HETATM    4  C11 UNL     1      -0.952   0.702   1.927  1.00  0.00     0.072 A 
HETATM    5  N2  UNL     1      -1.788   0.724   2.992  1.00  0.00    -0.241 NA
HETATM    6  C12 UNL     1      -3.096   0.369   2.873  1.00  0.00     0.236 A 
HETATM    7  N3  UNL     1      -3.561  -0.011   1.659  1.00  0.00    -0.224 NA
HETATM    8  C13 UNL     1      -2.780  -0.052   0.573  1.00  0.00     0.142 A 
HETATM    9  C19 UNL     1      -1.474   0.306   0.708  1.00  0.00     0.041 A 
HETATM   10  C20 UNL     1      -0.646   0.279  -0.370  1.00  0.00     0.046 A 
ENDROOT
BRANCH   1  11
HETATM   11  N1  UNL     1       1.498   0.564  -1.532  1.00  0.00    -0.386 N 
HETATM   12  H8  UNL     1       1.023   0.262  -2.407  1.00  0.00     0.160 HD
BRANCH  11  13
HETATM   13  C7  UNL     1       2.883   0.895  -1.567  1.00  0.00     0.161 C 
BRANCH  13  14
HETATM   14  C6  UNL     1       3.755   0.022  -0.753  1.00  0.00    -0.007 A 
HETATM   15  C1  UNL     1       5.069   0.485  -0.794  1.00  0.00     0.073 A 
HETATM   16  C2  UNL     1       6.094  -0.160  -0.114  1.00  0.00     0.037 A 
HETATM   17  C3  UNL     1       5.823  -1.291   0.628  1.00  0.00     0.003 A 
HETATM   18  C4  UNL     1       4.518  -1.738   0.661  1.00  0.00     0.001 A 
HETATM   19  C5  UNL     1       3.489  -1.111  -0.008  1.00  0.00     0.011 A 
BRANCH  15  20
HETATM   20  O1  UNL     1       5.540   1.611  -1.490  1.00  0.00    -0.360 OA
HETATM   21  H1  UNL     1       5.270   1.647  -2.483  1.00  0.00     0.217 HD
ENDBRANCH  15  20
ENDBRANCH  13  14
ENDBRANCH  11  13
ENDBRANCH   1  11
BRANCH   8  22
HETATM   22  N4  UNL     1      -3.386  -0.466  -0.640  1.00  0.00    -0.339 N 
HETATM   23  H12 UNL     1      -2.983  -0.572  -1.586  1.00  0.00     0.167 HD
BRANCH  22  24
HETATM   24  C14 UNL     1      -4.753  -0.820  -0.706  1.00  0.00     0.046 C 
HETATM   25  C15 UNL     1      -5.415  -1.748  -1.381  1.00  0.00     0.004 C 
HETATM   26  C16 UNL     1      -6.585  -1.315  -1.825  1.00  0.00     0.033 C 
HETATM   27  C17 UNL     1      -6.982  -0.489  -0.664  1.00  0.00     0.014 C 
HETATM   28 BR1  UNL     1      -8.708   0.134  -0.078  1.00  0.00    -0.051 Br
HETATM   29  C18 UNL     1      -5.869  -0.183   0.025  1.00  0.00     0.049 C 
ENDBRANCH  22  24
ENDBRANCH   8  22
TORSDOF 6
