REMARK  8 active torsions:
REMARK  status: ('A' for Active; 'I' for Inactive)
REMARK    1  A    between atoms: O1_1  and  C1_2 
REMARK    2  A    between atoms: C6_7  and  C7_8 
REMARK    3  A    between atoms: C7_8  and  N1_9 
REMARK    4  A    between atoms: C8_10  and  C9_11 
REMARK    5  A    between atoms: C10_12  and  C11_13 
REMARK    6  A    between atoms: C13_17  and  C14_18 
REMARK    7  A    between atoms: C14_18  and  N4_19 
REMARK    8  A    between atoms: N4_19  and  C15_20 
ROOT
HETATM    1  C11 UNL     1       1.896   2.832   1.410  1.00  0.00     0.084 A 
HETATM    2  N2  UNL     1       2.154   4.207   1.001  1.00  0.00    -0.240 NA
HETATM    3  C12 UNL     1       3.167   4.615   1.661  1.00  0.00     0.234 A 
HETATM    4  N3  UNL     1       3.589   3.557   2.497  1.00  0.00    -0.242 NA
HETATM    5  C13 UNL     1       2.900   2.516   2.396  1.00  0.00     0.082 A 
ENDROOT
BRANCH   1   6
HETATM    6  C10 UNL     1       0.978   2.112   0.914  1.00  0.00     0.032 C 
HETATM    7  C9  UNL     1      -0.095   1.804   0.074  1.00  0.00     0.002 C 
BRANCH   7   8
HETATM    8  C8  UNL     1      -0.973   1.028  -0.334  1.00  0.00     0.126 C 
HETATM    9  N1  UNL     1      -2.000   0.754  -1.147  1.00  0.00    -0.408 N 
HETATM   10  H8  UNL     1      -1.760  -0.298  -1.038  1.00  0.00     0.154 HD
BRANCH   9  11
HETATM   11  C7  UNL     1      -3.108   1.156  -1.951  1.00  0.00     0.156 C 
BRANCH  11  12
HETATM   12  C6  UNL     1      -3.674  -0.097  -2.615  1.00  0.00    -0.008 A 
HETATM   13  C1  UNL     1      -2.802  -0.464  -3.543  1.00  0.00     0.073 A 
HETATM   14  C2  UNL     1      -3.341  -1.610  -4.179  1.00  0.00     0.037 A 
HETATM   15  C3  UNL     1      -4.595  -2.199  -3.829  1.00  0.00     0.003 A 
HETATM   16  C4  UNL     1      -5.302  -1.563  -2.776  1.00  0.00     0.001 A 
HETATM   17  C5  UNL     1      -4.861  -0.413  -2.068  1.00  0.00     0.011 A 
BRANCH  13  18
HETATM   18  O1  UNL     1      -1.590   0.061  -3.917  1.00  0.00    -0.360 OA
HETATM   19  H1  UNL     1      -1.352   1.028  -3.702  1.00  0.00     0.217 HD
ENDBRANCH  13  18
ENDBRANCH  11  12
ENDBRANCH   9  11
ENDBRANCH   7   8
ENDBRANCH   1   6
BRANCH   5  20
HETATM   20  C14 UNL     1       2.938   1.157   3.025  1.00  0.00     0.181 C 
BRANCH  20  21
HETATM   21  N4  UNL     1       2.999   0.186   1.935  1.00  0.00    -0.384 N 
HETATM   22  H15 UNL     1       3.202   0.623   0.981  1.00  0.00     0.160 HD
BRANCH  21  23
HETATM   23  C15 UNL     1       2.893  -1.225   1.615  1.00  0.00     0.029 A 
HETATM   24  C16 UNL     1       2.987  -1.921   0.464  1.00  0.00     0.029 A 
HETATM   25  C17 UNL     1       2.740  -3.245   0.624  1.00  0.00     0.004 A 
HETATM   26  C18 UNL     1       2.429  -3.925   1.726  1.00  0.00     0.019 A 
HETATM   27  C19 UNL     1       2.334  -3.193   2.970  1.00  0.00     0.013 A 
HETATM   28 BR1  UNL     1       1.889  -4.206   4.512  1.00  0.00    -0.051 Br
HETATM   29  C20 UNL     1       2.586  -1.803   2.855  1.00  0.00     0.048 A 
ENDBRANCH  21  23
ENDBRANCH  20  21
ENDBRANCH   5  20
TORSDOF 8
