REMARK  1 active torsions:
REMARK  status: ('A' for Active; 'I' for Inactive)
REMARK    1  A    between atoms: O1_2  and  C2_3 
ROOT
HETATM    1  C2  UNL     1       3.423  -0.225   0.273  1.00  0.00     0.097 A 
HETATM    2  C3  UNL     1       4.485   0.627  -0.054  1.00  0.00     0.039 A 
HETATM    3  C4  UNL     1       4.202   1.857  -0.610  1.00  0.00     0.003 A 
HETATM    4  C5  UNL     1       2.871   2.162  -0.806  1.00  0.00     0.012 A 
HETATM    5  C6  UNL     1       1.793   1.355  -0.499  1.00  0.00    -0.000 A 
HETATM    6  C7  UNL     1       2.099   0.102   0.067  1.00  0.00     0.098 A 
HETATM    7  N1  UNL     1       1.118  -0.795   0.408  1.00  0.00    -0.258 NA
HETATM    8  C8  UNL     1       0.966  -1.720   1.241  1.00  0.00     0.119 C 
HETATM    9  C9  UNL     1      -0.402  -2.232   0.981  1.00  0.00     0.048 C 
HETATM   10  C10 UNL     1      -1.204  -1.736   0.023  1.00  0.00     0.056 C 
HETATM   11  N2  UNL     1      -0.728  -0.705  -0.753  1.00  0.00    -0.247 NA
HETATM   12  C11 UNL     1      -0.216  -0.761  -1.906  1.00  0.00     0.203 C 
HETATM   13  N3  UNL     1      -0.148   0.676  -1.658  1.00  0.00    -0.372 N 
HETATM   14  C12 UNL     1       0.406   1.672  -0.692  1.00  0.00     0.141 C 
HETATM   15  C13 UNL     1      -0.059   2.942  -1.162  1.00  0.00     0.004 C 
HETATM   16  C14 UNL     1      -1.280   3.352  -0.844  1.00  0.00     0.017 C 
HETATM   17  C15 UNL     1      -2.518   3.058  -0.138  1.00  0.00     0.008 C 
HETATM   18 BR1  UNL     1      -3.851   4.466  -0.360  1.00  0.00    -0.051 Br
HETATM   19  C16 UNL     1      -2.879   1.989   0.629  1.00  0.00     0.013 C 
HETATM   20  C17 UNL     1      -2.768   0.695   1.327  1.00  0.00     0.162 C 
HETATM   21  N4  UNL     1      -3.600  -0.364   0.960  1.00  0.00    -0.352 N 
HETATM   22  N5  UNL     1      -3.482  -0.895  -0.293  1.00  0.00    -0.235 NA
HETATM   23  C18 UNL     1      -2.561  -2.046  -0.393  1.00  0.00     0.124 C 
HETATM   24  C19 UNL     1      -3.174  -3.200   0.376  1.00  0.00     0.034 C 
HETATM   25  H10 UNL     1      -0.699   1.059  -2.500  1.00  0.00     0.161 HD
HETATM   26  H17 UNL     1      -4.459  -0.548   1.484  1.00  0.00     0.174 HD
HETATM   27  H18 UNL     1      -4.351  -1.064  -0.804  1.00  0.00     0.146 HD
ENDROOT
BRANCH   1  28
HETATM   28  O1  UNL     1       3.717  -1.461   0.832  1.00  0.00    -0.354 OA
HETATM   29  C1  UNL     1       5.048  -1.851   1.066  1.00  0.00     0.210 C 
ENDBRANCH   1  28
TORSDOF 1
