REMARK  9 active torsions:
REMARK  status: ('A' for Active; 'I' for Inactive)
REMARK    1  A    between atoms: C2_2  and  C3_3 
REMARK    2  A    between atoms: C3_3  and  C4_5 
REMARK    3  A    between atoms: C4_5  and  C5_6 
REMARK    4  A    between atoms: C5_6  and  C6_7 
REMARK    5  A    between atoms: C5_6  and  N3_19 
REMARK    6  A    between atoms: C6_7  and  C7_8 
REMARK    7  A    between atoms: C7_8  and  C8_9 
REMARK    8  A    between atoms: N3_19  and  C16_20 
REMARK    9  A    between atoms: C21_25  and  O1_26 
ROOT
HETATM    1  C5  UNL     1      -0.666   1.041   0.601  1.00  0.00     0.076 C 
ENDROOT
BRANCH   1   2
HETATM    2  C4  UNL     1      -0.983   2.324   1.115  1.00  0.00     0.057 C 
BRANCH   2   3
HETATM    3  C3  UNL     1      -2.103   2.944   0.773  1.00  0.00     0.010 C 
HETATM    4 BR1  UNL     1      -2.587   4.666   1.428  1.00  0.00    -0.051 Br
BRANCH   3   5
HETATM    5  C2  UNL     1      -3.084   2.372  -0.141  1.00  0.00    -0.007 C 
HETATM    6  C1  UNL     1      -4.241   2.917  -0.547  1.00  0.00     0.032 C 
ENDBRANCH   3   5
ENDBRANCH   2   3
ENDBRANCH   1   2
BRANCH   1   7
HETATM    7  C6  UNL     1       0.473   0.470   0.978  1.00  0.00    -0.097 C 
BRANCH   7   8
HETATM    8  C7  UNL     1       1.748   0.167   1.169  1.00  0.00     0.090 C 
BRANCH   8   9
HETATM    9  C8  UNL     1       2.732   0.632   0.231  1.00  0.00     0.078 A 
HETATM   10  N1  UNL     1       2.634   1.818  -0.352  1.00  0.00    -0.241 NA
HETATM   11  C9  UNL     1       3.598   2.210  -1.236  1.00  0.00     0.234 A 
HETATM   12  N2  UNL     1       4.658   1.421  -1.539  1.00  0.00    -0.241 NA
HETATM   13  C10 UNL     1       4.748   0.218  -0.941  1.00  0.00     0.070 A 
HETATM   14  C11 UNL     1       5.805  -0.641  -1.202  1.00  0.00     0.032 A 
HETATM   15  C15 UNL     1       3.787  -0.213  -0.037  1.00  0.00     0.022 A 
HETATM   16  C12 UNL     1       5.904  -1.878  -0.591  1.00  0.00     0.002 A 
HETATM   17  C13 UNL     1       4.937  -2.307   0.315  1.00  0.00     0.001 A 
HETATM   18  C14 UNL     1       3.878  -1.461   0.585  1.00  0.00     0.016 A 
ENDBRANCH   8   9
ENDBRANCH   7   8
ENDBRANCH   1   7
BRANCH   1  19
HETATM   19  N3  UNL     1      -1.375   0.239  -0.274  1.00  0.00    -0.373 N 
HETATM   20  H11 UNL     1      -1.646   0.508  -1.244  1.00  0.00     0.161 HD
BRANCH  19  21
HETATM   21  C16 UNL     1      -1.786  -1.083   0.162  1.00  0.00     0.142 A 
HETATM   22  C17 UNL     1      -2.683  -1.022   1.372  1.00  0.00     0.059 A 
HETATM   23  C18 UNL     1      -3.919  -1.784   1.098  1.00  0.00    -0.024 A 
HETATM   24  C19 UNL     1      -4.417  -2.479   0.093  1.00  0.00    -0.001 A 
HETATM   25  C20 UNL     1      -3.545  -2.530  -1.070  1.00  0.00     0.034 A 
HETATM   26  C21 UNL     1      -2.419  -1.867  -0.890  1.00  0.00     0.066 A 
BRANCH  26  27
HETATM   27  O1  UNL     1      -1.519  -1.868  -1.971  1.00  0.00    -0.363 OA
HETATM   28  H18 UNL     1      -1.700  -1.226  -2.732  1.00  0.00     0.217 HD
ENDBRANCH  26  27
ENDBRANCH  19  21
ENDBRANCH   1  19
TORSDOF 9
