REMARK  3 active torsions:
REMARK  status: ('A' for Active; 'I' for Inactive)
REMARK    1  A    between atoms: C11_13  and  O1_14 
REMARK    2  A    between atoms: C17_22  and  C18_23 
REMARK    3  A    between atoms: C19_24  and  C20_25 
ROOT
HETATM    1  C1  UNL     1      -0.630  -3.824   0.738  1.00  0.00     0.033 C 
HETATM    2  C2  UNL     1      -0.093  -2.426   0.601  1.00  0.00     0.015 C 
HETATM    3  C3  UNL     1       0.713  -1.396   0.501  1.00  0.00     0.104 C 
HETATM    4  C4  UNL     1       2.183  -1.176   0.479  1.00  0.00    -0.010 C 
HETATM    5  C5  UNL     1       2.015   0.156   0.351  1.00  0.00    -0.043 C 
HETATM    6  C6  UNL     1       0.663   0.779   0.301  1.00  0.00     0.117 C 
HETATM    7  C7  UNL     1       0.736   2.258   0.391  1.00  0.00     0.109 C 
HETATM    8  N1  UNL     1      -0.406   2.825   0.073  1.00  0.00    -0.228 NA
HETATM    9  C8  UNL     1      -1.514   1.981  -0.299  1.00  0.00     0.235 C 
HETATM   10  N2  UNL     1      -1.982   1.231  -1.208  1.00  0.00    -0.241 NA
HETATM   11  C9  UNL     1      -3.230   0.556  -1.096  1.00  0.00     0.068 A 
HETATM   12  C10 UNL     1      -4.476   1.143  -1.148  1.00  0.00     0.068 A 
HETATM   13  C11 UNL     1      -5.643   0.436  -1.030  1.00  0.00     0.068 A 
HETATM   14  C12 UNL     1      -5.604  -0.931  -0.848  1.00  0.00     0.037 A 
HETATM   15  C13 UNL     1      -4.356  -1.488  -0.799  1.00  0.00     0.014 A 
HETATM   16  C14 UNL     1      -3.137  -0.808  -0.915  1.00  0.00    -0.012 A 
HETATM   17  C15 UNL     1      -1.882  -1.571  -0.843  1.00  0.00     0.155 C 
HETATM   18  N3  UNL     1      -1.331  -1.702   0.487  1.00  0.00    -0.412 N 
HETATM   19  N4  UNL     1       1.906   2.927   0.789  1.00  0.00    -0.353 N 
HETATM   20  C16 UNL     1       3.128   2.227   0.676  1.00  0.00     0.101 C 
HETATM   21  C17 UNL     1       3.204   1.008   0.222  1.00  0.00    -0.015 C 
HETATM   22  H15 UNL     1      -1.729  -1.334   1.379  1.00  0.00     0.153 HD
HETATM   23  H16 UNL     1       1.681   3.886   1.122  1.00  0.00     0.166 HD
ENDROOT
BRANCH  21  24
HETATM   24  C18 UNL     1       4.363   0.421  -0.412  1.00  0.00     0.010 C 
HETATM   25  C19 UNL     1       5.592   0.723  -0.761  1.00  0.00    -0.015 C 
BRANCH  25  26
HETATM   26  C20 UNL     1       6.481   1.892  -0.682  1.00  0.00     0.112 C 
HETATM   27 BR1  UNL     1       8.101   1.528   0.330  1.00  0.00    -0.092 Br
ENDBRANCH  25  26
ENDBRANCH  21  24
BRANCH  13  28
HETATM   28  O1  UNL     1      -6.867   1.071  -1.090  1.00  0.00    -0.361 OA
HETATM   29  H10 UNL     1      -7.382   1.356  -0.275  1.00  0.00     0.217 HD
ENDBRANCH  13  28
TORSDOF 3
