REMARK  6 active torsions:
REMARK  status: ('A' for Active; 'I' for Inactive)
REMARK    1  A    between atoms: C2_2  and  N1_7 
REMARK    2  A    between atoms: C3_3  and  C4_4 
REMARK    3  A    between atoms: C4_4  and  C5_5 
REMARK    4  A    between atoms: N1_7  and  C6_8 
REMARK    5  A    between atoms: C6_8  and  C7_9 
REMARK    6  A    between atoms: C16_19  and  O1_20 
ROOT
HETATM    1  C7  UNL     1      -0.143   0.137  -1.464  1.00  0.00     0.078 A 
HETATM    2  C8  UNL     1      -1.514  -0.022  -1.915  1.00  0.00     0.031 A 
HETATM    3  C9  UNL     1      -1.861   1.289  -2.352  1.00  0.00     0.023 A 
HETATM    4  C10 UNL     1      -1.193   2.540  -2.420  1.00  0.00     0.010 A 
HETATM    5  C11 UNL     1       0.143   2.846  -2.022  1.00  0.00     0.048 A 
HETATM    6  C12 UNL     1       0.117   1.514  -1.709  1.00  0.00     0.076 A 
HETATM    7  N2  UNL     1      -0.901   1.187  -0.697  1.00  0.00    -0.261 NA
HETATM    8  C13 UNL     1      -1.198   1.897   0.295  1.00  0.00     0.074 C 
HETATM    9  C14 UNL     1      -2.186   0.838   0.603  1.00  0.00    -0.015 A 
HETATM   10  C15 UNL     1      -2.110  -0.115   1.590  1.00  0.00     0.049 A 
HETATM   11  C16 UNL     1      -3.021  -1.110   1.876  1.00  0.00     0.066 A 
HETATM   12  C17 UNL     1      -4.136  -1.140   1.067  1.00  0.00     0.037 A 
HETATM   13  C18 UNL     1      -4.279  -0.213   0.057  1.00  0.00     0.012 A 
HETATM   14  C19 UNL     1      -3.348   0.794  -0.225  1.00  0.00    -0.029 A 
HETATM   15  C20 UNL     1      -3.747   1.663  -1.351  1.00  0.00     0.159 C 
HETATM   16  N3  UNL     1      -3.241   1.245  -2.648  1.00  0.00    -0.386 N 
HETATM   17  H22 UNL     1      -3.697   0.980  -3.555  1.00  0.00     0.160 HD
ENDROOT
BRANCH   1  18
HETATM   18  C6  UNL     1       1.028  -0.640  -0.887  1.00  0.00     0.151 C 
BRANCH  18  19
HETATM   19  N1  UNL     1       1.245  -0.375   0.494  1.00  0.00    -0.391 N 
HETATM   20  H9  UNL     1       1.041   0.073   1.407  1.00  0.00     0.159 HD
BRANCH  19  21
HETATM   21  C2  UNL     1       2.384  -1.166   0.844  1.00  0.00    -0.003 C 
HETATM   22  C1  UNL     1       2.621  -2.525   1.431  1.00  0.00     0.067 C 
HETATM   23  C3  UNL     1       3.544  -0.539   0.579  1.00  0.00    -0.002 C 
BRANCH  23  24
HETATM   24  C4  UNL     1       4.950  -0.970   0.770  1.00  0.00     0.040 C 
BRANCH  24  25
HETATM   25  C5  UNL     1       5.717  -0.055   1.689  1.00  0.00     0.089 C 
HETATM   26 BR1  UNL     1       7.528  -0.781   1.809  1.00  0.00    -0.096 Br
ENDBRANCH  24  25
ENDBRANCH  23  24
ENDBRANCH  19  21
ENDBRANCH  18  19
ENDBRANCH   1  18
BRANCH  11  27
HETATM   27  O1  UNL     1      -2.749  -1.974   2.922  1.00  0.00    -0.361 OA
HETATM   28  H17 UNL     1      -3.293  -2.827   2.954  1.00  0.00     0.217 HD
ENDBRANCH  11  27
TORSDOF 6
