REMARK  9 active torsions:
REMARK  status: ('A' for Active; 'I' for Inactive)
REMARK    1  A    between atoms: C2_2  and  C3_3 
REMARK    2  A    between atoms: C3_3  and  C4_4 
REMARK    3  A    between atoms: C4_4  and  C5_5 
REMARK    4  A    between atoms: C5_5  and  C6_6 
REMARK    5  A    between atoms: C5_5  and  O1_25 
REMARK    6  A    between atoms: C6_6  and  N1_7 
REMARK    7  A    between atoms: N1_7  and  C7_8 
REMARK    8  A    between atoms: C11_14  and  N4_15 
REMARK    9  A    between atoms: N4_15  and  C12_16 
ROOT
HETATM    1  C7  UNL     1      -0.138  -1.284   0.602  1.00  0.00     0.269 A 
HETATM    2  C8  UNL     1      -0.322  -2.156  -0.580  1.00  0.00     0.045 A 
HETATM    3  C9  UNL     1       0.621  -1.988  -1.501  1.00  0.00     0.070 A 
HETATM    4  N2  UNL     1       0.961  -2.466  -2.711  1.00  0.00    -0.241 NA
HETATM    5  C10 UNL     1       2.035  -2.049  -3.396  1.00  0.00     0.235 A 
HETATM    6  N3  UNL     1       2.879  -1.095  -2.915  1.00  0.00    -0.224 NA
HETATM    7  C11 UNL     1       2.642  -0.530  -1.694  1.00  0.00     0.141 A 
HETATM    8  C18 UNL     1       1.503  -1.008  -1.024  1.00  0.00     0.037 A 
HETATM    9  C19 UNL     1       1.121  -0.573   0.168  1.00  0.00     0.030 A 
ENDROOT
BRANCH   1  10
HETATM   10  N1  UNL     1      -1.209  -0.322   0.781  1.00  0.00     0.099 N 
HETATM   11  H7  UNL     1      -1.042   0.067   1.759  1.00  0.00     0.317 HD
BRANCH  10  12
HETATM   12  C6  UNL     1      -2.444  -1.063   0.886  1.00  0.00     0.326 C 
BRANCH  12  13
HETATM   13  C5  UNL     1      -3.613  -0.162   1.062  1.00  0.00     0.193 C 
BRANCH  13  14
HETATM   14  C4  UNL     1      -4.677   0.005   0.338  1.00  0.00    -0.061 C 
BRANCH  14  15
HETATM   15  C3  UNL     1      -5.606  -0.025  -0.572  1.00  0.00    -0.098 C 
BRANCH  15  16
HETATM   16  C2  UNL     1      -6.593   0.193  -1.388  1.00  0.00     0.076 C 
HETATM   17  C1  UNL     1      -7.798   0.957  -0.946  1.00  0.00     0.025 C 
ENDBRANCH  15  16
ENDBRANCH  14  15
ENDBRANCH  13  14
BRANCH  13  18
HETATM   18  O1  UNL     1      -3.643   0.681   2.174  1.00  0.00    -0.366 OA
HETATM   19  C20 UNL     1      -3.610   2.074   1.904  1.00  0.00     0.204 C 
ENDBRANCH  13  18
ENDBRANCH  12  13
ENDBRANCH  10  12
ENDBRANCH   1  10
BRANCH   7  20
HETATM   20  N4  UNL     1       3.467   0.467  -1.151  1.00  0.00    -0.340 N 
HETATM   21  H11 UNL     1       2.833   1.251  -1.399  1.00  0.00     0.167 HD
BRANCH  20  22
HETATM   22  C12 UNL     1       4.713   0.569  -0.490  1.00  0.00     0.035 A 
HETATM   23  C13 UNL     1       5.552  -0.521  -0.415  1.00  0.00     0.029 A 
HETATM   24  C14 UNL     1       6.765  -0.343   0.264  1.00  0.00     0.004 A 
HETATM   25  C15 UNL     1       7.038   0.894   0.808  1.00  0.00     0.019 A 
HETATM   26  C16 UNL     1       6.180   1.971   0.720  1.00  0.00     0.013 A 
HETATM   27 BR1  UNL     1       6.611   3.661   1.497  1.00  0.00    -0.051 Br
HETATM   28  C17 UNL     1       4.964   1.814   0.046  1.00  0.00     0.048 A 
ENDBRANCH  20  22
ENDBRANCH   7  20
TORSDOF 9
