REMARK  4 active torsions:
REMARK  status: ('A' for Active; 'I' for Inactive)
REMARK    1  A    between atoms: O1_1  and  C1_2 
REMARK    2  A    between atoms: C4_5  and  C5_6 
REMARK    3  A    between atoms: C5_6  and  N1_7 
REMARK    4  A    between atoms: N1_7  and  C6_8 
ROOT
HETATM    1  C6  UNL     1       0.195   0.373   0.864  1.00  0.00     0.009 C 
HETATM    2  C7  UNL     1      -0.091   1.134   1.993  1.00  0.00     0.027 C 
HETATM    3  C8  UNL     1      -1.456   1.457   2.500  1.00  0.00     0.032 C 
HETATM    4  C9  UNL     1      -2.782   1.313   2.336  1.00  0.00     0.063 A 
HETATM    5  N2  UNL     1      -3.469   2.030   3.375  1.00  0.00    -0.244 NA
HETATM    6  C10 UNL     1      -4.706   2.104   3.562  1.00  0.00     0.232 A 
HETATM    7  N3  UNL     1      -5.538   1.405   2.649  1.00  0.00    -0.256 NA
HETATM    8  C11 UNL     1      -4.987   0.734   1.684  1.00  0.00     0.122 A 
HETATM    9  C12 UNL     1      -3.549   0.562   1.350  1.00  0.00     0.174 A 
HETATM   10  N4  UNL     1      -3.439   0.901  -0.050  1.00  0.00    -0.375 N 
HETATM   11  C13 UNL     1      -2.911   0.232  -1.231  1.00  0.00     0.036 A 
HETATM   12  C14 UNL     1      -3.528   0.030  -2.398  1.00  0.00     0.048 A 
HETATM   13  C15 UNL     1      -2.856  -0.615  -3.408  1.00  0.00     0.013 A 
HETATM   14 BR1  UNL     1      -3.784  -0.871  -5.043  1.00  0.00    -0.051 Br
HETATM   15  C16 UNL     1      -1.570  -1.086  -3.328  1.00  0.00     0.020 A 
HETATM   16  C17 UNL     1      -0.923  -0.880  -2.117  1.00  0.00     0.011 A 
HETATM   17  C18 UNL     1      -1.558  -0.246  -1.099  1.00  0.00    -0.026 A 
HETATM   18  C19 UNL     1      -0.864  -0.066   0.110  1.00  0.00     0.097 C 
HETATM   19  H12 UNL     1      -3.781   1.807  -0.441  1.00  0.00     0.160 HD
ENDROOT
BRANCH   1  20
HETATM   20  N1  UNL     1       1.507   0.083   0.420  1.00  0.00    -0.389 N 
HETATM   21  H6  UNL     1       1.957   0.982   0.135  1.00  0.00     0.159 HD
BRANCH  20  22
HETATM   22  C5  UNL     1       2.185  -1.181   0.340  1.00  0.00     0.158 C 
BRANCH  22  23
HETATM   23  C4  UNL     1       3.588  -1.008  -0.154  1.00  0.00    -0.040 A 
HETATM   24  C3  UNL     1       4.644  -0.803   0.731  1.00  0.00     0.011 A 
HETATM   25  C2  UNL     1       5.930  -0.643   0.278  1.00  0.00     0.037 A 
HETATM   26  C1  UNL     1       6.238  -0.679  -1.080  1.00  0.00     0.065 A 
HETATM   27  C21 UNL     1       5.172  -0.885  -1.964  1.00  0.00     0.037 A 
HETATM   28  C20 UNL     1       3.890  -1.044  -1.512  1.00  0.00     0.011 A 
BRANCH  26  29
HETATM   29  O1  UNL     1       7.574  -0.501  -1.351  1.00  0.00    -0.361 OA
HETATM   30  H1  UNL     1       8.281  -0.989  -0.812  1.00  0.00     0.217 HD
ENDBRANCH  26  29
ENDBRANCH  22  23
ENDBRANCH  20  22
ENDBRANCH   1  20
TORSDOF 4
