REMARK  8 active torsions:
REMARK  status: ('A' for Active; 'I' for Inactive)
REMARK    1  A    between atoms: B1_1  and  C1_2 
REMARK    2  A    between atoms: C2_4  and  C3_5 
REMARK    3  A    between atoms: C3_5  and  N1_6 
REMARK    4  A    between atoms: N1_6  and  C4_7 
REMARK    5  A    between atoms: C6_11  and  C7_12 
REMARK    6  A    between atoms: C10_15  and  C11_16 
REMARK    7  A    between atoms: C11_16  and  O1_17 
REMARK    8  A    between atoms: O1_17  and  C12_18 
ROOT
HETATM    1  C4  UNL     1       2.314   0.617   2.092  1.00  0.00     0.135 A 
HETATM    2  N2  UNL     1       2.534   1.124   3.303  1.00  0.00    -0.224 NA
HETATM    3  C5  UNL     1       2.072   2.227   3.844  1.00  0.00     0.235 A 
HETATM    4  N3  UNL     1       1.288   2.874   3.022  1.00  0.00    -0.241 NA
HETATM    5  C6  UNL     1       0.949   2.533   1.786  1.00  0.00     0.070 A 
HETATM    6  C10 UNL     1       1.476   1.365   1.301  1.00  0.00     0.040 A 
ENDROOT
BRANCH   1   7
HETATM    7  N1  UNL     1       2.921  -0.577   1.533  1.00  0.00    -0.371 N 
HETATM    8  H6  UNL     1       3.417  -0.848   2.454  1.00  0.00     0.161 HD
BRANCH   7   9
HETATM    9  C3  UNL     1       3.509  -1.731   0.993  1.00  0.00     0.149 C 
BRANCH   9  10
HETATM   10  C2  UNL     1       3.260  -1.939  -0.490  1.00  0.00    -0.002 C 
HETATM   11  C1  UNL     1       2.662  -3.030  -1.014  1.00  0.00    -0.044 C 
HETATM   12 CL1  UNL     1       2.604  -2.842  -2.776  1.00  0.00    -0.103 Cl
BRANCH  11  13
HETATM   13  B1  UNL     1       2.254  -4.058   0.075  1.00  0.00     0.189 B 
HETATM   14  H1  UNL     1       1.203  -4.574   0.043  1.00  0.00    -0.025 HD
HETATM   15  H2  UNL     1       3.114  -4.638   0.638  1.00  0.00    -0.025 HD
ENDBRANCH  11  13
ENDBRANCH   9  10
ENDBRANCH   7   9
ENDBRANCH   1   7
BRANCH   6  16
HETATM   16  C11 UNL     1       1.010   0.975  -0.076  1.00  0.00     0.213 C 
BRANCH  16  17
HETATM   17  O1  UNL     1      -0.041   0.076   0.009  1.00  0.00    -0.381 OA
BRANCH  17  18
HETATM   18  C12 UNL     1      -0.579  -0.337  -1.195  1.00  0.00     0.125 C 
HETATM   19  C13 UNL     1      -0.667  -1.835  -1.278  1.00  0.00     0.062 C 
HETATM   20  C14 UNL     1      -2.067  -2.361  -1.285  1.00  0.00     0.274 C 
HETATM   21  N4  UNL     1      -2.998  -1.708  -0.447  1.00  0.00     0.084 N 
HETATM   22  C15 UNL     1      -4.350  -1.975  -0.841  1.00  0.00     0.309 C 
HETATM   23  C16 UNL     1      -2.732  -0.351  -0.095  1.00  0.00     0.274 C 
HETATM   24  C17 UNL     1      -1.977   0.286  -1.249  1.00  0.00     0.062 C 
ENDBRANCH  17  18
ENDBRANCH  16  17
ENDBRANCH   6  16
BRANCH   5  25
HETATM   25  C7  UNL     1       0.060   3.472   1.133  1.00  0.00     0.028 C 
HETATM   26  C8  UNL     1      -0.659   3.881   0.105  1.00  0.00    -0.029 C 
HETATM   27  C9  UNL     1      -1.535   5.083  -0.144  1.00  0.00     0.036 C 
ENDBRANCH   5  25
TORSDOF 8
