REMARK  5 active torsions:
REMARK  status: ('A' for Active; 'I' for Inactive)
REMARK    1  A    between atoms: N1_5  and  C5_6 
REMARK    2  A    between atoms: C10_13  and  N4_14 
REMARK    3  A    between atoms: N4_14  and  C11_15 
REMARK    4  A    between atoms: C11_15  and  C12_16 
REMARK    5  A    between atoms: C15_19  and  O1_20 
ROOT
HETATM    1  C5  UNL     1      -2.045  -1.394  -0.125  1.00  0.00     0.140 A 
HETATM    2  N2  UNL     1      -2.906  -2.444  -0.087  1.00  0.00    -0.224 NA
HETATM    3  C6  UNL     1      -2.563  -3.691   0.227  1.00  0.00     0.236 A 
HETATM    4  N3  UNL     1      -1.292  -3.978   0.534  1.00  0.00    -0.241 NA
HETATM    5  C7  UNL     1      -0.347  -3.030   0.531  1.00  0.00     0.072 A 
HETATM    6  C8  UNL     1       0.976  -3.233   0.818  1.00  0.00     0.035 A 
HETATM    7  C9  UNL     1       1.931  -2.225   0.791  1.00  0.00     0.031 A 
HETATM    8  C10 UNL     1       1.494  -0.940   0.449  1.00  0.00     0.029 A 
HETATM    9  C17 UNL     1       0.161  -0.760   0.165  1.00  0.00     0.046 A 
HETATM   10  C18 UNL     1      -0.768  -1.771   0.199  1.00  0.00     0.041 A 
ENDROOT
BRANCH   8  11
HETATM   11  N4  UNL     1       2.468   0.106   0.417  1.00  0.00    -0.389 N 
HETATM   12  H10 UNL     1       2.133   1.061   0.161  1.00  0.00     0.159 HD
BRANCH  11  13
HETATM   13  C11 UNL     1       3.826  -0.216   0.734  1.00  0.00     0.132 C 
BRANCH  13  14
HETATM   14  C12 UNL     1       4.653   1.038   0.633  1.00  0.00     0.051 A 
HETATM   15  C13 UNL     1       4.521   1.520  -0.786  1.00  0.00    -0.014 A 
HETATM   16  C14 UNL     1       5.709   1.501  -1.378  1.00  0.00     0.033 A 
HETATM   17  C15 UNL     1       6.737   1.015  -0.439  1.00  0.00     0.062 A 
HETATM   18  C16 UNL     1       6.111   0.761   0.689  1.00  0.00     0.020 A 
BRANCH  17  19
HETATM   19  O1  UNL     1       8.096   0.850  -0.671  1.00  0.00    -0.361 OA
HETATM   20  H16 UNL     1       8.802   1.531  -0.413  1.00  0.00     0.217 HD
ENDBRANCH  17  19
ENDBRANCH  13  14
ENDBRANCH  11  13
ENDBRANCH   8  11
BRANCH   1  21
HETATM   21  N1  UNL     1      -2.623  -0.129  -0.418  1.00  0.00    -0.357 N 
HETATM   22  C4  UNL     1      -3.816  -0.167  -1.296  1.00  0.00     0.152 C 
HETATM   23  C3  UNL     1      -4.959  -0.212  -0.341  1.00  0.00    -0.005 C 
HETATM   24  C2  UNL     1      -4.840   0.847   0.422  1.00  0.00    -0.084 C 
HETATM   25  C1  UNL     1      -5.902   1.001   1.471  1.00  0.00     0.043 C 
HETATM   26  C21 UNL     1      -3.765   1.870   0.323  1.00  0.00     0.058 C 
HETATM   27  C19 UNL     1      -2.420   1.265  -0.067  1.00  0.00     0.086 C 
HETATM   28  C20 UNL     1      -1.954   1.981  -1.316  1.00  0.00     0.032 C 
ENDBRANCH   1  21
TORSDOF 5
