REMARK  4 active torsions:
REMARK  status: ('A' for Active; 'I' for Inactive)
REMARK    1  A    between atoms: O1_1  and  C1_2 
REMARK    2  A    between atoms: C4_5  and  C5_6 
REMARK    3  A    between atoms: C5_6  and  N1_7 
REMARK    4  A    between atoms: N1_7  and  C6_8 
ROOT
HETATM    1  C6  UNL     1       0.206  -0.663   0.589  1.00  0.00     0.030 A 
HETATM    2  C7  UNL     1       0.416   0.441   1.391  1.00  0.00     0.031 A 
HETATM    3  C8  UNL     1      -0.514   1.439   1.603  1.00  0.00     0.036 A 
HETATM    4  C9  UNL     1      -1.725   1.361   0.997  1.00  0.00     0.085 A 
HETATM    5  C10 UNL     1      -1.937   0.256   0.191  1.00  0.00     0.070 A 
HETATM    6  C11 UNL     1      -1.034  -0.792  -0.063  1.00  0.00     0.061 A 
HETATM    7  N2  UNL     1      -3.047  -0.180  -0.631  1.00  0.00    -0.317 N 
HETATM    8  C12 UNL     1      -2.474  -0.930  -1.739  1.00  0.00     0.110 C 
HETATM    9  C13 UNL     1      -3.422  -1.802  -2.109  1.00  0.00    -0.007 C 
HETATM   10  C14 UNL     1      -4.596  -1.284  -2.485  1.00  0.00     0.035 C 
HETATM   11  C15 UNL     1      -5.256  -0.529  -1.394  1.00  0.00     0.040 C 
HETATM   12 BR1  UNL     1      -7.115  -0.233  -1.135  1.00  0.00    -0.049 Br
HETATM   13  C16 UNL     1      -4.468   0.027  -0.457  1.00  0.00     0.074 C 
HETATM   14  C17 UNL     1      -5.303   0.738   0.510  1.00  0.00     0.149 C 
HETATM   15  N3  UNL     1      -5.032   1.776   1.266  1.00  0.00    -0.252 NA
HETATM   16  C18 UNL     1      -3.862   2.585   1.432  1.00  0.00     0.233 C 
HETATM   17  N4  UNL     1      -2.571   2.454   1.335  1.00  0.00    -0.240 NA
ENDROOT
BRANCH   1  18
HETATM   18  N1  UNL     1       1.204  -1.635   0.416  1.00  0.00    -0.386 N 
HETATM   19  H6  UNL     1       0.901  -2.440  -0.213  1.00  0.00     0.160 HD
BRANCH  18  20
HETATM   20  C5  UNL     1       2.540  -1.821   0.872  1.00  0.00     0.158 C 
BRANCH  20  21
HETATM   21  C4  UNL     1       3.528  -0.839   0.386  1.00  0.00    -0.040 A 
HETATM   22  C3  UNL     1       4.029  -1.178  -0.869  1.00  0.00     0.011 A 
HETATM   23  C2  UNL     1       4.973  -0.440  -1.548  1.00  0.00     0.037 A 
HETATM   24  C1  UNL     1       5.477   0.712  -0.980  1.00  0.00     0.065 A 
HETATM   25  C20 UNL     1       4.991   1.060   0.262  1.00  0.00     0.037 A 
HETATM   26  C19 UNL     1       4.050   0.313   0.925  1.00  0.00     0.011 A 
BRANCH  24  27
HETATM   27  O1  UNL     1       6.422   1.574  -1.508  1.00  0.00    -0.361 OA
HETATM   28  H1  UNL     1       7.390   1.511  -1.239  1.00  0.00     0.217 HD
ENDBRANCH  24  27
ENDBRANCH  20  21
ENDBRANCH  18  20
ENDBRANCH   1  18
TORSDOF 4
