REMARK  3 active torsions:
REMARK  status: ('A' for Active; 'I' for Inactive)
REMARK    1  A    between atoms: N1_1  and  C1_2 
REMARK    2  A    between atoms: C4_5  and  N2_6 
REMARK    3  A    between atoms: N2_6  and  C5_7 
ROOT
HETATM    1  C1  UNL     1      -0.862   1.401   1.344  1.00  0.00     0.246 C 
HETATM    2  C2  UNL     1       0.105   0.527   0.723  1.00  0.00     0.025 C 
HETATM    3  C3  UNL     1       0.613  -0.607   0.207  1.00  0.00     0.033 A 
HETATM    4  C4  UNL     1       1.927  -0.434  -0.257  1.00  0.00     0.137 A 
HETATM    5  N3  UNL     1       2.594  -1.469  -0.784  1.00  0.00    -0.224 NA
HETATM    6  C10 UNL     1       2.063  -2.671  -0.890  1.00  0.00     0.235 A 
HETATM    7  N4  UNL     1       0.839  -2.818  -0.455  1.00  0.00    -0.245 NA
HETATM    8  C11 UNL     1       0.056  -1.875   0.092  1.00  0.00     0.055 A 
HETATM    9  C12 UNL     1      -1.196  -1.768   0.595  1.00  0.00     0.082 C 
HETATM   10  C13 UNL     1      -2.144  -2.928   0.661  1.00  0.00     0.075 C 
HETATM   11  C14 UNL     1      -3.392  -2.932   1.128  1.00  0.00     0.107 C 
HETATM   12  O1  UNL     1      -3.456  -1.610   1.478  1.00  0.00    -0.350 OA
HETATM   13  C15 UNL     1      -3.616  -0.677   0.422  1.00  0.00     0.075 A 
HETATM   14  C16 UNL     1      -4.412  -1.081  -0.657  1.00  0.00     0.037 A 
HETATM   15  C17 UNL     1      -4.663  -0.287  -1.757  1.00  0.00     0.003 A 
HETATM   16  C18 UNL     1      -4.071   0.962  -1.738  1.00  0.00     0.001 A 
HETATM   17  C19 UNL     1      -3.291   1.348  -0.673  1.00  0.00     0.010 A 
HETATM   18  C20 UNL     1      -3.040   0.569   0.415  1.00  0.00    -0.022 A 
HETATM   19  C21 UNL     1      -2.244   0.857   1.592  1.00  0.00     0.080 C 
ENDROOT
BRANCH   4  20
HETATM   20  N2  UNL     1       2.738   0.733  -0.274  1.00  0.00    -0.363 N 
HETATM   21  H5  UNL     1       2.521   1.683   0.048  1.00  0.00     0.162 HD
BRANCH  20  22
HETATM   22  C5  UNL     1       4.092   0.791  -0.779  1.00  0.00     0.131 A 
HETATM   23  C6  UNL     1       4.703   2.110  -0.680  1.00  0.00     0.003 A 
HETATM   24  C7  UNL     1       5.822   2.107   0.059  1.00  0.00     0.017 A 
HETATM   25  C8  UNL     1       6.017   0.729   0.505  1.00  0.00     0.009 A 
HETATM   26 BR1  UNL     1       7.463   0.124   1.599  1.00  0.00    -0.051 Br
HETATM   27  C9  UNL     1       5.041  -0.039   0.038  1.00  0.00     0.021 A 
ENDBRANCH  20  22
ENDBRANCH   4  20
BRANCH   1  28
HETATM   28  N1  UNL     1      -0.961   2.689   0.649  1.00  0.00     0.086 N 
HETATM   29  H1  UNL     1      -1.259   3.408   1.334  1.00  0.00     0.313 HD
HETATM   30  H2  UNL     1      -0.041   2.849   0.204  1.00  0.00     0.313 HD
ENDBRANCH   1  28
TORSDOF 3
