REMARK  2 active torsions:
REMARK  status: ('A' for Active; 'I' for Inactive)
REMARK    1  A    between atoms: C10_13  and  N2_14 
REMARK    2  A    between atoms: N2_14  and  C11_15 
ROOT
HETATM    1  F1  UNL     1       2.324   3.580   3.535  1.00  0.00    -0.213 F 
HETATM    2  C1  UNL     1       2.024   2.543   2.737  1.00  0.00     0.099 C 
HETATM    3  C2  UNL     1       3.160   1.908   3.094  1.00  0.00     0.083 C 
HETATM    4  C3  UNL     1       3.860   0.648   2.809  1.00  0.00     0.002 C 
HETATM    5  C4  UNL     1       4.119  -0.557   2.275  1.00  0.00     0.082 C 
HETATM    6  N1  UNL     1       3.374  -1.348   1.342  1.00  0.00    -0.390 N 
HETATM    7  C5  UNL     1       3.395  -0.867  -0.024  1.00  0.00     0.124 C 
HETATM    8  C6  UNL     1       2.037  -0.172  -0.325  1.00  0.00     0.051 C 
HETATM    9  C7  UNL     1       1.098  -0.741   0.677  1.00  0.00     0.127 C 
HETATM   10  C8  UNL     1       1.190  -2.245   0.607  1.00  0.00     0.051 C 
HETATM   11  C9  UNL     1       2.528  -2.564   1.341  1.00  0.00     0.124 C 
HETATM   12  O1  UNL     1      -0.109  -0.171   0.870  1.00  0.00    -0.361 OA
HETATM   13  C10 UNL     1      -0.373   0.963   0.172  1.00  0.00     0.229 C 
HETATM   14  C19 UNL     1      -0.171   2.205   1.080  1.00  0.00     0.138 C 
HETATM   15  C20 UNL     1       0.726   2.694   1.975  1.00  0.00     0.079 C 
HETATM   16 CL1  UNL     1      -0.203   4.145   2.269  1.00  0.00    -0.117 Cl
ENDROOT
BRANCH  13  17
HETATM   17  N2  UNL     1      -1.685   1.137  -0.348  1.00  0.00    -0.347 N 
HETATM   18  H14 UNL     1      -2.296   1.933  -0.091  1.00  0.00     0.163 HD
BRANCH  17  19
HETATM   19  C11 UNL     1      -2.048   0.102  -1.248  1.00  0.00     0.139 A 
HETATM   20  N3  UNL     1      -1.277  -0.937  -1.598  1.00  0.00    -0.224 NA
HETATM   21  C12 UNL     1      -1.662  -1.891  -2.452  1.00  0.00     0.235 A 
HETATM   22  N4  UNL     1      -2.876  -1.854  -3.019  1.00  0.00    -0.241 NA
HETATM   23  C13 UNL     1      -3.697  -0.832  -2.706  1.00  0.00     0.072 A 
HETATM   24  C14 UNL     1      -4.930  -0.833  -3.308  1.00  0.00     0.032 A 
HETATM   25  C18 UNL     1      -3.294   0.145  -1.826  1.00  0.00     0.038 A 
HETATM   26  C15 UNL     1      -5.841   0.156  -3.062  1.00  0.00     0.002 A 
HETATM   27  C16 UNL     1      -5.484   1.159  -2.186  1.00  0.00     0.001 A 
HETATM   28  C17 UNL     1      -4.237   1.120  -1.605  1.00  0.00     0.017 A 
ENDBRANCH  17  19
ENDBRANCH  13  17
TORSDOF 2
