REMARK  4 active torsions:
REMARK  status: ('A' for Active; 'I' for Inactive)
REMARK    1  A    between atoms: O1_2  and  C2_3 
REMARK    2  A    between atoms: C13_15  and  N2_16 
REMARK    3  A    between atoms: N2_16  and  C14_17 
REMARK    4  A    between atoms: C18_21  and  N3_22 
ROOT
HETATM    1  C2  UNL     1      -3.189   0.574   0.975  1.00  0.00     0.074 C 
HETATM    2  C3  UNL     1      -4.248   0.318  -0.004  1.00  0.00     0.034 C 
HETATM    3  C4  UNL     1      -4.042  -0.092  -1.435  1.00  0.00     0.000 C 
HETATM    4  C5  UNL     1      -3.113  -0.350  -2.348  1.00  0.00    -0.007 C 
HETATM    5  C6  UNL     1      -2.421  -0.714  -3.573  1.00  0.00     0.146 C 
HETATM    6  N1  UNL     1      -1.295  -1.740  -3.275  1.00  0.00    -0.390 N 
HETATM    7  C7  UNL     1      -0.911  -0.828  -2.244  1.00  0.00     0.045 A 
HETATM    8  C8  UNL     1      -0.816  -0.071  -1.101  1.00  0.00     0.314 A 
HETATM    9  C9  UNL     1      -0.115   1.120  -0.751  1.00  0.00     0.180 A 
HETATM   10  C10 UNL     1       0.744   1.965  -1.434  1.00  0.00     0.036 A 
HETATM   11  C11 UNL     1       0.815   1.336  -2.661  1.00  0.00     0.002 A 
HETATM   12  C12 UNL     1      -0.122   0.117  -2.518  1.00  0.00     0.120 A 
HETATM   13  C13 UNL     1       0.913  -0.645  -1.001  1.00  0.00     0.153 C 
HETATM   14  N4  UNL     1       0.501  -0.376   0.407  1.00  0.00    -0.063 NA
HETATM   15  N5  UNL     1      -0.707   0.600   0.431  1.00  0.00     0.084 N 
HETATM   16  C20 UNL     1      -1.788   0.710   1.309  1.00  0.00     0.339 C 
HETATM   17  H9  UNL     1      -0.820  -2.579  -3.469  1.00  0.00     0.159 HD
ENDROOT
BRANCH  13  18
HETATM   18  N2  UNL     1       2.233  -1.575  -0.728  1.00  0.00    -0.342 N 
HETATM   19  H13 UNL     1       2.119  -2.170  -1.558  1.00  0.00     0.167 HD
BRANCH  18  20
HETATM   20  C14 UNL     1       2.912  -1.182   0.397  1.00  0.00     0.035 A 
HETATM   21  C15 UNL     1       2.311  -1.411   1.709  1.00  0.00     0.029 A 
HETATM   22  C16 UNL     1       3.120  -0.933   2.724  1.00  0.00     0.004 A 
HETATM   23  C17 UNL     1       4.353  -0.301   2.593  1.00  0.00     0.029 A 
HETATM   24  C18 UNL     1       4.934  -0.076   1.335  1.00  0.00     0.027 A 
HETATM   25  C19 UNL     1       4.057  -0.582   0.422  1.00  0.00     0.058 A 
BRANCH  24  26
HETATM   26  N3  UNL     1       6.154   0.576   1.348  1.00  0.00    -0.399 N 
HETATM   27  H17 UNL     1       6.925   0.120   1.922  1.00  0.00     0.156 HD
HETATM   28  H18 UNL     1       6.121   1.471   0.764  1.00  0.00     0.156 HD
ENDBRANCH  24  26
ENDBRANCH  18  20
ENDBRANCH  13  18
BRANCH   1  29
HETATM   29  O1  UNL     1      -4.023   0.833   2.018  1.00  0.00    -0.358 OA
HETATM   30  C1  UNL     1      -3.597   1.056   3.316  1.00  0.00     0.209 C 
ENDBRANCH   1  29
TORSDOF 4
