REMARK  4 active torsions:
REMARK  status: ('A' for Active; 'I' for Inactive)
REMARK    1  A    between atoms: N1_1  and  C1_2 
REMARK    2  A    between atoms: N2_8  and  C6_9 
REMARK    3  A    between atoms: N4_14  and  C10_15 
REMARK    4  A    between atoms: C10_15  and  C11_16 
ROOT
HETATM    1  C6  UNL     1      -1.281  -0.078  -0.847  1.00  0.00     0.144 C 
HETATM    2  C7  UNL     1      -1.007   1.020  -1.943  1.00  0.00     0.162 C 
HETATM    3  N3  UNL     1       0.180   1.745  -2.099  1.00  0.00    -0.283 N 
HETATM    4  C8  UNL     1       1.214   1.137  -1.254  1.00  0.00     0.049 C 
HETATM    5  C9  UNL     1       2.362   0.490  -1.227  1.00  0.00     0.117 C 
HETATM    6  N4  UNL     1       2.198  -0.758  -0.487  1.00  0.00    -0.360 N 
HETATM    7  C15 UNL     1       0.916  -1.159   0.098  1.00  0.00     0.096 C 
HETATM    8  C16 UNL     1       0.028  -0.228  -0.163  1.00  0.00    -0.034 C 
HETATM    9  C17 UNL     1       0.516   1.212   0.152  1.00  0.00     0.098 C 
ENDROOT
BRANCH   1  10
HETATM   10  N2  UNL     1      -2.399   0.298  -0.075  1.00  0.00    -0.352 N 
HETATM   11  C1  UNL     1      -3.533  -0.610  -0.116  1.00  0.00     0.115 A 
HETATM   12  C2  UNL     1      -4.733  -0.535   0.431  1.00  0.00     0.054 A 
HETATM   13 BR1  UNL     1      -6.051  -1.874   0.197  1.00  0.00    -0.047 Br
HETATM   14  C3  UNL     1      -5.010   0.632   1.254  1.00  0.00     0.020 A 
HETATM   15  C4  UNL     1      -3.970   1.439   1.311  1.00  0.00    -0.006 A 
HETATM   16  C5  UNL     1      -2.599   1.445   0.746  1.00  0.00     0.152 A 
BRANCH  11  17
HETATM   17  N1  UNL     1      -3.467  -1.850  -0.869  1.00  0.00    -0.384 N 
HETATM   18  H1  UNL     1      -3.327  -2.871  -0.946  1.00  0.00     0.157 HD
HETATM   19  H2  UNL     1      -3.666  -1.520  -1.830  1.00  0.00     0.157 HD
ENDBRANCH  11  17
ENDBRANCH   1  10
BRANCH   6  20
HETATM   20  C10 UNL     1       3.389  -1.558  -0.394  1.00  0.00     0.166 C 
BRANCH  20  21
HETATM   21  C11 UNL     1       4.342  -0.811   0.486  1.00  0.00    -0.040 A 
HETATM   22  C12 UNL     1       4.371   0.326   1.158  1.00  0.00     0.009 A 
HETATM   23  C13 UNL     1       5.719   0.050   1.631  1.00  0.00     0.001 A 
HETATM   24  C14 UNL     1       5.704  -1.090   0.964  1.00  0.00     0.009 A 
ENDBRANCH  20  21
ENDBRANCH   6  20
TORSDOF 4
