REMARK  7 active torsions:
REMARK  status: ('A' for Active; 'I' for Inactive)
REMARK    1  A    between atoms: O1_2  and  C2_3 
REMARK    2  A    between atoms: C6_7  and  C7_8 
REMARK    3  A    between atoms: C7_8  and  N1_9 
REMARK    4  A    between atoms: N1_9  and  C8_10 
REMARK    5  A    between atoms: C12_14  and  C13_15 
REMARK    6  A    between atoms: C17_21  and  N3_22 
REMARK    7  A    between atoms: N3_22  and  C18_23 
ROOT
HETATM    1  C8  UNL     1       0.175  -0.088   0.930  1.00  0.00     0.028 A 
HETATM    2  C9  UNL     1      -0.024  -1.107   1.826  1.00  0.00     0.029 A 
HETATM    3  C10 UNL     1      -1.115  -1.951   1.852  1.00  0.00     0.003 A 
HETATM    4  C11 UNL     1      -2.091  -1.756   0.897  1.00  0.00     0.010 A 
HETATM    5  C12 UNL     1      -1.931  -0.742  -0.024  1.00  0.00    -0.028 A 
HETATM    6  C19 UNL     1      -0.818   0.064   0.007  1.00  0.00     0.038 A 
ENDROOT
BRANCH   5   7
HETATM    7  C13 UNL     1      -2.960  -0.481  -1.081  1.00  0.00     0.166 A 
HETATM    8  N2  UNL     1      -2.381  -0.318  -2.370  1.00  0.00    -0.385 N 
HETATM    9  C14 UNL     1      -2.445   0.736  -3.308  1.00  0.00     0.085 A 
HETATM   10  H15 UNL     1      -1.861  -1.202  -2.481  1.00  0.00     0.160 HD
HETATM   11  C15 UNL     1      -3.171   1.739  -2.895  1.00  0.00     0.038 A 
HETATM   12  C16 UNL     1      -3.793   1.672  -1.607  1.00  0.00     0.037 A 
HETATM   13 BR1  UNL     1      -4.803   3.208  -1.173  1.00  0.00    -0.049 Br
HETATM   14  C17 UNL     1      -3.770   0.734  -0.710  1.00  0.00     0.056 A 
BRANCH  14  15
HETATM   15  N3  UNL     1      -4.311   0.546   0.550  1.00  0.00    -0.335 N 
HETATM   16  H18 UNL     1      -4.136  -0.342   1.096  1.00  0.00     0.168 HD
BRANCH  15  17
HETATM   17  C18 UNL     1      -5.107   1.165   1.505  1.00  0.00     0.353 C 
HETATM   18  O2  UNL     1      -5.535   2.290   1.222  1.00  0.00    -0.283 OA
ENDBRANCH  15  17
ENDBRANCH  14  15
ENDBRANCH   5   7
BRANCH   1  19
HETATM   19  N1  UNL     1       1.302   0.762   0.908  1.00  0.00    -0.389 N 
HETATM   20  H10 UNL     1       1.318   1.529   0.179  1.00  0.00     0.159 HD
BRANCH  19  21
HETATM   21  C7  UNL     1       2.482   0.768   1.739  1.00  0.00     0.135 C 
BRANCH  21  22
HETATM   22  C6  UNL     1       3.312  -0.439   1.488  1.00  0.00     0.083 A 
HETATM   23  C2  UNL     1       3.780  -0.555   0.081  1.00  0.00     0.055 A 
HETATM   24  C3  UNL     1       5.097  -0.535  -0.072  1.00  0.00     0.033 A 
HETATM   25  C4  UNL     1       5.641  -0.399   1.277  1.00  0.00    -0.001 A 
HETATM   26  C5  UNL     1       4.658  -0.344   2.166  1.00  0.00    -0.014 A 
BRANCH  23  27
HETATM   27  O1  UNL     1       2.830  -0.672  -0.947  1.00  0.00    -0.359 OA
HETATM   28  C1  UNL     1       3.197  -0.159  -2.234  1.00  0.00     0.209 C 
ENDBRANCH  23  27
ENDBRANCH  21  22
ENDBRANCH  19  21
ENDBRANCH   1  19
TORSDOF 7
