REMARK  5 active torsions:
REMARK  status: ('A' for Active; 'I' for Inactive)
REMARK    1  A    between atoms: C5_5  and  C6_6 
REMARK    2  A    between atoms: C6_6  and  N1_7 
REMARK    3  A    between atoms: N1_7  and  C7_8 
REMARK    4  A    between atoms: C12_15  and  N4_16 
REMARK    5  A    between atoms: N4_16  and  C13_17 
ROOT
HETATM    1  C7  UNL     1      -0.911  -1.366   1.051  1.00  0.00     0.029 A 
HETATM    2  C8  UNL     1      -0.949  -2.525   1.818  1.00  0.00     0.031 A 
HETATM    3  C9  UNL     1       0.206  -3.055   2.345  1.00  0.00     0.035 A 
HETATM    4  C10 UNL     1       1.430  -2.457   2.131  1.00  0.00     0.072 A 
HETATM    5  N2  UNL     1       2.472  -3.054   2.689  1.00  0.00    -0.241 NA
HETATM    6  C11 UNL     1       3.694  -2.501   2.508  1.00  0.00     0.236 A 
HETATM    7  N3  UNL     1       3.811  -1.376   1.775  1.00  0.00    -0.224 NA
HETATM    8  C12 UNL     1       2.753  -0.769   1.208  1.00  0.00     0.142 A 
HETATM    9  C19 UNL     1       1.489  -1.299   1.367  1.00  0.00     0.041 A 
HETATM   10  C20 UNL     1       0.323  -0.764   0.835  1.00  0.00     0.046 A 
ENDROOT
BRANCH   8  11
HETATM   11  N4  UNL     1       2.834   0.424   0.431  1.00  0.00    -0.340 N 
HETATM   12  H14 UNL     1       2.665   1.282   0.975  1.00  0.00     0.167 HD
BRANCH  11  13
HETATM   13  C13 UNL     1       3.121   0.463  -0.984  1.00  0.00     0.035 A 
HETATM   14  C14 UNL     1       3.103   1.631  -1.717  1.00  0.00     0.029 A 
HETATM   15  C15 UNL     1       3.404   1.546  -3.069  1.00  0.00     0.004 A 
HETATM   16  C16 UNL     1       3.713   0.337  -3.673  1.00  0.00     0.019 A 
HETATM   17  C17 UNL     1       3.717  -0.813  -2.888  1.00  0.00     0.013 A 
HETATM   18 BR1  UNL     1       4.158  -2.426  -3.814  1.00  0.00    -0.051 Br
HETATM   19  C18 UNL     1       3.423  -0.773  -1.535  1.00  0.00     0.048 A 
ENDBRANCH  11  13
ENDBRANCH   8  11
BRANCH   1  20
HETATM   20  N1  UNL     1      -2.022  -0.703   0.445  1.00  0.00    -0.389 N 
HETATM   21  H10 UNL     1      -2.917  -1.211   0.650  1.00  0.00     0.159 HD
BRANCH  20  22
HETATM   22  C6  UNL     1      -1.980   0.486  -0.342  1.00  0.00     0.129 C 
BRANCH  22  23
HETATM   23  C5  UNL     1      -3.408   0.821  -0.768  1.00  0.00     0.035 A 
HETATM   24  C2  UNL     1      -4.298   1.049   0.362  1.00  0.00    -0.082 A 
HETATM   25  C1  UNL     1      -4.869   0.220   1.481  1.00  0.00     0.043 C 
HETATM   26  C3  UNL     1      -4.461   2.299   0.077  1.00  0.00    -0.023 A 
HETATM   27  C4  UNL     1      -3.598   2.249  -1.085  1.00  0.00     0.038 A 
ENDBRANCH  22  23
ENDBRANCH  20  22
ENDBRANCH   1  20
TORSDOF 5
