REMARK  3 active torsions:
REMARK  status: ('A' for Active; 'I' for Inactive)
REMARK    1  A    between atoms: C2_3  and  C3_4 
REMARK    2  A    between atoms: C3_4  and  N2_5 
REMARK    3  A    between atoms: N2_5  and  C4_6 
ROOT
HETATM    1  N1  UNL     1       5.958  -0.587  -0.571  1.00  0.00    -0.197 NA
HETATM    2  C1  UNL     1       5.258   0.199  -0.129  1.00  0.00     0.060 C 
HETATM    3  C2  UNL     1       4.362   1.218   0.453  1.00  0.00     0.143 C 
ENDROOT
BRANCH   3   4
HETATM    4  C3  UNL     1       3.059   1.174  -0.316  1.00  0.00     0.134 C 
BRANCH   4   5
HETATM    5  N2  UNL     1       2.523  -0.172  -0.151  1.00  0.00    -0.392 N 
HETATM    6  H5  UNL     1       3.015  -0.923   0.424  1.00  0.00     0.159 HD
BRANCH   5   7
HETATM    7  C4  UNL     1       1.355  -0.742  -0.654  1.00  0.00     0.014 C 
HETATM    8  C5  UNL     1       1.518  -1.702  -1.659  1.00  0.00     0.020 C 
HETATM    9  C6  UNL     1       0.373  -2.308  -2.212  1.00  0.00     0.179 C 
HETATM   10  N3  UNL     1      -0.594  -3.102  -2.664  1.00  0.00    -0.279 NA
HETATM   11  C7  UNL     1      -1.847  -2.766  -2.414  1.00  0.00     0.228 C 
HETATM   12  N4  UNL     1      -2.020  -1.512  -1.637  1.00  0.00    -0.237 NA
HETATM   13  C8  UNL     1      -1.998  -1.683  -0.344  1.00  0.00     0.216 C 
HETATM   14  N5  UNL     1      -2.155  -0.530   0.378  1.00  0.00    -0.307 N 
HETATM   15  C9  UNL     1      -0.835   0.002   0.577  1.00  0.00     0.041 A 
HETATM   16  C16 UNL     1      -2.660   0.526   1.085  1.00  0.00     0.053 A 
HETATM   17  C10 UNL     1       0.495  -0.006   0.264  1.00  0.00     0.102 C 
HETATM   18  C11 UNL     1      -1.460   1.136   1.353  1.00  0.00     0.015 A 
HETATM   19  C12 UNL     1      -1.651   2.282   2.084  1.00  0.00     0.017 A 
HETATM   20  C13 UNL     1      -2.897   2.742   2.486  1.00  0.00     0.020 A 
HETATM   21  C14 UNL     1      -4.063   2.035   2.153  1.00  0.00     0.013 A 
HETATM   22 BR1  UNL     1      -5.749   2.718   2.720  1.00  0.00    -0.051 Br
HETATM   23  C15 UNL     1      -3.926   0.849   1.403  1.00  0.00     0.050 A 
ENDBRANCH   5   7
ENDBRANCH   4   5
ENDBRANCH   3   4
TORSDOF 3
