REMARK  3 active torsions:
REMARK  status: ('A' for Active; 'I' for Inactive)
REMARK    1  A    between atoms: C4_5  and  C5_6 
REMARK    2  A    between atoms: C5_6  and  N1_7 
REMARK    3  A    between atoms: N1_7  and  C6_8 
ROOT
HETATM    1  C6  UNL     1       0.705   0.771   0.910  1.00  0.00     0.029 A 
HETATM    2  C7  UNL     1       0.083   1.580   1.835  1.00  0.00     0.031 A 
HETATM    3  C8  UNL     1      -1.270   1.546   2.069  1.00  0.00     0.033 A 
HETATM    4  C9  UNL     1      -2.052   0.677   1.365  1.00  0.00     0.044 A 
HETATM    5  C10 UNL     1      -1.503  -0.187   0.401  1.00  0.00     0.005 A 
HETATM    6  C11 UNL     1      -0.136  -0.095   0.219  1.00  0.00     0.043 A 
HETATM    7  C12 UNL     1      -2.123  -1.196  -0.465  1.00  0.00     0.004 C 
HETATM    8  C13 UNL     1      -3.227  -1.246  -1.229  1.00  0.00     0.045 C 
HETATM    9  C14 UNL     1      -3.402  -2.544  -1.925  1.00  0.00     0.043 C 
HETATM   10  C15 UNL     1      -2.960  -3.710  -1.473  1.00  0.00    -0.012 C 
HETATM   11  C16 UNL     1      -1.971  -3.642  -0.664  1.00  0.00    -0.013 C 
HETATM   12  C17 UNL     1      -1.390  -2.483  -0.526  1.00  0.00     0.028 C 
HETATM   13  N2  UNL     1      -4.361  -0.428  -1.619  1.00  0.00    -0.350 N 
HETATM   14  C18 UNL     1      -5.205   0.130  -0.620  1.00  0.00     0.200 C 
HETATM   15  N3  UNL     1      -6.212   0.297   0.209  1.00  0.00    -0.292 NA
HETATM   16  C19 UNL     1      -6.151   1.509   1.056  1.00  0.00     0.120 C 
HETATM   17  B1  UNL     1      -4.410   1.980   1.102  1.00  0.00     0.328 B 
HETATM   18  N4  UNL     1      -3.434   0.397   1.327  1.00  0.00    -0.361 NA
HETATM   19  H11 UNL     1      -4.518  -0.284  -2.639  1.00  0.00     0.166 HD
ENDROOT
BRANCH   1  20
HETATM   20  N1  UNL     1       2.094   0.839   0.700  1.00  0.00    -0.386 N 
HETATM   21  H5  UNL     1       2.658   1.515   1.257  1.00  0.00     0.160 HD
BRANCH  20  22
HETATM   22  C5  UNL     1       2.684  -0.030  -0.279  1.00  0.00     0.158 C 
BRANCH  22  23
HETATM   23  C4  UNL     1       4.137   0.155  -0.385  1.00  0.00    -0.041 A 
HETATM   24  C3  UNL     1       4.923  -0.625   0.438  1.00  0.00     0.010 A 
HETATM   25  C2  UNL     1       6.311  -0.603   0.491  1.00  0.00     0.024 A 
HETATM   26  C1  UNL     1       6.922   0.304  -0.381  1.00  0.00     0.034 A 
HETATM   27 CL1  UNL     1       8.679   0.367  -0.347  1.00  0.00    -0.084 Cl
HETATM   28  C21 UNL     1       6.188   1.109  -1.225  1.00  0.00     0.024 A 
HETATM   29  C20 UNL     1       4.811   1.025  -1.217  1.00  0.00     0.010 A 
ENDBRANCH  22  23
ENDBRANCH  20  22
ENDBRANCH   1  20
TORSDOF 3
