REMARK  0 active torsions:
REMARK  status: ('A' for Active; 'I' for Inactive)
ROOT
HETATM    1  C1  UNL     1       2.954  -0.669   2.392  1.00  0.00     0.044 C 
HETATM    2  C2  UNL     1       2.274   0.021   1.262  1.00  0.00    -0.069 C 
HETATM    3  C3  UNL     1       2.123   1.328   1.302  1.00  0.00    -0.022 C 
HETATM    4  C4  UNL     1       2.652   1.841   0.210  1.00  0.00     0.027 C 
HETATM    5  C5  UNL     1       1.454   1.940  -0.605  1.00  0.00    -0.006 A 
HETATM    6 BR1  UNL     1       1.158   1.600  -2.503  1.00  0.00    -0.122 Br
HETATM    7  C6  UNL     1       0.148   2.287  -0.736  1.00  0.00     0.097 A 
HETATM    8  C7  UNL     1      -1.276   2.583  -1.138  1.00  0.00     0.081 C 
HETATM    9  C8  UNL     1      -2.263   1.995  -0.226  1.00  0.00     0.049 A 
HETATM   10  N1  UNL     1      -3.068   2.946   0.263  1.00  0.00    -0.246 NA
HETATM   11  C9  UNL     1      -4.077   2.781   1.117  1.00  0.00     0.232 A 
HETATM   12  N2  UNL     1      -4.440   1.573   1.628  1.00  0.00    -0.253 NA
HETATM   13  C10 UNL     1      -3.633   0.565   1.148  1.00  0.00     0.131 A 
HETATM   14  C11 UNL     1      -2.592   0.775   0.259  1.00  0.00     0.007 A 
HETATM   15  C12 UNL     1      -2.037  -0.532   0.020  1.00  0.00     0.032 C 
HETATM   16  C13 UNL     1      -1.840  -1.679  -0.569  1.00  0.00     0.088 C 
HETATM   17  N3  UNL     1      -1.041  -2.825  -0.370  1.00  0.00    -0.378 N 
HETATM   18  C14 UNL     1      -0.012  -3.354  -1.182  1.00  0.00     0.071 C 
HETATM   19  C15 UNL     1       1.000  -2.528  -1.056  1.00  0.00     0.082 C 
HETATM   20  C16 UNL     1       2.356  -2.379  -1.547  1.00  0.00     0.018 C 
HETATM   21 CL1  UNL     1       3.823  -2.779  -2.460  1.00  0.00    -0.088 Cl
HETATM   22  C17 UNL     1       2.627  -1.233  -0.883  1.00  0.00    -0.002 C 
HETATM   23  C18 UNL     1       1.699  -0.512   0.024  1.00  0.00     0.063 C 
HETATM   24  H12 UNL     1      -1.570  -2.975   0.516  1.00  0.00     0.164 HD
ENDROOT
TORSDOF 0
