REMARK  1 active torsions:
REMARK  status: ('A' for Active; 'I' for Inactive)
REMARK    1  A    between atoms: C17_20  and  O1_21 
ROOT
HETATM    1  C1  UNL     1      -2.913  -2.857  -0.406  1.00  0.00     0.042 C 
HETATM    2  C2  UNL     1      -1.879  -1.941   0.279  1.00  0.00     0.079 C 
HETATM    3 CL1  UNL     1      -1.729  -2.579   1.962  1.00  0.00    -0.110 Cl
HETATM    4  C3  UNL     1      -0.588  -2.032  -0.425  1.00  0.00     0.003 C 
HETATM    5  C4  UNL     1       0.453  -2.240  -1.189  1.00  0.00    -0.002 C 
HETATM    6  C5  UNL     1       1.855  -1.902  -1.314  1.00  0.00    -0.003 C 
HETATM    7  C6  UNL     1       2.825  -1.225  -0.752  1.00  0.00    -0.013 C 
HETATM    8  C7  UNL     1       4.146  -0.633  -0.470  1.00  0.00     0.071 C 
HETATM    9  C8  UNL     1       4.133  -0.144   0.963  1.00  0.00    -0.015 C 
HETATM   10  C9  UNL     1       3.045   0.546   1.396  1.00  0.00     0.001 C 
HETATM   11  C10 UNL     1       2.014   1.463   0.844  1.00  0.00     0.157 C 
HETATM   12  N1  UNL     1       0.708   1.024   1.265  1.00  0.00    -0.376 N 
HETATM   13  C11 UNL     1      -0.415   1.146   0.401  1.00  0.00     0.042 C 
HETATM   14  C12 UNL     1      -0.220   1.880  -0.712  1.00  0.00     0.032 C 
HETATM   15  C13 UNL     1       1.095   2.187  -1.268  1.00  0.00     0.032 C 
HETATM   16  C14 UNL     1       2.151   1.687  -0.598  1.00  0.00     0.060 C 
HETATM   17  N2  UNL     1       3.276   1.453  -1.446  1.00  0.00    -0.266 NA
HETATM   18  C15 UNL     1       4.304   0.660  -1.253  1.00  0.00     0.102 C 
HETATM   19  C16 UNL     1      -1.780   0.654   0.466  1.00  0.00     0.032 A 
HETATM   20  C17 UNL     1      -2.597   1.785   0.618  1.00  0.00     0.078 A 
HETATM   21  C18 UNL     1      -3.997   1.794   0.737  1.00  0.00     0.037 A 
HETATM   22  C19 UNL     1      -4.596   0.556   0.695  1.00  0.00     0.003 A 
HETATM   23  C20 UNL     1      -3.786  -0.549   0.544  1.00  0.00     0.010 A 
HETATM   24  C21 UNL     1      -2.412  -0.566   0.427  1.00  0.00    -0.016 A 
HETATM   25  H12 UNL     1       0.651   0.622   2.226  1.00  0.00     0.160 HD
ENDROOT
BRANCH  20  26
HETATM   26  O1  UNL     1      -2.080   3.100   0.671  1.00  0.00    -0.360 OA
HETATM   27  H16 UNL     1      -2.454   3.747  -0.000  1.00  0.00     0.217 HD
ENDBRANCH  20  26
TORSDOF 1
