REMARK  6 active torsions:
REMARK  status: ('A' for Active; 'I' for Inactive)
REMARK    1  A    between atoms: C2_2  and  C3_3 
REMARK    2  A    between atoms: C2_2  and  C12_14 
REMARK    3  A    between atoms: C4_4  and  C5_5 
REMARK    4  A    between atoms: C5_5  and  N1_6 
REMARK    5  A    between atoms: C5_5  and  C6_7 
REMARK    6  A    between atoms: C12_14  and  C13_15 
ROOT
HETATM    1  C3  UNL     1      -0.292   0.163  -0.274  1.00  0.00     0.005 C 
HETATM    2  C4  UNL     1      -1.041  -0.430   0.612  1.00  0.00     0.013 C 
ENDROOT
BRANCH   2   3
HETATM    3  C5  UNL     1      -2.432  -0.709   0.983  1.00  0.00     0.273 C 
BRANCH   3   4
HETATM    4  N1  UNL     1      -2.704  -0.127   2.270  1.00  0.00     0.090 N 
HETATM    5  H6  UNL     1      -3.707   0.160   2.379  1.00  0.00     0.314 HD
HETATM    6  H7  UNL     1      -2.092   0.736   2.367  1.00  0.00     0.314 HD
ENDBRANCH   3   4
BRANCH   3   7
HETATM    7  C6  UNL     1      -3.404  -0.167  -0.030  1.00  0.00    -0.021 A 
HETATM    8  C7  UNL     1      -4.013  -1.037  -0.920  1.00  0.00     0.010 A 
HETATM    9  C8  UNL     1      -4.920  -0.600  -1.880  1.00  0.00     0.002 A 
HETATM   10  C9  UNL     1      -5.229   0.762  -1.952  1.00  0.00     0.019 A 
HETATM   11  C10 UNL     1      -4.605   1.595  -1.053  1.00  0.00     0.011 A 
HETATM   12 BR1  UNL     1      -5.067   3.448  -1.199  1.00  0.00    -0.051 Br
HETATM   13  C11 UNL     1      -3.707   1.175  -0.100  1.00  0.00     0.028 A 
ENDBRANCH   3   7
ENDBRANCH   2   3
BRANCH   1  14
HETATM   14  C2  UNL     1       1.152   0.298  -0.421  1.00  0.00    -0.064 C 
HETATM   15  C1  UNL     1       1.486   0.988  -1.473  1.00  0.00     0.019 C 
BRANCH  14  16
HETATM   16  C12 UNL     1       1.824  -0.404   0.695  1.00  0.00     0.076 C 
BRANCH  16  17
HETATM   17  C13 UNL     1       3.294  -0.320   0.627  1.00  0.00    -0.054 A 
HETATM   18  C14 UNL     1       3.988  -1.313  -0.069  1.00  0.00     0.009 A 
HETATM   19  C15 UNL     1       5.358  -1.384  -0.228  1.00  0.00     0.019 A 
HETATM   20  C16 UNL     1       6.074  -0.356   0.374  1.00  0.00     0.011 A 
HETATM   21 BR2  UNL     1       7.968  -0.394   0.193  1.00  0.00    -0.051 Br
HETATM   22  C17 UNL     1       5.457   0.642   1.067  1.00  0.00     0.019 A 
HETATM   23  C18 UNL     1       4.071   0.687   1.211  1.00  0.00     0.009 A 
ENDBRANCH  16  17
ENDBRANCH  14  16
ENDBRANCH   1  14
TORSDOF 6
