REMARK  6 active torsions:
REMARK  status: ('A' for Active; 'I' for Inactive)
REMARK    1  A    between atoms: O1_1  and  C1_2 
REMARK    2  A    between atoms: C6_7  and  C7_8 
REMARK    3  A    between atoms: C7_8  and  N1_9 
REMARK    4  A    between atoms: N1_9  and  C8_10 
REMARK    5  A    between atoms: C13_17  and  N4_18 
REMARK    6  A    between atoms: N4_18  and  C14_19 
ROOT
HETATM    1  C8  UNL     1       0.651  -0.654  -0.832  1.00  0.00     0.029 A 
HETATM    2  C9  UNL     1       1.199  -1.576  -1.696  1.00  0.00     0.031 A 
HETATM    3  C10 UNL     1       0.422  -2.168  -2.667  1.00  0.00     0.035 A 
HETATM    4  C11 UNL     1      -0.900  -1.796  -2.723  1.00  0.00     0.072 A 
HETATM    5  N2  UNL     1      -1.671  -2.338  -3.649  1.00  0.00    -0.241 NA
HETATM    6  C12 UNL     1      -2.967  -2.047  -3.802  1.00  0.00     0.235 A 
HETATM    7  N3  UNL     1      -3.561  -1.166  -3.000  1.00  0.00    -0.224 NA
HETATM    8  C13 UNL     1      -2.874  -0.545  -2.014  1.00  0.00     0.138 A 
HETATM    9  C19 UNL     1      -1.543  -0.880  -1.901  1.00  0.00     0.041 A 
HETATM   10  C20 UNL     1      -0.685  -0.338  -0.959  1.00  0.00     0.046 A 
ENDROOT
BRANCH   1  11
HETATM   11  N1  UNL     1       1.484  -0.062   0.158  1.00  0.00    -0.386 N 
HETATM   12  H8  UNL     1       1.060   0.641   0.805  1.00  0.00     0.160 HD
BRANCH  11  13
HETATM   13  C7  UNL     1       2.882  -0.485   0.199  1.00  0.00     0.161 C 
BRANCH  13  14
HETATM   14  C6  UNL     1       3.659   0.209   1.237  1.00  0.00    -0.007 A 
HETATM   15  C1  UNL     1       4.008   1.522   0.897  1.00  0.00     0.073 A 
HETATM   16  C2  UNL     1       4.736   2.340   1.736  1.00  0.00     0.037 A 
HETATM   17  C3  UNL     1       5.105   1.784   2.944  1.00  0.00     0.003 A 
HETATM   18  C4  UNL     1       4.797   0.498   3.346  1.00  0.00     0.001 A 
HETATM   19  C5  UNL     1       4.062  -0.289   2.465  1.00  0.00     0.011 A 
BRANCH  15  20
HETATM   20  O1  UNL     1       3.643   2.106  -0.324  1.00  0.00    -0.360 OA
HETATM   21  H1  UNL     1       2.785   2.624  -0.372  1.00  0.00     0.217 HD
ENDBRANCH  15  20
ENDBRANCH  13  14
ENDBRANCH  11  13
ENDBRANCH   1  11
BRANCH   8  22
HETATM   22  N4  UNL     1      -3.444   0.402  -1.130  1.00  0.00    -0.363 N 
HETATM   23  H12 UNL     1      -4.453   0.524  -1.445  1.00  0.00     0.162 HD
BRANCH  22  24
HETATM   24  C14 UNL     1      -3.439   1.310  -0.027  1.00  0.00     0.131 A 
HETATM   25  C15 UNL     1      -3.284   0.637   1.308  1.00  0.00     0.004 A 
HETATM   26  C16 UNL     1      -4.266   0.939   2.117  1.00  0.00     0.022 A 
HETATM   27  C17 UNL     1      -5.187   1.839   1.432  1.00  0.00     0.032 A 
HETATM   28 CL1  UNL     1      -6.691   2.640   1.875  1.00  0.00    -0.085 Cl
HETATM   29  C18 UNL     1      -4.704   2.045   0.205  1.00  0.00     0.026 A 
ENDBRANCH  22  24
ENDBRANCH   8  22
TORSDOF 6
