REMARK  5 active torsions:
REMARK  status: ('A' for Active; 'I' for Inactive)
REMARK    1  A    between atoms: C2_2  and  S1_3 
REMARK    2  A    between atoms: C6_7  and  N1_8 
REMARK    3  A    between atoms: N1_8  and  C7_9 
REMARK    4  A    between atoms: C7_9  and  C8_10 
REMARK    5  A    between atoms: N2_20  and  C17_21 
ROOT
HETATM    1  S1  UNL     1       3.542   0.453   0.531  1.00  0.00    -0.243 SA
HETATM    2  C3  UNL     1       2.479   0.287   0.758  1.00  0.00     0.041 A 
HETATM    3  C4  UNL     1       1.308   0.097   1.030  1.00  0.00    -0.043 A 
HETATM    4  C5  UNL     1       0.437   0.305   0.066  1.00  0.00     0.034 A 
HETATM    5  C6  UNL     1      -0.581  -0.059   0.962  1.00  0.00     0.028 A 
HETATM    6  C14 UNL     1      -0.474  -0.452   2.302  1.00  0.00     0.026 A 
HETATM    7  C15 UNL     1       0.725  -0.540   2.966  1.00  0.00    -0.007 A 
HETATM    8  C16 UNL     1       1.928  -0.198   2.201  1.00  0.00     0.040 A 
HETATM    9  N2  UNL     1       3.385   0.011   1.963  1.00  0.00     0.000 N 
HETATM   10  C17 UNL     1       3.611   0.464   0.518  1.00  0.00     0.047 A 
HETATM   11  H6  UNL     1       4.829   0.652   0.228  1.00  0.00     0.105 HD
ENDROOT
BRANCH   5  12
HETATM   12  N1  UNL     1      -1.860   0.010   0.315  1.00  0.00    -0.386 N 
HETATM   13  H8  UNL     1      -2.591  -0.260   0.975  1.00  0.00     0.160 HD
BRANCH  12  14
HETATM   14  C7  UNL     1      -2.153   0.382  -1.016  1.00  0.00     0.158 C 
BRANCH  14  15
HETATM   15  C8  UNL     1      -3.636   0.255  -1.240  1.00  0.00    -0.041 A 
HETATM   16  C9  UNL     1      -4.005  -1.017  -1.696  1.00  0.00     0.010 A 
HETATM   17  C10 UNL     1      -5.320  -1.382  -1.977  1.00  0.00     0.019 A 
HETATM   18  C11 UNL     1      -6.277  -0.409  -1.783  1.00  0.00     0.011 A 
HETATM   19 BR1  UNL     1      -8.113  -0.799  -2.137  1.00  0.00    -0.051 Br
HETATM   20  C12 UNL     1      -5.923   0.841  -1.337  1.00  0.00     0.019 A 
HETATM   21  C13 UNL     1      -4.630   1.190  -1.063  1.00  0.00     0.010 A 
ENDBRANCH  14  15
ENDBRANCH  12  14
ENDBRANCH   5  12
BRANCH   1  22
HETATM   22  C2  UNL     1       6.186   0.909  -0.071  1.00  0.00     0.048 C 
HETATM   23  C1  UNL     1       6.094  -0.592   0.023  1.00  0.00     0.014 C 
ENDBRANCH   1  22
TORSDOF 5
