REMARK  6 active torsions:
REMARK  status: ('A' for Active; 'I' for Inactive)
REMARK    1  A    between atoms: O1_1  and  C1_2 
REMARK    2  A    between atoms: C6_7  and  C7_8 
REMARK    3  A    between atoms: C7_8  and  N1_9 
REMARK    4  A    between atoms: N1_9  and  C8_10 
REMARK    5  A    between atoms: C13_17  and  N4_18 
REMARK    6  A    between atoms: N4_18  and  C14_19 
ROOT
HETATM    1  C8  UNL     1       1.027  -1.073   0.061  1.00  0.00     0.029 A 
HETATM    2  C9  UNL     1       1.315  -1.348   1.381  1.00  0.00     0.031 A 
HETATM    3  C10 UNL     1       0.449  -1.223   2.444  1.00  0.00     0.035 A 
HETATM    4  C11 UNL     1      -0.830  -0.783   2.180  1.00  0.00     0.072 A 
HETATM    5  N2  UNL     1      -1.711  -0.647   3.186  1.00  0.00    -0.241 NA
HETATM    6  C12 UNL     1      -2.969  -0.211   2.893  1.00  0.00     0.236 A 
HETATM    7  N3  UNL     1      -3.327   0.080   1.613  1.00  0.00    -0.224 NA
HETATM    8  C13 UNL     1      -2.453  -0.053   0.601  1.00  0.00     0.141 A 
HETATM    9  C19 UNL     1      -1.176  -0.493   0.878  1.00  0.00     0.041 A 
HETATM   10  C20 UNL     1      -0.266  -0.637  -0.142  1.00  0.00     0.046 A 
ENDROOT
BRANCH   1  11
HETATM   11  N1  UNL     1       1.937  -1.200  -1.016  1.00  0.00    -0.386 N 
HETATM   12  H8  UNL     1       1.511  -0.960  -1.965  1.00  0.00     0.160 HD
BRANCH  11  13
HETATM   13  C7  UNL     1       3.312  -1.590  -1.038  1.00  0.00     0.161 C 
BRANCH  13  14
HETATM   14  C6  UNL     1       4.142  -0.581  -0.330  1.00  0.00    -0.007 A 
HETATM   15  C1  UNL     1       4.249   0.556  -1.143  1.00  0.00     0.073 A 
HETATM   16  C2  UNL     1       4.995   1.660  -0.712  1.00  0.00     0.037 A 
HETATM   17  C3  UNL     1       5.642   1.674   0.506  1.00  0.00     0.003 A 
HETATM   18  C4  UNL     1       5.519   0.537   1.287  1.00  0.00     0.001 A 
HETATM   19  C5  UNL     1       4.795  -0.549   0.880  1.00  0.00     0.011 A 
BRANCH  15  20
HETATM   20  O1  UNL     1       3.694   0.774  -2.392  1.00  0.00    -0.360 OA
HETATM   21  H1  UNL     1       3.919   0.292  -3.233  1.00  0.00     0.217 HD
ENDBRANCH  15  20
ENDBRANCH  13  14
ENDBRANCH  11  13
ENDBRANCH   1  11
BRANCH   8  22
HETATM   22  N4  UNL     1      -2.907   0.268  -0.684  1.00  0.00    -0.342 N 
HETATM   23  H12 UNL     1      -2.469   0.261  -1.607  1.00  0.00     0.167 HD
BRANCH  22  24
HETATM   24  C14 UNL     1      -4.248   0.709  -0.857  1.00  0.00     0.036 A 
HETATM   25  C15 UNL     1      -5.121  -0.263  -1.126  1.00  0.00     0.056 A 
HETATM   26 CL1  UNL     1      -4.553  -1.921  -1.235  1.00  0.00    -0.082 Cl
HETATM   27  C16 UNL     1      -6.492   0.224  -1.299  1.00  0.00     0.022 A 
HETATM   28  C17 UNL     1      -6.391   1.531  -1.120  1.00  0.00    -0.019 A 
HETATM   29  C18 UNL     1      -5.015   1.983  -0.830  1.00  0.00     0.086 A 
ENDBRANCH  22  24
ENDBRANCH   8  22
TORSDOF 6
