REMARK  6 active torsions:
REMARK  status: ('A' for Active; 'I' for Inactive)
REMARK    1  A    between atoms: O1_1  and  C1_2 
REMARK    2  A    between atoms: C6_7  and  C7_8 
REMARK    3  A    between atoms: C7_8  and  N1_9 
REMARK    4  A    between atoms: N1_9  and  C8_10 
REMARK    5  A    between atoms: C13_17  and  N4_18 
REMARK    6  A    between atoms: N4_18  and  C14_19 
ROOT
HETATM    1  C8  UNL     1      -1.392  -1.755  -0.938  1.00  0.00     0.130 A 
HETATM    2  N2  UNL     1      -2.037  -2.145  -1.986  1.00  0.00    -0.269 NA
HETATM    3  C9  UNL     1      -1.405  -2.073  -3.286  1.00  0.00     0.179 A 
HETATM    4  C10 UNL     1      -0.024  -1.533  -3.225  1.00  0.00     0.005 A 
HETATM    5  C11 UNL     1       0.669  -1.126  -2.176  1.00  0.00    -0.026 A 
HETATM    6  C12 UNL     1       2.055  -0.597  -2.221  1.00  0.00     0.190 A 
HETATM    7  N3  UNL     1       2.497  -0.253  -0.912  1.00  0.00    -0.268 NA
HETATM    8  C13 UNL     1       1.886  -0.343   0.193  1.00  0.00     0.123 A 
HETATM    9  C20 UNL     1       0.522  -0.863   0.234  1.00  0.00     0.066 A 
HETATM   10  C21 UNL     1      -0.038  -1.229  -0.908  1.00  0.00     0.021 A 
ENDROOT
BRANCH   1  11
HETATM   11  N1  UNL     1      -2.144  -1.888   0.250  1.00  0.00    -0.370 N 
HETATM   12  H8  UNL     1      -1.585  -2.203   1.112  1.00  0.00     0.161 HD
BRANCH  11  13
HETATM   13  C7  UNL     1      -3.553  -1.648   0.487  1.00  0.00     0.162 C 
BRANCH  13  14
HETATM   14  C6  UNL     1      -3.952  -0.225   0.429  1.00  0.00    -0.007 A 
HETATM   15  C1  UNL     1      -4.210   0.631  -0.608  1.00  0.00     0.073 A 
HETATM   16  C2  UNL     1      -4.553   1.953  -0.447  1.00  0.00     0.037 A 
HETATM   17  C3  UNL     1      -4.662   2.510   0.810  1.00  0.00     0.003 A 
HETATM   18  C4  UNL     1      -4.419   1.710   1.906  1.00  0.00     0.001 A 
HETATM   19  C5  UNL     1      -4.078   0.394   1.684  1.00  0.00     0.011 A 
BRANCH  15  20
HETATM   20  O1  UNL     1      -4.108   0.090  -1.873  1.00  0.00    -0.360 OA
HETATM   21  H1  UNL     1      -4.849  -0.549  -2.183  1.00  0.00     0.217 HD
ENDBRANCH  15  20
ENDBRANCH  13  14
ENDBRANCH  11  13
ENDBRANCH   1  11
BRANCH   8  22
HETATM   22  N4  UNL     1       2.573   0.073   1.341  1.00  0.00    -0.341 N 
HETATM   23  H14 UNL     1       2.024  -0.085   2.224  1.00  0.00     0.167 HD
BRANCH  22  24
HETATM   24  C14 UNL     1       3.854   0.656   1.472  1.00  0.00     0.035 A 
HETATM   25  C15 UNL     1       4.763   0.969   0.496  1.00  0.00     0.029 A 
HETATM   26  C16 UNL     1       5.986   1.531   0.692  1.00  0.00     0.004 A 
HETATM   27  C17 UNL     1       6.391   1.830   1.973  1.00  0.00     0.024 A 
HETATM   28  C18 UNL     1       5.528   1.542   3.008  1.00  0.00     0.036 A 
HETATM   29 CL1  UNL     1       6.036   1.918   4.619  1.00  0.00    -0.084 Cl
HETATM   30  C19 UNL     1       4.306   0.975   2.745  1.00  0.00     0.053 A 
ENDBRANCH  22  24
ENDBRANCH   8  22
TORSDOF 6
