REMARK  7 active torsions:
REMARK  status: ('A' for Active; 'I' for Inactive)
REMARK    1  A    between atoms: C3_3  and  C4_5 
REMARK    2  A    between atoms: C5_6  and  C6_7 
REMARK    3  A    between atoms: C6_7  and  N1_8 
REMARK    4  A    between atoms: N1_8  and  C7_9 
REMARK    5  A    between atoms: N4_15  and  C11_16 
REMARK    6  A    between atoms: C11_16  and  C12_17 
REMARK    7  A    between atoms: C17_22  and  O1_23 
ROOT
HETATM    1  C7  UNL     1       1.375  -0.575  -1.215  1.00  0.00     0.106 A 
HETATM    2  N2  UNL     1       1.190  -1.504  -2.121  1.00  0.00    -0.231 NA
HETATM    3  C8  UNL     1      -0.038  -2.200  -2.225  1.00  0.00     0.229 A 
HETATM    4  N3  UNL     1      -1.111  -2.050  -1.493  1.00  0.00    -0.271 NA
HETATM    5  C9  UNL     1      -1.090  -1.070  -0.439  1.00  0.00     0.173 A 
HETATM    6  C10 UNL     1      -2.154   0.011  -0.614  1.00  0.00     0.305 C 
HETATM    7  N4  UNL     1      -2.258   0.710   0.638  1.00  0.00     0.098 N 
HETATM    8  C18 UNL     1      -1.057   0.776   1.401  1.00  0.00     0.301 C 
HETATM    9  C19 UNL     1       0.182   0.589   0.572  1.00  0.00     0.015 C 
HETATM   10  C20 UNL     1       0.205  -0.343  -0.376  1.00  0.00     0.006 A 
ENDROOT
BRANCH   7  11
HETATM   11  C11 UNL     1      -3.416   0.240   1.343  1.00  0.00     0.314 C 
BRANCH  11  12
HETATM   12  C12 UNL     1      -4.659   0.530   0.589  1.00  0.00     0.003 A 
HETATM   13  C13 UNL     1      -4.848   1.321  -0.519  1.00  0.00     0.012 A 
HETATM   14  C14 UNL     1      -6.103   1.464  -1.074  1.00  0.00     0.001 A 
HETATM   15  C15 UNL     1      -7.213   0.832  -0.557  1.00  0.00     0.003 A 
HETATM   16  C16 UNL     1      -7.029   0.037   0.555  1.00  0.00     0.037 A 
HETATM   17  C17 UNL     1      -5.770  -0.117   1.126  1.00  0.00     0.073 A 
BRANCH  17  18
HETATM   18  O1  UNL     1      -5.778  -0.961   2.246  1.00  0.00    -0.360 OA
HETATM   19  H18 UNL     1      -5.186  -0.747   3.037  1.00  0.00     0.217 HD
ENDBRANCH  17  18
ENDBRANCH  11  12
ENDBRANCH   7  11
BRANCH   1  20
HETATM   20  N1  UNL     1       2.530   0.224  -0.958  1.00  0.00    -0.285 NA
BRANCH  20  21
HETATM   21  C6  UNL     1       3.616  -0.421  -0.730  1.00  0.00     0.260 C 
BRANCH  21  22
HETATM   22  C5  UNL     1       4.998  -0.726  -0.435  1.00  0.00    -0.002 C 
HETATM   23  C4  UNL     1       6.129  -0.112  -0.183  1.00  0.00     0.021 C 
BRANCH  23  24
HETATM   24  C3  UNL     1       6.368   1.311  -0.114  1.00  0.00     0.029 C 
HETATM   25  C2  UNL     1       7.608   1.738   0.158  1.00  0.00    -0.007 C 
HETATM   26  C1  UNL     1       8.713   0.740   0.383  1.00  0.00     0.038 C 
HETATM   27 CL1  UNL     1       5.172   2.547  -0.356  1.00  0.00    -0.085 Cl
ENDBRANCH  23  24
ENDBRANCH  21  22
ENDBRANCH  20  21
ENDBRANCH   1  20
TORSDOF 7
