REMARK  5 active torsions:
REMARK  status: ('A' for Active; 'I' for Inactive)
REMARK    1  A    between atoms: C2_3  and  C3_4 
REMARK    2  A    between atoms: C4_5  and  C5_6 
REMARK    3  A    between atoms: C6_7  and  C7_8 
REMARK    4  A    between atoms: C7_8  and  N1_9 
REMARK    5  A    between atoms: N1_9  and  C8_10 
ROOT
HETATM    1  C8  UNL     1      -0.477  -0.755  -1.528  1.00  0.00     0.395 C 
HETATM    2  O1  UNL     1      -0.059  -2.044  -1.891  1.00  0.00    -0.350 OA
HETATM    3  C9  UNL     1       0.058  -2.880  -0.793  1.00  0.00     0.200 C 
HETATM    4  C10 UNL     1      -1.241  -3.103  -0.112  1.00  0.00     0.031 C 
HETATM    5  C11 UNL     1      -2.099  -2.092  -0.194  1.00  0.00     0.069 A 
HETATM    6  N2  UNL     1      -3.330  -2.348   0.470  1.00  0.00    -0.243 NA
HETATM    7  C12 UNL     1      -4.235  -1.425   0.449  1.00  0.00     0.216 A 
HETATM    8  N3  UNL     1      -3.939  -0.216  -0.238  1.00  0.00    -0.297 N 
HETATM    9  C13 UNL     1      -5.138   0.524  -0.046  1.00  0.00     0.111 C 
HETATM   10 CL1  UNL     1      -6.435  -0.441   0.621  1.00  0.00    -0.064 Cl
HETATM   11  C14 UNL     1      -5.550   1.762  -0.236  1.00  0.00     0.044 C 
HETATM   12  C15 UNL     1      -4.902   2.957  -0.753  1.00  0.00     0.020 C 
HETATM   13  C16 UNL     1      -3.792   3.261  -1.363  1.00  0.00     0.083 C 
HETATM   14  N4  UNL     1      -2.730   2.441  -1.769  1.00  0.00    -0.393 N 
HETATM   15  C17 UNL     1      -2.088   1.156  -1.690  1.00  0.00     0.177 C 
HETATM   16  C18 UNL     1      -2.737   0.113  -0.923  1.00  0.00     0.049 A 
HETATM   17  C19 UNL     1      -1.780  -0.836  -0.912  1.00  0.00     0.053 A 
HETATM   18  H18 UNL     1      -2.107   2.998  -2.433  1.00  0.00     0.159 HD
ENDROOT
BRANCH   1  19
HETATM   19  N1  UNL     1       0.464  -0.221  -0.527  1.00  0.00     0.120 N 
HETATM   20  H9  UNL     1       0.364  -0.647   0.397  1.00  0.00     0.320 HD
BRANCH  19  21
HETATM   21  C7  UNL     1       1.785  -0.098  -1.052  1.00  0.00     0.300 C 
BRANCH  21  22
HETATM   22  C6  UNL     1       2.670   0.458   0.005  1.00  0.00     0.003 C 
HETATM   23  C5  UNL     1       3.749  -0.103   0.526  1.00  0.00    -0.002 C 
BRANCH  23  24
HETATM   24  C4  UNL     1       4.584   0.464   1.548  1.00  0.00    -0.001 C 
HETATM   25  C3  UNL     1       5.637  -0.121   2.033  1.00  0.00    -0.001 C 
BRANCH  25  26
HETATM   26  C2  UNL     1       6.409   0.549   3.069  1.00  0.00     0.012 C 
HETATM   27  C1  UNL     1       7.499   0.024   3.617  1.00  0.00     0.441 C 
HETATM   28  F1  UNL     1       8.449  -0.914   3.796  1.00  0.00    -0.452 F 
ENDBRANCH  25  26
ENDBRANCH  23  24
ENDBRANCH  21  22
ENDBRANCH  19  21
ENDBRANCH   1  19
TORSDOF 5
