REMARK  3 active torsions:
REMARK  status: ('A' for Active; 'I' for Inactive)
REMARK    1  A    between atoms: N1_1  and  C1_2 
REMARK    2  A    between atoms: C2_3  and  C3_4 
REMARK    3  A    between atoms: C16_22  and  O1_23 
ROOT
HETATM    1  C3  UNL     1       2.189   0.769  -1.613  1.00  0.00    -0.049 C 
HETATM    2  C4  UNL     1       1.716   1.759  -2.340  1.00  0.00     0.077 C 
HETATM    3  S1  UNL     1       2.012   3.488  -2.074  1.00  0.00     0.001 SA
HETATM    4  N2  UNL     1       1.126   3.995  -0.643  1.00  0.00    -0.205 NA
HETATM    5  C5  UNL     1      -0.114   3.693  -0.534  1.00  0.00     0.243 C 
HETATM    6  N3  UNL     1      -1.419   3.572  -0.050  1.00  0.00    -0.237 NA
HETATM    7  C6  UNL     1      -1.798   3.019   1.046  1.00  0.00     0.204 C 
HETATM    8  N4  UNL     1      -3.176   3.326   0.751  1.00  0.00    -0.381 N 
HETATM    9  C7  UNL     1      -3.809   2.292  -0.035  1.00  0.00     0.149 C 
HETATM   10  C8  UNL     1      -4.033   1.024   0.676  1.00  0.00     0.016 C 
HETATM   11  C9  UNL     1      -3.604  -0.209   0.495  1.00  0.00     0.031 C 
HETATM   12 CL1  UNL     1      -4.098  -1.524   1.571  1.00  0.00    -0.085 Cl
HETATM   13  C10 UNL     1      -2.795  -1.203  -0.170  1.00  0.00     0.019 C 
HETATM   14  C11 UNL     1      -2.193  -2.263  -0.593  1.00  0.00    -0.025 C 
HETATM   15  C12 UNL     1      -2.356  -3.643  -0.110  1.00  0.00     0.033 C 
HETATM   16  C13 UNL     1      -1.153  -4.291   0.431  1.00  0.00     0.002 C 
HETATM   17  C14 UNL     1      -0.092  -3.432   0.397  1.00  0.00     0.023 C 
HETATM   18  C15 UNL     1       1.347  -3.540   0.804  1.00  0.00     0.011 C 
HETATM   19  C16 UNL     1       1.897  -2.341   0.528  1.00  0.00     0.040 C 
HETATM   20  C17 UNL     1       1.619  -0.989  -0.010  1.00  0.00     0.068 C 
HETATM   21  C18 UNL     1       2.466  -0.631  -1.208  1.00  0.00     0.045 C 
HETATM   22  H8  UNL     1      -3.661   4.210   1.077  1.00  0.00     0.160 HD
ENDROOT
BRANCH   1  23
HETATM   23  C2  UNL     1       2.886   1.736  -0.737  1.00  0.00     0.024 C 
HETATM   24  C1  UNL     1       3.645   1.433   0.307  1.00  0.00     0.081 C 
BRANCH  24  25
HETATM   25  N1  UNL     1       4.437   1.977   1.343  1.00  0.00    -0.408 N 
HETATM   26  H1  UNL     1       5.465   2.218   1.335  1.00  0.00     0.155 HD
HETATM   27  H2  UNL     1       4.149   2.251   2.318  1.00  0.00     0.155 HD
ENDBRANCH  24  25
ENDBRANCH   1  23
BRANCH  19  28
HETATM   28  O1  UNL     1       3.270  -2.156   0.814  1.00  0.00    -0.365 OA
HETATM   29  H19 UNL     1       3.982  -2.578   0.197  1.00  0.00     0.217 HD
ENDBRANCH  19  28
TORSDOF 3
