REMARK  5 active torsions:
REMARK  status: ('A' for Active; 'I' for Inactive)
REMARK    1  A    between atoms: C7_9  and  N3_10 
REMARK    2  A    between atoms: N3_10  and  C8_11 
REMARK    3  A    between atoms: C12_15  and  N4_16 
REMARK    4  A    between atoms: N4_16  and  C13_17 
REMARK    5  A    between atoms: C18_22  and  O1_23 
ROOT
HETATM    1  C1  UNL     1       0.018   3.113   0.463  1.00  0.00     0.047 C 
HETATM    2  C2  UNL     1       0.183   2.225  -0.710  1.00  0.00    -0.042 C 
HETATM    3  C3  UNL     1       0.132   2.752  -1.951  1.00  0.00     0.008 C 
HETATM    4  C4  UNL     1       0.324   1.752  -2.992  1.00  0.00     0.031 C 
HETATM    5  C5  UNL     1       0.479   0.639  -2.293  1.00  0.00     0.076 C 
HETATM    6  N1  UNL     1       0.739  -0.701  -2.783  1.00  0.00    -0.243 NA
HETATM    7  C6  UNL     1       1.335  -1.523  -1.936  1.00  0.00     0.235 C 
HETATM    8  N2  UNL     1       1.618  -1.041  -0.665  1.00  0.00    -0.225 NA
HETATM    9  C7  UNL     1       1.389   0.067  -0.090  1.00  0.00     0.144 C 
HETATM   10  C12 UNL     1       0.314   0.723  -0.873  1.00  0.00     0.156 C 
ENDROOT
BRANCH  10  11
HETATM   11  N4  UNL     1      -0.943   0.305  -0.303  1.00  0.00    -0.388 N 
HETATM   12  H11 UNL     1      -1.671   1.059  -0.243  1.00  0.00     0.155 HD
BRANCH  11  13
HETATM   13  C13 UNL     1      -1.383  -0.983  -0.120  1.00  0.00     0.136 A 
HETATM   14  C14 UNL     1      -1.924  -1.725  -1.249  1.00  0.00     0.001 A 
HETATM   15  C15 UNL     1      -3.068  -2.439  -1.314  1.00  0.00    -0.002 A 
HETATM   16  C16 UNL     1      -3.975  -2.558  -0.147  1.00  0.00    -0.002 A 
HETATM   17  C17 UNL     1      -3.498  -1.889   0.891  1.00  0.00     0.009 A 
HETATM   18  C18 UNL     1      -2.300  -1.079   1.129  1.00  0.00     0.194 A 
BRANCH  18  19
HETATM   19  O1  UNL     1      -2.708   0.241   1.449  1.00  0.00    -0.272 OA
HETATM   20 CL1  UNL     1      -2.146   0.664   2.989  1.00  0.00     0.062 Cl
ENDBRANCH  18  19
ENDBRANCH  11  13
ENDBRANCH  10  11
BRANCH   9  21
HETATM   21  N3  UNL     1       1.670   0.626   1.175  1.00  0.00    -0.342 N 
HETATM   22  H7  UNL     1       1.051   1.200   1.770  1.00  0.00     0.167 HD
BRANCH  21  23
HETATM   23  C8  UNL     1       3.023   0.241   1.526  1.00  0.00     0.033 A 
HETATM   24  C9  UNL     1       4.327   0.347   1.319  1.00  0.00     0.029 A 
HETATM   25  C10 UNL     1       4.696  -0.595   2.369  1.00  0.00     0.004 A 
HETATM   26  C11 UNL     1       3.382  -0.716   2.593  1.00  0.00     0.029 A 
ENDBRANCH  21  23
ENDBRANCH   9  21
TORSDOF 5
