REMARK  4 active torsions:
REMARK  status: ('A' for Active; 'I' for Inactive)
REMARK    1  A    between atoms: O1_1  and  C1_2 
REMARK    2  A    between atoms: C6_7  and  C7_8 
REMARK    3  A    between atoms: C12_15  and  N3_16 
REMARK    4  A    between atoms: N3_16  and  C13_17 
ROOT
HETATM    1  C7  UNL     1       2.022  -0.442  -0.407  1.00  0.00     0.045 A 
HETATM    2  C8  UNL     1       2.469  -1.288  -1.317  1.00  0.00     0.033 A 
HETATM    3  C9  UNL     1       1.692  -2.366  -1.885  1.00  0.00     0.036 A 
HETATM    4  C10 UNL     1       0.430  -2.627  -1.552  1.00  0.00     0.088 A 
HETATM    5  N1  UNL     1      -0.360  -3.680  -2.093  1.00  0.00    -0.242 NA
HETATM    6  C11 UNL     1      -1.595  -3.864  -1.707  1.00  0.00     0.209 A 
HETATM    7  N2  UNL     1      -2.142  -2.973  -0.715  1.00  0.00    -0.335 N 
HETATM    8  C12 UNL     1      -1.400  -1.902  -0.137  1.00  0.00     0.136 A 
HETATM    9  C19 UNL     1      -0.154  -1.725  -0.535  1.00  0.00     0.106 A 
HETATM   10  N4  UNL     1       0.695  -0.702  -0.044  1.00  0.00    -0.351 N 
HETATM   11  H9  UNL     1      -3.131  -3.134  -0.417  1.00  0.00     0.168 HD
HETATM   12  H15 UNL     1       0.218  -0.110   0.665  1.00  0.00     0.166 HD
ENDROOT
BRANCH   8  13
HETATM   13  N3  UNL     1      -1.948  -1.030   0.838  1.00  0.00    -0.340 N 
HETATM   14  H10 UNL     1      -1.563  -1.328   1.746  1.00  0.00     0.167 HD
BRANCH  13  15
HETATM   15  C13 UNL     1      -2.850   0.046   0.618  1.00  0.00     0.035 A 
HETATM   16  C14 UNL     1      -3.259   0.301  -0.664  1.00  0.00     0.029 A 
HETATM   17  C15 UNL     1      -4.145   1.372  -0.806  1.00  0.00     0.004 A 
HETATM   18  C16 UNL     1      -4.566   2.110   0.290  1.00  0.00     0.024 A 
HETATM   19  C17 UNL     1      -4.111   1.795   1.551  1.00  0.00     0.036 A 
HETATM   20 CL1  UNL     1      -4.634   2.720   2.955  1.00  0.00    -0.084 Cl
HETATM   21  C18 UNL     1      -3.225   0.735   1.752  1.00  0.00     0.053 A 
ENDBRANCH  13  15
ENDBRANCH   8  13
BRANCH   1  22
HETATM   22  C6  UNL     1       2.879   0.605   0.100  1.00  0.00     0.024 A 
HETATM   23  C1  UNL     1       2.554   1.549   1.039  1.00  0.00     0.078 A 
HETATM   24  C2  UNL     1       3.379   2.543   1.515  1.00  0.00     0.037 A 
HETATM   25  C3  UNL     1       4.665   2.624   1.020  1.00  0.00     0.003 A 
HETATM   26  C4  UNL     1       5.046   1.699   0.072  1.00  0.00     0.001 A 
HETATM   27  C5  UNL     1       4.168   0.728  -0.361  1.00  0.00     0.016 A 
BRANCH  23  28
HETATM   28  O1  UNL     1       1.294   1.560   1.601  1.00  0.00    -0.360 OA
HETATM   29  H1  UNL     1       0.734   2.406   1.436  1.00  0.00     0.217 HD
ENDBRANCH  23  28
ENDBRANCH   1  22
TORSDOF 4
