REMARK  4 active torsions:
REMARK  status: ('A' for Active; 'I' for Inactive)
REMARK    1  A    between atoms: C4_5  and  O1_6 
REMARK    2  A    between atoms: O1_6  and  C5_7 
REMARK    3  A    between atoms: C11_15  and  N4_16 
REMARK    4  A    between atoms: N4_16  and  C12_17 
ROOT
HETATM    1  C5  UNL     1      -0.165   1.621  -0.775  1.00  0.00     0.085 A 
HETATM    2  C6  UNL     1       0.895   2.285  -1.342  1.00  0.00     0.038 A 
HETATM    3  C7  UNL     1       0.886   3.567  -1.834  1.00  0.00     0.005 A 
HETATM    4  C8  UNL     1      -0.304   4.298  -1.770  1.00  0.00     0.033 A 
HETATM    5  C9  UNL     1      -1.400   3.691  -1.216  1.00  0.00     0.075 A 
HETATM    6  N2  UNL     1      -2.538   4.362  -1.124  1.00  0.00    -0.241 NA
HETATM    7  C10 UNL     1      -3.663   3.895  -0.599  1.00  0.00     0.236 A 
HETATM    8  N3  UNL     1      -3.616   2.656  -0.141  1.00  0.00    -0.223 NA
HETATM    9  C11 UNL     1      -2.492   1.866  -0.184  1.00  0.00     0.144 A 
HETATM   10  C18 UNL     1      -1.316   2.400  -0.746  1.00  0.00     0.072 A 
ENDROOT
BRANCH   9  11
HETATM   11  N4  UNL     1      -2.562   0.553   0.272  1.00  0.00    -0.340 N 
HETATM   12  H13 UNL     1      -2.969   0.300  -0.692  1.00  0.00     0.167 HD
BRANCH  11  13
HETATM   13  C12 UNL     1      -2.629  -0.754   0.731  1.00  0.00     0.035 A 
HETATM   14  C13 UNL     1      -2.565  -1.995   0.099  1.00  0.00     0.032 A 
HETATM   15  C14 UNL     1      -2.707  -3.158   0.800  1.00  0.00     0.046 A 
HETATM   16  C15 UNL     1      -2.915  -3.054   2.142  1.00  0.00     0.138 A 
HETATM   17  F1  UNL     1      -3.040  -4.270   2.715  1.00  0.00    -0.204 F 
HETATM   18  C16 UNL     1      -2.987  -1.878   2.822  1.00  0.00     0.074 A 
HETATM   19 CL1  UNL     1      -3.256  -2.069   4.546  1.00  0.00    -0.081 Cl
HETATM   20  C17 UNL     1      -2.841  -0.693   2.105  1.00  0.00     0.056 A 
ENDBRANCH  11  13
ENDBRANCH   9  11
BRANCH   1  21
HETATM   21  O1  UNL     1      -0.123   0.325  -0.271  1.00  0.00    -0.345 OA
BRANCH  21  22
HETATM   22  C4  UNL     1       1.094  -0.348  -0.219  1.00  0.00     0.132 C 
HETATM   23  C3  UNL     1       1.216  -1.617  -0.997  1.00  0.00     0.062 C 
HETATM   24  C2  UNL     1       2.712  -1.911  -1.168  1.00  0.00     0.274 C 
HETATM   25  N1  UNL     1       3.415  -1.087  -0.231  1.00  0.00     0.084 N 
HETATM   26  C1  UNL     1       4.845  -1.176  -0.285  1.00  0.00     0.309 C 
HETATM   27  C20 UNL     1       2.926  -1.217   1.121  1.00  0.00     0.274 C 
HETATM   28  C19 UNL     1       1.479  -0.736   1.227  1.00  0.00     0.062 C 
ENDBRANCH  21  22
ENDBRANCH   1  21
TORSDOF 4
