REMARK  5 active torsions:
REMARK  status: ('A' for Active; 'I' for Inactive)
REMARK    1  A    between atoms: C3_3  and  N1_4 
REMARK    2  A    between atoms: N1_4  and  C4_5 
REMARK    3  A    between atoms: C9_12  and  N4_13 
REMARK    4  A    between atoms: N4_13  and  C10_14 
REMARK    5  A    between atoms: C15_19  and  O1_20 
ROOT
HETATM    1  C4  UNL     1       1.800  -0.332  -0.831  1.00  0.00     0.142 A 
HETATM    2  N2  UNL     1       2.766  -0.756  -1.653  1.00  0.00    -0.224 NA
HETATM    3  C5  UNL     1       2.418  -1.145  -2.916  1.00  0.00     0.236 A 
HETATM    4  N3  UNL     1       1.135  -1.111  -3.349  1.00  0.00    -0.241 NA
HETATM    5  C6  UNL     1       0.170  -0.689  -2.535  1.00  0.00     0.072 A 
HETATM    6  C7  UNL     1      -1.161  -0.642  -2.949  1.00  0.00     0.035 A 
HETATM    7  C8  UNL     1      -2.075  -0.194  -2.039  1.00  0.00     0.031 A 
HETATM    8  C9  UNL     1      -1.817   0.216  -0.750  1.00  0.00     0.029 A 
HETATM    9  C16 UNL     1      -0.498   0.147  -0.403  1.00  0.00     0.046 A 
HETATM   10  C17 UNL     1       0.489  -0.290  -1.255  1.00  0.00     0.041 A 
ENDROOT
BRANCH   1  11
HETATM   11  N1  UNL     1       2.204   0.058   0.459  1.00  0.00    -0.340 N 
HETATM   12  H4  UNL     1       1.733   0.419   1.301  1.00  0.00     0.167 HD
BRANCH  11  13
HETATM   13  C3  UNL     1       3.582  -0.016   0.814  1.00  0.00     0.041 A 
HETATM   14  C2  UNL     1       4.259   1.074   1.113  1.00  0.00    -0.032 A 
HETATM   15  C1  UNL     1       3.523   2.387   1.063  1.00  0.00     0.051 C 
HETATM   16  P1  UNL     1       6.024   1.187   1.586  1.00  0.00    -0.092 P 
HETATM   17  C20 UNL     1       6.664  -0.554   1.579  1.00  0.00     0.087 A 
HETATM   18  H20 UNL     1       6.684   1.937   0.536  1.00  0.00     0.062 HD
HETATM   19  C19 UNL     1       5.563  -1.440   1.186  1.00  0.00     0.018 A 
HETATM   20  C18 UNL     1       4.301  -1.268   0.869  1.00  0.00     0.050 A 
HETATM   21 CL1  UNL     1       6.186  -3.099   1.171  1.00  0.00    -0.089 Cl
ENDBRANCH  11  13
ENDBRANCH   1  11
BRANCH   8  22
HETATM   22  N4  UNL     1      -2.787   0.669   0.165  1.00  0.00    -0.379 N 
HETATM   23  H8  UNL     1      -2.407   0.958   1.115  1.00  0.00     0.160 HD
BRANCH  22  24
HETATM   24  C10 UNL     1      -4.227   0.793  -0.014  1.00  0.00     0.137 A 
HETATM   25  C11 UNL     1      -4.808   1.390   1.236  1.00  0.00     0.001 A 
HETATM   26  C12 UNL     1      -5.727   0.991   2.086  1.00  0.00    -0.002 A 
HETATM   27  C13 UNL     1      -6.334  -0.291   1.789  1.00  0.00    -0.002 A 
HETATM   28  C14 UNL     1      -5.911  -0.913   0.710  1.00  0.00     0.007 A 
HETATM   29  C15 UNL     1      -4.884  -0.538  -0.314  1.00  0.00     0.167 A 
BRANCH  29  30
HETATM   30  O1  UNL     1      -5.611  -0.428  -1.520  1.00  0.00    -0.389 OA
HETATM   31  H15 UNL     1      -5.472  -1.240  -2.085  1.00  0.00     0.210 HD
ENDBRANCH  29  30
ENDBRANCH  22  24
ENDBRANCH   8  22
TORSDOF 5
