REMARK  7 active torsions:
REMARK  status: ('A' for Active; 'I' for Inactive)
REMARK    1  A    between atoms: O1_1  and  C1_2 
REMARK    2  A    between atoms: C1_2  and  C2_3 
REMARK    3  A    between atoms: C2_3  and  C3_4 
REMARK    4  A    between atoms: C3_4  and  N1_5 
REMARK    5  A    between atoms: N1_5  and  C4_6 
REMARK    6  A    between atoms: C9_13  and  N4_14 
REMARK    7  A    between atoms: N4_14  and  C10_15 
ROOT
HETATM    1  C4  UNL     1      -0.079  -1.561   0.913  1.00  0.00     0.022 A 
HETATM    2  C5  UNL     1       0.646  -2.091   1.926  1.00  0.00     0.028 A 
HETATM    3  C6  UNL     1      -0.047  -2.162   3.212  1.00  0.00     0.030 A 
HETATM    4  C7  UNL     1      -1.234  -1.649   2.927  1.00  0.00     0.053 A 
HETATM    5  N2  UNL     1      -2.391  -1.398   3.703  1.00  0.00    -0.245 NA
HETATM    6  C8  UNL     1      -3.336  -0.611   3.247  1.00  0.00     0.235 C 
HETATM    7  N3  UNL     1      -3.163  -0.061   1.980  1.00  0.00    -0.227 NA
HETATM    8  C9  UNL     1      -2.220  -0.218   1.134  1.00  0.00     0.121 C 
HETATM    9  C16 UNL     1      -1.372  -1.330   1.506  1.00  0.00     0.157 A 
ENDROOT
BRANCH   1  10
HETATM   10  N1  UNL     1       0.530  -1.441  -0.391  1.00  0.00    -0.392 N 
HETATM   11  H6  UNL     1       0.013  -1.833  -1.233  1.00  0.00     0.159 HD
BRANCH  10  12
HETATM   12  C3  UNL     1       1.821  -0.766  -0.321  1.00  0.00     0.123 C 
BRANCH  12  13
HETATM   13  C2  UNL     1       2.451  -0.720  -1.667  1.00  0.00     0.063 C 
BRANCH  13  14
HETATM   14  C1  UNL     1       3.809  -0.034  -1.648  1.00  0.00     0.092 A 
HETATM   15  C17 UNL     1       3.740   1.364  -1.162  1.00  0.00     0.070 A 
HETATM   16  C18 UNL     1       4.647   1.748  -0.073  1.00  0.00    -0.023 A 
HETATM   17  C19 UNL     1       5.594   1.291   0.723  1.00  0.00    -0.003 A 
HETATM   18  C20 UNL     1       5.894  -0.096   0.483  1.00  0.00     0.014 A 
HETATM   19  P1  UNL     1       5.088  -0.936  -0.682  1.00  0.00    -0.022 P 
BRANCH  14  20
HETATM   20  O1  UNL     1       4.262  -0.082  -2.985  1.00  0.00    -0.384 OA
HETATM   21  H1  UNL     1       4.396  -1.051  -3.215  1.00  0.00     0.211 HD
ENDBRANCH  14  20
ENDBRANCH  13  14
ENDBRANCH  12  13
ENDBRANCH  10  12
ENDBRANCH   1  10
BRANCH   8  22
HETATM   22  N4  UNL     1      -2.164   0.429  -0.121  1.00  0.00    -0.344 N 
HETATM   23  H10 UNL     1      -1.220   0.441  -0.576  1.00  0.00     0.167 HD
BRANCH  22  24
HETATM   24  C10 UNL     1      -3.439   0.969  -0.560  1.00  0.00     0.033 A 
HETATM   25  C11 UNL     1      -4.356   0.075  -1.099  1.00  0.00     0.029 A 
HETATM   26  C12 UNL     1      -5.612   0.445  -1.562  1.00  0.00     0.002 A 
HETATM   27  C13 UNL     1      -5.919   1.783  -1.460  1.00  0.00     0.000 A 
HETATM   28  C14 UNL     1      -5.021   2.681  -0.928  1.00  0.00     0.002 A 
HETATM   29  C15 UNL     1      -3.757   2.294  -0.465  1.00  0.00     0.029 A 
ENDBRANCH  22  24
ENDBRANCH   8  22
TORSDOF 7
