REMARK  6 active torsions:
REMARK  status: ('A' for Active; 'I' for Inactive)
REMARK    1  A    between atoms: O1_1  and  C1_2 
REMARK    2  A    between atoms: C4_5  and  C5_6 
REMARK    3  A    between atoms: C5_6  and  N1_7 
REMARK    4  A    between atoms: N1_7  and  C6_8 
REMARK    5  A    between atoms: C12_14  and  N2_15 
REMARK    6  A    between atoms: N2_15  and  C13_16 
ROOT
HETATM    1  C6  UNL     1      -0.914   0.185  -0.072  1.00  0.00     0.029 A 
HETATM    2  C7  UNL     1      -1.325  -0.836  -0.891  1.00  0.00     0.029 A 
HETATM    3  C8  UNL     1      -0.559  -1.909  -1.288  1.00  0.00     0.000 A 
HETATM    4  C9  UNL     1       0.733  -1.940  -0.808  1.00  0.00    -0.061 A 
HETATM    5  C10 UNL     1       1.199  -0.946   0.015  1.00  0.00     0.011 A 
HETATM    6  C11 UNL     1       0.396   0.108   0.387  1.00  0.00     0.044 A 
HETATM    7  C12 UNL     1       2.580  -0.942   0.516  1.00  0.00     0.156 A 
HETATM    8  N3  UNL     1       3.379  -1.889   0.185  1.00  0.00    -0.175 NA
HETATM    9  N4  UNL     1       3.136  -2.976  -0.614  1.00  0.00    -0.359 N 
HETATM   10  B1  UNL     1       1.717  -3.084  -1.200  1.00  0.00     0.326 B 
HETATM   11  H15 UNL     1       3.827  -3.699  -0.837  1.00  0.00     0.161 HD
HETATM   12  H16 UNL     1       1.513  -3.728  -2.177  1.00  0.00     0.007 HD
ENDROOT
BRANCH   1  13
HETATM   13  N1  UNL     1      -1.746   1.278   0.255  1.00  0.00    -0.386 N 
HETATM   14  H6  UNL     1      -1.250   1.928   0.955  1.00  0.00     0.160 HD
BRANCH  13  15
HETATM   15  C5  UNL     1      -3.008   1.839  -0.007  1.00  0.00     0.158 C 
BRANCH  15  16
HETATM   16  C4  UNL     1      -4.202   1.001   0.186  1.00  0.00    -0.040 A 
HETATM   17  C3  UNL     1      -4.728   0.353  -0.918  1.00  0.00     0.011 A 
HETATM   18  C2  UNL     1      -5.840  -0.454  -0.932  1.00  0.00     0.037 A 
HETATM   19  C1  UNL     1      -6.515  -0.660   0.233  1.00  0.00     0.065 A 
HETATM   20  C20 UNL     1      -6.022  -0.025   1.380  1.00  0.00     0.037 A 
HETATM   21  C19 UNL     1      -4.892   0.788   1.365  1.00  0.00     0.011 A 
BRANCH  19  22
HETATM   22  O1  UNL     1      -7.654  -1.446   0.379  1.00  0.00    -0.361 OA
HETATM   23  H1  UNL     1      -8.560  -0.985   0.485  1.00  0.00     0.217 HD
ENDBRANCH  19  22
ENDBRANCH  15  16
ENDBRANCH  13  15
ENDBRANCH   1  13
BRANCH   7  24
HETATM   24  N2  UNL     1       3.105   0.093   1.371  1.00  0.00    -0.339 N 
HETATM   25  H10 UNL     1       2.427   0.362   2.120  1.00  0.00     0.167 HD
BRANCH  24  26
HETATM   26  C13 UNL     1       4.445   0.553   1.018  1.00  0.00     0.035 A 
HETATM   27  C14 UNL     1       5.632  -0.107   1.192  1.00  0.00     0.029 A 
HETATM   28  C15 UNL     1       6.802   0.531   0.786  1.00  0.00     0.004 A 
HETATM   29  C16 UNL     1       6.686   1.787   0.235  1.00  0.00     0.024 A 
HETATM   30  C17 UNL     1       5.491   2.452   0.060  1.00  0.00     0.036 A 
HETATM   31 CL1  UNL     1       5.559   4.061  -0.661  1.00  0.00    -0.084 Cl
HETATM   32  C18 UNL     1       4.305   1.829   0.460  1.00  0.00     0.053 A 
ENDBRANCH  24  26
ENDBRANCH   7  24
TORSDOF 6
