REMARK  3 active torsions:
REMARK  status: ('A' for Active; 'I' for Inactive)
REMARK    1  A    between atoms: C5_6  and  N1_7 
REMARK    2  A    between atoms: N1_7  and  C6_8 
REMARK    3  A    between atoms: C8_12  and  C9_13 
ROOT
HETATM    1  C6  UNL     1      -3.051   0.168   0.591  1.00  0.00     0.107 A 
HETATM    2  N2  UNL     1      -2.854  -1.091   0.338  1.00  0.00    -0.229 NA
HETATM    3  C7  UNL     1      -1.518  -1.579   0.547  1.00  0.00     0.229 A 
HETATM    4  N3  UNL     1      -0.536  -0.875   0.955  1.00  0.00    -0.273 NA
HETATM    5  C8  UNL     1      -0.675   0.510   1.252  1.00  0.00     0.140 A 
HETATM    6  C19 UNL     1      -2.018   1.112   1.069  1.00  0.00     0.110 A 
ENDROOT
BRANCH   5   7
HETATM    7  C9  UNL     1       0.289   1.335   0.450  1.00  0.00     0.010 C 
HETATM    8  C10 UNL     1       1.573   0.996   0.428  1.00  0.00    -0.033 C 
HETATM    9  C11 UNL     1       2.016  -0.185   1.195  1.00  0.00     0.214 C 
HETATM   10  P1  UNL     1       2.683   2.055  -0.576  1.00  0.00    -0.093 P 
HETATM   11  O1  UNL     1       3.394  -0.172   1.455  1.00  0.00    -0.346 OA
HETATM   12  C12 UNL     1       4.522  -0.266   0.689  1.00  0.00     0.075 A 
HETATM   13  C13 UNL     1       5.629  -0.882   1.284  1.00  0.00     0.037 A 
HETATM   14  C17 UNL     1       4.641   0.187  -0.584  1.00  0.00    -0.021 A 
HETATM   15  C14 UNL     1       6.833  -1.050   0.641  1.00  0.00     0.003 A 
HETATM   16  C15 UNL     1       6.965  -0.595  -0.649  1.00  0.00     0.001 A 
HETATM   17  C16 UNL     1       5.871   0.010  -1.227  1.00  0.00     0.010 A 
HETATM   18  C18 UNL     1       3.755   0.880  -1.575  1.00  0.00     0.077 C 
HETATM   19  H17 UNL     1       3.568   2.813   0.297  1.00  0.00     0.062 HD
ENDBRANCH   5   7
BRANCH   1  20
HETATM   20  N1  UNL     1      -4.332   0.751   0.417  1.00  0.00    -0.346 N 
HETATM   21  H5  UNL     1      -4.647   1.703   0.744  1.00  0.00     0.167 HD
BRANCH  20  22
HETATM   22  C5  UNL     1      -5.381   0.064  -0.256  1.00  0.00     0.032 A 
HETATM   23  C1  UNL     1      -5.665  -0.163  -1.681  1.00  0.00     0.154 A 
HETATM   24 CL1  UNL     1      -4.355  -1.052  -2.494  1.00  0.00    -0.114 Cl
HETATM   25  C2  UNL     1      -6.929  -0.963  -1.626  1.00  0.00    -0.001 A 
HETATM   26  C3  UNL     1      -7.307  -1.162  -0.353  1.00  0.00    -0.000 A 
HETATM   27  C4  UNL     1      -6.305  -0.498   0.506  1.00  0.00     0.026 A 
ENDBRANCH  20  22
ENDBRANCH   1  20
TORSDOF 3
