REMARK  7 active torsions:
REMARK  status: ('A' for Active; 'I' for Inactive)
REMARK    1  A    between atoms: C4_4  and  C5_5 
REMARK    2  A    between atoms: C5_5  and  N1_6 
REMARK    3  A    between atoms: N1_6  and  C6_7 
REMARK    4  A    between atoms: C12_16  and  C13_17 
REMARK    5  A    between atoms: C13_17  and  C17_21 
REMARK    6  A    between atoms: C14_18  and  C15_19 
REMARK    7  A    between atoms: C18_22  and  N5_23 
ROOT
HETATM    1  C1  UNL     1       8.016   1.496   0.530  1.00  0.00     0.027 C 
HETATM    2  C2  UNL     1       7.322   0.512   0.396  1.00  0.00    -0.026 C 
HETATM    3  C3  UNL     1       6.515  -0.642   0.224  1.00  0.00    -0.014 C 
HETATM    4  C4  UNL     1       5.837  -1.633   0.070  1.00  0.00    -0.073 C 
ENDROOT
BRANCH   4   5
HETATM    5  C5  UNL     1       5.002  -2.849  -0.140  1.00  0.00     0.216 C 
BRANCH   5   6
HETATM    6  N1  UNL     1       3.673  -2.337  -0.400  1.00  0.00    -0.364 N 
HETATM    7  H4  UNL     1       3.525  -2.696  -1.355  1.00  0.00     0.162 HD
BRANCH   6   8
HETATM    8  C6  UNL     1       3.115  -1.600   0.655  1.00  0.00     0.138 A 
HETATM    9  N2  UNL     1       3.790  -1.421   1.800  1.00  0.00    -0.224 NA
HETATM   10  C7  UNL     1       3.326  -0.741   2.854  1.00  0.00     0.235 A 
HETATM   11  N3  UNL     1       2.111  -0.182   2.808  1.00  0.00    -0.241 NA
HETATM   12  C8  UNL     1       1.346  -0.293   1.723  1.00  0.00     0.072 A 
HETATM   13  C9  UNL     1       1.877  -1.003   0.672  1.00  0.00     0.036 A 
HETATM   14  C21 UNL     1       0.238   0.365   2.024  1.00  0.00     0.035 C 
HETATM   15  C10 UNL     1       1.353  -1.248  -0.499  1.00  0.00     0.010 C 
HETATM   16  C11 UNL     1       0.244  -1.122  -1.447  1.00  0.00     0.148 C 
HETATM   17  N4  UNL     1      -1.008  -0.701  -0.816  1.00  0.00    -0.386 N 
HETATM   18  C12 UNL     1      -1.556   0.224   0.096  1.00  0.00     0.041 C 
HETATM   19  H9  UNL     1      -1.827  -1.312  -1.151  1.00  0.00     0.160 HD
HETATM   20  C20 UNL     1      -0.957   0.582   1.222  1.00  0.00     0.032 C 
BRANCH  18  21
HETATM   21  C13 UNL     1      -2.866   0.749  -0.228  1.00  0.00     0.026 C 
HETATM   22  C14 UNL     1      -3.647   1.566   0.441  1.00  0.00     0.016 C 
BRANCH  22  23
HETATM   23  C15 UNL     1      -3.655   2.292   1.677  1.00  0.00    -0.009 C 
HETATM   24  C16 UNL     1      -4.632   3.071   2.095  1.00  0.00     0.011 C 
ENDBRANCH  22  23
BRANCH  21  25
HETATM   25  C17 UNL     1      -3.433   0.350  -1.534  1.00  0.00     0.105 A 
HETATM   26  C18 UNL     1      -4.593   0.708  -2.077  1.00  0.00     0.062 A 
HETATM   27  C19 UNL     1      -4.316  -0.086  -3.268  1.00  0.00     0.235 A 
HETATM   28  O1  UNL     1      -3.139  -0.424  -2.641  1.00  0.00    -0.342 OA
BRANCH  26  29
HETATM   29  N5  UNL     1      -5.774   1.463  -1.919  1.00  0.00    -0.398 N 
HETATM   30  H14 UNL     1      -6.643   0.944  -1.606  1.00  0.00     0.156 HD
HETATM   31  H15 UNL     1      -5.758   2.494  -2.110  1.00  0.00     0.156 HD
ENDBRANCH  26  29
ENDBRANCH  21  25
ENDBRANCH  18  21
ENDBRANCH   6   8
ENDBRANCH   5   6
ENDBRANCH   4   5
TORSDOF 7
