REMARK  2 active torsions:
REMARK  status: ('A' for Active; 'I' for Inactive)
REMARK    1  A    between atoms: C9_11  and  N2_12 
REMARK    2  A    between atoms: N2_12  and  C10_13 
ROOT
HETATM    1  C1  UNL     1      -5.504   0.336  -0.758  1.00  0.00     0.048 C 
HETATM    2  C2  UNL     1      -4.055   0.404  -0.577  1.00  0.00    -0.053 C 
HETATM    3  C3  UNL     1      -3.499  -0.460   0.300  1.00  0.00     0.012 C 
HETATM    4  C4  UNL     1      -3.954  -1.538   1.202  1.00  0.00     0.315 C 
HETATM    5  N1  UNL     1      -2.576  -1.547   1.727  1.00  0.00     0.121 N 
HETATM    6  C5  UNL     1      -2.619  -0.930   3.066  1.00  0.00     0.314 C 
HETATM    7  C6  UNL     1      -2.062  -0.642   0.712  1.00  0.00     0.392 C 
HETATM    8  O1  UNL     1      -1.226  -1.158  -0.165  1.00  0.00    -0.338 OA
HETATM    9  C7  UNL     1      -0.596  -0.548  -1.157  1.00  0.00     0.204 A 
HETATM   10  C8  UNL     1       0.885  -0.750  -0.948  1.00  0.00     0.061 A 
HETATM   11  C9  UNL     1       1.697   0.259  -1.066  1.00  0.00     0.120 A 
HETATM   12  N3  UNL     1       1.312   1.588  -1.381  1.00  0.00    -0.262 N 
HETATM   13  N4  UNL     1      -0.033   1.846  -1.582  1.00  0.00    -0.175 NA
HETATM   14  C16 UNL     1      -0.879   0.867  -1.476  1.00  0.00     0.087 A 
HETATM   15  C17 UNL     1      -2.131   1.609  -1.774  1.00  0.00     0.032 C 
HETATM   16  C18 UNL     1      -3.435   1.459  -1.433  1.00  0.00     0.009 C 
HETATM   17  H16 UNL     1       1.989   2.378  -1.467  1.00  0.00     0.191 HD
ENDROOT
BRANCH  11  18
HETATM   18  N2  UNL     1       3.089   0.096  -0.877  1.00  0.00    -0.342 N 
HETATM   19  H12 UNL     1       3.482  -0.065  -1.852  1.00  0.00     0.167 HD
BRANCH  18  20
HETATM   20  C10 UNL     1       4.260   0.030  -0.092  1.00  0.00     0.035 A 
HETATM   21  C11 UNL     1       4.546  -1.183   0.513  1.00  0.00     0.032 A 
HETATM   22  C12 UNL     1       5.704  -1.278   1.298  1.00  0.00     0.046 A 
HETATM   23  C13 UNL     1       6.453  -0.128   1.386  1.00  0.00     0.138 A 
HETATM   24  F1  UNL     1       7.567  -0.280   2.163  1.00  0.00    -0.204 F 
HETATM   25  C14 UNL     1       6.197   1.084   0.800  1.00  0.00     0.074 A 
HETATM   26 CL1  UNL     1       7.328   2.421   1.069  1.00  0.00    -0.081 Cl
HETATM   27  C15 UNL     1       5.055   1.153   0.035  1.00  0.00     0.056 A 
ENDBRANCH  18  20
ENDBRANCH  11  18
TORSDOF 2
