REMARK  3 active torsions:
REMARK  status: ('A' for Active; 'I' for Inactive)
REMARK    1  A    between atoms: O1_2  and  C2_3 
REMARK    2  A    between atoms: C7_8  and  C8_9 
REMARK    3  A    between atoms: C8_9  and  N1_10 
ROOT
HETATM    1  N1  UNL     1       0.003   0.323   0.789  1.00  0.00    -0.265 N 
HETATM    2  N2  UNL     1       0.553   0.848   1.955  1.00  0.00    -0.170 NA
HETATM    3  C9  UNL     1       0.725   2.122   2.073  1.00  0.00     0.107 C 
HETATM    4  C10 UNL     1       0.580   2.747   0.934  1.00  0.00     0.037 C 
HETATM    5  C11 UNL     1       1.673   2.552   0.024  1.00  0.00     0.019 C 
HETATM    6  C12 UNL     1       2.930   2.088  -0.084  1.00  0.00     0.090 C 
HETATM    7  N3  UNL     1       4.062   1.464   0.601  1.00  0.00    -0.350 N 
HETATM    8  C13 UNL     1       4.564   0.195   0.131  1.00  0.00     0.141 A 
HETATM    9  N4  UNL     1       5.670  -0.413  -0.283  1.00  0.00    -0.224 NA
HETATM   10  C14 UNL     1       5.612  -1.688  -0.801  1.00  0.00     0.236 A 
HETATM   11  N5  UNL     1       4.504  -2.489  -0.969  1.00  0.00    -0.241 NA
HETATM   12  C15 UNL     1       3.309  -1.961  -0.571  1.00  0.00     0.072 A 
HETATM   13  C16 UNL     1       2.059  -2.529  -0.632  1.00  0.00     0.035 A 
HETATM   14  C17 UNL     1       0.915  -1.880  -0.200  1.00  0.00     0.033 A 
HETATM   15  C18 UNL     1       0.946  -0.611   0.331  1.00  0.00     0.054 A 
HETATM   16  C19 UNL     1       2.265  -0.395   0.235  1.00  0.00     0.049 A 
HETATM   17  C20 UNL     1       3.534  -0.672  -0.069  1.00  0.00     0.041 A 
HETATM   18  H13 UNL     1       4.693   1.614   1.358  1.00  0.00     0.166 HD
ENDROOT
BRANCH   1  19
HETATM   19  C8  UNL     1      -1.092   0.306  -0.150  1.00  0.00     0.193 C 
BRANCH  19  20
HETATM   20  C7  UNL     1      -2.382  -0.006   0.519  1.00  0.00    -0.005 A 
HETATM   21  C2  UNL     1      -3.605  -0.087  -0.158  1.00  0.00     0.076 A 
HETATM   22  C3  UNL     1      -4.769  -0.381   0.519  1.00  0.00     0.037 A 
HETATM   23  C4  UNL     1      -4.774  -0.605   1.881  1.00  0.00     0.003 A 
HETATM   24  C5  UNL     1      -3.563  -0.526   2.559  1.00  0.00     0.001 A 
HETATM   25  C6  UNL     1      -2.394  -0.233   1.887  1.00  0.00     0.012 A 
BRANCH  21  26
HETATM   26  O1  UNL     1      -3.480   0.156  -1.520  1.00  0.00    -0.355 OA
HETATM   27  C1  UNL     1      -4.649   0.101  -2.303  1.00  0.00     0.210 C 
ENDBRANCH  21  26
ENDBRANCH  19  20
ENDBRANCH   1  19
TORSDOF 3
