REMARK  0 active torsions:
REMARK  status: ('A' for Active; 'I' for Inactive)
ROOT
HETATM    1  C1  UNL     1       2.580  -1.529  -3.070  1.00  0.00     0.049 C 
HETATM    2  C2  UNL     1       2.622  -1.737  -1.609  1.00  0.00    -0.055 C 
HETATM    3  C3  UNL     1       2.714  -0.537  -1.144  1.00  0.00     0.007 C 
HETATM    4  C4  UNL     1       2.817   0.705  -0.512  1.00  0.00    -0.004 C 
HETATM    5  C5  UNL     1       2.830   1.833  -1.126  1.00  0.00    -0.037 C 
HETATM    6  C6  UNL     1       2.908   3.263  -0.972  1.00  0.00    -0.027 C 
HETATM    7  B1  UNL     1       1.640   4.008  -1.511  1.00  0.00     0.159 B 
HETATM    8  C7  UNL     1       0.198   3.379  -1.572  1.00  0.00    -0.052 C 
HETATM    9  C8  UNL     1      -0.568   3.514  -0.277  1.00  0.00    -0.029 C 
HETATM   10  C9  UNL     1      -1.131   2.449   0.400  1.00  0.00     0.042 C 
HETATM   11  C10 UNL     1      -1.904   2.372   1.669  1.00  0.00    -0.008 C 
HETATM   12  C11 UNL     1      -2.371   1.172   2.086  1.00  0.00     0.004 A 
HETATM   13  C12 UNL     1      -3.101   1.356   3.382  1.00  0.00     0.192 A 
HETATM   14  N1  UNL     1      -3.622   0.133   3.832  1.00  0.00    -0.278 NA
HETATM   15  C13 UNL     1      -3.625  -1.039   3.398  1.00  0.00     0.229 A 
HETATM   16  N2  UNL     1      -2.931  -1.175   2.152  1.00  0.00    -0.224 NA
HETATM   17  C14 UNL     1      -2.387  -0.189   1.590  1.00  0.00     0.137 A 
HETATM   18  N3  UNL     1      -2.008  -1.069   0.505  1.00  0.00    -0.340 N 
HETATM   19  C15 UNL     1      -1.204  -2.190   0.244  1.00  0.00     0.036 A 
HETATM   20  C16 UNL     1      -1.890  -3.401   0.371  1.00  0.00     0.053 A 
HETATM   21  C17 UNL     1      -1.347  -4.662   0.173  1.00  0.00     0.037 A 
HETATM   22 CL1  UNL     1      -2.236  -6.146   0.337  1.00  0.00    -0.084 Cl
HETATM   23  C18 UNL     1       0.007  -4.778  -0.190  1.00  0.00     0.036 A 
HETATM   24  C19 UNL     1       0.700  -3.617  -0.322  1.00  0.00    -0.026 A 
HETATM   25  C20 UNL     1       0.093  -2.409  -0.108  1.00  0.00     0.042 A 
HETATM   26  P1  UNL     1       2.466  -3.408  -0.815  1.00  0.00    -0.065 P 
HETATM   27  H9  UNL     1       1.640   5.208  -1.276  1.00  0.00    -0.026 HD
HETATM   28  H18 UNL     1      -2.406  -0.976  -0.446  1.00  0.00     0.167 HD
HETATM   29  H22 UNL     1       2.853  -4.378  -1.788  1.00  0.00     0.067 HD
ENDROOT
TORSDOF 0
