REMARK  3 active torsions:
REMARK  status: ('A' for Active; 'I' for Inactive)
REMARK    1  A    between atoms: O1_2  and  C2_3 
REMARK    2  A    between atoms: C12_15  and  N3_16 
REMARK    3  A    between atoms: N3_16  and  C13_17 
ROOT
HETATM    1  C2  UNL     1      -4.360  -0.194  -0.575  1.00  0.00     0.047 C 
HETATM    2  C3  UNL     1      -3.952   1.006  -0.924  1.00  0.00     0.032 C 
HETATM    3  C4  UNL     1      -2.790   1.649  -0.366  1.00  0.00    -0.002 C 
HETATM    4  C5  UNL     1      -1.747   1.876   0.363  1.00  0.00    -0.026 C 
HETATM    5  C6  UNL     1      -0.535   2.412   1.021  1.00  0.00     0.032 C 
HETATM    6  C7  UNL     1       0.573   1.355   0.990  1.00  0.00     0.046 C 
HETATM    7  C8  UNL     1       0.630   0.535  -0.222  1.00  0.00    -0.012 C 
HETATM    8  C9  UNL     1       0.042   0.177  -1.383  1.00  0.00     0.042 C 
HETATM    9  C10 UNL     1      -0.725  -1.165  -1.536  1.00  0.00     0.366 C 
HETATM   10  N1  UNL     1       0.150  -2.276  -1.277  1.00  0.00    -0.243 NA
HETATM   11  C11 UNL     1       1.467  -2.277  -1.372  1.00  0.00     0.232 C 
HETATM   12  N2  UNL     1       2.307  -1.377  -0.603  1.00  0.00    -0.224 NA
HETATM   13  C12 UNL     1       1.887  -0.254  -0.029  1.00  0.00     0.135 C 
HETATM   14  N4  UNL     1      -1.798  -1.122  -0.662  1.00  0.00     0.112 N 
HETATM   15  C19 UNL     1      -2.809  -2.077  -0.457  1.00  0.00     0.279 C 
HETATM   16  C20 UNL     1      -3.856  -1.222   0.387  1.00  0.00     0.094 C 
HETATM   17  H19 UNL     1      -1.338  -1.024   0.346  1.00  0.00     0.319 HD
ENDROOT
BRANCH  13  18
HETATM   18  N3  UNL     1       2.904   0.144   0.920  1.00  0.00    -0.341 N 
HETATM   19  H14 UNL     1       2.494   0.497   1.839  1.00  0.00     0.167 HD
BRANCH  18  20
HETATM   20  C13 UNL     1       4.305   0.107   0.714  1.00  0.00     0.035 A 
HETATM   21  C14 UNL     1       4.923  -0.231  -0.463  1.00  0.00     0.029 A 
HETATM   22  C15 UNL     1       6.293  -0.260  -0.628  1.00  0.00     0.004 A 
HETATM   23  C16 UNL     1       7.091   0.064   0.432  1.00  0.00     0.024 A 
HETATM   24  C17 UNL     1       6.496   0.407   1.625  1.00  0.00     0.036 A 
HETATM   25 CL1  UNL     1       7.480   0.828   3.005  1.00  0.00    -0.084 Cl
HETATM   26  C18 UNL     1       5.117   0.432   1.775  1.00  0.00     0.053 A 
ENDBRANCH  18  20
ENDBRANCH  13  18
BRANCH   1  27
HETATM   27  O1  UNL     1      -5.507  -0.523  -1.291  1.00  0.00    -0.360 OA
HETATM   28  C1  UNL     1      -6.788  -0.036  -0.945  1.00  0.00     0.209 C 
ENDBRANCH   1  27
TORSDOF 3
