REMARK  6 active torsions:
REMARK  status: ('A' for Active; 'I' for Inactive)
REMARK    1  A    between atoms: C5_6  and  N1_7 
REMARK    2  A    between atoms: N1_7  and  C6_8 
REMARK    3  A    between atoms: C6_8  and  C7_9 
REMARK    4  A    between atoms: C8_10  and  O1_11 
REMARK    5  A    between atoms: O1_11  and  C9_12 
REMARK    6  A    between atoms: C13_17  and  C14_18 
ROOT
HETATM    1  C9  UNL     1      -1.629  -1.702   0.345  1.00  0.00     0.187 C 
HETATM    2  C10 UNL     1      -2.769  -2.440   1.003  1.00  0.00     0.005 C 
HETATM    3  C11 UNL     1      -3.455  -1.750   1.910  1.00  0.00     0.001 C 
HETATM    4  C12 UNL     1      -2.994  -0.370   2.132  1.00  0.00     0.298 C 
HETATM    5  N2  UNL     1      -2.867   0.348   0.881  1.00  0.00     0.097 N 
HETATM    6  C13 UNL     1      -2.105  -0.334  -0.121  1.00  0.00     0.277 C 
HETATM    7  H14 UNL     1      -2.521   1.319   1.085  1.00  0.00     0.317 HD
ENDROOT
BRANCH   1   8
HETATM    8  O1  UNL     1      -0.601  -1.476   1.292  1.00  0.00    -0.352 OA
BRANCH   8   9
HETATM    9  C8  UNL     1       0.586  -0.825   0.982  1.00  0.00     0.133 C 
HETATM   10  C7  UNL     1       1.770  -1.361   1.288  1.00  0.00     0.017 C 
BRANCH  10  11
HETATM   11  C6  UNL     1       3.192  -1.017   1.142  1.00  0.00     0.149 C 
BRANCH  11  12
HETATM   12  N1  UNL     1       3.299   0.276   0.474  1.00  0.00    -0.386 N 
HETATM   13  H4  UNL     1       2.565   0.934   0.116  1.00  0.00     0.160 HD
BRANCH  12  14
HETATM   14  C5  UNL     1       4.652   0.722   0.273  1.00  0.00     0.029 A 
HETATM   15  C4  UNL     1       5.720  -0.049   0.696  1.00  0.00     0.029 A 
HETATM   16  C3  UNL     1       7.047   0.345   0.521  1.00  0.00     0.004 A 
HETATM   17  C2  UNL     1       7.315   1.547  -0.096  1.00  0.00     0.024 A 
HETATM   18  C1  UNL     1       6.278   2.325  -0.523  1.00  0.00     0.036 A 
HETATM   19 CL1  UNL     1       6.571   3.875  -1.321  1.00  0.00    -0.084 Cl
HETATM   20  C19 UNL     1       4.980   1.921  -0.342  1.00  0.00     0.052 A 
ENDBRANCH  12  14
ENDBRANCH  11  12
ENDBRANCH  10  11
ENDBRANCH   8   9
ENDBRANCH   1   8
BRANCH   6  21
HETATM   21  C14 UNL     1      -2.767  -0.395  -1.448  1.00  0.00     0.021 C 
HETATM   22  C15 UNL     1      -3.919   0.084  -1.896  1.00  0.00    -0.022 A 
HETATM   23  C16 UNL     1      -4.251  -0.177  -3.293  1.00  0.00     0.126 A 
HETATM   24  C18 UNL     1      -4.740   0.837  -0.913  1.00  0.00     0.190 A 
HETATM   25  N3  UNL     1      -5.375   0.297  -3.714  1.00  0.00    -0.254 NA
HETATM   26  C17 UNL     1      -6.211   1.024  -2.835  1.00  0.00     0.226 A 
HETATM   27  N4  UNL     1      -5.949   1.268  -1.615  1.00  0.00    -0.278 NA
ENDBRANCH   6  21
TORSDOF 6
