REMARK  6 active torsions:
REMARK  status: ('A' for Active; 'I' for Inactive)
REMARK    1  A    between atoms: O1_2  and  C2_3 
REMARK    2  A    between atoms: C7_8  and  C8_9 
REMARK    3  A    between atoms: C8_9  and  N1_10 
REMARK    4  A    between atoms: N1_10  and  C9_11 
REMARK    5  A    between atoms: C14_19  and  N4_20 
REMARK    6  A    between atoms: N4_20  and  C15_21 
ROOT
HETATM    1  C9  UNL     1       0.714   0.056  -0.786  1.00  0.00     0.018 C 
HETATM    2  C10 UNL     1       0.437  -0.634  -1.874  1.00  0.00    -0.041 C 
HETATM    3  C11 UNL     1       1.469  -0.612  -2.976  1.00  0.00     0.047 C 
HETATM    4  C12 UNL     1      -0.658  -1.541  -2.181  1.00  0.00     0.184 C 
HETATM    5  N2  UNL     1      -1.574  -1.108  -3.161  1.00  0.00    -0.295 NA
HETATM    6  C13 UNL     1      -2.860  -1.327  -3.061  1.00  0.00     0.137 C 
HETATM    7  P1  UNL     1      -3.176  -2.238  -1.523  1.00  0.00     0.041 P 
HETATM    8  N3  UNL     1      -3.489  -1.351  -0.075  1.00  0.00    -0.242 NA
HETATM    9  C14 UNL     1      -2.710  -0.645   0.613  1.00  0.00     0.124 C 
HETATM   10  C21 UNL     1      -1.449   0.060   0.964  1.00  0.00     0.035 C 
HETATM   11  C22 UNL     1      -0.482  -0.001   0.067  1.00  0.00     0.075 C 
HETATM   12  H17 UNL     1      -3.986  -3.422  -1.710  1.00  0.00     0.088 HD
ENDROOT
BRANCH   1  13
HETATM   13  N1  UNL     1       1.948   0.808  -0.618  1.00  0.00    -0.388 N 
HETATM   14  H10 UNL     1       1.686   1.739  -0.999  1.00  0.00     0.159 HD
BRANCH  13  15
HETATM   15  C8  UNL     1       3.037   0.059  -0.025  1.00  0.00     0.161 C 
BRANCH  15  16
HETATM   16  C7  UNL     1       4.140   0.943   0.405  1.00  0.00    -0.007 A 
HETATM   17  C2  UNL     1       5.385   0.419   0.780  1.00  0.00     0.076 A 
HETATM   18  C3  UNL     1       6.365   1.288   1.212  1.00  0.00     0.037 A 
HETATM   19  C4  UNL     1       6.139   2.645   1.276  1.00  0.00     0.003 A 
HETATM   20  C5  UNL     1       4.946   3.219   0.923  1.00  0.00     0.001 A 
HETATM   21  C6  UNL     1       3.968   2.308   0.489  1.00  0.00     0.011 A 
BRANCH  17  22
HETATM   22  O1  UNL     1       5.606  -0.927   0.709  1.00  0.00    -0.355 OA
HETATM   23  C1  UNL     1       6.820  -1.556   1.070  1.00  0.00     0.210 C 
ENDBRANCH  17  22
ENDBRANCH  15  16
ENDBRANCH  13  15
ENDBRANCH   1  13
BRANCH   9  24
HETATM   24  N4  UNL     1      -3.724  -0.289   1.617  1.00  0.00    -0.341 N 
HETATM   25  H18 UNL     1      -3.432  -0.113   2.629  1.00  0.00     0.167 HD
BRANCH  24  26
HETATM   26  C15 UNL     1      -5.159  -0.107   1.480  1.00  0.00     0.035 A 
HETATM   27  C16 UNL     1      -5.507   1.006   0.707  1.00  0.00     0.029 A 
HETATM   28  C17 UNL     1      -6.825   1.398   0.439  1.00  0.00     0.004 A 
HETATM   29  C18 UNL     1      -7.841   0.611   0.991  1.00  0.00     0.024 A 
HETATM   30  C19 UNL     1      -7.473  -0.476   1.747  1.00  0.00     0.036 A 
HETATM   31 CL1  UNL     1      -8.753  -1.468   2.446  1.00  0.00    -0.084 Cl
HETATM   32  C20 UNL     1      -6.180  -0.859   2.008  1.00  0.00     0.053 A 
ENDBRANCH  24  26
ENDBRANCH   9  24
TORSDOF 6
