REMARK  2 active torsions:
REMARK  status: ('A' for Active; 'I' for Inactive)
REMARK    1  A    between atoms: C8_11  and  N4_12 
REMARK    2  A    between atoms: N4_12  and  C9_13 
ROOT
HETATM    1  C1  UNL     1      -4.630  -1.055  -0.173  1.00  0.00     0.310 C 
HETATM    2  N1  UNL     1      -3.463  -0.153  -0.162  1.00  0.00     0.086 N 
HETATM    3  C2  UNL     1      -3.726   0.726   0.989  1.00  0.00     0.275 C 
HETATM    4  C3  UNL     1      -3.432  -0.062   2.276  1.00  0.00     0.057 C 
HETATM    5  C4  UNL     1      -1.931  -0.308   2.287  1.00  0.00    -0.023 C 
HETATM    6  C5  UNL     1      -1.455  -1.097   1.337  1.00  0.00     0.028 C 
HETATM    7  C6  UNL     1      -0.181  -1.630   0.897  1.00  0.00     0.070 A 
HETATM    8  N2  UNL     1       0.533  -2.733   1.099  1.00  0.00    -0.241 NA
HETATM    9  C7  UNL     1       1.726  -2.971   0.555  1.00  0.00     0.235 A 
HETATM   10  N3  UNL     1       2.212  -1.995  -0.261  1.00  0.00    -0.224 NA
HETATM   11  C8  UNL     1       1.563  -0.845  -0.527  1.00  0.00     0.140 A 
HETATM   12  C15 UNL     1       0.334  -0.612   0.044  1.00  0.00     0.040 A 
HETATM   13  C16 UNL     1      -0.278   0.690  -0.320  1.00  0.00     0.212 C 
HETATM   14  O1  UNL     1      -0.932   0.870  -1.422  1.00  0.00    -0.385 OA
HETATM   15  C17 UNL     1      -1.950   0.403  -2.041  1.00  0.00     0.198 C 
HETATM   16  C18 UNL     1      -3.306   0.490  -1.383  1.00  0.00     0.298 C 
ENDROOT
BRANCH  11  17
HETATM   17  N4  UNL     1       2.381  -0.086  -1.405  1.00  0.00    -0.340 N 
HETATM   18  H11 UNL     1       2.249   0.288  -2.365  1.00  0.00     0.167 HD
BRANCH  17  19
HETATM   19  C9  UNL     1       3.691   0.265  -0.886  1.00  0.00     0.035 A 
HETATM   20  C10 UNL     1       4.742   0.730  -1.661  1.00  0.00     0.032 A 
HETATM   21  C11 UNL     1       5.945   1.043  -1.095  1.00  0.00     0.046 A 
HETATM   22  C12 UNL     1       6.193   0.920   0.264  1.00  0.00     0.138 A 
HETATM   23  F1  UNL     1       7.391   1.232   0.812  1.00  0.00    -0.204 F 
HETATM   24  C13 UNL     1       5.165   0.453   1.092  1.00  0.00     0.074 A 
HETATM   25 CL1  UNL     1       5.356   0.259   2.811  1.00  0.00    -0.081 Cl
HETATM   26  C14 UNL     1       3.975   0.154   0.460  1.00  0.00     0.056 A 
ENDBRANCH  17  19
ENDBRANCH  11  17
TORSDOF 2
