REMARK  3 active torsions:
REMARK  status: ('A' for Active; 'I' for Inactive)
REMARK    1  A    between atoms: C4_7  and  N4_8 
REMARK    2  A    between atoms: N4_8  and  C5_9 
REMARK    3  A    between atoms: C12_17  and  C13_18 
ROOT
HETATM    1  C1  UNL     1      -2.567  -3.082   1.782  1.00  0.00     0.313 C 
HETATM    2  N1  UNL     1      -1.636  -2.002   1.532  1.00  0.00     0.119 N 
HETATM    3  C2  UNL     1      -0.271  -2.450   1.662  1.00  0.00     0.359 A 
HETATM    4  N2  UNL     1       0.405  -1.830   2.789  1.00  0.00    -0.246 NA
HETATM    5  C3  UNL     1       1.177  -0.809   2.723  1.00  0.00     0.231 A 
HETATM    6  N3  UNL     1       1.436  -0.190   1.455  1.00  0.00    -0.228 NA
HETATM    7  C4  UNL     1       0.909  -0.643   0.369  1.00  0.00     0.116 A 
HETATM    8  C11 UNL     1       0.051  -1.846   0.359  1.00  0.00     0.148 A 
HETATM    9  C12 UNL     1      -1.397  -1.706   0.152  1.00  0.00     0.273 C 
ENDROOT
BRANCH   7  10
HETATM   10  N4  UNL     1       1.104  -0.088  -0.952  1.00  0.00    -0.344 N 
HETATM   11  H6  UNL     1       0.560  -0.394  -1.787  1.00  0.00     0.167 HD
BRANCH  10  12
HETATM   12  C5  UNL     1       2.119   0.937  -1.043  1.00  0.00     0.035 A 
HETATM   13  C6  UNL     1       3.388   0.377  -1.224  1.00  0.00     0.029 A 
HETATM   14  C7  UNL     1       4.429   1.296  -1.325  1.00  0.00     0.004 A 
HETATM   15  C8  UNL     1       4.300   2.671  -1.261  1.00  0.00     0.024 A 
HETATM   16  C9  UNL     1       3.010   3.114  -1.082  1.00  0.00     0.036 A 
HETATM   17 CL1  UNL     1       2.758   4.858  -0.990  1.00  0.00    -0.084 Cl
HETATM   18  C10 UNL     1       1.917   2.299  -0.971  1.00  0.00     0.053 A 
ENDBRANCH  10  12
ENDBRANCH   7  10
BRANCH   9  19
HETATM   19  C13 UNL     1      -1.934  -0.366  -0.204  1.00  0.00    -0.024 A 
HETATM   20  C14 UNL     1      -1.762   0.757   0.618  1.00  0.00     0.011 A 
HETATM   21  C15 UNL     1      -2.299   1.968   0.201  1.00  0.00     0.024 A 
HETATM   22  C16 UNL     1      -2.990   2.131  -0.977  1.00  0.00     0.034 A 
HETATM   23 CL2  UNL     1      -3.665   3.666  -1.483  1.00  0.00    -0.084 Cl
HETATM   24  C17 UNL     1      -3.179   1.028  -1.822  1.00  0.00     0.024 A 
HETATM   25  C18 UNL     1      -2.633  -0.148  -1.371  1.00  0.00     0.011 A 
ENDBRANCH   9  19
TORSDOF 3
