REMARK  4 active torsions:
REMARK  status: ('A' for Active; 'I' for Inactive)
REMARK    1  A    between atoms: C4_5  and  C5_6 
REMARK    2  A    between atoms: C5_6  and  N1_7 
REMARK    3  A    between atoms: N1_7  and  C6_8 
REMARK    4  A    between atoms: N4_15  and  C11_16 
ROOT
HETATM    1  C6  UNL     1      -0.704  -1.024  -0.030  1.00  0.00     0.027 C 
HETATM    2  C7  UNL     1      -0.737  -1.528  -1.277  1.00  0.00     0.023 C 
HETATM    3  C8  UNL     1       0.225  -2.030  -2.304  1.00  0.00     0.174 C 
HETATM    4  N2  UNL     1       1.565  -2.012  -1.841  1.00  0.00    -0.295 N 
HETATM    5  C9  UNL     1       2.601  -2.586  -2.266  1.00  0.00     0.195 A 
HETATM    6  N3  UNL     1       2.649  -1.751  -1.134  1.00  0.00    -0.148 NA
HETATM    7  C10 UNL     1       3.406  -2.129  -0.128  1.00  0.00     0.186 C 
HETATM    8  N4  UNL     1       2.877  -0.881   0.393  1.00  0.00    -0.321 N 
HETATM    9  C17 UNL     1       1.640  -0.604   1.082  1.00  0.00     0.100 C 
HETATM   10  C18 UNL     1       0.317  -0.661   0.909  1.00  0.00     0.046 C 
ENDROOT
BRANCH   1  11
HETATM   11  N1  UNL     1      -2.058  -0.734   0.413  1.00  0.00    -0.386 N 
HETATM   12  H5  UNL     1      -2.519  -1.606   0.759  1.00  0.00     0.160 HD
BRANCH  11  13
HETATM   13  C5  UNL     1      -2.540   0.648   0.312  1.00  0.00     0.160 C 
BRANCH  13  14
HETATM   14  C4  UNL     1      -3.921   0.786   0.790  1.00  0.00    -0.019 A 
HETATM   15  C3  UNL     1      -4.326   1.328   2.008  1.00  0.00     0.012 A 
HETATM   16  C2  UNL     1      -5.681   1.377   2.290  1.00  0.00     0.024 A 
HETATM   17  C1  UNL     1      -6.652   0.917   1.427  1.00  0.00     0.035 A 
HETATM   18 CL1  UNL     1      -8.368   1.004   1.837  1.00  0.00    -0.084 Cl
HETATM   19  C20 UNL     1      -6.245   0.377   0.214  1.00  0.00     0.048 A 
HETATM   20  C19 UNL     1      -4.897   0.327  -0.069  1.00  0.00     0.043 A 
HETATM   21 CL2  UNL     1      -4.505  -0.381  -1.642  1.00  0.00    -0.084 Cl
ENDBRANCH  13  14
ENDBRANCH  11  13
ENDBRANCH   1  11
BRANCH   8  22
HETATM   22  C11 UNL     1       3.733   0.276   0.177  1.00  0.00     0.039 A 
HETATM   23  C12 UNL     1       3.411   1.527   0.668  1.00  0.00     0.030 A 
HETATM   24  C13 UNL     1       4.167   2.661   0.499  1.00  0.00     0.002 A 
HETATM   25  C14 UNL     1       5.342   2.527  -0.223  1.00  0.00     0.000 A 
HETATM   26  C15 UNL     1       5.718   1.304  -0.739  1.00  0.00     0.002 A 
HETATM   27  C16 UNL     1       4.912   0.207  -0.532  1.00  0.00     0.030 A 
ENDBRANCH   8  22
TORSDOF 4
