REMARK  4 active torsions:
REMARK  status: ('A' for Active; 'I' for Inactive)
REMARK    1  A    between atoms: C5_6  and  C6_7 
REMARK    2  A    between atoms: C6_7  and  C7_8 
REMARK    3  A    between atoms: N3_15  and  C12_16 
REMARK    4  A    between atoms: C12_16  and  C13_17 
ROOT
HETATM    1  C7  UNL     1      -1.996   0.519  -0.050  1.00  0.00     0.050 C 
HETATM    2  N1  UNL     1      -2.532   1.344  -0.881  1.00  0.00    -0.246 NA
HETATM    3  C8  UNL     1      -1.977   2.623  -1.095  1.00  0.00     0.228 C 
HETATM    4  N2  UNL     1      -0.919   3.163  -0.508  1.00  0.00    -0.269 NA
HETATM    5  C9  UNL     1      -0.249   2.374   0.489  1.00  0.00     0.170 A 
HETATM    6  C10 UNL     1       1.134   2.635   0.808  1.00  0.00     0.022 A 
HETATM    7  C11 UNL     1       2.066   1.717   0.982  1.00  0.00     0.089 A 
HETATM    8  N3  UNL     1       1.733   0.361   0.846  1.00  0.00    -0.362 N 
HETATM    9  C19 UNL     1       0.381   0.078   0.512  1.00  0.00     0.102 A 
HETATM   10  C20 UNL     1      -0.620   0.956   0.313  1.00  0.00     0.011 A 
ENDROOT
BRANCH   1  11
HETATM   11  C6  UNL     1      -2.275  -0.859   0.457  1.00  0.00     0.098 C 
BRANCH  11  12
HETATM   12  C5  UNL     1      -3.695  -1.178   0.050  1.00  0.00    -0.051 A 
HETATM   13  C4  UNL     1      -4.042  -1.779  -1.140  1.00  0.00     0.007 A 
HETATM   14  C3  UNL     1      -5.363  -2.037  -1.436  1.00  0.00     0.002 A 
HETATM   15  C2  UNL     1      -6.354  -1.683  -0.517  1.00  0.00     0.024 A 
HETATM   16  C1  UNL     1      -6.059  -1.085   0.674  1.00  0.00     0.034 A 
HETATM   17 CL1  UNL     1      -7.265  -0.623   1.858  1.00  0.00    -0.084 Cl
HETATM   18  C21 UNL     1      -4.726  -0.846   0.929  1.00  0.00     0.031 A 
ENDBRANCH  11  12
ENDBRANCH   1  11
BRANCH   8  19
HETATM   19  C12 UNL     1       2.718  -0.652   1.039  1.00  0.00     0.166 C 
BRANCH  19  20
HETATM   20  C13 UNL     1       3.878  -0.572   0.120  1.00  0.00    -0.040 A 
HETATM   21  C14 UNL     1       4.947   0.195   0.561  1.00  0.00     0.010 A 
HETATM   22  C15 UNL     1       6.096   0.368  -0.175  1.00  0.00     0.019 A 
HETATM   23  C16 UNL     1       6.189  -0.256  -1.419  1.00  0.00     0.011 A 
HETATM   24 BR1  UNL     1       7.770  -0.051  -2.493  1.00  0.00    -0.051 Br
HETATM   25  C17 UNL     1       5.123  -1.019  -1.855  1.00  0.00     0.019 A 
HETATM   26  C18 UNL     1       3.975  -1.186  -1.108  1.00  0.00     0.010 A 
ENDBRANCH  19  20
ENDBRANCH   8  19
TORSDOF 4
