REMARK  2 active torsions:
REMARK  status: ('A' for Active; 'I' for Inactive)
REMARK    1  A    between atoms: C7_8  and  N1_9 
REMARK    2  A    between atoms: N1_9  and  C8_10 
ROOT
HETATM    1  C8  UNL     1       0.023  -0.294  -0.423  1.00  0.00     0.006 C 
HETATM    2  C9  UNL     1       0.353   0.920  -0.103  1.00  0.00     0.026 C 
HETATM    3  C10 UNL     1       0.164   2.185   0.512  1.00  0.00     0.021 C 
HETATM    4  C11 UNL     1       1.170   3.022   0.320  1.00  0.00     0.118 C 
HETATM    5  N2  UNL     1       2.254   2.530  -0.454  1.00  0.00    -0.254 NA
HETATM    6  C12 UNL     1       2.438   2.827  -1.696  1.00  0.00     0.233 C 
HETATM    7  N3  UNL     1       3.504   1.959  -1.332  1.00  0.00    -0.235 NA
HETATM    8  C13 UNL     1       3.730   0.812  -1.918  1.00  0.00     0.233 C 
HETATM    9  N4  UNL     1       4.790   0.771  -0.988  1.00  0.00    -0.254 NA
HETATM   10  C14 UNL     1       4.776   0.051   0.058  1.00  0.00     0.118 C 
HETATM   11  C15 UNL     1       3.809  -0.875   0.621  1.00  0.00     0.021 C 
HETATM   12  C16 UNL     1       3.188  -1.746   1.386  1.00  0.00     0.025 C 
HETATM   13  C17 UNL     1       2.071  -2.585   1.703  1.00  0.00     0.030 C 
HETATM   14 CL2  UNL     1       2.530  -3.392   3.234  1.00  0.00    -0.085 Cl
HETATM   15  C18 UNL     1       0.918  -2.804   1.098  1.00  0.00    -0.003 C 
HETATM   16  C19 UNL     1      -0.130  -2.698   0.113  1.00  0.00     0.035 C 
HETATM   17  C20 UNL     1       0.032  -1.650  -0.969  1.00  0.00     0.060 C 
ENDROOT
BRANCH   1  18
HETATM   18  N1  UNL     1      -1.230  -0.153   0.293  1.00  0.00    -0.381 N 
HETATM   19  H7  UNL     1      -1.434  -0.164   1.344  1.00  0.00     0.160 HD
BRANCH  18  20
HETATM   20  C7  UNL     1      -2.400   0.024  -0.576  1.00  0.00     0.134 C 
HETATM   21  C2  UNL     1      -3.620   0.215   0.242  1.00  0.00    -0.056 C 
HETATM   22  C1  UNL     1      -3.824  -0.532   1.515  1.00  0.00     0.046 C 
HETATM   23  C3  UNL     1      -4.592   1.052  -0.106  1.00  0.00     0.029 C 
HETATM   24  C4  UNL     1      -4.424   1.804  -1.354  1.00  0.00     0.045 C 
HETATM   25 CL1  UNL     1      -5.801   2.441  -2.213  1.00  0.00    -0.083 Cl
HETATM   26  C5  UNL     1      -3.214   1.977  -1.794  1.00  0.00    -0.004 C 
HETATM   27  C6  UNL     1      -2.239   1.137  -1.535  1.00  0.00     0.016 C 
ENDBRANCH  18  20
ENDBRANCH   1  18
TORSDOF 2
