REMARK  2 active torsions:
REMARK  status: ('A' for Active; 'I' for Inactive)
REMARK    1  A    between atoms: C7_7  and  N1_8 
REMARK    2  A    between atoms: C8_9  and  C9_10 
ROOT
HETATM    1  C1  UNL     1      -1.541  -2.278  -0.997  1.00  0.00     0.040 C 
HETATM    2  C2  UNL     1      -1.469  -1.735   0.350  1.00  0.00    -0.079 A 
HETATM    3  C3  UNL     1      -2.494  -1.693   1.179  1.00  0.00     0.058 A 
HETATM    4  C4  UNL     1      -2.325  -0.341   1.864  1.00  0.00     0.108 A 
HETATM    5  C5  UNL     1      -1.269  -0.807   2.777  1.00  0.00    -0.009 A 
HETATM    6  C6  UNL     1      -1.018  -1.156   1.576  1.00  0.00     0.058 A 
HETATM    7  C7  UNL     1      -0.176   0.008   1.146  1.00  0.00     0.160 C 
HETATM    8  C8  UNL     1       0.411   0.101  -0.153  1.00  0.00     0.095 C 
HETATM    9  N2  UNL     1      -0.213   0.721  -1.060  1.00  0.00    -0.241 NA
HETATM   10  C15 UNL     1       0.092   0.974  -2.385  1.00  0.00     0.232 C 
HETATM   11  N3  UNL     1      -0.291   2.090  -2.957  1.00  0.00    -0.254 NA
HETATM   12  C16 UNL     1      -1.015   2.980  -2.127  1.00  0.00     0.117 C 
HETATM   13  C17 UNL     1      -1.683   3.600  -1.186  1.00  0.00     0.017 C 
HETATM   14  C18 UNL     1      -2.079   3.111   0.107  1.00  0.00     0.002 C 
HETATM   15  C19 UNL     1      -1.725   1.858   0.347  1.00  0.00     0.132 C 
HETATM   16  N4  UNL     1      -1.602   0.665   1.062  1.00  0.00    -0.364 N 
ENDROOT
BRANCH   8  17
HETATM   17  C9  UNL     1       1.717  -0.545  -0.253  1.00  0.00    -0.005 A 
HETATM   18  C10 UNL     1       2.516  -0.548  -1.378  1.00  0.00     0.014 A 
HETATM   19  C11 UNL     1       3.740  -1.156  -1.512  1.00  0.00     0.003 A 
HETATM   20  C12 UNL     1       4.263  -1.846  -0.438  1.00  0.00     0.024 A 
HETATM   21  C13 UNL     1       3.522  -1.889   0.722  1.00  0.00     0.035 A 
HETATM   22 CL1  UNL     1       4.139  -2.755   2.117  1.00  0.00    -0.084 Cl
HETATM   23  C14 UNL     1       2.305  -1.253   0.773  1.00  0.00     0.037 A 
ENDBRANCH   8  17
BRANCH   7  24
HETATM   24  N1  UNL     1       0.589   0.678   2.109  1.00  0.00    -0.400 N 
HETATM   25  H7  UNL     1       0.558   0.228   3.020  1.00  0.00     0.152 HD
HETATM   26  H8  UNL     1       1.473   1.012   1.734  1.00  0.00     0.152 HD
ENDBRANCH   7  24
TORSDOF 2
