REMARK  5 active torsions:
REMARK  status: ('A' for Active; 'I' for Inactive)
REMARK    1  A    between atoms: C4_4  and  C5_5 
REMARK    2  A    between atoms: C5_5  and  N1_6 
REMARK    3  A    between atoms: N1_6  and  C6_7 
REMARK    4  A    between atoms: C11_14  and  N4_15 
REMARK    5  A    between atoms: N4_15  and  C12_16 
ROOT
HETATM    1  C6  UNL     1       1.348  -0.484   1.005  1.00  0.00     0.029 A 
HETATM    2  C7  UNL     1       1.848  -1.739   0.744  1.00  0.00     0.031 A 
HETATM    3  C8  UNL     1       1.011  -2.689   0.239  1.00  0.00     0.035 A 
HETATM    4  C9  UNL     1      -0.309  -2.382  -0.000  1.00  0.00     0.072 A 
HETATM    5  N2  UNL     1      -1.103  -3.369  -0.506  1.00  0.00    -0.241 NA
HETATM    6  C10 UNL     1      -2.401  -3.127  -0.759  1.00  0.00     0.236 A 
HETATM    7  N3  UNL     1      -2.905  -1.920  -0.514  1.00  0.00    -0.224 NA
HETATM    8  C11 UNL     1      -2.205  -0.909  -0.024  1.00  0.00     0.142 A 
HETATM    9  C18 UNL     1      -0.878  -1.152   0.236  1.00  0.00     0.041 A 
HETATM   10  C19 UNL     1       0.018  -0.240   0.744  1.00  0.00     0.046 A 
ENDROOT
BRANCH   8  11
HETATM   11  N4  UNL     1      -2.724   0.382   0.243  1.00  0.00    -0.340 N 
HETATM   12  H10 UNL     1      -2.129   1.138   0.632  1.00  0.00     0.167 HD
BRANCH  11  13
HETATM   13  C12 UNL     1      -4.019   0.880   0.064  1.00  0.00     0.035 A 
HETATM   14  C13 UNL     1      -4.452   2.165   0.388  1.00  0.00     0.029 A 
HETATM   15  C14 UNL     1      -5.722   2.635   0.204  1.00  0.00     0.004 A 
HETATM   16  C15 UNL     1      -6.686   1.832  -0.334  1.00  0.00     0.024 A 
HETATM   17  C16 UNL     1      -6.313   0.552  -0.672  1.00  0.00     0.036 A 
HETATM   18 CL1  UNL     1      -7.595  -0.441  -1.362  1.00  0.00    -0.084 Cl
HETATM   19  C17 UNL     1      -5.030   0.127  -0.470  1.00  0.00     0.053 A 
ENDBRANCH  11  13
ENDBRANCH   8  11
BRANCH   1  20
HETATM   20  N1  UNL     1       2.204   0.527   1.530  1.00  0.00    -0.386 N 
HETATM   21  H6  UNL     1       1.784   1.464   1.724  1.00  0.00     0.160 HD
BRANCH  20  22
HETATM   22  C5  UNL     1       3.597   0.273   1.786  1.00  0.00     0.151 C 
BRANCH  22  23
HETATM   23  C4  UNL     1       4.240  -0.063   0.472  1.00  0.00    -0.065 A 
HETATM   24  C3  UNL     1       4.369  -0.286  -0.824  1.00  0.00     0.023 A 
HETATM   25  C2  UNL     1       5.307   0.617  -0.820  1.00  0.00    -0.086 A 
HETATM   26  C20 UNL     1       5.662  -0.409   0.196  1.00  0.00     0.074 A 
HETATM   27  C1  UNL     1       6.004   1.867  -1.246  1.00  0.00     0.040 C 
ENDBRANCH  22  23
ENDBRANCH  20  22
ENDBRANCH   1  20
TORSDOF 5
