REMARK  9 active torsions:
REMARK  status: ('A' for Active; 'I' for Inactive)
REMARK    1  A    between atoms: O1_2  and  C2_3 
REMARK    2  A    between atoms: C2_3  and  C3_4 
REMARK    3  A    between atoms: C3_4  and  O2_5 
REMARK    4  A    between atoms: O2_5  and  C4_6 
REMARK    5  A    between atoms: C9_11  and  O3_12 
REMARK    6  A    between atoms: O3_12  and  C10_13 
REMARK    7  A    between atoms: C10_13  and  C11_14 
REMARK    8  A    between atoms: C11_14  and  O4_15 
REMARK    9  A    between atoms: C21_26  and  N2_27 
ROOT
HETATM    1  C4  UNL     1       0.207  -0.712   0.744  1.00  0.00     0.102 A 
HETATM    2  C5  UNL     1      -0.675  -1.692   0.389  1.00  0.00     0.040 A 
HETATM    3  C6  UNL     1      -1.369  -1.346  -0.794  1.00  0.00     0.013 A 
HETATM    4  C7  UNL     1      -1.299  -0.231  -1.607  1.00  0.00    -0.015 A 
HETATM    5  C8  UNL     1      -0.363   0.791  -1.215  1.00  0.00     0.004 A 
HETATM    6  C9  UNL     1       0.325   0.423  -0.021  1.00  0.00     0.110 A 
HETATM    7  C13 UNL     1       0.231   2.113  -1.531  1.00  0.00     0.173 A 
HETATM    8  N1  UNL     1      -0.332   3.221  -0.706  1.00  0.00    -0.280 N 
HETATM    9  C14 UNL     1      -1.305   2.890  -1.496  1.00  0.00     0.056 A 
HETATM   10  C15 UNL     1      -2.084   2.606  -2.148  1.00  0.00    -0.057 C 
HETATM   11  C16 UNL     1      -3.012   2.241  -2.941  1.00  0.00    -0.088 C 
HETATM   12  C17 UNL     1      -3.798   1.908  -3.623  1.00  0.00     0.052 A 
HETATM   13  C18 UNL     1      -4.773   1.467  -4.468  1.00  0.00     0.020 A 
HETATM   14  C19 UNL     1      -3.792   0.457  -4.459  1.00  0.00     0.017 A 
HETATM   15  C20 UNL     1      -2.454   0.338  -3.773  1.00  0.00     0.047 C 
HETATM   16  C21 UNL     1      -2.352  -0.544  -2.658  1.00  0.00     0.252 C 
HETATM   17  H19 UNL     1      -0.980   3.937  -0.309  1.00  0.00     0.128 HD
ENDROOT
BRANCH   1  18
HETATM   18  O2  UNL     1       0.943  -0.951   1.893  1.00  0.00    -0.346 OA
BRANCH  18  19
HETATM   19  C3  UNL     1       0.760  -2.148   2.621  1.00  0.00     0.201 C 
BRANCH  19  20
HETATM   20  C2  UNL     1       1.694  -2.190   3.810  1.00  0.00     0.193 C 
BRANCH  20  21
HETATM   21  O1  UNL     1       1.533  -3.347   4.518  1.00  0.00    -0.394 OA
HETATM   22  C1  UNL     1       0.288  -3.562   5.070  1.00  0.00     0.201 C 
ENDBRANCH  20  21
ENDBRANCH  19  20
ENDBRANCH  18  19
ENDBRANCH   1  18
BRANCH   6  23
HETATM   23  O3  UNL     1       1.313   1.214   0.625  1.00  0.00    -0.346 OA
BRANCH  23  24
HETATM   24  C10 UNL     1       2.683   1.050   0.437  1.00  0.00     0.201 C 
BRANCH  24  25
HETATM   25  C11 UNL     1       3.349   2.132   1.291  1.00  0.00     0.193 C 
BRANCH  25  26
HETATM   26  O4  UNL     1       4.719   2.113   1.218  1.00  0.00    -0.394 OA
HETATM   27  C12 UNL     1       5.332   0.962   1.642  1.00  0.00     0.201 C 
ENDBRANCH  25  26
ENDBRANCH  24  25
ENDBRANCH  23  24
ENDBRANCH   6  23
BRANCH  16  28
HETATM   28  N2  UNL     1      -3.615  -0.691  -1.909  1.00  0.00     0.087 N 
HETATM   29  H25 UNL     1      -4.204  -1.472  -2.280  1.00  0.00     0.313 HD
HETATM   30  H26 UNL     1      -3.454  -0.737  -0.884  1.00  0.00     0.313 HD
ENDBRANCH  16  28
TORSDOF 9
