REMARK  1 active torsions:
REMARK  status: ('A' for Active; 'I' for Inactive)
REMARK    1  A    between atoms: C11_14  and  C12_16 
ROOT
HETATM    1  C1  UNL     1       3.353  -1.838   5.306  1.00  0.00     0.014 C 
HETATM    2  C2  UNL     1       2.669  -1.433   4.368  1.00  0.00    -0.092 C 
HETATM    3  C3  UNL     1       1.854  -0.959   3.292  1.00  0.00     0.195 A 
HETATM    4  C4  UNL     1       2.235  -1.199   2.048  1.00  0.00     0.052 A 
HETATM    5 CL1  UNL     1       3.549  -1.971   2.903  1.00  0.00    -0.160 Cl
HETATM    6  C5  UNL     1       2.041  -1.093   0.648  1.00  0.00     0.066 A 
HETATM    7  N1  UNL     1       3.000  -1.678   0.015  1.00  0.00    -0.244 NA
HETATM    8  C6  UNL     1       3.064  -1.727  -1.401  1.00  0.00     0.233 A 
HETATM    9  N2  UNL     1       2.140  -1.169  -2.091  1.00  0.00    -0.246 NA
HETATM   10  C7  UNL     1       1.063  -0.508  -1.441  1.00  0.00     0.044 A 
HETATM   11  C8  UNL     1       0.197   0.035  -2.246  1.00  0.00     0.007 C 
HETATM   12  C9  UNL     1      -1.042   0.803  -2.234  1.00  0.00     0.087 C 
HETATM   13  C10 UNL     1      -1.559   1.068  -0.869  1.00  0.00     0.025 C 
HETATM   14  C11 UNL     1      -2.844   1.286  -0.655  1.00  0.00     0.029 C 
HETATM   15 BR1  UNL     1      -3.736   1.647   0.991  1.00  0.00    -0.049 Br
HETATM   16  N3  UNL     1      -0.859   1.143   0.373  1.00  0.00    -0.391 N 
HETATM   17  C14 UNL     1       0.591   0.941   0.529  1.00  0.00     0.136 C 
HETATM   18  C15 UNL     1       0.904  -0.421   0.024  1.00  0.00     0.108 A 
HETATM   19  H10 UNL     1      -1.399   1.357   1.264  1.00  0.00     0.159 HD
ENDROOT
BRANCH  14  20
HETATM   20  C12 UNL     1      -3.810   1.222  -1.741  1.00  0.00    -0.005 C 
HETATM   21  C13 UNL     1      -5.130   1.380  -1.889  1.00  0.00     0.032 C 
ENDBRANCH  14  20
TORSDOF 1
