REMARK  6 active torsions:
REMARK  status: ('A' for Active; 'I' for Inactive)
REMARK    1  A    between atoms: C3_3  and  C4_4 
REMARK    2  A    between atoms: C5_6  and  C6_7 
REMARK    3  A    between atoms: C6_7  and  N1_8 
REMARK    4  A    between atoms: N1_8  and  C7_9 
REMARK    5  A    between atoms: C13_17  and  O1_18 
REMARK    6  A    between atoms: O1_18  and  C14_19 
ROOT
HETATM    1  C7  UNL     1       0.901  -1.407   0.538  1.00  0.00     0.140 A 
HETATM    2  N2  UNL     1       2.116  -1.862   0.867  1.00  0.00    -0.224 NA
HETATM    3  C8  UNL     1       2.584  -3.043   0.508  1.00  0.00     0.236 A 
HETATM    4  N3  UNL     1       1.788  -3.827  -0.230  1.00  0.00    -0.241 NA
HETATM    5  C9  UNL     1       0.552  -3.415  -0.590  1.00  0.00     0.075 A 
HETATM    6  C10 UNL     1      -0.166  -4.306  -1.345  1.00  0.00     0.033 A 
HETATM    7  C11 UNL     1      -1.434  -3.922  -1.732  1.00  0.00     0.005 A 
HETATM    8  C12 UNL     1      -1.897  -2.683  -1.342  1.00  0.00     0.038 A 
HETATM    9  C13 UNL     1      -1.217  -1.756  -0.587  1.00  0.00     0.085 A 
HETATM   10  C20 UNL     1       0.053  -2.171  -0.214  1.00  0.00     0.072 A 
ENDROOT
BRANCH   1  11
HETATM   11  N1  UNL     1       0.556  -0.111   1.013  1.00  0.00    -0.370 N 
HETATM   12  H9  UNL     1      -0.253   0.532   0.964  1.00  0.00     0.161 HD
BRANCH  11  13
HETATM   13  C6  UNL     1       1.501   0.652   1.806  1.00  0.00     0.150 C 
BRANCH  13  14
HETATM   14  C5  UNL     1       2.722   0.840   0.949  1.00  0.00     0.016 C 
HETATM   15  C4  UNL     1       3.999   0.498   1.127  1.00  0.00     0.031 C 
HETATM   16 CL1  UNL     1       4.556  -0.310   2.560  1.00  0.00    -0.085 Cl
BRANCH  15  17
HETATM   17  C3  UNL     1       4.925   0.854   0.048  1.00  0.00     0.019 C 
HETATM   18  C2  UNL     1       6.182   0.533   0.191  1.00  0.00    -0.029 C 
HETATM   19  C1  UNL     1       7.189   0.852  -0.844  1.00  0.00     0.036 C 
ENDBRANCH  15  17
ENDBRANCH  13  14
ENDBRANCH  11  13
ENDBRANCH   1  11
BRANCH   9  20
HETATM   20  O1  UNL     1      -1.666  -0.540  -0.203  1.00  0.00    -0.345 OA
BRANCH  20  21
HETATM   21  C14 UNL     1      -2.916   0.014  -0.495  1.00  0.00     0.132 C 
HETATM   22  C15 UNL     1      -3.697   0.338   0.750  1.00  0.00     0.062 C 
HETATM   23  C16 UNL     1      -4.505   1.589   0.709  1.00  0.00     0.274 C 
HETATM   24  N4  UNL     1      -3.784   2.753   0.273  1.00  0.00     0.084 N 
HETATM   25  C17 UNL     1      -4.647   3.518  -0.608  1.00  0.00     0.309 C 
HETATM   26  C18 UNL     1      -2.597   2.419  -0.484  1.00  0.00     0.274 C 
HETATM   27  C19 UNL     1      -2.841   1.237  -1.354  1.00  0.00     0.062 C 
ENDBRANCH  20  21
ENDBRANCH   9  20
TORSDOF 6
