REMARK  4 active torsions:
REMARK  status: ('A' for Active; 'I' for Inactive)
REMARK    1  A    between atoms: N1_1  and  C1_2 
REMARK    2  A    between atoms: N2_8  and  C6_9 
REMARK    3  A    between atoms: C11_16  and  C12_17 
REMARK    4  A    between atoms: C12_17  and  C13_18 
ROOT
HETATM    1  C6  UNL     1      -1.722   1.607   0.172  1.00  0.00     0.145 A 
HETATM    2  N3  UNL     1      -2.345   2.821   0.082  1.00  0.00    -0.223 NA
HETATM    3  C7  UNL     1      -1.752   3.889   0.656  1.00  0.00     0.236 A 
HETATM    4  N4  UNL     1      -0.569   3.831   1.322  1.00  0.00    -0.241 NA
HETATM    5  C8  UNL     1       0.051   2.646   1.416  1.00  0.00     0.072 A 
HETATM    6  C9  UNL     1       1.260   2.424   2.045  1.00  0.00     0.033 A 
HETATM    7  C10 UNL     1       1.832   1.149   2.077  1.00  0.00     0.010 A 
HETATM    8  C11 UNL     1       1.204   0.054   1.473  1.00  0.00    -0.053 A 
HETATM    9  C19 UNL     1       0.007   0.296   0.856  1.00  0.00     0.025 A 
HETATM   10  C20 UNL     1      -0.538   1.560   0.839  1.00  0.00     0.039 A 
ENDROOT
BRANCH   1  11
HETATM   11  N2  UNL     1      -2.548   0.628  -0.453  1.00  0.00    -0.306 N 
HETATM   12  C1  UNL     1      -3.499  -0.329   0.076  1.00  0.00     0.370 A 
HETATM   13  C2  UNL     1      -4.047  -1.112  -1.061  1.00  0.00     0.064 A 
HETATM   14 CL1  UNL     1      -5.204  -2.288  -0.414  1.00  0.00    -0.085 Cl
HETATM   15  C3  UNL     1      -3.837  -1.084  -2.367  1.00  0.00     0.025 A 
HETATM   16  C4  UNL     1      -2.865  -0.078  -2.796  1.00  0.00     0.019 A 
HETATM   17  C5  UNL     1      -2.282   0.705  -1.871  1.00  0.00     0.095 A 
BRANCH  12  18
HETATM   18  N1  UNL     1      -2.937  -1.296   0.990  1.00  0.00     0.107 N 
HETATM   19  H1  UNL     1      -3.516  -1.354   1.839  1.00  0.00     0.316 HD
HETATM   20  H2  UNL     1      -2.681  -2.195   0.568  1.00  0.00     0.316 HD
ENDBRANCH  12  18
ENDBRANCH   1  11
BRANCH   8  21
HETATM   21  C12 UNL     1       1.872  -1.270   1.547  1.00  0.00     0.077 C 
BRANCH  21  22
HETATM   22  C13 UNL     1       2.755  -1.359   0.331  1.00  0.00    -0.054 A 
HETATM   23  C14 UNL     1       4.059  -0.905   0.415  1.00  0.00     0.007 A 
HETATM   24  C15 UNL     1       4.961  -0.935  -0.630  1.00  0.00     0.001 A 
HETATM   25  C16 UNL     1       4.495  -1.461  -1.824  1.00  0.00     0.000 A 
HETATM   26  C17 UNL     1       3.198  -1.917  -1.921  1.00  0.00     0.001 A 
HETATM   27  C18 UNL     1       2.313  -1.878  -0.866  1.00  0.00     0.007 A 
ENDBRANCH  21  22
ENDBRANCH   8  21
TORSDOF 4
