REMARK  6 active torsions:
REMARK  status: ('A' for Active; 'I' for Inactive)
REMARK    1  A    between atoms: C11_12  and  O1_13 
REMARK    2  A    between atoms: O1_13  and  C12_14 
REMARK    3  A    between atoms: C12_14  and  C13_15 
REMARK    4  A    between atoms: C13_15  and  O2_16 
REMARK    5  A    between atoms: C16_19  and  N2_20 
REMARK    6  A    between atoms: C18_23  and  O4_24 
ROOT
HETATM    1  C1  UNL     1      -3.793  -3.031   2.237  1.00  0.00     0.019 C 
HETATM    2  C2  UNL     1      -3.072  -2.358   1.527  1.00  0.00    -0.060 C 
HETATM    3  C3  UNL     1      -2.217  -1.553   0.666  1.00  0.00     0.084 C 
HETATM    4  C4  UNL     1      -1.985  -0.339   1.222  1.00  0.00     0.039 C 
HETATM    5  C5  UNL     1      -1.710   0.869   0.394  1.00  0.00     0.015 C 
HETATM    6  C6  UNL     1      -1.361   1.040  -0.906  1.00  0.00    -0.003 C 
HETATM    7  C7  UNL     1      -1.880  -0.117  -1.757  1.00  0.00     0.060 C 
HETATM    8  N1  UNL     1      -2.855  -0.187  -2.595  1.00  0.00    -0.302 NA
HETATM    9  C8  UNL     1      -1.203  -1.475  -1.679  1.00  0.00     0.178 C 
HETATM   10  C9  UNL     1       0.240  -1.168  -1.334  1.00  0.00     0.195 A 
HETATM   11  C10 UNL     1       0.533  -1.776  -0.097  1.00  0.00     0.033 A 
HETATM   12  C11 UNL     1       1.206  -0.591  -0.247  1.00  0.00     0.153 A 
HETATM   13  C15 UNL     1       0.936   0.001  -1.436  1.00  0.00     0.223 A 
HETATM   14  C16 UNL     1       0.756   0.710  -2.590  1.00  0.00     0.628 A 
HETATM   15  N2  UNL     1       0.101  -0.434  -2.446  1.00  0.00    -0.073 NA
HETATM   16  O3  UNL     1       1.621   1.287  -1.397  1.00  0.00     0.000 OA
HETATM   17  C17 UNL     1       0.817   2.211  -0.547  1.00  0.00     0.040 C 
HETATM   18  C18 UNL     1      -0.574   2.327  -1.084  1.00  0.00     0.156 C 
HETATM   19  N3  UNL     1      -1.807  -2.198  -0.557  1.00  0.00    -0.365 N 
HETATM   20  C20 UNL     1      -2.054  -3.636  -0.571  1.00  0.00     0.151 C 
HETATM   21  H4  UNL     1      -3.439   0.680  -2.769  1.00  0.00     0.186 HD
ENDROOT
BRANCH  18  22
HETATM   22  O4  UNL     1      -1.266   3.242  -0.248  1.00  0.00    -0.386 OA
HETATM   23  C19 UNL     1      -1.785   4.285  -1.015  1.00  0.00     0.202 C 
ENDBRANCH  18  22
BRANCH  12  24
HETATM   24  O1  UNL     1       2.031  -0.176   0.781  1.00  0.00    -0.368 OA
BRANCH  24  25
HETATM   25  C12 UNL     1       2.260  -0.874   1.945  1.00  0.00     0.195 C 
BRANCH  25  26
HETATM   26  C13 UNL     1       3.232  -0.136   2.865  1.00  0.00     0.193 C 
BRANCH  26  27
HETATM   27  O2  UNL     1       4.458   0.056   2.245  1.00  0.00    -0.394 OA
HETATM   28  C14 UNL     1       5.366   0.731   3.031  1.00  0.00     0.201 C 
ENDBRANCH  26  27
ENDBRANCH  25  26
ENDBRANCH  24  25
ENDBRANCH  12  24
TORSDOF 6
