REMARK  0 active torsions:
REMARK  status: ('A' for Active; 'I' for Inactive)
ROOT
HETATM    1 CL1  UNL     1      -4.469   1.975   0.524  1.00  0.00    -0.082 Cl
HETATM    2  C1  UNL     1      -3.706   0.450   0.211  1.00  0.00     0.061 A 
HETATM    3  C2  UNL     1      -4.580  -0.502   0.028  1.00  0.00     0.027 A 
HETATM    4  C3  UNL     1      -4.029  -1.791  -0.250  1.00  0.00     0.019 A 
HETATM    5  C4  UNL     1      -2.803  -2.174  -0.341  1.00  0.00     0.097 A 
HETATM    6  N1  UNL     1      -1.863  -1.166  -0.141  1.00  0.00    -0.325 N 
HETATM    7  C5  UNL     1      -0.467  -1.127   0.032  1.00  0.00     0.036 A 
HETATM    8  C6  UNL     1      -0.348  -2.194   0.826  1.00  0.00     0.130 A 
HETATM    9  N2  UNL     1       0.654  -3.014   0.942  1.00  0.00    -0.298 NA
HETATM   10  C7  UNL     1       1.940  -2.382   0.856  1.00  0.00     0.154 C 
HETATM   11  C8  UNL     1       3.223  -2.056   0.932  1.00  0.00     0.004 C 
HETATM   12  C9  UNL     1       3.634  -0.746   0.339  1.00  0.00     0.023 C 
HETATM   13  C10 UNL     1       2.795   0.046  -0.206  1.00  0.00     0.006 C 
HETATM   14  C11 UNL     1       1.282   0.041  -0.459  1.00  0.00     0.034 C 
HETATM   15  C12 UNL     1       0.858  -1.102   0.203  1.00  0.00     0.114 A 
HETATM   16  N3  UNL     1       2.712   1.395  -0.555  1.00  0.00    -0.388 N 
HETATM   17  C13 UNL     1       2.157   2.583   0.049  1.00  0.00     0.166 C 
HETATM   18  C14 UNL     1       0.724   2.784   0.274  1.00  0.00     0.006 C 
HETATM   19 BR1  UNL     1       0.801   4.699   0.793  1.00  0.00    -0.054 Br
HETATM   20  C15 UNL     1      -0.470   2.208   0.297  1.00  0.00     0.019 C 
HETATM   21  C16 UNL     1      -1.484   1.214   0.224  1.00  0.00     0.033 C 
HETATM   22  C17 UNL     1      -2.282   0.202   0.140  1.00  0.00     0.060 A 
HETATM   23  H9  UNL     1       3.197   1.326  -1.488  1.00  0.00     0.159 HD
ENDROOT
TORSDOF 0
