REMARK  3 active torsions:
REMARK  status: ('A' for Active; 'I' for Inactive)
REMARK    1  A    between atoms: C6_9  and  N3_10 
REMARK    2  A    between atoms: N3_10  and  C7_11 
REMARK    3  A    between atoms: C7_11  and  C8_12 
ROOT
HETATM    1 BR1  UNL     1       4.295  -2.891   1.829  1.00  0.00    -0.028 Br
HETATM    2  C1  UNL     1       4.600  -1.593   0.483  1.00  0.00     0.117 A 
HETATM    3  N1  UNL     1       5.769  -1.586  -0.190  1.00  0.00    -0.234 NA
HETATM    4  C2  UNL     1       6.052  -0.704  -1.149  1.00  0.00     0.234 A 
HETATM    5  N2  UNL     1       5.105   0.215  -1.438  1.00  0.00    -0.241 NA
HETATM    6  C3  UNL     1       3.927   0.254  -0.802  1.00  0.00     0.071 A 
HETATM    7  C4  UNL     1       2.972   1.197  -1.109  1.00  0.00     0.035 A 
HETATM    8  C5  UNL     1       1.781   1.180  -0.414  1.00  0.00     0.031 A 
HETATM    9  C6  UNL     1       1.449   0.289   0.579  1.00  0.00     0.029 A 
HETATM   10  C14 UNL     1       2.446  -0.622   0.834  1.00  0.00     0.045 A 
HETATM   11  C15 UNL     1       3.640  -0.653   0.181  1.00  0.00     0.031 A 
ENDROOT
BRANCH   9  12
HETATM   12  N3  UNL     1       0.232   0.261   1.282  1.00  0.00    -0.386 N 
HETATM   13  H4  UNL     1       0.158  -0.470   2.034  1.00  0.00     0.160 HD
BRANCH  12  14
HETATM   14  C7  UNL     1      -0.928   1.104   1.102  1.00  0.00     0.148 C 
BRANCH  14  15
HETATM   15  C8  UNL     1      -1.564   0.800  -0.211  1.00  0.00     0.003 C 
HETATM   16  C9  UNL     1      -2.820   0.361  -0.409  1.00  0.00    -0.053 A 
HETATM   17  C10 UNL     1      -3.306   0.105  -1.755  1.00  0.00    -0.076 A 
HETATM   18  C13 UNL     1      -3.750   0.120   0.687  1.00  0.00     0.005 A 
HETATM   19  B1  UNL     1      -4.973  -0.478  -2.026  1.00  0.00     0.173 B 
HETATM   20  C11 UNL     1      -5.863  -0.676  -0.492  1.00  0.00    -0.026 A 
HETATM   21  C12 UNL     1      -4.978  -0.300   0.628  1.00  0.00    -0.036 A 
ENDBRANCH  14  15
ENDBRANCH  12  14
ENDBRANCH   9  12
TORSDOF 3
