REMARK  6 active torsions:
REMARK  status: ('A' for Active; 'I' for Inactive)
REMARK    1  A    between atoms: B1_1  and  C1_2 
REMARK    2  A    between atoms: C1_2  and  C2_3 
REMARK    3  A    between atoms: C1_2  and  C3_6 
REMARK    4  A    between atoms: C2_3  and  N1_4 
REMARK    5  A    between atoms: C6_9  and  N2_10 
REMARK    6  A    between atoms: N2_10  and  C7_11 
ROOT
HETATM    1  C3  UNL     1       2.246   0.209  -0.929  1.00  0.00    -0.018 A 
HETATM    2  C4  UNL     1       1.121   0.515  -0.139  1.00  0.00     0.032 A 
HETATM    3  C5  UNL     1       0.230   1.463  -0.518  1.00  0.00     0.047 A 
HETATM    4  C6  UNL     1      -0.911   1.905   0.097  1.00  0.00     0.142 A 
HETATM    5  N3  UNL     1      -1.623   2.858  -0.480  1.00  0.00    -0.223 NA
HETATM    6  C13 UNL     1      -1.372   3.467  -1.621  1.00  0.00     0.236 A 
HETATM    7  N4  UNL     1      -0.291   3.144  -2.340  1.00  0.00    -0.234 NA
HETATM    8  C14 UNL     1       0.478   2.142  -1.753  1.00  0.00     0.113 A 
HETATM    9  S1  UNL     1       2.076   1.323  -2.330  1.00  0.00    -0.074 SA
ENDROOT
BRANCH   4  10
HETATM   10  N2  UNL     1      -1.347   1.373   1.322  1.00  0.00    -0.340 N 
HETATM   11  H7  UNL     1      -1.057   1.704   2.272  1.00  0.00     0.167 HD
BRANCH  10  12
HETATM   12  C7  UNL     1      -2.272   0.280   1.276  1.00  0.00     0.035 A 
HETATM   13  C8  UNL     1      -2.714  -0.190   0.036  1.00  0.00     0.032 A 
HETATM   14  C9  UNL     1      -3.604  -1.235  -0.079  1.00  0.00     0.046 A 
HETATM   15  C10 UNL     1      -4.096  -1.863   1.063  1.00  0.00     0.138 A 
HETATM   16  F1  UNL     1      -4.975  -2.901   1.055  1.00  0.00    -0.204 F 
HETATM   17  C11 UNL     1      -3.632  -1.365   2.260  1.00  0.00     0.074 A 
HETATM   18 CL1  UNL     1      -4.214  -2.112   3.742  1.00  0.00    -0.081 Cl
HETATM   19  C12 UNL     1      -2.749  -0.330   2.422  1.00  0.00     0.056 A 
ENDBRANCH  10  12
ENDBRANCH   4  10
BRANCH   1  20
HETATM   20  C1  UNL     1       3.331  -0.751  -0.746  1.00  0.00    -0.003 C 
BRANCH  20  21
HETATM   21  B1  UNL     1       2.831  -2.236  -0.672  1.00  0.00     0.148 B 
HETATM   22  H1  UNL     1       1.719  -2.478  -0.985  1.00  0.00    -0.031 HD
HETATM   23  H2  UNL     1       3.371  -3.028   0.018  1.00  0.00    -0.031 HD
ENDBRANCH  20  21
BRANCH  20  24
HETATM   24  C2  UNL     1       4.199  -0.467   0.487  1.00  0.00     0.181 C 
BRANCH  24  25
HETATM   25  N1  UNL     1       5.313  -1.372   0.475  1.00  0.00    -0.141 NA
HETATM   26  O1  UNL     1       5.500  -2.092  -0.452  1.00  0.00    -0.067 OA
ENDBRANCH  24  25
ENDBRANCH  20  24
ENDBRANCH   1  20
TORSDOF 6
