REMARK  10 active torsions:
REMARK  status: ('A' for Active; 'I' for Inactive)
REMARK    1  A    between atoms: O1_2  and  C2_3 
REMARK    2  A    between atoms: C2_3  and  C3_4 
REMARK    3  A    between atoms: C3_4  and  O2_5 
REMARK    4  A    between atoms: O2_5  and  C4_6 
REMARK    5  A    between atoms: C8_12  and  N3_13 
REMARK    6  A    between atoms: N3_13  and  C9_14 
REMARK    7  A    between atoms: C19_24  and  O3_25 
REMARK    8  A    between atoms: O3_25  and  C20_26 
REMARK    9  A    between atoms: C20_26  and  C21_27 
REMARK   10  A    between atoms: C21_27  and  O4_28 
ROOT
HETATM    1  C4  UNL     1      -1.635  -1.191   1.246  1.00  0.00     0.104 A 
HETATM    2  C5  UNL     1      -1.428  -1.939   0.088  1.00  0.00     0.072 A 
HETATM    3  C6  UNL     1      -0.770  -1.558  -1.096  1.00  0.00     0.075 A 
HETATM    4  N1  UNL     1      -0.647  -2.336  -2.154  1.00  0.00    -0.241 NA
HETATM    5  C7  UNL     1      -0.035  -1.960  -3.299  1.00  0.00     0.236 A 
HETATM    6  N2  UNL     1       0.425  -0.725  -3.222  1.00  0.00    -0.224 NA
HETATM    7  C8  UNL     1       0.368   0.141  -2.242  1.00  0.00     0.142 A 
HETATM    8  C17 UNL     1      -0.269  -0.254  -1.065  1.00  0.00     0.042 A 
HETATM    9  C18 UNL     1      -0.427   0.549   0.036  1.00  0.00     0.057 A 
HETATM   10  C19 UNL     1      -1.106   0.070   1.167  1.00  0.00     0.103 A 
ENDROOT
BRANCH   7  11
HETATM   11  N3  UNL     1       0.912   1.446  -2.325  1.00  0.00    -0.340 N 
HETATM   12  H10 UNL     1       0.442   2.381  -2.537  1.00  0.00     0.167 HD
BRANCH  11  13
HETATM   13  C9  UNL     1       2.323   1.509  -2.082  1.00  0.00     0.030 C 
HETATM   14  C10 UNL     1       2.911   0.630  -1.262  1.00  0.00     0.007 C 
HETATM   15  C11 UNL     1       4.246   0.287  -0.709  1.00  0.00     0.063 C 
HETATM   16  C12 UNL     1       5.363   0.937  -1.410  1.00  0.00    -0.080 C 
HETATM   17  C13 UNL     1       6.687   0.332  -1.033  1.00  0.00     0.043 C 
HETATM   18  C14 UNL     1       5.542   1.933  -2.302  1.00  0.00     0.003 C 
HETATM   19  C15 UNL     1       4.420   2.693  -2.837  1.00  0.00     0.002 C 
HETATM   20  C16 UNL     1       3.115   2.552  -2.768  1.00  0.00     0.029 C 
ENDBRANCH  11  13
ENDBRANCH   7  11
BRANCH  10  21
HETATM   21  O3  UNL     1      -1.165   0.933   2.072  1.00  0.00    -0.346 OA
BRANCH  21  22
HETATM   22  C20 UNL     1      -1.194   1.895   2.991  1.00  0.00     0.201 C 
BRANCH  22  23
HETATM   23  C21 UNL     1      -2.057   3.061   2.403  1.00  0.00     0.193 C 
BRANCH  23  24
HETATM   24  O4  UNL     1      -3.328   2.512   2.160  1.00  0.00    -0.394 OA
HETATM   25  C22 UNL     1      -4.105   3.564   1.652  1.00  0.00     0.201 C 
ENDBRANCH  23  24
ENDBRANCH  22  23
ENDBRANCH  21  22
ENDBRANCH  10  21
BRANCH   1  26
HETATM   26  O2  UNL     1      -2.306  -1.654   2.348  1.00  0.00    -0.346 OA
BRANCH  26  27
HETATM   27  C3  UNL     1      -2.942  -2.909   2.420  1.00  0.00     0.201 C 
BRANCH  27  28
HETATM   28  C2  UNL     1      -4.104  -2.948   1.493  1.00  0.00     0.193 C 
BRANCH  28  29
HETATM   29  O1  UNL     1      -4.800  -4.160   1.467  1.00  0.00    -0.394 OA
HETATM   30  C1  UNL     1      -4.013  -5.214   1.075  1.00  0.00     0.201 C 
ENDBRANCH  28  29
ENDBRANCH  27  28
ENDBRANCH  26  27
ENDBRANCH   1  26
TORSDOF 10
