REMARK  4 active torsions:
REMARK  status: ('A' for Active; 'I' for Inactive)
REMARK    1  A    between atoms: O1_1  and  O2_2 
REMARK    2  A    between atoms: O2_2  and  C1_3 
REMARK    3  A    between atoms: C6_8  and  C7_9 
REMARK    4  A    between atoms: N3_18  and  C14_19 
ROOT
HETATM    1  C7  UNL     1      -1.140  -0.447   2.253  1.00  0.00     0.126 C 
HETATM    2  C8  UNL     1      -0.226  -1.607   2.232  1.00  0.00    -0.005 C 
HETATM    3  C9  UNL     1       0.998  -1.703   1.748  1.00  0.00    -0.000 C 
HETATM    4  C10 UNL     1       1.866  -0.741   1.083  1.00  0.00     0.034 C 
HETATM    5  C11 UNL     1       1.837   0.568   1.123  1.00  0.00     0.094 A 
HETATM    6  C12 UNL     1       1.011   1.544   1.779  1.00  0.00     0.124 A 
HETATM    7  N1  UNL     1       1.243   2.799   1.598  1.00  0.00    -0.231 NA
HETATM    8  C13 UNL     1       2.304   3.232   0.759  1.00  0.00     0.256 A 
HETATM    9  N2  UNL     1       3.078   2.401   0.146  1.00  0.00    -0.160 NA
HETATM   10  N3  UNL     1       2.909   0.996   0.277  1.00  0.00    -0.230 N 
HETATM   11  S1  UNL     1      -0.340   1.071   2.843  1.00  0.00    -0.093 SA
ENDROOT
BRANCH   1  12
HETATM   12  C6  UNL     1      -1.776  -0.286   0.962  1.00  0.00     0.030 C 
HETATM   13  C5  UNL     1      -3.076  -0.328   0.702  1.00  0.00    -0.048 C 
HETATM   14  C4  UNL     1      -3.150  -1.295  -0.534  1.00  0.00     0.093 C 
HETATM   15  C20 UNL     1      -4.481   0.106   0.790  1.00  0.00     0.075 C 
HETATM   16  C3  UNL     1      -2.740   0.112  -1.068  1.00  0.00     0.012 C 
HETATM   17  C2  UNL     1      -3.703   0.809  -1.626  1.00  0.00     0.033 C 
HETATM   18  N4  UNL     1      -1.360   0.076  -0.472  1.00  0.00    -0.361 N 
HETATM   19  C1  UNL     1      -4.885   0.670  -0.623  1.00  0.00     0.189 C 
HETATM   20  H14 UNL     1      -0.455   0.285  -0.908  1.00  0.00     0.165 HD
BRANCH  19  21
HETATM   21  O2  UNL     1      -5.794  -0.164  -1.206  1.00  0.00    -0.234 OA
BRANCH  21  22
HETATM   22  O1  UNL     1      -6.939   0.472  -1.306  1.00  0.00    -0.250 OA
HETATM   23  H1  UNL     1      -7.667  -0.105  -1.627  1.00  0.00     0.253 HD
ENDBRANCH  21  22
ENDBRANCH  19  21
ENDBRANCH   1  12
BRANCH  10  24
HETATM   24  C14 UNL     1       3.859   0.268  -0.475  1.00  0.00     0.060 A 
HETATM   25  C15 UNL     1       4.842  -0.667  -0.126  1.00  0.00     0.035 A 
HETATM   26  C16 UNL     1       5.636  -1.249  -1.085  1.00  0.00     0.046 A 
HETATM   27  C17 UNL     1       5.512  -0.950  -2.424  1.00  0.00     0.138 A 
HETATM   28  F1  UNL     1       6.325  -1.556  -3.322  1.00  0.00    -0.204 F 
HETATM   29  C18 UNL     1       4.557  -0.033  -2.810  1.00  0.00     0.074 A 
HETATM   30 CL1  UNL     1       4.449   0.302  -4.506  1.00  0.00    -0.081 Cl
HETATM   31  C19 UNL     1       3.761   0.549  -1.845  1.00  0.00     0.058 A 
ENDBRANCH  10  24
TORSDOF 4
