REMARK  7 active torsions:
REMARK  status: ('A' for Active; 'I' for Inactive)
REMARK    1  A    between atoms: C2_2  and  C3_3 
REMARK    2  A    between atoms: C4_4  and  C6_6 
REMARK    3  A    between atoms: C7_7  and  C8_8 
REMARK    4  A    between atoms: C13_16  and  C14_17 
REMARK    5  A    between atoms: C14_17  and  C15_18 
REMARK    6  A    between atoms: C15_18  and  O2_19 
REMARK    7  A    between atoms: C17_21  and  O3_22 
ROOT
HETATM    1  C8  UNL     1      -0.188  -1.194   0.588  1.00  0.00     0.074 C 
HETATM    2  N1  UNL     1       0.242  -1.408   1.837  1.00  0.00    -0.243 NA
HETATM    3  C9  UNL     1      -0.661  -1.443   3.016  1.00  0.00     0.234 C 
HETATM    4  N2  UNL     1      -1.951  -1.893   3.146  1.00  0.00    -0.240 NA
HETATM    5  C10 UNL     1      -2.833  -2.190   1.994  1.00  0.00     0.079 C 
HETATM    6  C11 UNL     1      -3.808  -1.220   2.097  1.00  0.00     0.166 C 
HETATM    7  O1  UNL     1      -4.434  -0.642   0.944  1.00  0.00    -0.360 OA
HETATM    8  C12 UNL     1      -3.788  -0.580  -0.372  1.00  0.00     0.182 C 
HETATM    9  C13 UNL     1      -2.328  -0.276  -0.294  1.00  0.00     0.057 C 
HETATM   10  C17 UNL     1      -1.317  -1.375  -0.409  1.00  0.00     0.128 C 
HETATM   11  C19 UNL     1      -1.967  -2.746  -0.180  1.00  0.00     0.020 C 
HETATM   12  C20 UNL     1      -2.560  -3.281   0.955  1.00  0.00     0.033 C 
ENDROOT
BRANCH   1  13
HETATM   13  C7  UNL     1       0.949  -0.467  -0.038  1.00  0.00     0.031 C 
HETATM   14  C6  UNL     1       2.062  -0.168   0.609  1.00  0.00     0.008 C 
BRANCH  14  15
HETATM   15  C4  UNL     1       3.231   0.529   0.119  1.00  0.00    -0.066 C 
HETATM   16  C3  UNL     1       4.241   0.733   0.911  1.00  0.00    -0.020 C 
HETATM   17  C5  UNL     1       3.083   0.927  -1.302  1.00  0.00     0.048 C 
BRANCH  16  18
HETATM   18  C2  UNL     1       5.502   1.421   0.578  1.00  0.00     0.023 C 
HETATM   19  C1  UNL     1       6.642   0.441   0.787  1.00  0.00     0.009 C 
ENDBRANCH  16  18
ENDBRANCH  14  15
ENDBRANCH   1  13
BRANCH  10  20
HETATM   20  O3  UNL     1      -0.771  -1.396  -1.652  1.00  0.00    -0.374 OA
HETATM   21  C18 UNL     1       0.112  -2.363  -1.994  1.00  0.00     0.203 C 
ENDBRANCH  10  20
BRANCH   9  22
HETATM   22  C14 UNL     1      -1.971   0.914  -1.166  1.00  0.00     0.036 C 
BRANCH  22  23
HETATM   23  C15 UNL     1      -2.725   2.155  -0.740  1.00  0.00     0.167 C 
BRANCH  23  24
HETATM   24  O2  UNL     1      -2.327   3.204  -1.604  1.00  0.00    -0.396 OA
HETATM   25  C16 UNL     1      -3.076   4.306  -1.131  1.00  0.00     0.201 C 
ENDBRANCH  23  24
ENDBRANCH  22  23
ENDBRANCH   9  22
TORSDOF 7
