REMARK  7 active torsions:
REMARK  status: ('A' for Active; 'I' for Inactive)
REMARK    1  A    between atoms: C1_2  and  C2_3 
REMARK    2  A    between atoms: C1_2  and  C9_12 
REMARK    3  A    between atoms: C2_3  and  N1_4 
REMARK    4  A    between atoms: C7_9  and  C8_10 
REMARK    5  A    between atoms: C8_10  and  O2_11 
REMARK    6  A    between atoms: C12_15  and  N2_16 
REMARK    7  A    between atoms: N2_16  and  C13_17 
ROOT
HETATM    1  C9  UNL     1       0.440  -1.527  -1.255  1.00  0.00     0.055 A 
HETATM    2  C10 UNL     1      -0.678  -1.333  -0.436  1.00  0.00     0.041 A 
HETATM    3  C11 UNL     1      -1.707  -2.205  -0.614  1.00  0.00     0.047 A 
HETATM    4  C12 UNL     1      -2.899  -2.200   0.076  1.00  0.00     0.142 A 
HETATM    5  N3  UNL     1      -3.842  -3.108  -0.191  1.00  0.00    -0.223 NA
HETATM    6  C19 UNL     1      -3.736  -4.078  -1.115  1.00  0.00     0.236 A 
HETATM    7  N4  UNL     1      -2.578  -4.091  -1.792  1.00  0.00    -0.234 NA
HETATM    8  C20 UNL     1      -1.623  -3.199  -1.547  1.00  0.00     0.113 A 
HETATM    9  S1  UNL     1      -0.022  -2.940  -2.244  1.00  0.00    -0.066 SA
ENDROOT
BRANCH   1  10
HETATM   10  C1  UNL     1       1.743  -0.811  -1.375  1.00  0.00     0.184 C 
HETATM   11  O1  UNL     1       2.470  -1.332  -2.254  1.00  0.00    -0.290 OA
BRANCH  10  12
HETATM   12  C2  UNL     1       1.846   0.308  -0.448  1.00  0.00     0.207 C 
BRANCH  12  13
HETATM   13  N1  UNL     1       3.077   0.978  -0.295  1.00  0.00    -0.373 N 
HETATM   14  C3  UNL     1       2.897   2.210   0.448  1.00  0.00     0.087 A 
HETATM   15  C4  UNL     1       3.836   3.107   0.671  1.00  0.00     0.017 A 
HETATM   16  C5  UNL     1       5.179   2.859   0.154  1.00  0.00    -0.001 A 
HETATM   17  C6  UNL     1       5.357   1.728  -0.485  1.00  0.00     0.000 A 
HETATM   18  C7  UNL     1       4.368   0.602  -0.767  1.00  0.00     0.130 A 
BRANCH  18  19
HETATM   19  C8  UNL     1       4.885  -0.526   0.154  1.00  0.00     0.193 C 
BRANCH  19  20
HETATM   20  O2  UNL     1       4.110  -1.631   0.203  1.00  0.00    -0.399 OA
HETATM   21  H10 UNL     1       3.876  -1.947   1.117  1.00  0.00     0.209 HD
ENDBRANCH  19  20
ENDBRANCH  18  19
ENDBRANCH  12  13
ENDBRANCH  10  12
ENDBRANCH   1  10
BRANCH   4  22
HETATM   22  N2  UNL     1      -3.305  -1.325   1.100  1.00  0.00    -0.340 N 
HETATM   23  H12 UNL     1      -3.030  -1.824   1.970  1.00  0.00     0.167 HD
BRANCH  22  24
HETATM   24  C13 UNL     1      -3.931  -0.074   1.095  1.00  0.00     0.035 A 
HETATM   25  C14 UNL     1      -4.180   0.615  -0.072  1.00  0.00     0.032 A 
HETATM   26  C15 UNL     1      -4.789   1.829  -0.093  1.00  0.00     0.046 A 
HETATM   27  C16 UNL     1      -5.179   2.406   1.106  1.00  0.00     0.138 A 
HETATM   28  F1  UNL     1      -5.796   3.610   1.176  1.00  0.00    -0.204 F 
HETATM   29  C17 UNL     1      -4.925   1.707   2.269  1.00  0.00     0.074 A 
HETATM   30 CL1  UNL     1      -5.423   2.440   3.789  1.00  0.00    -0.081 Cl
HETATM   31  C18 UNL     1      -4.304   0.466   2.315  1.00  0.00     0.056 A 
ENDBRANCH  22  24
ENDBRANCH   4  22
TORSDOF 7
