REMARK  4 active torsions:
REMARK  status: ('A' for Active; 'I' for Inactive)
REMARK    1  A    between atoms: O1_1  and  C1_2 
REMARK    2  A    between atoms: C1_2  and  C2_3 
REMARK    3  A    between atoms: C2_3  and  O2_4 
REMARK    4  A    between atoms: O2_4  and  C3_5 
ROOT
HETATM    1  C3  UNL     1       3.487  -1.021  -0.835  1.00  0.00     0.118 A 
HETATM    2  C4  UNL     1       2.615  -0.221  -1.099  1.00  0.00     0.041 A 
HETATM    3  C5  UNL     1       1.839   0.479  -1.312  1.00  0.00    -0.046 A 
HETATM    4  C6  UNL     1       0.956   1.259  -1.529  1.00  0.00     0.116 A 
HETATM    5  C7  UNL     1       1.223   0.363  -0.308  1.00  0.00     0.071 A 
HETATM    6  C8  UNL     1       2.291  -0.691   0.145  1.00  0.00     0.042 A 
HETATM    7  C9  UNL     1       1.909  -1.233   1.546  1.00  0.00     0.183 C 
HETATM    8  O3  UNL     1       0.549  -1.278   1.651  1.00  0.00    -0.379 OA
HETATM    9  C10 UNL     1      -0.030  -2.174   0.711  1.00  0.00     0.261 C 
HETATM   10  C11 UNL     1      -1.446  -2.154   0.778  1.00  0.00    -0.080 C 
HETATM   11  C12 UNL     1      -2.564  -2.118   0.829  1.00  0.00    -0.098 C 
HETATM   12  C13 UNL     1      -3.954  -2.049   0.886  1.00  0.00     0.089 C 
HETATM   13  C14 UNL     1      -4.842  -1.135   0.515  1.00  0.00     0.034 C 
HETATM   14  C15 UNL     1      -5.579   0.057   0.001  1.00  0.00    -0.022 C 
HETATM   15  C16 UNL     1      -5.569   1.287  -0.581  1.00  0.00    -0.011 C 
HETATM   16  C17 UNL     1      -4.226   1.760  -0.900  1.00  0.00     0.147 C 
HETATM   17  N1  UNL     1      -3.973   2.986  -0.157  1.00  0.00    -0.381 N 
HETATM   18  C18 UNL     1      -2.610   3.427  -0.363  1.00  0.00     0.204 C 
HETATM   19  N2  UNL     1      -1.663   2.738  -0.900  1.00  0.00    -0.238 NA
HETATM   20  C19 UNL     1      -0.339   3.216  -1.076  1.00  0.00     0.229 C 
HETATM   21  N3  UNL     1      -0.201   1.956  -1.246  1.00  0.00    -0.264 NA
HETATM   22  H17 UNL     1      -4.541   3.593   0.468  1.00  0.00     0.160 HD
ENDROOT
BRANCH   1  23
HETATM   23  O2  UNL     1       4.054  -1.935   0.026  1.00  0.00    -0.373 OA
BRANCH  23  24
HETATM   24  C2  UNL     1       5.008  -1.404   0.952  1.00  0.00     0.195 C 
BRANCH  24  25
HETATM   25  C1  UNL     1       6.129  -0.786   0.111  1.00  0.00     0.190 C 
BRANCH  25  26
HETATM   26  O1  UNL     1       6.700  -1.765  -0.683  1.00  0.00    -0.399 OA
HETATM   27  H1  UNL     1       7.670  -1.752  -0.589  1.00  0.00     0.209 HD
ENDBRANCH  25  26
ENDBRANCH  24  25
ENDBRANCH  23  24
ENDBRANCH   1  23
TORSDOF 4
