REMARK  5 active torsions:
REMARK  status: ('A' for Active; 'I' for Inactive)
REMARK    1  A    between atoms: N1_2  and  C3_4 
REMARK    2  A    between atoms: C3_4  and  C4_5 
REMARK    3  A    between atoms: C4_5  and  C5_6 
REMARK    4  A    between atoms: C6_7  and  C7_8 
REMARK    5  A    between atoms: C10_12  and  N2_13 
ROOT
HETATM    1  C5  UNL     1      -1.642   0.053   0.488  1.00  0.00    -0.052 A 
HETATM    2  C6  UNL     1      -0.664  -0.650  -0.061  1.00  0.00    -0.046 A 
HETATM    3  C8  UNL     1       0.569  -1.100   0.573  1.00  0.00     0.094 A 
HETATM    4  C9  UNL     1       1.813  -0.639  -0.097  1.00  0.00     0.039 C 
HETATM    5  C10 UNL     1       3.082  -0.860   0.255  1.00  0.00     0.128 C 
HETATM    6  N3  UNL     1       3.480  -1.623   1.414  1.00  0.00    -0.225 NA
HETATM    7  C16 UNL     1       2.828  -1.631   2.553  1.00  0.00     0.235 C 
HETATM    8  N4  UNL     1       1.617  -0.898   2.865  1.00  0.00    -0.245 NA
HETATM    9  C17 UNL     1       0.652  -0.673   2.011  1.00  0.00     0.048 A 
HETATM   10  C18 UNL     1      -0.414   0.099   2.635  1.00  0.00     0.029 A 
HETATM   11  C19 UNL     1      -1.473   0.425   1.898  1.00  0.00     0.009 A 
ENDROOT
BRANCH   5  12
HETATM   12  N2  UNL     1       4.063  -0.262  -0.627  1.00  0.00    -0.337 N 
HETATM   13  C11 UNL     1       4.148   1.161  -0.556  1.00  0.00     0.120 A 
HETATM   14  C12 UNL     1       5.008   1.777  -1.346  1.00  0.00     0.087 A 
HETATM   15 CL2  UNL     1       5.084   3.533  -1.231  1.00  0.00    -0.080 Cl
HETATM   16  C13 UNL     1       5.889   1.061  -2.295  1.00  0.00     0.137 A 
HETATM   17  F1  UNL     1       6.739   1.774  -3.069  1.00  0.00    -0.205 F 
HETATM   18  C14 UNL     1       5.786  -0.267  -2.327  1.00  0.00     0.037 A 
HETATM   19  C15 UNL     1       4.873  -1.069  -1.500  1.00  0.00     0.160 A 
ENDBRANCH   5  12
BRANCH   2  20
HETATM   20  C7  UNL     1      -0.669  -1.116  -1.470  1.00  0.00     0.150 C 
HETATM   21 CL1  UNL     1      -0.579  -2.915  -1.524  1.00  0.00    -0.126 Cl
ENDBRANCH   2  20
BRANCH   1  22
HETATM   22  C4  UNL     1      -2.905   0.549  -0.048  1.00  0.00     0.069 C 
BRANCH  22  23
HETATM   23  C3  UNL     1      -4.099   0.011   0.704  1.00  0.00     0.276 C 
BRANCH  23  24
HETATM   24  N1  UNL     1      -5.350   0.478   0.211  1.00  0.00     0.080 N 
HETATM   25  C1  UNL     1      -5.487   1.881   0.473  1.00  0.00     0.309 C 
HETATM   26  C2  UNL     1      -5.687   0.139  -1.127  1.00  0.00     0.309 C 
ENDBRANCH  23  24
ENDBRANCH  22  23
ENDBRANCH   1  22
TORSDOF 5
