REMARK  5 active torsions:
REMARK  status: ('A' for Active; 'I' for Inactive)
REMARK    1  A    between atoms: C5_6  and  N1_7 
REMARK    2  A    between atoms: N1_7  and  C6_8 
REMARK    3  A    between atoms: C8_10  and  N2_11 
REMARK    4  A    between atoms: N2_11  and  C9_12 
REMARK    5  A    between atoms: C9_12  and  C10_13 
ROOT
HETATM    1  C6  UNL     1      -1.499   0.273   1.488  1.00  0.00     0.138 A 
HETATM    2  C7  UNL     1      -0.475  -0.546   1.623  1.00  0.00     0.085 A 
HETATM    3  C8  UNL     1       0.545  -0.962   0.665  1.00  0.00    -0.019 A 
HETATM    4  B1  UNL     1       1.746  -2.100   1.309  1.00  0.00     0.260 B 
HETATM    5  C16 UNL     1       1.657  -2.640   2.975  1.00  0.00     0.042 A 
HETATM    6  N3  UNL     1       0.734  -2.256   3.824  1.00  0.00    -0.233 NA
HETATM    7  S1  UNL     1      -0.483  -1.180   3.379  1.00  0.00     0.048 SA
HETATM    8  N4  UNL     1      -1.820  -0.364   3.895  1.00  0.00    -0.049 NA
HETATM    9  N5  UNL     1      -2.257   0.418   2.652  1.00  0.00    -0.276 N 
HETATM   10  H14 UNL     1      -3.105   0.952   2.934  1.00  0.00     0.185 HD
ENDROOT
BRANCH   1  11
HETATM   11  N1  UNL     1      -1.940   1.014   0.363  1.00  0.00    -0.340 N 
HETATM   12  H4  UNL     1      -1.305   1.835   0.252  1.00  0.00     0.167 HD
BRANCH  11  13
HETATM   13  C5  UNL     1      -3.041   0.722  -0.482  1.00  0.00     0.035 A 
HETATM   14  C4  UNL     1      -3.785  -0.396  -0.209  1.00  0.00     0.029 A 
HETATM   15  C3  UNL     1      -4.845  -0.624  -1.071  1.00  0.00     0.004 A 
HETATM   16  C2  UNL     1      -5.157   0.198  -2.140  1.00  0.00     0.024 A 
HETATM   17  C1  UNL     1      -4.352   1.304  -2.340  1.00  0.00     0.036 A 
HETATM   18 CL1  UNL     1      -4.653   2.424  -3.671  1.00  0.00    -0.084 Cl
HETATM   19  C17 UNL     1      -3.270   1.590  -1.509  1.00  0.00     0.053 A 
ENDBRANCH  11  13
ENDBRANCH   1  11
BRANCH   3  20
HETATM   20  N2  UNL     1       0.556  -0.484  -0.669  1.00  0.00    -0.397 N 
HETATM   21  H5  UNL     1      -0.084  -1.098  -1.208  1.00  0.00     0.158 HD
BRANCH  20  22
HETATM   22  C9  UNL     1       1.356   0.650  -1.062  1.00  0.00     0.157 C 
BRANCH  22  23
HETATM   23  C10 UNL     1       2.815   0.448  -0.830  1.00  0.00    -0.041 A 
HETATM   24  C11 UNL     1       3.448   0.794   0.363  1.00  0.00     0.009 A 
HETATM   25  C12 UNL     1       4.804   0.597   0.557  1.00  0.00     0.001 A 
HETATM   26  C13 UNL     1       5.570   0.037  -0.463  1.00  0.00     0.000 A 
HETATM   27  C14 UNL     1       4.978  -0.318  -1.659  1.00  0.00     0.001 A 
HETATM   28  C15 UNL     1       3.607  -0.110  -1.832  1.00  0.00     0.009 A 
ENDBRANCH  22  23
ENDBRANCH  20  22
ENDBRANCH   3  20
TORSDOF 5
