REMARK  5 active torsions:
REMARK  status: ('A' for Active; 'I' for Inactive)
REMARK    1  A    between atoms: C1_2  and  C2_3 
REMARK    2  A    between atoms: C1_2  and  C8_10 
REMARK    3  A    between atoms: C6_7  and  O2_8 
REMARK    4  A    between atoms: C11_13  and  N1_14 
REMARK    5  A    between atoms: N1_14  and  C12_15 
ROOT
HETATM    1  C8  UNL     1      -1.559   1.017   0.509  1.00  0.00     0.058 A 
HETATM    2  C9  UNL     1      -0.230   0.569   0.317  1.00  0.00     0.041 A 
HETATM    3  C10 UNL     1       1.025   1.178   0.530  1.00  0.00     0.047 A 
HETATM    4  C11 UNL     1       2.406   1.066   0.455  1.00  0.00     0.142 A 
HETATM    5  N2  UNL     1       3.198   2.058   0.813  1.00  0.00    -0.223 NA
HETATM    6  C18 UNL     1       2.906   3.249   1.274  1.00  0.00     0.236 A 
HETATM    7  N3  UNL     1       1.579   3.472   1.389  1.00  0.00    -0.234 NA
HETATM    8  C19 UNL     1       0.736   2.437   1.014  1.00  0.00     0.113 A 
HETATM    9  S1  UNL     1      -0.979   2.556   1.088  1.00  0.00    -0.066 SA
ENDROOT
BRANCH   1  10
HETATM   10  C1  UNL     1      -2.070  -0.336  -0.001  1.00  0.00     0.195 C 
HETATM   11  O1  UNL     1      -1.944  -1.550  -0.440  1.00  0.00    -0.286 OA
BRANCH  10  12
HETATM   12  C2  UNL     1      -3.574  -0.261  -0.019  1.00  0.00    -0.004 C 
HETATM   13  C3  UNL     1      -4.294   0.826   0.343  1.00  0.00    -0.011 C 
HETATM   14  C4  UNL     1      -5.767   1.113   0.400  1.00  0.00     0.057 C 
HETATM   15  C5  UNL     1      -6.595  -0.097   0.335  1.00  0.00     0.009 C 
HETATM   16  C6  UNL     1      -5.868  -1.111  -0.053  1.00  0.00     0.044 C 
HETATM   17  C7  UNL     1      -4.491  -1.385  -0.435  1.00  0.00     0.106 C 
BRANCH  16  18
HETATM   18  O2  UNL     1      -6.668  -2.262  -0.111  1.00  0.00    -0.365 OA
HETATM   19  H5  UNL     1      -7.044  -2.479  -1.017  1.00  0.00     0.217 HD
ENDBRANCH  16  18
ENDBRANCH  10  12
ENDBRANCH   1  10
BRANCH   4  20
HETATM   20  N1  UNL     1       2.797  -0.202  -0.037  1.00  0.00    -0.340 N 
HETATM   21  H9  UNL     1       2.106  -0.997  -0.195  1.00  0.00     0.167 HD
BRANCH  20  22
HETATM   22  C12 UNL     1       4.081  -0.659  -0.387  1.00  0.00     0.035 A 
HETATM   23  C13 UNL     1       5.190   0.168  -0.310  1.00  0.00     0.032 A 
HETATM   24  C14 UNL     1       6.465  -0.225  -0.652  1.00  0.00     0.046 A 
HETATM   25  C15 UNL     1       6.636  -1.509  -1.092  1.00  0.00     0.138 A 
HETATM   26  F1  UNL     1       7.871  -1.968  -1.443  1.00  0.00    -0.204 F 
HETATM   27  C16 UNL     1       5.611  -2.386  -1.200  1.00  0.00     0.074 A 
HETATM   28 CL1  UNL     1       5.810  -4.025  -1.754  1.00  0.00    -0.081 Cl
HETATM   29  C17 UNL     1       4.375  -1.921  -0.842  1.00  0.00     0.056 A 
ENDBRANCH  20  22
ENDBRANCH   4  20
TORSDOF 5
