REMARK  7 active torsions:
REMARK  status: ('A' for Active; 'I' for Inactive)
REMARK    1  A    between atoms: C2_2  and  N1_3 
REMARK    2  A    between atoms: C5_6  and  C6_7 
REMARK    3  A    between atoms: C6_7  and  C7_9 
REMARK    4  A    between atoms: C7_9  and  S1_10 
REMARK    5  A    between atoms: C8_11  and  C9_12 
REMARK    6  A    between atoms: C12_17  and  N4_18 
REMARK    7  A    between atoms: N4_18  and  C13_19 
ROOT
HETATM    1  C9  UNL     1       1.537  -0.324  -1.571  1.00  0.00     0.029 A 
HETATM    2  C10 UNL     1       1.078  -0.090  -2.866  1.00  0.00     0.133 A 
HETATM    3  N2  UNL     1       1.671  -0.558  -4.000  1.00  0.00    -0.253 NA
HETATM    4  C11 UNL     1       2.795  -1.306  -3.810  1.00  0.00     0.234 A 
HETATM    5  N3  UNL     1       3.294  -1.571  -2.595  1.00  0.00    -0.224 NA
HETATM    6  C12 UNL     1       2.680  -1.090  -1.483  1.00  0.00     0.141 A 
ENDROOT
BRANCH   1   7
HETATM    7  C8  UNL     1       0.806   0.187  -0.425  1.00  0.00     0.039 C 
HETATM    8  C7  UNL     1      -0.388   0.212   0.076  1.00  0.00     0.049 C 
BRANCH   8   9
HETATM    9  C6  UNL     1      -1.564  -0.402  -0.504  1.00  0.00     0.194 C 
HETATM   10  O1  UNL     1      -1.334  -1.018  -1.587  1.00  0.00    -0.286 OA
BRANCH   9  11
HETATM   11  C5  UNL     1      -2.922  -0.381   0.011  1.00  0.00    -0.008 C 
HETATM   12  C4  UNL     1      -3.857  -1.040  -0.701  1.00  0.00    -0.013 C 
HETATM   13  C3  UNL     1      -5.173  -0.899  -0.008  1.00  0.00     0.058 C 
HETATM   14  C2  UNL     1      -4.971   0.474   0.627  1.00  0.00     0.026 C 
HETATM   15  C1  UNL     1      -5.996   0.784   1.653  1.00  0.00     0.038 C 
HETATM   16  C19 UNL     1      -3.571   0.231   1.200  1.00  0.00     0.072 C 
BRANCH  14  17
HETATM   17  N1  UNL     1      -4.858   1.418  -0.445  1.00  0.00    -0.421 N 
HETATM   18  H4  UNL     1      -5.702   1.944  -0.685  1.00  0.00     0.150 HD
HETATM   19  H5  UNL     1      -3.972   1.965  -0.428  1.00  0.00     0.150 HD
ENDBRANCH  14  17
ENDBRANCH   9  11
ENDBRANCH   8   9
BRANCH   8  20
HETATM   20  S1  UNL     1      -0.629   1.075   1.627  1.00  0.00    -0.139 SA
HETATM   21  H9  UNL     1      -0.695   0.100   2.638  1.00  0.00     0.107 HD
ENDBRANCH   8  20
ENDBRANCH   1   7
BRANCH   6  22
HETATM   22  N4  UNL     1       3.253  -1.395  -0.225  1.00  0.00    -0.340 N 
HETATM   23  H13 UNL     1       2.969  -2.186   0.380  1.00  0.00     0.167 HD
BRANCH  22  24
HETATM   24  C13 UNL     1       4.290  -0.554   0.239  1.00  0.00     0.035 A 
HETATM   25  C14 UNL     1       4.977  -0.815   1.431  1.00  0.00     0.032 A 
HETATM   26  C15 UNL     1       5.989   0.001   1.874  1.00  0.00     0.046 A 
HETATM   27  C16 UNL     1       6.383   1.115   1.175  1.00  0.00     0.138 A 
HETATM   28  F1  UNL     1       7.366   1.957   1.549  1.00  0.00    -0.204 F 
HETATM   29  C17 UNL     1       5.728   1.419  -0.020  1.00  0.00     0.074 A 
HETATM   30 CL1  UNL     1       6.129   2.819  -1.019  1.00  0.00    -0.081 Cl
HETATM   31  C18 UNL     1       4.713   0.573  -0.435  1.00  0.00     0.056 A 
ENDBRANCH  22  24
ENDBRANCH   6  22
TORSDOF 7
