REMARK  0 active torsions:
REMARK  status: ('A' for Active; 'I' for Inactive)
ROOT
HETATM    1  O1  UNL     1       0.353  -3.996   0.143  1.00  0.00    -0.284 OA
HETATM    2  C1  UNL     1       0.279  -2.759   0.201  1.00  0.00     0.217 C 
HETATM    3  C2  UNL     1      -1.095  -2.446   0.257  1.00  0.00     0.060 A 
HETATM    4  C3  UNL     1      -1.309  -1.237  -0.704  1.00  0.00     0.038 A 
HETATM    5  C4  UNL     1      -2.574  -0.884  -0.625  1.00  0.00     0.008 A 
HETATM    6  C5  UNL     1      -3.599  -1.444   0.148  1.00  0.00     0.103 A 
HETATM    7  S1  UNL     1      -2.677  -2.734   0.958  1.00  0.00    -0.066 SA
HETATM    8  N1  UNL     1      -4.699  -0.859   0.022  1.00  0.00    -0.277 NA
HETATM    9  C6  UNL     1      -4.528   0.235  -0.905  1.00  0.00     0.189 A 
HETATM   10  C7  UNL     1      -3.070   0.162  -1.221  1.00  0.00    -0.028 A 
HETATM   11  C8  UNL     1      -2.288   1.078  -2.057  1.00  0.00     0.003 C 
HETATM   12  C9  UNL     1      -1.651   1.816  -1.200  1.00  0.00     0.079 A 
HETATM   13  C10 UNL     1      -2.419   2.569  -0.462  1.00  0.00     0.115 A 
HETATM   14  F1  UNL     1      -3.271   3.409   0.172  1.00  0.00    -0.212 F 
HETATM   15  C11 UNL     1      -1.659   1.779   0.540  1.00  0.00     0.128 A 
HETATM   16 CL1  UNL     1      -2.312   1.517   2.180  1.00  0.00    -0.172 Cl
HETATM   17  C12 UNL     1      -0.832   1.031   1.326  1.00  0.00     0.211 A 
HETATM   18  N2  UNL     1       0.384   0.309   1.457  1.00  0.00    -0.309 N 
HETATM   19  N3  UNL     1       1.293  -0.514   0.741  1.00  0.00    -0.255 N 
HETATM   20  C13 UNL     1       1.299  -1.724   0.219  1.00  0.00     0.108 A 
HETATM   21  C14 UNL     1       2.508  -1.953  -0.382  1.00  0.00     0.049 A 
HETATM   22  C15 UNL     1       3.272  -0.819  -0.213  1.00  0.00    -0.005 A 
HETATM   23  C16 UNL     1       4.580  -0.555  -0.641  1.00  0.00     0.014 A 
HETATM   24  C17 UNL     1       5.163   0.652  -0.361  1.00  0.00     0.001 A 
HETATM   25  C18 UNL     1       4.449   1.587   0.339  1.00  0.00     0.002 A 
HETATM   26  C19 UNL     1       3.172   1.263   0.728  1.00  0.00     0.032 A 
HETATM   27  C20 UNL     1       2.486   0.064   0.494  1.00  0.00     0.067 A 
HETATM   28  H6  UNL     1       0.596   0.537   2.451  1.00  0.00     0.182 HD
ENDROOT
TORSDOF 0
