REMARK  1 active torsions:
REMARK  status: ('A' for Active; 'I' for Inactive)
REMARK    1  A    between atoms: N1_4  and  C4_5 
ROOT
HETATM    1  C4  UNL     1      -0.363  -0.625  -1.484  1.00  0.00     0.145 A 
HETATM    2  N2  UNL     1      -0.504  -1.746  -2.264  1.00  0.00    -0.223 NA
HETATM    3  C5  UNL     1       0.661  -2.302  -2.696  1.00  0.00     0.236 A 
HETATM    4  N3  UNL     1       1.860  -1.830  -2.408  1.00  0.00    -0.234 NA
HETATM    5  C6  UNL     1       2.075  -0.741  -1.653  1.00  0.00     0.110 A 
HETATM    6  C7  UNL     1       0.905  -0.194  -1.226  1.00  0.00     0.057 A 
HETATM    7  C8  UNL     1       0.881   0.973  -0.362  1.00  0.00    -0.009 A 
HETATM    8  C9  UNL     1       0.348   2.015  -1.066  1.00  0.00     0.013 A 
HETATM    9  C10 UNL     1       0.252   3.261  -0.415  1.00  0.00     0.001 A 
HETATM   10  C11 UNL     1       0.661   3.468   0.867  1.00  0.00     0.001 A 
HETATM   11  C12 UNL     1       1.186   2.350   1.500  1.00  0.00     0.012 A 
HETATM   12  C13 UNL     1       1.318   1.078   0.929  1.00  0.00    -0.025 A 
HETATM   13  C14 UNL     1       1.873   0.012   1.730  1.00  0.00     0.016 C 
HETATM   14  C15 UNL     1       2.858  -0.861   1.696  1.00  0.00     0.052 C 
HETATM   15  C16 UNL     1       4.029  -1.441   0.999  1.00  0.00     0.159 C 
HETATM   16  O1  UNL     1       4.768  -2.374   1.431  1.00  0.00    -0.292 OA
HETATM   17  C17 UNL     1       4.681  -1.165  -0.307  1.00  0.00     0.164 C 
HETATM   18  S1  UNL     1       3.618   0.045  -1.189  1.00  0.00    -0.102 SA
ENDROOT
BRANCH   1  19
HETATM   19  N1  UNL     1      -1.631  -0.100  -1.130  1.00  0.00    -0.337 N 
HETATM   20  C3  UNL     1      -1.968  -0.918   0.038  1.00  0.00     0.101 A 
HETATM   21  C2  UNL     1      -3.054  -0.936   0.819  1.00  0.00    -0.025 A 
HETATM   22  C1  UNL     1      -3.425  -1.769   2.027  1.00  0.00     0.051 C 
HETATM   23  C20 UNL     1      -4.128   0.032   0.494  1.00  0.00     0.039 A 
HETATM   24  C19 UNL     1      -3.833   0.778  -0.536  1.00  0.00     0.018 A 
HETATM   25 CL1  UNL     1      -5.654   0.256   1.310  1.00  0.00    -0.084 Cl
HETATM   26  C18 UNL     1      -2.660   0.863  -1.444  1.00  0.00     0.159 A 
ENDBRANCH   1  19
TORSDOF 1
