REMARK  4 active torsions:
REMARK  status: ('A' for Active; 'I' for Inactive)
REMARK    1  A    between atoms: O1_2  and  C2_3 
REMARK    2  A    between atoms: C10_11  and  N1_12 
REMARK    3  A    between atoms: C10_11  and  C12_15 
REMARK    4  A    between atoms: C11_13  and  N2_14 
ROOT
HETATM    1  C2  UNL     1      -1.521   1.784  -1.218  1.00  0.00     0.068 C 
HETATM    2  C3  UNL     1      -2.737   1.279  -1.512  1.00  0.00     0.039 C 
HETATM    3  C4  UNL     1      -3.335   0.073  -0.880  1.00  0.00     0.030 C 
HETATM    4  C5  UNL     1      -2.983  -0.479   0.299  1.00  0.00     0.040 C 
HETATM    5  C6  UNL     1      -1.799  -0.241   1.192  1.00  0.00     0.098 C 
HETATM    6  C7  UNL     1      -0.599   0.084   0.398  1.00  0.00    -0.041 C 
HETATM    7  C8  UNL     1      -0.427   1.003  -0.566  1.00  0.00     0.044 C 
HETATM    8  C9  UNL     1       0.766  -0.495   0.412  1.00  0.00    -0.016 C 
HETATM    9  C10 UNL     1       1.923   0.042   0.327  1.00  0.00     0.038 C 
HETATM   10  C18 UNL     1       0.526  -1.952   0.524  1.00  0.00     0.115 C 
HETATM   11  S1  UNL     1      -0.502  -2.415  -0.856  1.00  0.00    -0.163 SA
HETATM   12  C19 UNL     1      -1.017  -4.134  -0.900  1.00  0.00     0.093 C 
HETATM   13  C20 UNL     1      -1.864  -4.500   0.310  1.00  0.00     0.130 C 
HETATM   14  N3  UNL     1      -2.930  -3.560   0.512  1.00  0.00    -0.384 N 
HETATM   15  C21 UNL     1      -3.998  -2.652   0.669  1.00  0.00     0.202 C 
HETATM   16  N4  UNL     1      -4.011  -1.375   0.578  1.00  0.00    -0.249 NA
HETATM   17  H21 UNL     1      -2.646  -3.151   1.460  1.00  0.00     0.160 HD
ENDROOT
BRANCH   9  18
HETATM   18  N1  UNL     1       3.020  -0.905   0.381  1.00  0.00    -0.389 NA
HETATM   19  C11 UNL     1       3.462  -1.308   1.510  1.00  0.00     0.413 C 
BRANCH  19  20
HETATM   20  N2  UNL     1       2.550  -0.541   2.197  1.00  0.00    -0.406 N 
HETATM   21  H10 UNL     1       2.239  -0.025   3.020  1.00  0.00     0.152 HD
HETATM   22  H11 UNL     1       1.772   0.016   2.532  1.00  0.00     0.152 HD
ENDBRANCH  19  20
ENDBRANCH   9  18
BRANCH   9  23
HETATM   23  C12 UNL     1       2.631   1.330   0.218  1.00  0.00    -0.008 A 
HETATM   24  C13 UNL     1       3.680   1.557  -0.692  1.00  0.00     0.017 A 
HETATM   25  C14 UNL     1       4.335   2.759  -0.757  1.00  0.00     0.045 A 
HETATM   26  C15 UNL     1       3.915   3.730   0.114  1.00  0.00     0.138 A 
HETATM   27  F1  UNL     1       4.654   4.879  -0.054  1.00  0.00    -0.204 F 
HETATM   28  C16 UNL     1       2.904   3.616   1.043  1.00  0.00     0.073 A 
HETATM   29 CL1  UNL     1       2.538   4.992   2.066  1.00  0.00    -0.081 Cl
HETATM   30  C17 UNL     1       2.277   2.389   1.065  1.00  0.00     0.040 A 
ENDBRANCH   9  23
BRANCH   1  31
HETATM   31  O1  UNL     1      -1.224   3.101  -1.520  1.00  0.00    -0.356 OA
HETATM   32  C1  UNL     1      -1.579   3.768  -2.673  1.00  0.00     0.210 C 
ENDBRANCH   1  31
TORSDOF 4
