REMARK  4 active torsions:
REMARK  status: ('A' for Active; 'I' for Inactive)
REMARK    1  A    between atoms: C2_2  and  O1_4 
REMARK    2  A    between atoms: O1_4  and  C4_5 
REMARK    3  A    between atoms: C6_7  and  N1_8 
REMARK    4  A    between atoms: N1_8  and  C7_9 
ROOT
HETATM    1  C4  UNL     1      -1.781   0.012   0.240  1.00  0.00     0.072 C 
HETATM    2  C5  UNL     1      -0.738   0.627  -0.358  1.00  0.00     0.087 C 
HETATM    3  C6  UNL     1       0.688   0.288  -0.563  1.00  0.00     0.132 C 
HETATM    4  N2  UNL     1       1.426  -0.719  -0.259  1.00  0.00    -0.215 NA
HETATM    5  C13 UNL     1       1.242  -1.962   0.400  1.00  0.00     0.139 A 
HETATM    6  N3  UNL     1       2.235  -2.394   1.135  1.00  0.00    -0.245 NA
HETATM    7  C14 UNL     1       1.835  -3.637   1.695  1.00  0.00     0.116 A 
HETATM    8  C15 UNL     1       0.590  -3.958   1.293  1.00  0.00     0.009 A 
HETATM    9  C16 UNL     1       0.081  -2.877   0.396  1.00  0.00     0.104 A 
HETATM   10  C17 UNL     1      -1.147  -2.331   0.956  1.00  0.00    -0.008 C 
HETATM   11  C18 UNL     1      -1.888  -1.254   0.930  1.00  0.00     0.034 C 
ENDROOT
BRANCH   3  12
HETATM   12  N1  UNL     1       1.457   1.277  -1.268  1.00  0.00    -0.341 N 
HETATM   13  H9  UNL     1       0.917   1.778  -2.031  1.00  0.00     0.167 HD
BRANCH  12  14
HETATM   14  C7  UNL     1       2.828   1.506  -0.888  1.00  0.00     0.035 A 
HETATM   15  C8  UNL     1       3.267   1.640   0.413  1.00  0.00     0.032 A 
HETATM   16  C9  UNL     1       4.602   1.836   0.701  1.00  0.00     0.046 A 
HETATM   17  C10 UNL     1       5.492   1.895  -0.364  1.00  0.00     0.138 A 
HETATM   18  F1  UNL     1       6.830   2.094  -0.134  1.00  0.00    -0.204 F 
HETATM   19  C11 UNL     1       5.106   1.766  -1.679  1.00  0.00     0.074 A 
HETATM   20 CL1  UNL     1       6.206   1.831  -3.042  1.00  0.00    -0.081 Cl
HETATM   21  C12 UNL     1       3.757   1.573  -1.889  1.00  0.00     0.056 A 
ENDBRANCH  12  14
ENDBRANCH   3  12
BRANCH   1  22
HETATM   22  O1  UNL     1      -2.775   0.923   0.027  1.00  0.00    -0.347 OA
BRANCH  22  23
HETATM   23  C2  UNL     1      -4.101   0.586  -0.154  1.00  0.00     0.120 C 
HETATM   24  C1  UNL     1      -4.644   1.555  -1.228  1.00  0.00     0.040 C 
HETATM   25  C3  UNL     1      -4.987   0.778   1.067  1.00  0.00     0.040 C 
ENDBRANCH  22  23
ENDBRANCH   1  22
TORSDOF 4
