REMARK  2 active torsions:
REMARK  status: ('A' for Active; 'I' for Inactive)
REMARK    1  A    between atoms: C7_7  and  N1_8 
REMARK    2  A    between atoms: N1_8  and  C8_9 
ROOT
HETATM    1  C1  UNL     1       5.235  -1.862  -1.433  1.00  0.00     0.018 C 
HETATM    2  C2  UNL     1       4.367  -1.584  -0.643  1.00  0.00    -0.078 C 
HETATM    3  C3  UNL     1       3.345  -1.237   0.305  1.00  0.00     0.019 A 
HETATM    4  C4  UNL     1       3.601  -1.433   1.641  1.00  0.00     0.021 A 
HETATM    5  C5  UNL     1       2.641  -1.110   2.572  1.00  0.00     0.004 A 
HETATM    6  C6  UNL     1       1.439  -0.596   2.155  1.00  0.00     0.029 A 
HETATM    7  C7  UNL     1       1.114  -0.371   0.811  1.00  0.00     0.035 A 
HETATM    8  C16 UNL     1       2.120  -0.718  -0.045  1.00  0.00     0.050 A 
ENDROOT
BRANCH   7   9
HETATM    9  N1  UNL     1      -0.133   0.158   0.442  1.00  0.00    -0.340 N 
HETATM   10  H5  UNL     1      -0.776   0.361   1.266  1.00  0.00     0.167 HD
BRANCH   9  11
HETATM   11  C8  UNL     1      -0.668   0.461  -0.828  1.00  0.00     0.143 A 
HETATM   12  N2  UNL     1       0.034   0.252  -1.934  1.00  0.00    -0.223 NA
HETATM   13  C9  UNL     1      -0.293   0.469  -3.184  1.00  0.00     0.236 A 
HETATM   14  N3  UNL     1      -1.514   0.977  -3.390  1.00  0.00    -0.234 NA
HETATM   15  C10 UNL     1      -2.281   1.211  -2.274  1.00  0.00     0.114 A 
HETATM   16  S1  UNL     1      -3.956   1.885  -2.224  1.00  0.00    -0.073 SA
HETATM   17  C13 UNL     1      -1.934   0.980  -0.953  1.00  0.00     0.061 A 
HETATM   18  C11 UNL     1      -4.139   1.838  -0.458  1.00  0.00     0.007 A 
HETATM   19  C12 UNL     1      -2.931   1.324  -0.080  1.00  0.00     0.041 A 
HETATM   20  C15 UNL     1      -4.727   1.983   0.907  1.00  0.00     0.131 A 
HETATM   21  C14 UNL     1      -3.434   1.433   1.308  1.00  0.00     0.166 A 
HETATM   22  O1  UNL     1      -3.115   1.223   2.500  1.00  0.00    -0.292 OA
ENDBRANCH   9  11
ENDBRANCH   7   9
TORSDOF 2
