REMARK  8 active torsions:
REMARK  status: ('A' for Active; 'I' for Inactive)
REMARK    1  A    between atoms: O1_2  and  C1_3 
REMARK    2  A    between atoms: C1_3  and  C2_4 
REMARK    3  A    between atoms: C2_4  and  C3_5 
REMARK    4  A    between atoms: C3_5  and  C4_6 
REMARK    5  A    between atoms: C4_6  and  C5_7 
REMARK    6  A    between atoms: C8_10  and  C9_11 
REMARK    7  A    between atoms: C12_14  and  N1_15 
REMARK    8  A    between atoms: N1_15  and  C13_16 
ROOT
HETATM    1  C9  UNL     1       0.447   1.116  -0.025  1.00  0.00     0.022 A 
HETATM    2  C10 UNL     1      -0.727   0.821  -0.646  1.00  0.00     0.035 A 
HETATM    3  C11 UNL     1      -1.539   1.790  -1.159  1.00  0.00     0.047 A 
HETATM    4  C12 UNL     1      -2.743   1.730  -1.813  1.00  0.00     0.142 A 
HETATM    5  N2  UNL     1      -3.345   2.831  -2.220  1.00  0.00    -0.223 NA
HETATM    6  C18 UNL     1      -2.897   4.074  -2.063  1.00  0.00     0.236 A 
HETATM    7  N3  UNL     1      -1.726   4.258  -1.435  1.00  0.00    -0.234 NA
HETATM    8  C19 UNL     1      -1.100   3.122  -1.012  1.00  0.00     0.113 A 
HETATM    9  S1  UNL     1       0.544   2.918  -0.099  1.00  0.00    -0.071 SA
ENDROOT
BRANCH   1  10
HETATM   10  C8  UNL     1       1.466   0.303   0.589  1.00  0.00     0.283 C 
HETATM   11  C7  UNL     1       2.346  -0.402  -0.394  1.00  0.00     0.014 C 
HETATM   12  C6  UNL     1       3.143  -1.374   0.059  1.00  0.00     0.007 C 
HETATM   13  C5  UNL     1       3.098  -1.681   1.488  1.00  0.00    -0.030 C 
HETATM   14  C20 UNL     1       1.807  -1.463   2.209  1.00  0.00     0.309 C 
HETATM   15  N4  UNL     1       0.867  -0.718   1.422  1.00  0.00     0.100 N 
HETATM   16  H15 UNL     1       0.131  -0.325   2.052  1.00  0.00     0.317 HD
BRANCH  13  17
HETATM   17  C4  UNL     1       4.148  -2.131   2.120  1.00  0.00     0.017 C 
BRANCH  17  18
HETATM   18  C3  UNL     1       5.407  -2.351   1.453  1.00  0.00     0.054 C 
BRANCH  18  19
HETATM   19  C2  UNL     1       6.078  -1.309   1.028  1.00  0.00    -0.117 C 
BRANCH  19  20
HETATM   20  C1  UNL     1       6.506  -0.157   0.533  1.00  0.00     0.279 C 
BRANCH  20  21
HETATM   21  O1  UNL     1       6.050   0.193  -0.723  1.00  0.00    -0.178 OA
HETATM   22  F1  UNL     1       5.418   1.325  -1.033  1.00  0.00    -0.046 F 
ENDBRANCH  20  21
ENDBRANCH  19  20
ENDBRANCH  18  19
ENDBRANCH  17  18
ENDBRANCH  13  17
ENDBRANCH   1  10
BRANCH   4  23
HETATM   23  N1  UNL     1      -3.357   0.474  -2.060  1.00  0.00    -0.343 N 
HETATM   24  H8  UNL     1      -3.145  -0.042  -2.949  1.00  0.00     0.167 HD
BRANCH  23  25
HETATM   25  C13 UNL     1      -4.265  -0.096  -1.103  1.00  0.00     0.014 A 
HETATM   26  C14 UNL     1      -4.809   0.592  -0.099  1.00  0.00     0.025 A 
HETATM   27  C15 UNL     1      -5.665  -0.338   0.638  1.00  0.00    -0.002 A 
HETATM   28  C16 UNL     1      -5.625  -1.555   0.075  1.00  0.00    -0.021 A 
HETATM   29  C17 UNL     1      -4.717  -1.515  -1.104  1.00  0.00     0.084 A 
ENDBRANCH  23  25
ENDBRANCH   4  23
TORSDOF 8
