REMARK  7 active torsions:
REMARK  status: ('A' for Active; 'I' for Inactive)
REMARK    1  A    between atoms: C1_2  and  C2_3 
REMARK    2  A    between atoms: C2_3  and  C3_4 
REMARK    3  A    between atoms: C3_4  and  C4_5 
REMARK    4  A    between atoms: S1_8  and  C7_9 
REMARK    5  A    between atoms: C7_9  and  C8_10 
REMARK    6  A    between atoms: C8_10  and  O1_11 
REMARK    7  A    between atoms: O1_11  and  C9_12 
ROOT
HETATM    1  C7  UNL     1      -0.628   0.710   0.714  1.00  0.00     0.097 C 
ENDROOT
BRANCH   1   2
HETATM    2  S1  UNL     1       1.007  -0.105   0.551  1.00  0.00    -0.160 SA
HETATM    3  C6  UNL     1       1.872  -0.120  -1.071  1.00  0.00     0.099 C 
HETATM    4  C5  UNL     1       3.309   0.093  -0.710  1.00  0.00     0.010 C 
HETATM    5  C4  UNL     1       3.923  -0.127   0.424  1.00  0.00     0.033 C 
HETATM    6  N2  UNL     1       3.168  -0.645   1.515  1.00  0.00    -0.245 NA
HETATM    7  C15 UNL     1       2.011  -0.269   1.804  1.00  0.00     0.119 C 
BRANCH   5   8
HETATM    8  C3  UNL     1       5.394   0.154   0.594  1.00  0.00     0.060 C 
BRANCH   8   9
HETATM    9  C2  UNL     1       6.065  -1.150   0.960  1.00  0.00     0.021 C 
BRANCH   9  10
HETATM   10  C1  UNL     1       7.557  -0.968   1.153  1.00  0.00     0.115 C 
HETATM   11 CL1  UNL     1       7.879   0.196   2.453  1.00  0.00    -0.130 Cl
ENDBRANCH   9  10
ENDBRANCH   8   9
ENDBRANCH   5   8
ENDBRANCH   1   2
BRANCH   1  12
HETATM   12  C8  UNL     1      -1.693   0.113  -0.187  1.00  0.00     0.185 C 
BRANCH  12  13
HETATM   13  O1  UNL     1      -2.869   0.826   0.044  1.00  0.00    -0.353 OA
BRANCH  13  14
HETATM   14  C9  UNL     1      -4.085   0.595  -0.582  1.00  0.00     0.070 C 
HETATM   15  C10 UNL     1      -5.326   0.923  -0.095  1.00  0.00     0.046 A 
HETATM   16  N1  UNL     1      -6.640   1.233   0.350  1.00  0.00    -0.367 N 
HETATM   17  C13 UNL     1      -5.702  -0.369  -0.885  1.00  0.00     0.068 A 
HETATM   18  C11 UNL     1      -7.744   0.456  -0.053  1.00  0.00     0.085 A 
HETATM   19  H14 UNL     1      -6.650   2.091   0.993  1.00  0.00     0.165 HD
HETATM   20  C12 UNL     1      -7.113  -0.434  -0.778  1.00  0.00     0.001 A 
HETATM   21  C14 UNL     1      -4.758   0.025  -1.865  1.00  0.00     0.081 C 
ENDBRANCH  13  14
ENDBRANCH  12  13
ENDBRANCH   1  12
TORSDOF 7
