REMARK  10 active torsions:
REMARK  status: ('A' for Active; 'I' for Inactive)
REMARK    1  A    between atoms: C7_7  and  N1_8 
REMARK    2  A    between atoms: N1_8  and  C8_9 
REMARK    3  A    between atoms: C12_15  and  O1_16 
REMARK    4  A    between atoms: O1_16  and  C13_17 
REMARK    5  A    between atoms: C13_17  and  C14_18 
REMARK    6  A    between atoms: C14_18  and  O2_19 
REMARK    7  A    between atoms: C16_21  and  C17_22 
REMARK    8  A    between atoms: C17_22  and  C18_23 
REMARK    9  A    between atoms: C18_23  and  O3_24 
REMARK   10  A    between atoms: O3_24  and  C19_25 
ROOT
HETATM    1  C1  UNL     1       4.742  -0.355   3.906  1.00  0.00     0.018 C 
HETATM    2  C2  UNL     1       4.543   0.165   2.835  1.00  0.00    -0.078 C 
HETATM    3  C3  UNL     1       4.318   0.761   1.557  1.00  0.00     0.019 A 
HETATM    4  C4  UNL     1       5.282   1.425   0.829  1.00  0.00     0.021 A 
HETATM    5  C5  UNL     1       5.058   2.000  -0.403  1.00  0.00     0.004 A 
HETATM    6  C6  UNL     1       3.769   1.897  -0.938  1.00  0.00     0.029 A 
HETATM    7  C7  UNL     1       2.798   1.227  -0.200  1.00  0.00     0.034 A 
HETATM    8  C22 UNL     1       3.051   0.659   1.035  1.00  0.00     0.050 A 
ENDROOT
BRANCH   7   9
HETATM    9  N1  UNL     1       1.517   1.200  -0.868  1.00  0.00    -0.344 N 
HETATM   10  H5  UNL     1       0.836   1.959  -0.677  1.00  0.00     0.167 HD
BRANCH   9  11
HETATM   11  C8  UNL     1       1.335   0.102  -1.741  1.00  0.00     0.120 C 
HETATM   12  N2  UNL     1       2.237  -0.382  -2.518  1.00  0.00    -0.228 NA
HETATM   13  C9  UNL     1       2.117  -1.489  -3.386  1.00  0.00     0.235 C 
HETATM   14  N3  UNL     1       0.986  -2.172  -3.428  1.00  0.00    -0.245 NA
HETATM   15  C10 UNL     1      -0.024  -1.720  -2.533  1.00  0.00     0.054 A 
HETATM   16  C11 UNL     1      -1.100  -2.302  -2.027  1.00  0.00     0.065 A 
HETATM   17  C21 UNL     1      -0.026  -0.356  -2.005  1.00  0.00     0.139 A 
HETATM   18  C12 UNL     1      -1.737  -1.348  -1.155  1.00  0.00     0.074 A 
HETATM   19  C16 UNL     1      -1.104  -0.158  -1.076  1.00  0.00    -0.027 A 
BRANCH  18  20
HETATM   20  O1  UNL     1      -2.916  -1.756  -0.502  1.00  0.00    -0.349 OA
BRANCH  20  21
HETATM   21  C13 UNL     1      -2.914  -2.991   0.215  1.00  0.00     0.201 C 
BRANCH  21  22
HETATM   22  C14 UNL     1      -4.242  -3.261   0.832  1.00  0.00     0.193 C 
BRANCH  22  23
HETATM   23  O2  UNL     1      -4.247  -4.453   1.519  1.00  0.00    -0.394 OA
HETATM   24  C15 UNL     1      -3.352  -4.503   2.545  1.00  0.00     0.201 C 
ENDBRANCH  22  23
ENDBRANCH  21  22
ENDBRANCH  20  21
ENDBRANCH  18  20
BRANCH  19  25
HETATM   25  C17 UNL     1      -1.671   0.894  -0.200  1.00  0.00     0.064 C 
BRANCH  25  26
HETATM   26  C18 UNL     1      -2.064   2.150  -0.946  1.00  0.00     0.172 C 
BRANCH  26  27
HETATM   27  O3  UNL     1      -2.590   3.145  -0.188  1.00  0.00    -0.391 OA
BRANCH  27  28
HETATM   28  C19 UNL     1      -1.863   3.684   0.816  1.00  0.00     0.163 C 
HETATM   29  C20 UNL     1      -0.575   4.329   0.489  1.00  0.00     0.033 C 
ENDBRANCH  27  28
ENDBRANCH  26  27
ENDBRANCH  25  26
ENDBRANCH  19  25
ENDBRANCH   9  11
ENDBRANCH   7   9
TORSDOF 10
