REMARK  0 active torsions:
REMARK  status: ('A' for Active; 'I' for Inactive)
ROOT
HETATM    1  C1  UNL     1      -4.389  -0.838  -1.218  1.00  0.00     0.014 C 
HETATM    2  C2  UNL     1      -2.914  -0.983  -0.980  1.00  0.00     0.023 C 
HETATM    3  C3  UNL     1      -2.642  -2.379  -0.456  1.00  0.00     0.120 C 
HETATM    4  N1  UNL     1      -1.279  -2.610  -0.180  1.00  0.00    -0.414 N 
HETATM    5  C4  UNL     1      -0.953  -3.877   0.330  1.00  0.00     0.198 C 
HETATM    6  C5  UNL     1       0.486  -4.058   0.621  1.00  0.00     0.183 C 
HETATM    7  O1  UNL     1       0.669  -5.208   1.099  1.00  0.00    -0.290 OA
HETATM    8  C6  UNL     1       1.614  -3.202   0.459  1.00  0.00     0.055 A 
HETATM    9  C7  UNL     1       1.921  -1.809   0.746  1.00  0.00     0.041 A 
HETATM   10  C8  UNL     1       3.169  -1.462   0.396  1.00  0.00     0.054 A 
HETATM   11  C9  UNL     1       3.556  -0.167   0.630  1.00  0.00     0.186 A 
HETATM   12  N2  UNL     1       4.800   0.178   0.282  1.00  0.00    -0.217 NA
HETATM   13  C10 UNL     1       5.729  -0.605  -0.277  1.00  0.00     0.237 A 
HETATM   14  N3  UNL     1       5.302  -1.863  -0.485  1.00  0.00    -0.234 NA
HETATM   15  C11 UNL     1       4.073  -2.257  -0.158  1.00  0.00     0.114 A 
HETATM   16  S1  UNL     1       3.242  -3.797  -0.299  1.00  0.00    -0.066 SA
HETATM   17  O2  UNL     1       2.882   0.919   1.184  1.00  0.00    -0.264 OA
HETATM   18  C12 UNL     1       3.120   2.222   0.808  1.00  0.00     0.228 C 
HETATM   19  F1  UNL     1       4.462   2.388   0.870  1.00  0.00    -0.178 F 
HETATM   20  C13 UNL     1       2.607   3.357   0.421  1.00  0.00     0.052 C 
HETATM   21  C14 UNL     1       1.446   4.143   0.087  1.00  0.00     0.049 C 
HETATM   22  C15 UNL     1       0.197   4.393  -0.089  1.00  0.00     0.006 C 
HETATM   23  C16 UNL     1      -1.232   4.570  -0.257  1.00  0.00     0.029 C 
HETATM   24 CL1  UNL     1      -1.789   6.144  -0.784  1.00  0.00    -0.085 Cl
HETATM   25  C17 UNL     1      -2.147   3.637  -0.043  1.00  0.00     0.022 C 
HETATM   26  C18 UNL     1      -2.069   2.226   0.397  1.00  0.00     0.196 C 
HETATM   27  O3  UNL     1      -2.607   1.347  -0.577  1.00  0.00    -0.387 OA
HETATM   28  C19 UNL     1      -2.427   0.075  -0.060  1.00  0.00     0.173 C 
HETATM   29  H7  UNL     1      -0.590  -1.893  -0.312  1.00  0.00     0.153 HD
ENDROOT
TORSDOF 0
