REMARK  7 active torsions:
REMARK  status: ('A' for Active; 'I' for Inactive)
REMARK    1  A    between atoms: O1_2  and  C2_3 
REMARK    2  A    between atoms: C2_3  and  C3_4 
REMARK    3  A    between atoms: C3_4  and  C4_5 
REMARK    4  A    between atoms: C9_12  and  N1_13 
REMARK    5  A    between atoms: N1_13  and  C10_14 
REMARK    6  A    between atoms: C14_18  and  C15_19 
REMARK    7  A    between atoms: C16_20  and  O4_21 
ROOT
HETATM    1  C4  UNL     1      -2.424  -0.250   0.774  1.00  0.00    -0.032 C 
HETATM    2  C5  UNL     1      -3.254  -1.292   0.543  1.00  0.00     0.141 C 
HETATM    3  O2  UNL     1      -3.804  -2.575   0.321  1.00  0.00    -0.360 OA
HETATM    4  C6  UNL     1      -3.222  -3.244  -0.825  1.00  0.00     0.200 C 
HETATM    5  C7  UNL     1      -1.749  -2.819  -0.725  1.00  0.00     0.194 C 
HETATM    6  O3  UNL     1      -1.306  -3.288   0.521  1.00  0.00    -0.383 OA
HETATM    7  C8  UNL     1      -0.012  -2.809   0.774  1.00  0.00     0.224 C 
HETATM    8  C9  UNL     1      -0.101  -1.309   0.951  1.00  0.00     0.034 C 
HETATM    9  C18 UNL     1      -0.995  -0.341   0.952  1.00  0.00     0.036 C 
ENDROOT
BRANCH   8  10
HETATM   10  N1  UNL     1       1.289  -0.987   1.184  1.00  0.00    -0.358 N 
HETATM   11  H15 UNL     1       1.365  -0.985   2.240  1.00  0.00     0.166 HD
BRANCH  10  12
HETATM   12  C10 UNL     1       2.497  -0.694   0.519  1.00  0.00     0.033 A 
HETATM   13  C11 UNL     1       3.313  -1.769   0.208  1.00  0.00     0.029 A 
HETATM   14  C12 UNL     1       4.522  -1.560  -0.449  1.00  0.00     0.004 A 
HETATM   15  C13 UNL     1       4.828  -0.245  -0.751  1.00  0.00     0.021 A 
HETATM   16  C14 UNL     1       4.061   0.867  -0.469  1.00  0.00     0.022 A 
HETATM   17  C17 UNL     1       2.861   0.608   0.188  1.00  0.00     0.050 A 
BRANCH  16  18
HETATM   18  C15 UNL     1       4.479   2.180  -0.830  1.00  0.00    -0.037 C 
HETATM   19  C16 UNL     1       4.838   3.303  -1.128  1.00  0.00     0.057 C 
BRANCH  19  20
HETATM   20  O4  UNL     1       5.261   4.574  -1.454  1.00  0.00    -0.314 OA
HETATM   21  H19 UNL     1       5.766   5.105  -0.737  1.00  0.00     0.230 HD
ENDBRANCH  19  20
ENDBRANCH  16  18
ENDBRANCH  10  12
ENDBRANCH   8  10
BRANCH   1  22
HETATM   22  C3  UNL     1      -3.067   1.088   0.840  1.00  0.00     0.066 C 
BRANCH  22  23
HETATM   23  C2  UNL     1      -2.527   2.033  -0.211  1.00  0.00     0.171 C 
BRANCH  23  24
HETATM   24  O1  UNL     1      -3.208   3.242  -0.041  1.00  0.00    -0.396 OA
HETATM   25  C1  UNL     1      -2.794   4.201  -0.961  1.00  0.00     0.201 C 
ENDBRANCH  23  24
ENDBRANCH  22  23
ENDBRANCH   1  22
TORSDOF 7
