REMARK  10 active torsions:
REMARK  status: ('A' for Active; 'I' for Inactive)
REMARK    1  A    between atoms: O1_2  and  C2_3 
REMARK    2  A    between atoms: C2_3  and  C3_4 
REMARK    3  A    between atoms: C3_4  and  O2_5 
REMARK    4  A    between atoms: O2_5  and  C4_6 
REMARK    5  A    between atoms: C5_7  and  O3_8 
REMARK    6  A    between atoms: O3_8  and  C6_9 
REMARK    7  A    between atoms: C6_9  and  C7_10 
REMARK    8  A    between atoms: C7_10  and  O4_11 
REMARK    9  A    between atoms: C10_14  and  N1_15 
REMARK   10  A    between atoms: N1_15  and  C11_16 
ROOT
HETATM    1  C11 UNL     1       1.558   4.766  -1.278  1.00  0.00     0.246 C 
HETATM    2  C12 UNL     1       0.826   5.524  -0.275  1.00  0.00     0.078 C 
HETATM    3  N2  UNL     1       0.236   6.106   0.517  1.00  0.00    -0.196 NA
ENDROOT
BRANCH   1   4
HETATM    4  N1  UNL     1       1.745   3.388  -0.793  1.00  0.00    -0.356 N 
HETATM    5  H17 UNL     1       2.767   3.169  -0.567  1.00  0.00     0.162 HD
BRANCH   4   6
HETATM    6  C10 UNL     1       0.624   2.477  -0.659  1.00  0.00     0.159 A 
HETATM    7  C9  UNL     1       1.121   1.135  -0.301  1.00  0.00     0.159 A 
HETATM    8  C5  UNL     1       0.094   0.083  -0.191  1.00  0.00     0.087 A 
HETATM    9  C4  UNL     1      -1.182  -0.176  -0.267  1.00  0.00     0.099 A 
HETATM   10  C15 UNL     1      -2.493   0.290  -0.491  1.00  0.00     0.052 A 
HETATM   11  C14 UNL     1      -2.829   1.574  -0.783  1.00  0.00     0.222 A 
HETATM   12  N4  UNL     1      -2.738   2.971  -1.055  1.00  0.00    -0.268 NA
HETATM   13  C13 UNL     1      -1.563   3.497  -1.058  1.00  0.00     0.241 A 
HETATM   14  N3  UNL     1      -0.398   2.990  -0.854  1.00  0.00    -0.393 NA
BRANCH   8  15
HETATM   15  O3  UNL     1       0.850  -1.070   0.114  1.00  0.00    -0.350 OA
BRANCH  15  16
HETATM   16  C6  UNL     1       1.714  -1.223   1.187  1.00  0.00     0.201 C 
BRANCH  16  17
HETATM   17  C7  UNL     1       2.464  -2.551   0.997  1.00  0.00     0.193 C 
BRANCH  17  18
HETATM   18  O4  UNL     1       3.200  -2.563  -0.190  1.00  0.00    -0.394 OA
HETATM   19  C8  UNL     1       4.151  -1.526  -0.169  1.00  0.00     0.201 C 
ENDBRANCH  17  18
ENDBRANCH  16  17
ENDBRANCH  15  16
ENDBRANCH   8  15
BRANCH   9  20
HETATM   20  O2  UNL     1      -1.692  -1.430  -0.069  1.00  0.00    -0.346 OA
BRANCH  20  21
HETATM   21  C3  UNL     1      -1.459  -2.261   1.008  1.00  0.00     0.201 C 
BRANCH  21  22
HETATM   22  C2  UNL     1      -2.569  -3.229   1.333  1.00  0.00     0.193 C 
BRANCH  22  23
HETATM   23  O1  UNL     1      -2.907  -4.118   0.365  1.00  0.00    -0.394 OA
HETATM   24  C1  UNL     1      -3.355  -3.594  -0.833  1.00  0.00     0.201 C 
ENDBRANCH  22  23
ENDBRANCH  21  22
ENDBRANCH  20  21
ENDBRANCH   9  20
ENDBRANCH   4   6
ENDBRANCH   1   4
TORSDOF 10
