REMARK  4 active torsions:
REMARK  status: ('A' for Active; 'I' for Inactive)
REMARK    1  A    between atoms: O1_1  and  C1_2 
REMARK    2  A    between atoms: C8_10  and  S1_11 
REMARK    3  A    between atoms: C8_10  and  C9_12 
REMARK    4  A    between atoms: N2_16  and  C13_17 
ROOT
HETATM    1  C9  UNL     1      -0.008  -0.653  -0.322  1.00  0.00    -0.000 A 
HETATM    2  C10 UNL     1      -0.588  -1.539   0.554  1.00  0.00     0.014 A 
HETATM    3  C11 UNL     1      -1.745  -0.942   0.978  1.00  0.00     0.035 A 
HETATM    4  C12 UNL     1      -1.962   0.298   0.428  1.00  0.00     0.088 A 
HETATM    5  N2  UNL     1      -2.956   1.186   0.570  1.00  0.00    -0.233 N 
HETATM    6  N3  UNL     1      -2.793   2.261  -0.156  1.00  0.00    -0.160 NA
HETATM    7  C18 UNL     1      -1.775   2.519  -0.970  1.00  0.00     0.256 A 
HETATM    8  N4  UNL     1      -0.767   1.656  -1.133  1.00  0.00    -0.237 NA
HETATM    9  C19 UNL     1      -0.805   0.488  -0.438  1.00  0.00     0.095 A 
ENDROOT
BRANCH   1  10
HETATM   10  C8  UNL     1       1.243  -0.661  -1.117  1.00  0.00     0.099 C 
HETATM   11  C1  UNL     1       2.033  -1.911  -0.979  1.00  0.00     0.068 C 
HETATM   12  C2  UNL     1       3.329  -2.249  -0.854  1.00  0.00     0.034 C 
HETATM   13  C3  UNL     1       4.749  -1.842  -0.780  1.00  0.00     0.003 C 
HETATM   14  C4  UNL     1       5.441  -0.746  -0.846  1.00  0.00     0.001 C 
HETATM   15  C5  UNL     1       5.562   0.676  -1.006  1.00  0.00     0.017 C 
HETATM   16  C6  UNL     1       4.503   1.425  -1.237  1.00  0.00     0.083 C 
HETATM   17  N1  UNL     1       3.343   0.611  -1.297  1.00  0.00    -0.397 N 
HETATM   18  C7  UNL     1       2.127   0.474  -0.603  1.00  0.00     0.151 C 
HETATM   19  H7  UNL     1       3.419  -0.080  -2.100  1.00  0.00     0.158 HD
BRANCH  11  20
HETATM   20  O1  UNL     1       1.045  -2.894  -0.990  1.00  0.00    -0.363 OA
HETATM   21  H1  UNL     1       1.155  -3.679  -1.616  1.00  0.00     0.217 HD
ENDBRANCH  11  20
BRANCH  10  22
HETATM   22  S1  UNL     1       0.822  -0.487  -2.861  1.00  0.00    -0.159 SA
HETATM   23  H10 UNL     1       1.647  -1.229  -3.692  1.00  0.00     0.103 HD
ENDBRANCH  10  22
ENDBRANCH   1  10
BRANCH   5  24
HETATM   24  C13 UNL     1      -4.064   0.990   1.468  1.00  0.00     0.059 A 
HETATM   25  C14 UNL     1      -5.044   1.904   1.392  1.00  0.00     0.029 A 
HETATM   26  C15 UNL     1      -6.118   1.640   2.322  1.00  0.00    -0.000 A 
HETATM   27  C16 UNL     1      -5.766   0.552   2.968  1.00  0.00    -0.001 A 
HETATM   28  C17 UNL     1      -4.428   0.016   2.518  1.00  0.00     0.157 A 
HETATM   29 CL1  UNL     1      -3.287   0.100   3.896  1.00  0.00    -0.114 Cl
ENDBRANCH   5  24
TORSDOF 4
