REMARK  6 active torsions:
REMARK  status: ('A' for Active; 'I' for Inactive)
REMARK    1  A    between atoms: C2_2  and  C3_3 
REMARK    2  A    between atoms: C4_4  and  C5_5 
REMARK    3  A    between atoms: C5_5  and  C6_7 
REMARK    4  A    between atoms: C7_8  and  C8_9 
REMARK    5  A    between atoms: C11_14  and  N3_15 
REMARK    6  A    between atoms: N3_15  and  C12_16 
ROOT
HETATM    1  C8  UNL     1      -0.247   1.831   0.586  1.00  0.00     0.028 A 
HETATM    2  C9  UNL     1       0.470   2.937   0.188  1.00  0.00     0.133 A 
HETATM    3  N1  UNL     1      -0.201   4.100   0.246  1.00  0.00    -0.253 NA
HETATM    4  C10 UNL     1      -1.499   4.123   0.676  1.00  0.00     0.234 A 
HETATM    5  N2  UNL     1      -2.189   3.008   1.066  1.00  0.00    -0.224 NA
HETATM    6  C11 UNL     1      -1.550   1.825   1.022  1.00  0.00     0.141 A 
ENDROOT
BRANCH   6   7
HETATM    7  N3  UNL     1      -2.326   0.712   1.424  1.00  0.00    -0.340 N 
HETATM    8  H12 UNL     1      -2.355   0.244   2.354  1.00  0.00     0.167 HD
BRANCH   7   9
HETATM    9  C12 UNL     1      -3.168   0.193   0.379  1.00  0.00     0.035 A 
HETATM   10  C13 UNL     1      -3.226   0.805  -0.857  1.00  0.00     0.029 A 
HETATM   11  C14 UNL     1      -4.048   0.294  -1.865  1.00  0.00     0.004 A 
HETATM   12  C15 UNL     1      -4.817  -0.841  -1.631  1.00  0.00     0.024 A 
HETATM   13  C16 UNL     1      -4.762  -1.454  -0.402  1.00  0.00     0.036 A 
HETATM   14 CL1  UNL     1      -5.720  -2.900  -0.058  1.00  0.00    -0.084 Cl
HETATM   15  C17 UNL     1      -3.944  -0.950   0.610  1.00  0.00     0.053 A 
ENDBRANCH   7   9
ENDBRANCH   6   7
BRANCH   1  16
HETATM   16  C7  UNL     1       0.480   0.583   0.532  1.00  0.00     0.021 C 
HETATM   17  C6  UNL     1       0.472  -0.702   0.738  1.00  0.00     0.056 C 
BRANCH  17  18
HETATM   18  C5  UNL     1       1.209  -1.942   0.678  1.00  0.00     0.171 C 
HETATM   19  O1  UNL     1       0.564  -2.964   1.066  1.00  0.00    -0.289 OA
BRANCH  18  20
HETATM   20  C4  UNL     1       2.607  -2.062   0.208  1.00  0.00     0.051 C 
HETATM   21  C3  UNL     1       3.597  -1.280  -0.261  1.00  0.00    -0.023 C 
BRANCH  21  22
HETATM   22  C2  UNL     1       4.965  -1.713  -0.671  1.00  0.00     0.023 C 
HETATM   23  C1  UNL     1       5.995  -1.006   0.181  1.00  0.00     0.009 C 
ENDBRANCH  21  22
ENDBRANCH  18  20
ENDBRANCH  17  18
ENDBRANCH   1  16
TORSDOF 6
