REMARK  8 active torsions:
REMARK  status: ('A' for Active; 'I' for Inactive)
REMARK    1  A    between atoms: O1_2  and  C2_3 
REMARK    2  A    between atoms: C2_3  and  C4_5 
REMARK    3  A    between atoms: C5_6  and  O2_7 
REMARK    4  A    between atoms: C7_9  and  C8_10 
REMARK    5  A    between atoms: C9_11  and  N1_12 
REMARK    6  A    between atoms: C10_13  and  N2_14 
REMARK    7  A    between atoms: C11_15  and  N3_16 
REMARK    8  A    between atoms: N3_16  and  C12_17 
ROOT
HETATM    1  N1  UNL     1       0.449   2.568  -0.190  1.00  0.00    -0.254 NA
HETATM    2  C10 UNL     1       1.286   1.779  -0.742  1.00  0.00     0.233 C 
ENDROOT
BRANCH   1   3
HETATM    3  C9  UNL     1      -0.920   2.695  -0.521  1.00  0.00     0.118 C 
HETATM    4  C8  UNL     1      -1.782   1.697  -0.410  1.00  0.00     0.020 C 
BRANCH   4   5
HETATM    5  C7  UNL     1      -1.347   0.390   0.070  1.00  0.00     0.016 C 
HETATM    6  C6  UNL     1      -2.230  -0.597   0.173  1.00  0.00     0.009 A 
HETATM    7  C4  UNL     1      -3.525  -1.259   0.091  1.00  0.00     0.017 A 
HETATM    8  C5  UNL     1      -2.491  -1.981   0.527  1.00  0.00     0.086 A 
BRANCH   7   9
HETATM    9  C2  UNL     1      -4.974  -1.088  -0.271  1.00  0.00     0.153 C 
HETATM   10  C3  UNL     1      -5.657  -2.434  -0.018  1.00  0.00     0.045 C 
BRANCH   9  11
HETATM   11  O1  UNL     1      -5.577  -0.161   0.557  1.00  0.00    -0.386 OA
HETATM   12  C1  UNL     1      -6.117   0.932  -0.115  1.00  0.00     0.202 C 
ENDBRANCH   9  11
ENDBRANCH   7   9
BRANCH   8  13
HETATM   13  O2  UNL     1      -1.999  -3.205   0.995  1.00  0.00    -0.359 OA
HETATM   14  H8  UNL     1      -2.365  -4.093   0.666  1.00  0.00     0.217 HD
ENDBRANCH   8  13
ENDBRANCH   4   5
ENDBRANCH   1   3
BRANCH   2  15
HETATM   15  N2  UNL     1       2.661   1.431  -0.642  1.00  0.00    -0.237 NA
HETATM   16  C11 UNL     1       3.527   2.324  -0.995  1.00  0.00     0.208 C 
BRANCH  16  17
HETATM   17  N3  UNL     1       4.846   1.780  -0.820  1.00  0.00    -0.351 N 
HETATM   18  H14 UNL     1       5.748   2.113  -1.273  1.00  0.00     0.166 HD
BRANCH  17  19
HETATM   19  C12 UNL     1       5.185   0.663   0.017  1.00  0.00     0.034 A 
HETATM   20  C13 UNL     1       5.119  -0.580  -0.615  1.00  0.00     0.032 A 
HETATM   21  C14 UNL     1       5.420  -1.739   0.074  1.00  0.00     0.046 A 
HETATM   22  C15 UNL     1       5.797  -1.676   1.420  1.00  0.00     0.138 A 
HETATM   23  F1  UNL     1       6.092  -2.813   2.094  1.00  0.00    -0.204 F 
HETATM   24  C16 UNL     1       5.854  -0.419   2.023  1.00  0.00     0.074 A 
HETATM   25 CL1  UNL     1       6.322  -0.279   3.714  1.00  0.00    -0.081 Cl
HETATM   26  C17 UNL     1       5.556   0.745   1.349  1.00  0.00     0.056 A 
ENDBRANCH  17  19
ENDBRANCH  16  17
ENDBRANCH   2  15
TORSDOF 8
