REMARK  7 active torsions:
REMARK  status: ('A' for Active; 'I' for Inactive)
REMARK    1  A    between atoms: O1_1  and  C1_2 
REMARK    2  A    between atoms: C1_2  and  C2_3 
REMARK    3  A    between atoms: C1_2  and  C4_7 
REMARK    4  A    between atoms: C2_3  and  N1_4 
REMARK    5  A    between atoms: N1_4  and  C3_5 
REMARK    6  A    between atoms: C7_10  and  N2_11 
REMARK    7  A    between atoms: N2_11  and  C8_12 
ROOT
HETATM    1  C4  UNL     1       2.344   0.444  -0.292  1.00  0.00     0.016 A 
HETATM    2  C5  UNL     1       1.053   0.340   0.081  1.00  0.00     0.035 A 
HETATM    3  C6  UNL     1       0.067   0.284  -0.865  1.00  0.00     0.047 A 
HETATM    4  C7  UNL     1      -1.291   0.179  -0.701  1.00  0.00     0.144 A 
HETATM    5  N3  UNL     1      -2.131   0.135  -1.735  1.00  0.00    -0.223 NA
HETATM    6  C14 UNL     1      -1.723   0.189  -3.009  1.00  0.00     0.236 A 
HETATM    7  N4  UNL     1      -0.404   0.293  -3.235  1.00  0.00    -0.234 NA
HETATM    8  C15 UNL     1       0.485   0.341  -2.225  1.00  0.00     0.113 A 
HETATM    9  S1  UNL     1       2.330   0.477  -2.103  1.00  0.00    -0.071 SA
ENDROOT
BRANCH   4  10
HETATM   10  N2  UNL     1      -1.855   0.114   0.604  1.00  0.00    -0.321 N 
HETATM   11  H9  UNL     1      -1.284   0.143   1.456  1.00  0.00     0.169 HD
BRANCH  10  12
HETATM   12  C8  UNL     1      -3.259   0.005   0.809  1.00  0.00     0.148 C 
HETATM   13  C9  UNL     1      -4.021   1.102   0.958  1.00  0.00     0.059 C 
HETATM   14  C10 UNL     1      -5.471   1.164   1.174  1.00  0.00     0.048 C 
HETATM   15  C11 UNL     1      -6.376   0.195   0.987  1.00  0.00     0.140 C 
HETATM   16  F2  UNL     1      -7.652   0.561   1.276  1.00  0.00    -0.204 F 
HETATM   17  C12 UNL     1      -6.136  -1.183   0.513  1.00  0.00     0.095 C 
HETATM   18 CL1  UNL     1      -7.579  -2.016  -0.017  1.00  0.00    -0.079 Cl
HETATM   19  C13 UNL     1      -4.965  -1.835   0.452  1.00  0.00     0.171 C 
HETATM   20  O2  UNL     1      -3.736  -1.310   0.836  1.00  0.00    -0.304 OA
ENDBRANCH  10  12
ENDBRANCH   4  10
BRANCH   1  21
HETATM   21  C1  UNL     1       3.628   0.528   0.394  1.00  0.00     0.186 C 
BRANCH  21  22
HETATM   22  O1  UNL     1       4.361   1.538  -0.220  1.00  0.00    -0.389 OA
HETATM   23  H1  UNL     1       4.388   1.361  -1.208  1.00  0.00     0.210 HD
ENDBRANCH  21  22
BRANCH  21  24
HETATM   24  C2  UNL     1       4.335  -0.791   0.411  1.00  0.00     0.309 C 
BRANCH  24  25
HETATM   25  N1  UNL     1       5.575  -0.795   1.103  1.00  0.00     0.114 N 
HETATM   26  H5  UNL     1       5.907  -1.775   1.236  1.00  0.00     0.319 HD
BRANCH  25  27
HETATM   27  C3  UNL     1       6.630  -0.042   0.473  1.00  0.00     0.490 C 
HETATM   28  F1  UNL     1       6.827  -0.544  -0.800  1.00  0.00    -0.224 F 
ENDBRANCH  25  27
ENDBRANCH  24  25
ENDBRANCH  21  24
ENDBRANCH   1  21
TORSDOF 7
