REMARK  2 active torsions:
REMARK  status: ('A' for Active; 'I' for Inactive)
REMARK    1  A    between atoms: N1_1  and  C1_2 
REMARK    2  A    between atoms: C14_18  and  S1_19 
ROOT
HETATM    1  C1  UNL     1      -2.797  -0.040   2.265  1.00  0.00     0.250 C 
HETATM    2  C2  UNL     1      -1.949  -1.025   3.064  1.00  0.00     0.067 C 
HETATM    3  C3  UNL     1      -1.287  -1.997   2.129  1.00  0.00    -0.016 C 
HETATM    4  C4  UNL     1      -0.836  -1.293   1.140  1.00  0.00    -0.047 C 
HETATM    5  C5  UNL     1      -0.985   0.137   0.827  1.00  0.00     0.075 C 
HETATM    6  C6  UNL     1      -1.968   0.918   1.540  1.00  0.00    -0.039 C 
HETATM    7  C7  UNL     1      -1.754   2.201   1.192  1.00  0.00     0.061 C 
HETATM    8  C8  UNL     1      -0.954   3.144   0.496  1.00  0.00     0.185 C 
HETATM    9  O1  UNL     1      -1.342   4.333   0.517  1.00  0.00    -0.287 OA
HETATM   10  C9  UNL     1       0.174   3.039  -0.200  1.00  0.00     0.042 A 
HETATM   11  C10 UNL     1       1.076   2.348  -1.025  1.00  0.00     0.146 A 
HETATM   12  C11 UNL     1       1.919   1.751  -1.771  1.00  0.00     0.028 A 
HETATM   13  C12 UNL     1       2.273   0.687  -2.467  1.00  0.00     0.136 A 
HETATM   14  N2  UNL     1       3.481   0.900  -2.985  1.00  0.00    -0.224 NA
HETATM   15  C13 UNL     1       4.244   2.000  -2.843  1.00  0.00     0.231 A 
HETATM   16  N3  UNL     1       3.864   3.075  -2.126  1.00  0.00    -0.255 NA
HETATM   17  C14 UNL     1       2.643   2.958  -1.555  1.00  0.00     0.147 A 
HETATM   18  S1  UNL     1       1.732   4.023  -0.538  1.00  0.00    -0.132 SA
HETATM   19  N4  UNL     1       1.789  -0.578  -2.803  1.00  0.00    -0.341 N 
HETATM   20  C15 UNL     1       1.385  -1.648  -1.994  1.00  0.00     0.036 A 
HETATM   21  C16 UNL     1       1.534  -3.017  -1.980  1.00  0.00     0.053 A 
HETATM   22  C17 UNL     1       0.968  -3.828  -1.022  1.00  0.00     0.037 A 
HETATM   23 CL1  UNL     1       1.262  -5.554  -1.155  1.00  0.00    -0.084 Cl
HETATM   24  C18 UNL     1       0.186  -3.361   0.037  1.00  0.00     0.036 A 
HETATM   25  C19 UNL     1      -0.029  -2.011   0.123  1.00  0.00    -0.026 A 
HETATM   26  C20 UNL     1       0.605  -1.368  -0.906  1.00  0.00     0.041 A 
HETATM   27  H12 UNL     1       1.643  -0.976  -3.751  1.00  0.00     0.167 HD
ENDROOT
BRANCH   1  28
HETATM   28  N1  UNL     1      -3.736   0.562   3.186  1.00  0.00     0.087 N 
HETATM   29  H1  UNL     1      -4.386   1.231   2.714  1.00  0.00     0.313 HD
HETATM   30  H2  UNL     1      -4.345  -0.232   3.535  1.00  0.00     0.313 HD
ENDBRANCH   1  28
TORSDOF 2
