REMARK  2 active torsions:
REMARK  status: ('A' for Active; 'I' for Inactive)
REMARK    1  A    between atoms: C11_13  and  N3_14 
REMARK    2  A    between atoms: N3_14  and  C12_15 
ROOT
HETATM    1  C1  UNL     1      -1.263  -0.288  -2.787  1.00  0.00     0.024 C 
HETATM    2  C2  UNL     1      -1.455   0.026  -1.284  1.00  0.00    -0.002 C 
HETATM    3  C3  UNL     1      -1.693  -1.267  -0.623  1.00  0.00    -0.011 C 
HETATM    4  C4  UNL     1      -2.229  -1.931   0.454  1.00  0.00     0.026 C 
HETATM    5  C5  UNL     1      -2.646  -1.032   1.585  1.00  0.00     0.032 C 
HETATM    6  C6  UNL     1      -3.699  -0.183   1.675  1.00  0.00     0.029 C 
HETATM    7  C7  UNL     1      -4.196   0.692   0.576  1.00  0.00    -0.002 C 
HETATM    8  C8  UNL     1      -3.749   1.012  -0.665  1.00  0.00    -0.025 C 
HETATM    9  C9  UNL     1      -2.368   1.139  -1.167  1.00  0.00     0.044 C 
HETATM   10  N1  UNL     1      -1.862  -0.899   2.808  1.00  0.00    -0.351 N 
HETATM   11  C10 UNL     1      -0.538  -0.518   2.337  1.00  0.00     0.209 C 
HETATM   12  N2  UNL     1      -0.485  -0.043   1.164  1.00  0.00    -0.227 NA
HETATM   13  C11 UNL     1       0.471   0.428   0.329  1.00  0.00     0.126 C 
HETATM   14  C18 UNL     1      -0.054   0.446  -0.880  1.00  0.00     0.037 C 
HETATM   15  H11 UNL     1      -2.668  -1.150   3.403  1.00  0.00     0.166 HD
ENDROOT
BRANCH  13  16
HETATM   16  N3  UNL     1       1.727   0.774   0.852  1.00  0.00    -0.341 N 
HETATM   17  H13 UNL     1       1.709   1.334   1.759  1.00  0.00     0.167 HD
BRANCH  16  18
HETATM   18  C12 UNL     1       3.061   0.534   0.410  1.00  0.00     0.035 A 
HETATM   19  C13 UNL     1       3.828   1.624   0.044  1.00  0.00     0.029 A 
HETATM   20  C14 UNL     1       5.111   1.329  -0.367  1.00  0.00     0.004 A 
HETATM   21  C15 UNL     1       5.579   0.013  -0.403  1.00  0.00     0.024 A 
HETATM   22  C16 UNL     1       4.758  -1.028  -0.026  1.00  0.00     0.036 A 
HETATM   23 CL1  UNL     1       5.364  -2.670  -0.087  1.00  0.00    -0.084 Cl
HETATM   24  C17 UNL     1       3.461  -0.795   0.397  1.00  0.00     0.053 A 
ENDBRANCH  16  18
ENDBRANCH  13  16
TORSDOF 2
