REMARK  7 active torsions:
REMARK  status: ('A' for Active; 'I' for Inactive)
REMARK    1  A    between atoms: N1_2  and  C3_4 
REMARK    2  A    between atoms: C3_4  and  C4_5 
REMARK    3  A    between atoms: C5_6  and  C6_7 
REMARK       I    between atoms: C6_7  and  N2_9 
REMARK    4  A    between atoms: N2_9  and  C7_10 
REMARK    5  A    between atoms: C7_10  and  C8_11 
REMARK    6  A    between atoms: C10_13  and  N3_14 
REMARK    7  A    between atoms: C16_22  and  C17_23 
ROOT
HETATM    1  C8  UNL     1      -2.097   0.864  -0.022  1.00  0.00    -0.030 A 
HETATM    2  C9  UNL     1      -3.089   0.291   0.741  1.00  0.00     0.039 A 
HETATM    3  C10 UNL     1      -4.382   0.031   0.358  1.00  0.00     0.041 A 
HETATM    4  C14 UNL     1      -4.683   0.396  -0.940  1.00  0.00     0.031 A 
HETATM    5  C15 UNL     1      -3.749   0.977  -1.777  1.00  0.00     0.012 A 
HETATM    6  C16 UNL     1      -2.456   1.212  -1.320  1.00  0.00    -0.022 A 
ENDROOT
BRANCH   1   7
HETATM    7  C7  UNL     1      -0.711   1.097   0.473  1.00  0.00     0.162 C 
BRANCH   7   8
HETATM    8  N2  UNL     1       0.209   0.096  -0.006  1.00  0.00    -0.353 N 
HETATM    9  C6  UNL     1       1.590  -0.017   0.210  1.00  0.00     0.241 C 
HETATM   10  O1  UNL     1       2.050   0.925   0.929  1.00  0.00    -0.269 OA
HETATM   11  H11 UNL     1      -0.213  -0.659  -0.601  1.00  0.00     0.163 HD
BRANCH   9  12
HETATM   12  C5  UNL     1       2.369  -1.097  -0.340  1.00  0.00     0.072 C 
HETATM   13  C4  UNL     1       3.663  -1.293  -0.202  1.00  0.00     0.008 C 
BRANCH  13  14
HETATM   14  C3  UNL     1       4.659  -0.488   0.530  1.00  0.00     0.299 C 
BRANCH  14  15
HETATM   15  N1  UNL     1       5.725  -0.020  -0.377  1.00  0.00     0.083 N 
HETATM   16  C1  UNL     1       6.556   0.887   0.403  1.00  0.00     0.309 C 
HETATM   17  C2  UNL     1       6.522  -1.209  -0.708  1.00  0.00     0.309 C 
ENDBRANCH  14  15
ENDBRANCH  13  14
ENDBRANCH   9  12
ENDBRANCH   7   8
ENDBRANCH   1   7
BRANCH   6  18
HETATM   18  C17 UNL     1      -1.463   1.841  -2.232  1.00  0.00     0.261 C 
HETATM   19  F1  UNL     1      -0.558   0.928  -2.730  1.00  0.00    -0.251 F 
ENDBRANCH   6  18
BRANCH   3  20
HETATM   20  N3  UNL     1      -5.361  -0.568   1.188  1.00  0.00    -0.299 N 
HETATM   21  C11 UNL     1      -6.399  -1.286   0.667  1.00  0.00     0.215 A 
HETATM   22  N4  UNL     1      -7.202  -1.767   1.604  1.00  0.00    -0.253 NA
HETATM   23  C12 UNL     1      -6.730  -1.387   2.785  1.00  0.00     0.155 A 
HETATM   24  C13 UNL     1      -5.584  -0.642   2.514  1.00  0.00     0.105 A 
HETATM   25 BR1  UNL     1      -4.432   0.196   3.758  1.00  0.00    -0.029 Br
ENDBRANCH   3  20
TORSDOF 7
