REMARK  4 active torsions:
REMARK  status: ('A' for Active; 'I' for Inactive)
REMARK    1  A    between atoms: C1_2  and  C2_3 
REMARK    2  A    between atoms: C1_2  and  C14_20 
REMARK    3  A    between atoms: C5_6  and  N1_7 
REMARK    4  A    between atoms: N1_7  and  C6_8 
ROOT
HETATM    1  C2  UNL     1      -0.724  -1.229   1.492  1.00  0.00     0.055 A 
HETATM    2  C3  UNL     1       0.183  -0.404   0.928  1.00  0.00     0.041 A 
HETATM    3  C4  UNL     1       0.845   0.481   1.734  1.00  0.00     0.047 A 
HETATM    4  C5  UNL     1       1.806   1.407   1.389  1.00  0.00     0.142 A 
HETATM    5  N2  UNL     1       2.335   2.172   2.302  1.00  0.00    -0.223 NA
HETATM    6  C12 UNL     1       2.064   2.190   3.601  1.00  0.00     0.236 A 
HETATM    7  N3  UNL     1       1.146   1.314   3.972  1.00  0.00    -0.234 NA
HETATM    8  C13 UNL     1       0.534   0.472   3.101  1.00  0.00     0.113 A 
HETATM    9  S1  UNL     1      -0.696  -0.782   3.279  1.00  0.00    -0.066 SA
ENDROOT
BRANCH   1  10
HETATM   10  C1  UNL     1      -1.502  -2.198   0.914  1.00  0.00     0.179 C 
HETATM   11  O1  UNL     1      -2.290  -2.876   1.667  1.00  0.00    -0.291 OA
BRANCH  10  12
HETATM   12  C14 UNL     1      -2.164  -3.108   0.035  1.00  0.00     0.142 C 
HETATM   13  C15 UNL     1      -3.175  -3.982   0.778  1.00  0.00     0.005 C 
HETATM   14  C16 UNL     1      -4.459  -3.842   0.390  1.00  0.00     0.090 C 
HETATM   15  N4  UNL     1      -4.906  -3.035  -0.730  1.00  0.00    -0.086 NA
HETATM   16  C17 UNL     1      -5.131  -2.161  -1.907  1.00  0.00     0.383 A 
HETATM   17  N5  UNL     1      -4.057  -2.324  -1.516  1.00  0.00     0.047 N 
HETATM   18  C18 UNL     1      -3.697  -1.886  -2.261  1.00  0.00     0.340 A 
HETATM   19  C19 UNL     1      -2.905  -2.503  -1.101  1.00  0.00     0.157 A 
ENDBRANCH  10  12
ENDBRANCH   1  10
BRANCH   4  20
HETATM   20  N1  UNL     1       2.262   1.580   0.054  1.00  0.00    -0.340 N 
HETATM   21  H2  UNL     1       1.760   0.953  -0.646  1.00  0.00     0.167 HD
BRANCH  20  22
HETATM   22  C6  UNL     1       3.244   2.419  -0.533  1.00  0.00     0.035 A 
HETATM   23  C7  UNL     1       3.427   2.430  -1.913  1.00  0.00     0.029 A 
HETATM   24  C8  UNL     1       4.369   3.225  -2.507  1.00  0.00     0.004 A 
HETATM   25  C9  UNL     1       5.153   4.028  -1.749  1.00  0.00     0.024 A 
HETATM   26  C10 UNL     1       5.039   4.079  -0.377  1.00  0.00     0.036 A 
HETATM   27 CL1  UNL     1       6.060   5.122   0.596  1.00  0.00    -0.084 Cl
HETATM   28  C11 UNL     1       4.075   3.258   0.159  1.00  0.00     0.053 A 
ENDBRANCH  20  22
ENDBRANCH   4  20
TORSDOF 4
