REMARK  7 active torsions:
REMARK  status: ('A' for Active; 'I' for Inactive)
REMARK    1  A    between atoms: C7_7  and  N1_8 
REMARK    2  A    between atoms: N1_8  and  C8_9 
REMARK    3  A    between atoms: C12_14  and  N3_15 
REMARK    4  A    between atoms: N3_15  and  C14_17 
REMARK    5  A    between atoms: C14_17  and  C16_19 
REMARK    6  A    between atoms: C17_20  and  N4_21 
REMARK    7  A    between atoms: N4_21  and  C19_23 
ROOT
HETATM    1  C8  UNL     1       2.785  -0.616  -0.559  1.00  0.00     0.157 C 
HETATM    2  N2  UNL     1       2.434  -0.389   0.683  1.00  0.00    -0.231 NA
HETATM    3  C9  UNL     1       1.196   0.348   0.861  1.00  0.00     0.066 A 
HETATM    4  C10 UNL     1       0.831   1.150   1.845  1.00  0.00     0.032 A 
HETATM    5  C11 UNL     1      -0.503   1.595   1.455  1.00  0.00     0.029 A 
HETATM    6  C12 UNL     1      -0.934   1.092   0.291  1.00  0.00     0.037 A 
HETATM    7  C20 UNL     1       0.146   0.198  -0.150  1.00  0.00     0.192 A 
HETATM    8  N5  UNL     1       0.563   0.253  -1.506  1.00  0.00    -0.321 N 
HETATM    9  C21 UNL     1       0.102   0.555  -2.720  1.00  0.00     0.210 A 
HETATM   10  N6  UNL     1       1.064   0.225  -3.638  1.00  0.00    -0.254 NA
HETATM   11  C22 UNL     1       2.119  -0.281  -2.970  1.00  0.00     0.151 A 
HETATM   12  C23 UNL     1       1.804  -0.262  -1.603  1.00  0.00     0.100 A 
ENDROOT
BRANCH   6  13
HETATM   13  N3  UNL     1      -2.217   1.471  -0.169  1.00  0.00    -0.379 N 
HETATM   14  C13 UNL     1      -2.380   2.541  -1.174  1.00  0.00     0.150 C 
BRANCH  13  15
HETATM   15  C14 UNL     1      -3.475   0.874   0.303  1.00  0.00     0.104 C 
HETATM   16  C15 UNL     1      -3.668   1.316   1.735  1.00  0.00     0.037 C 
BRANCH  15  17
HETATM   17  C16 UNL     1      -4.627   1.342  -0.497  1.00  0.00     0.015 C 
HETATM   18  C17 UNL     1      -5.649   0.540  -0.703  1.00  0.00     0.090 C 
BRANCH  18  19
HETATM   19  N4  UNL     1      -5.998  -0.788  -0.332  1.00  0.00    -0.351 N 
HETATM   20  C18 UNL     1      -6.231  -1.919  -1.182  1.00  0.00     0.156 C 
BRANCH  19  21
HETATM   21  C19 UNL     1      -6.136  -1.105   1.063  1.00  0.00     0.475 C 
HETATM   22  O1  UNL     1      -6.179  -1.074   2.315  1.00  0.00    -0.392 OA
ENDBRANCH  19  21
ENDBRANCH  18  19
ENDBRANCH  15  17
ENDBRANCH  13  15
ENDBRANCH   6  13
BRANCH   1  23
HETATM   23  N1  UNL     1       3.983  -1.307  -0.869  1.00  0.00    -0.339 N 
HETATM   24  H8  UNL     1       4.204  -1.605  -1.846  1.00  0.00     0.167 HD
BRANCH  23  25
HETATM   25  C7  UNL     1       4.888  -1.583   0.204  1.00  0.00     0.039 A 
HETATM   26  C2  UNL     1       5.712  -0.513   0.573  1.00  0.00    -0.035 A 
HETATM   27  C1  UNL     1       5.642   0.835  -0.100  1.00  0.00     0.050 C 
HETATM   28  C3  UNL     1       6.668  -0.605   1.594  1.00  0.00     0.009 A 
HETATM   29  C4  UNL     1       6.774  -1.824   2.245  1.00  0.00     0.001 A 
HETATM   30  C5  UNL     1       5.958  -2.894   1.884  1.00  0.00     0.002 A 
HETATM   31  C6  UNL     1       5.034  -2.754   0.874  1.00  0.00     0.030 A 
ENDBRANCH  23  25
ENDBRANCH   1  23
TORSDOF 7
