REMARK  5 active torsions:
REMARK  status: ('A' for Active; 'I' for Inactive)
REMARK    1  A    between atoms: C2_4  and  C3_5 
REMARK    2  A    between atoms: C4_6  and  N3_7 
REMARK    3  A    between atoms: N3_7  and  C5_8 
REMARK    4  A    between atoms: C11_16  and  C12_17 
REMARK    5  A    between atoms: C12_17  and  C13_19 
ROOT
HETATM    1  N1  UNL     1       1.486   2.149  -2.275  1.00  0.00    -0.285 NA
HETATM    2  C1  UNL     1       0.937   1.912  -1.109  1.00  0.00     0.141 C 
HETATM    3  N2  UNL     1       1.828   1.794  -0.041  1.00  0.00    -0.226 NA
HETATM    4  C2  UNL     1       1.272   1.848   1.122  1.00  0.00     0.098 C 
HETATM    5  S1  UNL     1      -0.513   2.064   0.933  1.00  0.00    -0.089 SA
HETATM    6  C11 UNL     1      -0.535   1.765  -0.865  1.00  0.00     0.201 C 
HETATM    7  H1  UNL     1       0.880   2.248  -3.112  1.00  0.00     0.188 HD
ENDROOT
BRANCH   6   8
HETATM    8  C12 UNL     1      -0.958   0.357  -1.072  1.00  0.00     0.196 C 
HETATM    9  O1  UNL     1      -0.022  -0.418  -1.402  1.00  0.00    -0.289 OA
BRANCH   8  10
HETATM   10  C13 UNL     1      -2.363   0.021  -0.879  1.00  0.00     0.066 A 
HETATM   11  C14 UNL     1      -3.345   0.824  -0.535  1.00  0.00    -0.037 A 
HETATM   12  B1  UNL     1      -4.649  -0.020  -0.464  1.00  0.00     0.265 B 
HETATM   13  C15 UNL     1      -6.159   0.299  -0.119  1.00  0.00    -0.010 A 
HETATM   14  C19 UNL     1      -4.199  -1.463  -0.839  1.00  0.00    -0.028 A 
HETATM   15  C16 UNL     1      -6.901  -0.994  -0.243  1.00  0.00    -0.035 A 
HETATM   16  C17 UNL     1      -6.461  -2.197  -0.568  1.00  0.00    -0.004 A 
HETATM   17  C18 UNL     1      -5.055  -2.468  -0.883  1.00  0.00     0.012 A 
HETATM   18  N4  UNL     1      -2.795  -1.314  -1.069  1.00  0.00    -0.368 N 
HETATM   19  H16 UNL     1      -2.232  -2.172  -1.347  1.00  0.00     0.165 HD
ENDBRANCH   8  10
ENDBRANCH   6   8
BRANCH   4  20
HETATM   20  C3  UNL     1       1.953   1.753   2.409  1.00  0.00     0.056 C 
HETATM   21  C4  UNL     1       3.267   1.596   2.426  1.00  0.00     0.091 C 
BRANCH  21  22
HETATM   22  N3  UNL     1       4.024   1.518   1.223  1.00  0.00    -0.366 N 
HETATM   23  H4  UNL     1       4.156   2.345   0.601  1.00  0.00     0.165 HD
BRANCH  22  24
HETATM   24  C5  UNL     1       4.616   0.259   0.869  1.00  0.00     0.033 A 
HETATM   25  C6  UNL     1       4.420  -0.819   1.716  1.00  0.00     0.029 A 
HETATM   26  C7  UNL     1       4.996  -2.044   1.372  1.00  0.00     0.004 A 
HETATM   27  C8  UNL     1       5.729  -2.117   0.205  1.00  0.00     0.024 A 
HETATM   28  C9  UNL     1       5.923  -1.048  -0.635  1.00  0.00     0.036 A 
HETATM   29 CL1  UNL     1       6.862  -1.169  -2.115  1.00  0.00    -0.084 Cl
HETATM   30  C10 UNL     1       5.357   0.151  -0.294  1.00  0.00     0.053 A 
ENDBRANCH  22  24
ENDBRANCH  21  22
ENDBRANCH   4  20
TORSDOF 5
