REMARK  7 active torsions:
REMARK  status: ('A' for Active; 'I' for Inactive)
REMARK    1  A    between atoms: O1_2  and  C2_3 
REMARK    2  A    between atoms: C2_3  and  C3_4 
REMARK    3  A    between atoms: C3_4  and  C4_5 
REMARK    4  A    between atoms: C4_5  and  C15_20 
REMARK    5  A    between atoms: C8_11  and  N3_12 
REMARK    6  A    between atoms: N3_12  and  C9_13 
REMARK    7  A    between atoms: C15_20  and  C17_22 
ROOT
HETATM    1  C4  UNL     1      -0.946  -0.084   0.499  1.00  0.00    -0.045 C 
HETATM    2  C5  UNL     1      -0.505   1.017  -0.053  1.00  0.00     0.014 A 
HETATM    3  C6  UNL     1      -1.290   2.221  -0.402  1.00  0.00     0.193 A 
HETATM    4  N1  UNL     1      -0.498   3.227  -1.034  1.00  0.00    -0.278 NA
HETATM    5  C7  UNL     1       0.717   3.284  -1.309  1.00  0.00     0.229 A 
HETATM    6  N2  UNL     1       1.486   2.152  -0.943  1.00  0.00    -0.224 NA
HETATM    7  C8  UNL     1       0.931   1.114  -0.363  1.00  0.00     0.138 A 
ENDROOT
BRANCH   1   8
HETATM    8  C3  UNL     1      -2.242   0.642   0.460  1.00  0.00     0.009 C 
BRANCH   8   9
HETATM    9  C2  UNL     1      -3.430   0.098   0.708  1.00  0.00     0.003 C 
BRANCH   9  10
HETATM   10  O1  UNL     1      -4.772  -0.276   0.932  1.00  0.00     0.000 OA
HETATM   11  C1  UNL     1      -5.736   0.762   1.200  1.00  0.00     0.000 C 
ENDBRANCH   9  10
ENDBRANCH   8   9
ENDBRANCH   1   8
BRANCH   1  12
HETATM   12  C15 UNL     1      -1.098  -1.442   0.993  1.00  0.00     0.029 C 
HETATM   13  C16 UNL     1      -0.143  -2.464   0.432  1.00  0.00     0.016 C 
BRANCH  12  14
HETATM   14  C17 UNL     1      -1.048  -1.527   2.498  1.00  0.00     0.123 C 
HETATM   15 CL1  UNL     1      -2.273  -0.577   3.296  1.00  0.00    -0.130 Cl
ENDBRANCH  12  14
ENDBRANCH   1  12
BRANCH   7  16
HETATM   16  N3  UNL     1       1.822   0.060   0.005  1.00  0.00    -0.340 N 
HETATM   17  H9  UNL     1       1.539  -0.346   0.957  1.00  0.00     0.167 HD
BRANCH  16  18
HETATM   18  C9  UNL     1       2.918  -0.316  -0.832  1.00  0.00     0.033 A 
HETATM   19  C10 UNL     1       4.079   0.335  -0.480  1.00  0.00     0.032 A 
HETATM   20  C11 UNL     1       5.289   0.164  -1.119  1.00  0.00     0.044 A 
HETATM   21  C12 UNL     1       5.369  -0.722  -2.198  1.00  0.00     0.116 A 
HETATM   22  F1  UNL     1       6.476  -0.994  -2.921  1.00  0.00    -0.206 F 
HETATM   23  C13 UNL     1       4.193  -1.356  -2.525  1.00  0.00     0.044 A 
HETATM   24  C14 UNL     1       2.994  -1.209  -1.918  1.00  0.00     0.032 A 
ENDBRANCH  16  18
ENDBRANCH   7  16
TORSDOF 7
