REMARK  2 active torsions:
REMARK  status: ('A' for Active; 'I' for Inactive)
REMARK    1  A    between atoms: N1_4  and  C4_5 
REMARK    2  A    between atoms: C7_9  and  C8_10 
ROOT
HETATM    1  C4  UNL     1      -1.849  -0.472  -0.846  1.00  0.00     0.150 A 
HETATM    2  N2  UNL     1      -0.711  -0.471  -1.447  1.00  0.00    -0.265 NA
HETATM    3  C5  UNL     1       0.539  -0.034  -0.867  1.00  0.00     0.208 A 
HETATM    4  C6  UNL     1       0.390   0.428   0.537  1.00  0.00     0.040 A 
HETATM    5  C7  UNL     1       1.404   0.852   1.222  1.00  0.00     0.058 C 
HETATM    6  N4  UNL     1      -0.898   0.402   1.146  1.00  0.00    -0.303 N 
HETATM    7  C16 UNL     1      -1.290   0.769   2.402  1.00  0.00     0.214 A 
HETATM    8  N5  UNL     1      -2.623   0.565   2.528  1.00  0.00    -0.253 NA
HETATM    9  C17 UNL     1      -3.090   0.069   1.359  1.00  0.00     0.151 A 
HETATM   10  C18 UNL     1      -2.014  -0.021   0.530  1.00  0.00     0.103 A 
ENDROOT
BRANCH   5  11
HETATM   11  C8  UNL     1       2.782   0.949   0.772  1.00  0.00     0.050 C 
HETATM   12  C9  UNL     1       3.114   0.588  -0.440  1.00  0.00     0.010 C 
HETATM   13  C10 UNL     1       4.140  -0.081  -0.798  1.00  0.00    -0.048 C 
HETATM   14  C11 UNL     1       3.953  -1.064  -1.927  1.00  0.00     0.049 C 
HETATM   15  C12 UNL     1       5.545  -0.122  -0.344  1.00  0.00     0.013 C 
HETATM   16  C13 UNL     1       5.971   0.516   0.753  1.00  0.00     0.075 C 
HETATM   17  C14 UNL     1       5.210   1.340   1.687  1.00  0.00     0.247 C 
HETATM   18  O1  UNL     1       5.776   2.016   2.574  1.00  0.00    -0.268 OA
HETATM   19  N3  UNL     1       3.790   1.451   1.679  1.00  0.00    -0.318 N 
HETATM   20  C15 UNL     1       3.224   2.205   2.782  1.00  0.00     0.159 C 
ENDBRANCH   5  11
BRANCH   1  21
HETATM   21  N1  UNL     1      -3.032  -0.927  -1.511  1.00  0.00    -0.357 N 
HETATM   22  C3  UNL     1      -4.063  -0.310  -2.327  1.00  0.00     0.161 C 
HETATM   23  C2  UNL     1      -5.335  -0.534  -1.606  1.00  0.00    -0.036 C 
HETATM   24  C1  UNL     1      -6.268   0.337  -1.237  1.00  0.00     0.019 C 
HETATM   25  C20 UNL     1      -5.149  -2.018  -1.477  1.00  0.00     0.218 C 
HETATM   26  C19 UNL     1      -3.670  -2.216  -1.625  1.00  0.00     0.166 C 
HETATM   27  F1  UNL     1      -5.563  -2.419  -0.214  1.00  0.00    -0.243 F 
ENDBRANCH   1  21
TORSDOF 2
