REMARK  7 active torsions:
REMARK  status: ('A' for Active; 'I' for Inactive)
REMARK    1  A    between atoms: O1_2  and  C2_3 
REMARK    2  A    between atoms: C2_3  and  C3_4 
REMARK    3  A    between atoms: C3_4  and  C4_5 
REMARK    4  A    between atoms: C6_9  and  N3_10 
REMARK    5  A    between atoms: N3_10  and  C7_11 
REMARK    6  A    between atoms: C13_19  and  C14_20 
REMARK    7  A    between atoms: O2_22  and  C15_23 
ROOT
HETATM    1  C4  UNL     1      -1.648  -1.270  -0.522  1.00  0.00     0.071 A 
HETATM    2  N1  UNL     1      -1.217  -2.518  -0.751  1.00  0.00    -0.241 NA
HETATM    3  C5  UNL     1       0.053  -2.879  -0.511  1.00  0.00     0.236 A 
HETATM    4  N2  UNL     1       0.882  -1.960  -0.035  1.00  0.00    -0.223 NA
HETATM    5  C6  UNL     1       0.544  -0.696   0.224  1.00  0.00     0.143 A 
HETATM    6  C13 UNL     1      -0.747  -0.368  -0.032  1.00  0.00     0.056 A 
ENDROOT
BRANCH   5   7
HETATM    7  N3  UNL     1       1.569   0.111   0.731  1.00  0.00    -0.340 N 
HETATM    8  H8  UNL     1       1.213   1.027   0.968  1.00  0.00     0.167 HD
BRANCH   7   9
HETATM    9  C7  UNL     1       2.925  -0.180   0.956  1.00  0.00     0.035 A 
HETATM   10  C8  UNL     1       3.581  -1.371   0.850  1.00  0.00     0.032 A 
HETATM   11  C9  UNL     1       4.922  -1.543   1.086  1.00  0.00     0.046 A 
HETATM   12  C10 UNL     1       5.659  -0.439   1.455  1.00  0.00     0.138 A 
HETATM   13  F1  UNL     1       6.984  -0.572   1.695  1.00  0.00    -0.204 F 
HETATM   14  C11 UNL     1       5.084   0.789   1.584  1.00  0.00     0.074 A 
HETATM   15 CL1  UNL     1       6.045   2.178   2.054  1.00  0.00    -0.081 Cl
HETATM   16  C12 UNL     1       3.741   0.892   1.334  1.00  0.00     0.056 A 
ENDBRANCH   7   9
ENDBRANCH   5   7
BRANCH   6  17
HETATM   17  C14 UNL     1      -1.142   0.851   0.200  1.00  0.00     0.040 A 
HETATM   18  I1  UNL     1      -2.977   1.912   0.010  1.00  0.00    -0.042 I 
HETATM   19  O2  UNL     1      -1.206   2.147   0.540  1.00  0.00     0.000 OA
BRANCH  19  20
HETATM   20  C15 UNL     1      -0.302   3.198   0.241  1.00  0.00    -0.019 C 
HETATM   21  C16 UNL     1      -1.005   4.534   0.233  1.00  0.00     0.010 C 
HETATM   22  C17 UNL     1       0.432   3.019  -1.055  1.00  0.00     0.010 C 
ENDBRANCH  19  20
ENDBRANCH   6  17
BRANCH   1  23
HETATM   23  C3  UNL     1      -2.917  -1.127  -0.823  1.00  0.00     0.032 C 
BRANCH  23  24
HETATM   24  C2  UNL     1      -3.701  -2.270  -1.348  1.00  0.00     0.196 C 
BRANCH  24  25
HETATM   25  O1  UNL     1      -4.830  -2.557  -0.587  1.00  0.00    -0.392 OA
HETATM   26  C1  UNL     1      -5.448  -3.640  -1.203  1.00  0.00     0.201 C 
ENDBRANCH  24  25
ENDBRANCH  23  24
ENDBRANCH   1  23
TORSDOF 7
