REMARK  3 active torsions:
REMARK  status: ('A' for Active; 'I' for Inactive)
REMARK    1  A    between atoms: C3_3  and  C4_4 
REMARK    2  A    between atoms: C3_3  and  N5_22 
REMARK    3  A    between atoms: C7_8  and  N2_9 
ROOT
HETATM    1  C4  UNL     1      -3.140  -1.248   0.778  1.00  0.00     0.039 C 
HETATM    2  C5  UNL     1      -1.857  -1.554   0.808  1.00  0.00    -0.025 A 
HETATM    3  C6  UNL     1      -0.518  -1.775   0.782  1.00  0.00     0.161 A 
HETATM    4  N1  UNL     1       0.296  -0.608   1.190  1.00  0.00    -0.185 NA
HETATM    5  C7  UNL     1       1.226  -0.360   0.218  1.00  0.00     0.087 A 
HETATM    6  C13 UNL     1       0.255  -0.922  -0.849  1.00  0.00     0.112 A 
HETATM    7  C14 UNL     1       0.493  -1.114  -2.334  1.00  0.00     0.320 A 
HETATM    8  N3  UNL     1      -0.800  -1.763  -2.176  1.00  0.00     0.330 N 
HETATM    9  C15 UNL     1      -0.830  -1.482  -0.800  1.00  0.00     0.276 A 
HETATM   10  N4  UNL     1      -0.563  -1.085   0.376  1.00  0.00     0.000 N 
ENDROOT
BRANCH   5  11
HETATM   11  N2  UNL     1       2.560   0.149  -0.128  1.00  0.00    -0.365 N 
HETATM   12  C8  UNL     1       3.607  -0.791  -0.375  1.00  0.00     0.174 C 
HETATM   13  C9  UNL     1       4.864  -0.330   0.233  1.00  0.00     0.028 C 
HETATM   14 CL1  UNL     1       6.288  -1.370   0.247  1.00  0.00    -0.087 Cl
HETATM   15  C10 UNL     1       4.922   0.881   0.775  1.00  0.00     0.032 C 
HETATM   16  C11 UNL     1       3.840   1.902   0.864  1.00  0.00     0.212 C 
HETATM   17  F1  UNL     1       3.156   1.778   2.062  1.00  0.00    -0.243 F 
HETATM   18  C12 UNL     1       2.841   1.568  -0.226  1.00  0.00     0.165 C 
ENDBRANCH   5  11
BRANCH   1  19
HETATM   19  C3  UNL     1      -3.843  -0.122   0.196  1.00  0.00     0.039 C 
HETATM   20  C2  UNL     1      -5.156  -0.042   0.302  1.00  0.00    -0.001 C 
HETATM   21  C1  UNL     1      -5.833   1.131  -0.310  1.00  0.00     0.038 C 
BRANCH  19  22
HETATM   22  N5  UNL     1      -3.075   0.866  -0.475  1.00  0.00    -0.299 N 
HETATM   23 CL2  UNL     1      -2.388   1.495  -1.949  1.00  0.00     0.011 Cl
HETATM   24  H14 UNL     1      -2.850   1.451   0.356  1.00  0.00     0.180 HD
ENDBRANCH  19  22
ENDBRANCH   1  19
TORSDOF 3
