REMARK  5 active torsions:
REMARK  status: ('A' for Active; 'I' for Inactive)
REMARK    1  A    between atoms: C12_14  and  N3_15 
REMARK    2  A    between atoms: N4_16  and  C13_17 
REMARK    3  A    between atoms: C14_19  and  C15_20 
REMARK    4  A    between atoms: C15_20  and  C16_21 
REMARK    5  A    between atoms: C16_21  and  N5_22 
ROOT
HETATM    1  C1  UNL     1      -6.750  -0.872   0.087  1.00  0.00     0.050 C 
HETATM    2  C2  UNL     1      -5.540  -0.947   0.934  1.00  0.00    -0.033 A 
HETATM    3  C3  UNL     1      -5.449  -1.766   2.026  1.00  0.00     0.009 A 
HETATM    4  C4  UNL     1      -4.330  -1.830   2.823  1.00  0.00     0.003 A 
HETATM    5  C5  UNL     1      -3.238  -1.052   2.540  1.00  0.00     0.032 A 
HETATM    6  C6  UNL     1      -3.322  -0.250   1.475  1.00  0.00     0.068 A 
HETATM    7  C7  UNL     1      -4.462  -0.149   0.617  1.00  0.00     0.067 A 
HETATM    8  N1  UNL     1      -4.802   0.621  -0.594  1.00  0.00    -0.331 N 
HETATM    9  C8  UNL     1      -3.846   1.723  -0.683  1.00  0.00     0.175 C 
HETATM   10  N2  UNL     1      -2.850   1.421  -1.280  1.00  0.00    -0.402 NA
HETATM   11  C9  UNL     1      -1.819   0.964  -1.949  1.00  0.00     0.196 C 
HETATM   12  C10 UNL     1      -0.981   0.429  -1.121  1.00  0.00     0.025 C 
HETATM   13  C11 UNL     1      -1.026   0.279   0.332  1.00  0.00     0.095 C 
HETATM   14  C12 UNL     1       0.086  -0.188   0.816  1.00  0.00     0.132 C 
HETATM   15  N4  UNL     1       0.992  -0.394  -0.253  1.00  0.00    -0.304 N 
HETATM   16  C19 UNL     1       0.303  -0.205  -1.508  1.00  0.00     0.127 C 
HETATM   17  C20 UNL     1       1.037   0.831  -2.373  1.00  0.00     0.038 C 
HETATM   18  N6  UNL     1      -2.197   0.626   1.128  1.00  0.00    -0.300 N 
HETATM   19  C21 UNL     1      -2.098   2.047   1.510  1.00  0.00     0.209 C 
HETATM   20  N7  UNL     1      -2.711   3.089   0.934  1.00  0.00    -0.276 NA
HETATM   21  C22 UNL     1      -3.727   3.140  -0.146  1.00  0.00     0.242 C 
HETATM   22  H7  UNL     1      -5.590   0.294  -1.156  1.00  0.00     0.168 HD
ENDROOT
BRANCH  15  23
HETATM   23  C13 UNL     1       2.330  -0.719  -0.077  1.00  0.00     0.153 A 
HETATM   24  O1  UNL     1       3.035  -0.875  -1.134  1.00  0.00    -0.323 OA
HETATM   25  C14 UNL     1       3.645  -1.040   0.263  1.00  0.00     0.211 A 
BRANCH  25  26
HETATM   26  C15 UNL     1       4.616  -1.261  -0.596  1.00  0.00     0.060 C 
BRANCH  26  27
HETATM   27  C16 UNL     1       5.947  -1.590  -0.047  1.00  0.00     0.279 C 
BRANCH  27  28
HETATM   28  N5  UNL     1       6.924  -0.617  -0.461  1.00  0.00     0.080 N 
HETATM   29  C17 UNL     1       6.742   0.683   0.106  1.00  0.00     0.309 C 
HETATM   30  C18 UNL     1       7.069  -0.516  -1.885  1.00  0.00     0.309 C 
ENDBRANCH  27  28
ENDBRANCH  26  27
ENDBRANCH  25  26
ENDBRANCH  15  23
BRANCH  14  31
HETATM   31  N3  UNL     1       0.395  -0.461   2.190  1.00  0.00    -0.383 N 
HETATM   32  H9  UNL     1       0.914   0.208   2.802  1.00  0.00     0.157 HD
HETATM   33  H10 UNL     1       0.094  -1.368   2.619  1.00  0.00     0.157 HD
ENDBRANCH  14  31
TORSDOF 5
