REMARK  6 active torsions:
REMARK  status: ('A' for Active; 'I' for Inactive)
REMARK    1  A    between atoms: N1_2  and  C2_3 
REMARK    2  A    between atoms: C2_3  and  C3_4 
REMARK    3  A    between atoms: C4_5  and  C5_6 
REMARK    4  A    between atoms: C5_6  and  C6_7 
REMARK    5  A    between atoms: C7_10  and  N3_11 
REMARK    6  A    between atoms: N3_11  and  C8_12 
ROOT
HETATM    1  C3  UNL     1       2.262  -0.234  -0.338  1.00  0.00     0.086 A 
HETATM    2  C4  UNL     1       1.787   0.929   0.231  1.00  0.00     0.085 A 
HETATM    3  N2  UNL     1       0.504   0.837   0.656  1.00  0.00    -0.227 NA
HETATM    4  C7  UNL     1      -0.222  -0.265   0.534  1.00  0.00     0.157 A 
HETATM    5  C15 UNL     1       0.311  -1.383  -0.044  1.00  0.00     0.104 A 
HETATM    6  C16 UNL     1      -0.267  -2.607  -0.278  1.00  0.00     0.151 A 
HETATM    7  N4  UNL     1       0.701  -3.316  -0.880  1.00  0.00    -0.253 NA
HETATM    8  C17 UNL     1       1.784  -2.557  -0.993  1.00  0.00     0.215 A 
HETATM    9  N5  UNL     1       1.568  -1.351  -0.479  1.00  0.00    -0.298 N 
ENDROOT
BRANCH   4  10
HETATM   10  N3  UNL     1      -1.550  -0.263   1.019  1.00  0.00    -0.339 N 
HETATM   11  H7  UNL     1      -1.618  -0.704   1.962  1.00  0.00     0.167 HD
BRANCH  10  12
HETATM   12  C8  UNL     1      -2.640   0.274   0.304  1.00  0.00     0.042 A 
HETATM   13  C9  UNL     1      -2.420   0.841  -0.929  1.00  0.00     0.072 A 
HETATM   14  C10 UNL     1      -3.502   1.363  -1.603  1.00  0.00     0.118 A 
HETATM   15  F1  UNL     1      -3.283   1.927  -2.833  1.00  0.00    -0.206 F 
HETATM   16  C11 UNL     1      -4.803   1.346  -1.101  1.00  0.00     0.043 A 
HETATM   17  C12 UNL     1      -4.936   0.761   0.139  1.00  0.00     0.012 A 
HETATM   18  C13 UNL     1      -3.899   0.222   0.863  1.00  0.00    -0.035 A 
HETATM   19  C14 UNL     1      -4.119  -0.412   2.212  1.00  0.00     0.050 C 
ENDBRANCH  10  12
ENDBRANCH   4  10
BRANCH   2  20
HETATM   20  C5  UNL     1       2.344   2.110   0.405  1.00  0.00     0.022 C 
BRANCH  20  21
HETATM   21  C6  UNL     1       3.671   2.672   0.074  1.00  0.00     0.144 C 
HETATM   22 CL1  UNL     1       3.661   4.463   0.057  1.00  0.00    -0.126 Cl
ENDBRANCH  20  21
ENDBRANCH   2  20
BRANCH   1  23
HETATM   23  C2  UNL     1       3.539  -0.086  -0.721  1.00  0.00     0.142 C 
BRANCH  23  24
HETATM   24  N1  UNL     1       4.377  -1.095  -1.354  1.00  0.00    -0.298 NA
HETATM   25  C1  UNL     1       5.074  -1.963  -0.636  1.00  0.00     0.170 C 
ENDBRANCH  23  24
ENDBRANCH   1  23
TORSDOF 6
