REMARK  5 active torsions:
REMARK  status: ('A' for Active; 'I' for Inactive)
REMARK    1  A    between atoms: C3_3  and  C4_4 
REMARK    2  A    between atoms: C8_11  and  N3_12 
REMARK    3  A    between atoms: C11_16  and  C12_18 
REMARK    4  A    between atoms: C13_19  and  C14_20 
REMARK    5  A    between atoms: C14_20  and  N5_21 
ROOT
HETATM    1  C1  UNL     1      -8.031   1.432   0.298  1.00  0.00     0.046 C 
HETATM    2  C2  UNL     1      -6.691   0.829   0.268  1.00  0.00    -0.048 C 
HETATM    3  C3  UNL     1      -6.730  -0.172  -0.625  1.00  0.00     0.041 C 
HETATM    4  N1  UNL     1      -5.438  -0.831  -0.734  1.00  0.00    -0.352 N 
HETATM    5  C5  UNL     1      -4.086  -0.881  -1.269  1.00  0.00     0.208 C 
HETATM    6  N2  UNL     1      -3.267  -0.477  -0.383  1.00  0.00    -0.243 NA
HETATM    7  C6  UNL     1      -1.896  -0.333  -0.384  1.00  0.00     0.072 A 
HETATM    8  C7  UNL     1      -0.997  -0.616  -1.382  1.00  0.00     0.062 A 
HETATM    9  C8  UNL     1       0.332  -0.366  -1.135  1.00  0.00     0.066 A 
HETATM   10  C9  UNL     1       0.867   0.145   0.024  1.00  0.00     0.208 A 
HETATM   11  N4  UNL     1       2.277   0.342   0.085  1.00  0.00    -0.325 N 
HETATM   12  C10 UNL     1       2.854   1.617  -0.293  1.00  0.00     0.155 C 
HETATM   13  C11 UNL     1       2.981  -0.801   0.531  1.00  0.00     0.145 A 
HETATM   14  O1  UNL     1       1.758  -1.079   0.490  1.00  0.00    -0.294 OA
HETATM   15  C17 UNL     1      -0.053   0.421   1.014  1.00  0.00     0.057 A 
HETATM   16  C18 UNL     1      -1.396   0.182   0.798  1.00  0.00     0.023 A 
HETATM   17  C19 UNL     1      -2.197   0.551   1.988  1.00  0.00     0.195 C 
HETATM   18  N6  UNL     1      -3.251   0.944   1.671  1.00  0.00    -0.433 NA
HETATM   19  C20 UNL     1      -4.504   1.427   1.619  1.00  0.00     0.164 C 
HETATM   20  C21 UNL     1      -5.786   1.514   1.209  1.00  0.00     0.082 C 
HETATM   21  H6  UNL     1      -5.628  -1.649  -0.114  1.00  0.00     0.166 HD
ENDROOT
BRANCH   9  22
HETATM   22  N3  UNL     1       1.193  -0.689  -2.209  1.00  0.00    -0.398 N 
HETATM   23  H9  UNL     1       1.273   0.238  -2.692  1.00  0.00     0.156 HD
HETATM   24  H10 UNL     1       1.808  -1.195  -2.864  1.00  0.00     0.156 HD
ENDBRANCH   9  22
BRANCH  13  25
HETATM   25  C12 UNL     1       4.130  -1.599   0.912  1.00  0.00     0.053 C 
HETATM   26  C13 UNL     1       5.417  -1.312   0.956  1.00  0.00     0.007 C 
BRANCH  26  27
HETATM   27  C14 UNL     1       6.160  -0.073   0.634  1.00  0.00     0.299 C 
BRANCH  27  28
HETATM   28  N5  UNL     1       7.116  -0.340  -0.441  1.00  0.00     0.083 N 
HETATM   29  C15 UNL     1       7.861   0.842  -0.781  1.00  0.00     0.309 C 
HETATM   30  C16 UNL     1       7.963  -1.452  -0.074  1.00  0.00     0.309 C 
ENDBRANCH  27  28
ENDBRANCH  26  27
ENDBRANCH  13  25
BRANCH   3  31
HETATM   31  C4  UNL     1      -7.698  -0.785  -1.523  1.00  0.00     0.279 C 
HETATM   32  F1  UNL     1      -8.950  -0.239  -1.512  1.00  0.00    -0.249 F 
ENDBRANCH   3  31
TORSDOF 5
