REMARK  1 active torsions:
REMARK  status: ('A' for Active; 'I' for Inactive)
REMARK    1  A    between atoms: C2_2  and  N1_3 
ROOT
HETATM    1  N1  UNL     1       2.278  -0.488   0.126  1.00  0.00    -0.360 N 
HETATM    2  C3  UNL     1       2.386   0.037  -1.264  1.00  0.00     0.253 C 
HETATM    3  N2  UNL     1       1.975   1.408  -1.240  1.00  0.00    -0.320 N 
HETATM    4  C4  UNL     1       2.826   2.389  -1.676  1.00  0.00     0.211 A 
HETATM    5  N3  UNL     1       2.302   3.647  -1.593  1.00  0.00    -0.253 NA
HETATM    6  C5  UNL     1       1.056   3.409  -1.073  1.00  0.00     0.152 A 
HETATM    7  C6  UNL     1       0.868   2.036  -0.862  1.00  0.00     0.113 A 
HETATM    8  C7  UNL     1      -0.454   1.762  -0.315  1.00  0.00     0.238 C 
HETATM    9  F1  UNL     1      -0.625   2.118   1.004  1.00  0.00    -0.182 F 
HETATM   10  N4  UNL     1      -1.485   1.235  -0.905  1.00  0.00    -0.222 NA
HETATM   11  C8  UNL     1      -2.719   1.028  -0.236  1.00  0.00     0.049 C 
HETATM   12  C9  UNL     1      -3.274   2.351   0.092  1.00  0.00     0.072 C 
HETATM   13  C10 UNL     1      -3.373  -0.067   0.089  1.00  0.00     0.112 C 
HETATM   14  N5  UNL     1      -3.092  -1.442  -0.107  1.00  0.00    -0.392 N 
HETATM   15  C11 UNL     1      -4.249  -2.356  -0.119  1.00  0.00     0.148 C 
HETATM   16  C12 UNL     1      -1.828  -2.118  -0.299  1.00  0.00     0.129 C 
HETATM   17  C13 UNL     1      -0.958  -2.133   0.894  1.00  0.00     0.046 C 
HETATM   18  C14 UNL     1       0.191  -1.819   1.461  1.00  0.00     0.191 A 
HETATM   19  C15 UNL     1       1.425  -1.160   1.081  1.00  0.00     0.214 A 
HETATM   20  O1  UNL     1       0.639  -1.205   0.126  1.00  0.00    -0.343 OA
ENDROOT
BRANCH   1  21
HETATM   21  C2  UNL     1       3.476  -0.234   0.884  1.00  0.00     0.117 C 
HETATM   22  C1  UNL     1       4.470  -1.362   0.825  1.00  0.00     0.026 C 
ENDBRANCH   1  21
TORSDOF 1
