REMARK  9 active torsions:
REMARK  status: ('A' for Active; 'I' for Inactive)
REMARK    1  A    between atoms: O1_2  and  C2_3 
REMARK    2  A    between atoms: C2_3  and  C3_4 
REMARK    3  A    between atoms: C6_7  and  N1_8 
REMARK    4  A    between atoms: C6_7  and  N3_11 
REMARK    5  A    between atoms: N1_8  and  C7_9 
REMARK    6  A    between atoms: C7_9  and  N2_10 
REMARK    7  A    between atoms: N3_11  and  C8_12 
REMARK    8  A    between atoms: C14_20  and  O2_21 
REMARK    9  A    between atoms: O2_21  and  C15_22 
ROOT
HETATM    1  C3  UNL     1      -2.749   1.433   0.204  1.00  0.00    -0.055 C 
HETATM    2  C4  UNL     1      -1.555   1.285  -0.107  1.00  0.00     0.022 C 
HETATM    3  C5  UNL     1      -0.251   0.854  -0.394  1.00  0.00     0.039 C 
HETATM    4  C6  UNL     1       1.012   0.433  -0.668  1.00  0.00     0.142 C 
HETATM    5  C14 UNL     1      -0.869  -0.405   0.046  1.00  0.00     0.061 C 
HETATM    6  C18 UNL     1      -2.215  -0.933   0.557  1.00  0.00     0.070 C 
HETATM    7  C19 UNL     1      -3.311   0.088   0.484  1.00  0.00     0.043 C 
ENDROOT
BRANCH   4   8
HETATM    8  N1  UNL     1       1.819   0.774  -1.580  1.00  0.00    -0.224 NA
BRANCH   8   9
HETATM    9  C7  UNL     1       1.576   1.754  -2.585  1.00  0.00     0.225 C 
BRANCH   9  10
HETATM   10  N2  UNL     1       1.001   0.793  -3.290  1.00  0.00    -0.293 NA
HETATM   11  H8  UNL     1       0.969  -0.166  -2.869  1.00  0.00     0.187 HD
ENDBRANCH   9  10
ENDBRANCH   8   9
ENDBRANCH   4   8
BRANCH   4  12
HETATM   12  N3  UNL     1       1.896  -0.372   0.144  1.00  0.00    -0.340 N 
HETATM   13  H9  UNL     1       1.775  -1.186   0.735  1.00  0.00     0.167 HD
BRANCH  12  14
HETATM   14  C8  UNL     1       3.300  -0.034   0.315  1.00  0.00     0.035 A 
HETATM   15  C9  UNL     1       3.554   0.552   1.570  1.00  0.00     0.032 A 
HETATM   16  C10 UNL     1       4.837   0.994   1.912  1.00  0.00     0.046 A 
HETATM   17  C11 UNL     1       5.776   0.796   0.921  1.00  0.00     0.138 A 
HETATM   18  F1  UNL     1       7.063   1.209   1.220  1.00  0.00    -0.204 F 
HETATM   19  C12 UNL     1       5.576   0.235  -0.298  1.00  0.00     0.074 A 
HETATM   20 CL1  UNL     1       6.850   0.037  -1.492  1.00  0.00    -0.081 Cl
HETATM   21  C13 UNL     1       4.309  -0.187  -0.598  1.00  0.00     0.056 A 
ENDBRANCH  12  14
ENDBRANCH   4  12
BRANCH   5  22
HETATM   22  O2  UNL     1      -0.141  -1.620   0.071  1.00  0.00    -0.350 OA
BRANCH  22  23
HETATM   23  C15 UNL     1      -0.499  -2.873   0.446  1.00  0.00     0.120 C 
HETATM   24  C16 UNL     1      -0.709  -3.813  -0.748  1.00  0.00     0.040 C 
HETATM   25  C17 UNL     1       0.585  -3.597   1.289  1.00  0.00     0.040 C 
ENDBRANCH  22  23
ENDBRANCH   5  22
BRANCH   1  26
HETATM   26  C2  UNL     1      -3.632   2.604   0.244  1.00  0.00     0.201 C 
BRANCH  26  27
HETATM   27  O1  UNL     1      -4.762   2.497  -0.600  1.00  0.00    -0.392 OA
HETATM   28  C1  UNL     1      -5.492   3.672  -0.373  1.00  0.00     0.201 C 
ENDBRANCH  26  27
ENDBRANCH   1  26
TORSDOF 9
