REMARK  13 active torsions:
REMARK  status: ('A' for Active; 'I' for Inactive)
REMARK    1  A    between atoms: N1_2  and  C3_4 
REMARK    2  A    between atoms: C3_4  and  C4_5 
REMARK    3  A    between atoms: C4_5  and  C5_6 
REMARK    4  A    between atoms: C5_6  and  C6_7 
REMARK    5  A    between atoms: C7_9  and  C8_10 
REMARK    6  A    between atoms: C8_10  and  C9_11 
REMARK    7  A    between atoms: C14_17  and  C15_18 
REMARK    8  A    between atoms: C15_18  and  C16_19 
REMARK    9  A    between atoms: C16_19  and  C17_20 
REMARK   10  A    between atoms: C18_21  and  C19_22 
REMARK   11  A    between atoms: C19_22  and  C20_23 
REMARK   12  A    between atoms: C20_23  and  C21_24 
REMARK   13  A    between atoms: C21_24  and  N3_25 
ROOT
HETATM    1  C9  UNL     1      -1.410   2.581  -0.805  1.00  0.00    -0.043 A 
HETATM    2  C10 UNL     1      -1.496   3.843  -1.330  1.00  0.00     0.009 A 
HETATM    3  C11 UNL     1      -0.296   4.235  -1.885  1.00  0.00     0.014 A 
HETATM    4  C12 UNL     1       0.570   3.184  -1.695  1.00  0.00    -0.006 A 
HETATM    5  C13 UNL     1       1.927   3.141  -2.071  1.00  0.00     0.131 C 
HETATM    6  N2  UNL     1       2.863   2.334  -1.496  1.00  0.00    -0.244 NA
HETATM    7  C14 UNL     1       2.816   1.535  -0.401  1.00  0.00     0.128 C 
HETATM    8  N4  UNL     1       1.795   0.630  -0.567  1.00  0.00    -0.244 NA
HETATM    9  C22 UNL     1       0.440   0.873  -0.620  1.00  0.00     0.131 C 
HETATM   10  C23 UNL     1      -0.147   2.099  -0.995  1.00  0.00    -0.001 A 
ENDROOT
BRANCH   1  11
HETATM   11  C8  UNL     1      -2.462   1.751  -0.123  1.00  0.00     0.070 C 
BRANCH  11  12
HETATM   12  C7  UNL     1      -3.046   0.866  -1.163  1.00  0.00     0.215 A 
HETATM   13  C6  UNL     1      -4.076  -0.068  -0.736  1.00  0.00     0.068 A 
HETATM   14  O1  UNL     1      -3.564   0.490   0.294  1.00  0.00    -0.349 OA
BRANCH  13  15
HETATM   15  C5  UNL     1      -5.096  -0.990  -0.300  1.00  0.00     0.032 C 
BRANCH  15  16
HETATM   16  C4  UNL     1      -5.742  -1.602  -1.275  1.00  0.00     0.005 C 
BRANCH  16  17
HETATM   17  C3  UNL     1      -6.827  -2.598  -1.442  1.00  0.00     0.299 C 
BRANCH  17  18
HETATM   18  N1  UNL     1      -7.346  -3.115  -0.215  1.00  0.00     0.083 N 
HETATM   19  C1  UNL     1      -6.324  -3.959   0.381  1.00  0.00     0.309 C 
HETATM   20  C2  UNL     1      -7.823  -2.140   0.715  1.00  0.00     0.309 C 
ENDBRANCH  17  18
ENDBRANCH  16  17
ENDBRANCH  15  16
ENDBRANCH  13  15
ENDBRANCH  11  12
ENDBRANCH   1  11
BRANCH   7  21
HETATM   21  C15 UNL     1       3.751   1.687   0.770  1.00  0.00     0.107 C 
BRANCH  21  22
HETATM   22  C16 UNL     1       5.040   1.068   0.510  1.00  0.00    -0.019 C 
BRANCH  22  23
HETATM   23  C17 UNL     1       6.118   0.333   0.548  1.00  0.00    -0.004 C 
HETATM   24  C18 UNL     1       7.397   0.002  -0.040  1.00  0.00    -0.000 C 
BRANCH  24  25
HETATM   25  C19 UNL     1       8.049  -0.977   0.627  1.00  0.00     0.001 C 
BRANCH  25  26
HETATM   26  C20 UNL     1       7.214  -1.359   1.724  1.00  0.00     0.016 C 
BRANCH  26  27
HETATM   27  C21 UNL     1       8.200  -2.221   2.024  1.00  0.00     0.080 C 
BRANCH  27  28
HETATM   28  N3  UNL     1       9.350  -2.192   1.123  1.00  0.00    -0.408 N 
HETATM   29  H26 UNL     1      10.145  -2.184   0.491  1.00  0.00     0.155 HD
HETATM   30  H27 UNL     1       9.807  -1.293   1.468  1.00  0.00     0.155 HD
ENDBRANCH  27  28
ENDBRANCH  26  27
ENDBRANCH  25  26
ENDBRANCH  24  25
ENDBRANCH  22  23
ENDBRANCH  21  22
ENDBRANCH   7  21
TORSDOF 13
