REMARK  6 active torsions:
REMARK  status: ('A' for Active; 'I' for Inactive)
REMARK    1  A    between atoms: N1_2  and  C3_4 
REMARK    2  A    between atoms: C3_4  and  C4_5 
REMARK    3  A    between atoms: C5_6  and  C6_7 
REMARK    4  A    between atoms: C6_7  and  N2_8 
REMARK    5  A    between atoms: N2_8  and  C8_10 
REMARK    6  A    between atoms: C9_11  and  O1_12 
ROOT
HETATM    1  C8  UNL     1       1.170  -0.359   0.641  1.00  0.00     0.062 C 
HETATM    2  C9  UNL     1       0.917   0.532  -0.253  1.00  0.00     0.090 C 
HETATM    3  C10 UNL     1       0.875   1.504  -1.277  1.00  0.00     0.041 C 
HETATM    4  C11 UNL     1       1.409   2.240  -2.181  1.00  0.00     0.165 C 
HETATM    5  N3  UNL     1       2.513   1.615  -1.778  1.00  0.00    -0.253 NA
HETATM    6  C12 UNL     1       3.559   1.798  -1.152  1.00  0.00     0.209 C 
HETATM    7  F1  UNL     1       4.226   2.770  -0.484  1.00  0.00    -0.187 F 
HETATM    8  C13 UNL     1       4.186   0.476  -1.248  1.00  0.00     0.189 A 
HETATM    9  C14 UNL     1       5.647   0.648  -1.589  1.00  0.00     0.025 A 
HETATM   10  C15 UNL     1       6.635   0.119  -0.890  1.00  0.00     0.112 A 
HETATM   11  N4  UNL     1       6.336  -0.645   0.248  1.00  0.00    -0.262 NA
HETATM   12  C16 UNL     1       5.195  -0.924   0.748  1.00  0.00     0.205 A 
HETATM   13  C17 UNL     1       3.743  -1.049   1.053  1.00  0.00     0.136 A 
HETATM   14  C18 UNL     1       2.402  -0.987   1.147  1.00  0.00     0.044 C 
HETATM   15  N5  UNL     1       4.132  -0.320  -0.053  1.00  0.00    -0.345 N 
ENDROOT
BRANCH   1  16
HETATM   16  N2  UNL     1       0.041  -0.875   1.398  1.00  0.00    -0.380 N 
HETATM   17  C7  UNL     1      -0.497  -0.092   2.494  1.00  0.00     0.150 C 
BRANCH  16  18
HETATM   18  C6  UNL     1      -0.639  -2.156   1.279  1.00  0.00     0.149 C 
BRANCH  18  19
HETATM   19  C5  UNL     1      -2.042  -2.136   0.922  1.00  0.00    -0.010 C 
HETATM   20  C4  UNL     1      -3.181  -1.461   0.626  1.00  0.00     0.001 C 
BRANCH  20  21
HETATM   21  C3  UNL     1      -3.809  -0.153   0.454  1.00  0.00     0.298 C 
BRANCH  21  22
HETATM   22  N1  UNL     1      -4.361   0.142  -0.823  1.00  0.00     0.083 N 
HETATM   23  C1  UNL     1      -5.509  -0.603  -1.209  1.00  0.00     0.309 C 
HETATM   24  C2  UNL     1      -4.747   1.553  -0.815  1.00  0.00     0.309 C 
ENDBRANCH  21  22
ENDBRANCH  20  21
ENDBRANCH  18  19
ENDBRANCH  16  18
ENDBRANCH   1  16
BRANCH   2  25
HETATM   25  O1  UNL     1      -0.352   0.275   0.263  1.00  0.00    -0.359 OA
HETATM   26  H16 UNL     1      -1.057   0.108  -0.480  1.00  0.00     0.217 HD
ENDBRANCH   2  25
TORSDOF 6
