REMARK  4 active torsions:
REMARK  status: ('A' for Active; 'I' for Inactive)
REMARK    1  A    between atoms: N1_1  and  C1_2 
REMARK    2  A    between atoms: C5_7  and  N2_8 
REMARK    3  A    between atoms: N2_8  and  C6_9 
REMARK    4  A    between atoms: N3_14  and  C11_15 
ROOT
HETATM    1  C6  UNL     1       0.035   0.446  -0.454  1.00  0.00     0.168 A 
HETATM    2  C7  UNL     1      -1.448   0.480  -0.342  1.00  0.00    -0.008 A 
HETATM    3  C8  UNL     1      -1.455   1.499   0.475  1.00  0.00    -0.003 C 
HETATM    4  C9  UNL     1      -2.492   2.120   0.857  1.00  0.00     0.004 C 
HETATM    5  C10 UNL     1      -3.593   1.551   1.232  1.00  0.00     0.106 C 
HETATM    6  N3  UNL     1      -4.210   0.499   0.508  1.00  0.00    -0.341 N 
HETATM    7  C12 UNL     1      -3.956  -0.209  -0.750  1.00  0.00     0.170 C 
HETATM    8  C13 UNL     1      -2.508  -0.322  -0.925  1.00  0.00    -0.014 A 
HETATM    9  C14 UNL     1      -2.038  -1.272  -1.713  1.00  0.00     0.107 A 
HETATM   10  N4  UNL     1      -0.645  -1.461  -1.943  1.00  0.00    -0.316 N 
HETATM   11  C15 UNL     1      -0.149  -2.424  -2.742  1.00  0.00     0.213 A 
HETATM   12  N5  UNL     1       1.188  -2.278  -2.699  1.00  0.00    -0.254 NA
HETATM   13  C16 UNL     1       1.473  -1.234  -1.879  1.00  0.00     0.146 A 
HETATM   14  C17 UNL     1       0.314  -0.699  -1.386  1.00  0.00     0.061 A 
ENDROOT
BRANCH   1  15
HETATM   15  N2  UNL     1       0.603   0.221   0.859  1.00  0.00    -0.373 N 
HETATM   16  H5  UNL     1      -0.054  -0.064   1.621  1.00  0.00     0.161 HD
BRANCH  15  17
HETATM   17  C5  UNL     1       1.950   0.309   1.370  1.00  0.00     0.070 A 
HETATM   18  C4  UNL     1       2.320   0.033   2.682  1.00  0.00     0.142 A 
HETATM   19  C3  UNL     1       3.644   0.187   3.016  1.00  0.00     0.047 A 
HETATM   20  F1  UNL     1       1.346  -0.367   3.525  1.00  0.00    -0.204 F 
HETATM   21  C2  UNL     1       4.633   0.595   2.152  1.00  0.00     0.032 A 
HETATM   22  C1  UNL     1       4.264   0.870   0.847  1.00  0.00     0.028 A 
HETATM   23  C18 UNL     1       2.947   0.718   0.508  1.00  0.00     0.061 A 
BRANCH  22  24
HETATM   24  N1  UNL     1       5.303   1.288  -0.020  1.00  0.00    -0.399 N 
HETATM   25  H1  UNL     1       6.166   0.706  -0.179  1.00  0.00     0.156 HD
HETATM   26  H2  UNL     1       5.324   2.170  -0.567  1.00  0.00     0.156 HD
ENDBRANCH  22  24
ENDBRANCH  15  17
ENDBRANCH   1  15
BRANCH   6  27
HETATM   27  C11 UNL     1      -5.385   0.002   1.181  1.00  0.00     0.476 C 
HETATM   28  O1  UNL     1      -6.210  -0.903   0.895  1.00  0.00    -0.392 OA
ENDBRANCH   6  27
TORSDOF 4
