REMARK  1 active torsions:
REMARK  status: ('A' for Active; 'I' for Inactive)
REMARK    1  A    between atoms: C3_4  and  N2_5 
ROOT
HETATM    1  N2  UNL     1      -3.802   0.262   0.011  1.00  0.00    -0.365 N 
HETATM    2  C4  UNL     1      -4.563   0.056  -1.196  1.00  0.00     0.151 C 
HETATM    3  C5  UNL     1      -4.758   0.514   1.059  1.00  0.00     0.472 C 
HETATM    4  O1  UNL     1      -5.672   0.731   1.931  1.00  0.00    -0.392 OA
ENDROOT
BRANCH   1   5
HETATM    5  C3  UNL     1      -2.729   0.406   0.985  1.00  0.00     0.128 C 
HETATM    6  C2  UNL     1      -1.881   1.587   0.545  1.00  0.00     0.173 C 
HETATM    7  N1  UNL     1      -1.279   1.390  -0.735  1.00  0.00    -0.306 N 
HETATM    8  C1  UNL     1      -1.487   1.416  -2.165  1.00  0.00     0.173 C 
HETATM    9  N6  UNL     1      -0.019   0.803  -0.726  1.00  0.00    -0.162 NA
HETATM   10  C16 UNL     1       0.394   0.368   0.408  1.00  0.00     0.142 C 
HETATM   11  N5  UNL     1       1.506   0.012  -0.441  1.00  0.00    -0.341 N 
HETATM   12  C17 UNL     1       0.296   0.079   1.870  1.00  0.00     0.204 C 
HETATM   13  C15 UNL     1       2.871   0.106  -0.830  1.00  0.00     0.041 A 
HETATM   14  H20 UNL     1       1.486  -0.687  -1.277  1.00  0.00     0.167 HD
HETATM   15  C10 UNL     1       3.720  -0.872  -0.243  1.00  0.00    -0.012 A 
HETATM   16  C14 UNL     1       3.373   1.048  -1.646  1.00  0.00     0.030 A 
HETATM   17  C9  UNL     1       3.249  -1.983   0.659  1.00  0.00     0.186 C 
HETATM   18  C11 UNL     1       5.056  -0.799  -0.550  1.00  0.00     0.011 A 
HETATM   19  N4  UNL     1       1.915  -1.717   1.149  1.00  0.00    -0.296 NA
HETATM   20  C8  UNL     1       1.476  -2.023   2.318  1.00  0.00     0.246 C 
HETATM   21  N3  UNL     1       0.291  -1.424   1.839  1.00  0.00    -0.358 N 
HETATM   22  C7  UNL     1      -0.993  -1.641   1.264  1.00  0.00     0.086 C 
HETATM   23  C6  UNL     1      -2.005  -0.877   1.010  1.00  0.00     0.017 C 
HETATM   24  C12 UNL     1       5.468   0.203  -1.391  1.00  0.00     0.001 A 
HETATM   25  C13 UNL     1       4.699   1.172  -1.988  1.00  0.00     0.002 A 
ENDBRANCH   1   5
TORSDOF 1
