REMARK  6 active torsions:
REMARK  status: ('A' for Active; 'I' for Inactive)
REMARK    1  A    between atoms: N1_2  and  C2_3 
REMARK    2  A    between atoms: N1_2  and  C22_28 
REMARK    3  A    between atoms: C2_3  and  C3_4 
REMARK    4  A    between atoms: C3_4  and  C4_5 
REMARK    5  A    between atoms: C4_5  and  C5_6 
REMARK    6  A    between atoms: C22_28  and  C23_29 
ROOT
HETATM    1  C5  UNL     1       0.777   2.105   1.199  1.00  0.00     0.051 A 
HETATM    2  O1  UNL     1      -0.319   2.709   1.255  1.00  0.00    -0.335 OA
HETATM    3  C6  UNL     1       0.266   2.178  -0.216  1.00  0.00     0.112 A 
HETATM    4  C7  UNL     1      -1.068   2.844  -0.155  1.00  0.00     0.120 A 
HETATM    5  C8  UNL     1      -1.115   4.186  -0.465  1.00  0.00     0.020 A 
HETATM    6  C9  UNL     1      -2.374   4.747  -0.363  1.00  0.00     0.041 A 
HETATM    7  C10 UNL     1      -3.549   4.107   0.007  1.00  0.00     0.116 A 
HETATM    8  F1  UNL     1      -4.714   4.761   0.073  1.00  0.00    -0.206 F 
HETATM    9  C11 UNL     1      -3.403   2.763   0.300  1.00  0.00     0.055 A 
HETATM   10  C12 UNL     1      -2.186   2.091   0.232  1.00  0.00     0.011 A 
HETATM   11  C13 UNL     1      -2.143   0.685   0.544  1.00  0.00     0.075 C 
HETATM   12  N2  UNL     1      -1.571  -0.134   1.346  1.00  0.00    -0.249 NA
HETATM   13  C14 UNL     1      -1.762  -1.525   1.416  1.00  0.00     0.069 A 
HETATM   14  C15 UNL     1      -1.284  -2.518   2.137  1.00  0.00     0.032 A 
HETATM   15  C16 UNL     1      -1.899  -3.777   1.720  1.00  0.00     0.003 A 
HETATM   16  C17 UNL     1      -2.776  -3.569   0.721  1.00  0.00     0.016 A 
HETATM   17  C18 UNL     1      -2.714  -2.131   0.499  1.00  0.00     0.018 A 
HETATM   18  C19 UNL     1      -3.332  -1.353  -0.351  1.00  0.00     0.054 A 
HETATM   19  N3  UNL     1      -4.315  -1.445  -1.374  1.00  0.00    -0.352 N 
HETATM   20  C20 UNL     1      -4.443  -0.184  -2.017  1.00  0.00     0.202 A 
HETATM   21  N4  UNL     1      -3.605   0.645  -1.501  1.00  0.00    -0.267 NA
HETATM   22  C21 UNL     1      -2.833   0.006  -0.516  1.00  0.00     0.212 A 
HETATM   23  H16 UNL     1      -4.819  -2.351  -1.554  1.00  0.00     0.166 HD
ENDROOT
BRANCH   1  24
HETATM   24  C4  UNL     1       2.044   1.434   1.321  1.00  0.00     0.030 C 
BRANCH  24  25
HETATM   25  C3  UNL     1       3.184   0.813   1.312  1.00  0.00     0.005 C 
BRANCH  25  26
HETATM   26  C2  UNL     1       3.827   0.292   0.101  1.00  0.00     0.299 C 
BRANCH  26  27
HETATM   27  N1  UNL     1       4.040  -1.137   0.148  1.00  0.00     0.088 N 
HETATM   28  C1  UNL     1       2.747  -1.793   0.093  1.00  0.00     0.310 C 
BRANCH  27  29
HETATM   29  C22 UNL     1       4.915  -1.599  -0.881  1.00  0.00     0.287 C 
BRANCH  29  30
HETATM   30  C23 UNL     1       5.341  -3.038  -0.687  1.00  0.00     0.144 C 
HETATM   31 CL1  UNL     1       6.205  -3.221   0.880  1.00  0.00    -0.129 Cl
ENDBRANCH  29  30
ENDBRANCH  27  29
ENDBRANCH  26  27
ENDBRANCH  25  26
ENDBRANCH  24  25
ENDBRANCH   1  24
TORSDOF 6
