REMARK  2 active torsions:
REMARK  status: ('A' for Active; 'I' for Inactive)
REMARK    1  A    between atoms: C7_8  and  N1_9 
REMARK    2  A    between atoms: N1_9  and  C8_10 
ROOT
HETATM    1  C8  UNL     1       0.326   1.231  -0.033  1.00  0.00     0.155 C 
HETATM    2  N2  UNL     1      -0.333   0.183  -0.196  1.00  0.00    -0.255 NA
HETATM    3  C9  UNL     1       0.181  -1.136  -0.222  1.00  0.00     0.184 A 
HETATM    4  C10 UNL     1      -0.074  -2.067   0.871  1.00  0.00     0.033 A 
HETATM    5  C11 UNL     1      -0.934  -2.102  -0.138  1.00  0.00     0.032 A 
HETATM    6  N3  UNL     1      -2.096  -2.667  -0.715  1.00  0.00    -0.390 N 
HETATM    7  C12 UNL     1      -3.031  -1.757  -1.319  1.00  0.00     0.151 C 
HETATM    8  C13 UNL     1      -3.801  -0.874  -0.413  1.00  0.00     0.304 C 
HETATM    9  N4  UNL     1      -3.022  -0.023   0.463  1.00  0.00     0.124 N 
HETATM   10  C14 UNL     1      -2.791  -0.424   1.855  1.00  0.00     0.324 C 
HETATM   11  C15 UNL     1      -2.411   1.228   0.339  1.00  0.00     0.392 A 
HETATM   12  O1  UNL     1      -2.994   0.877  -0.711  1.00  0.00    -0.102 OA
HETATM   13  N5  UNL     1      -1.840   2.484   0.102  1.00  0.00    -0.255 N 
HETATM   14  C16 UNL     1      -2.389   3.699   0.028  1.00  0.00     0.220 A 
HETATM   15  N6  UNL     1      -1.351   4.513  -0.200  1.00  0.00    -0.229 NA
HETATM   16  C17 UNL     1      -0.253   3.748  -0.250  1.00  0.00     0.158 A 
HETATM   17 CL1  UNL     1       1.305   4.545  -0.534  1.00  0.00    -0.060 Cl
HETATM   18  C18 UNL     1      -0.516   2.411  -0.059  1.00  0.00     0.130 A 
HETATM   19  H10 UNL     1      -2.281  -3.715  -0.723  1.00  0.00     0.159 HD
ENDROOT
BRANCH   1  20
HETATM   20  N1  UNL     1       1.697   1.433   0.163  1.00  0.00    -0.339 N 
HETATM   21  H7  UNL     1       2.244   2.314   0.146  1.00  0.00     0.167 HD
BRANCH  20  22
HETATM   22  C7  UNL     1       2.613   0.381   0.431  1.00  0.00     0.042 A 
HETATM   23  C2  UNL     1       3.530  -0.155  -0.464  1.00  0.00    -0.035 A 
HETATM   24  C1  UNL     1       3.559   0.416  -1.813  1.00  0.00     0.050 C 
HETATM   25  C3  UNL     1       4.345  -1.170  -0.045  1.00  0.00     0.012 A 
HETATM   26  C4  UNL     1       4.205  -1.595   1.238  1.00  0.00     0.043 A 
HETATM   27  C5  UNL     1       3.318  -1.132   2.224  1.00  0.00     0.118 A 
HETATM   28  F1  UNL     1       3.252  -1.628   3.476  1.00  0.00    -0.206 F 
HETATM   29  C6  UNL     1       2.530  -0.102   1.711  1.00  0.00     0.072 A 
ENDBRANCH  20  22
ENDBRANCH   1  20
TORSDOF 2
