REMARK  10 active torsions:
REMARK  status: ('A' for Active; 'I' for Inactive)
REMARK    1  A    between atoms: N1_2  and  C3_4 
REMARK    2  A    between atoms: C3_4  and  C4_5 
REMARK    3  A    between atoms: C5_6  and  C6_7 
REMARK    4  A    between atoms: C6_7  and  S1_8 
REMARK    5  A    between atoms: S1_8  and  C7_9 
REMARK    6  A    between atoms: C7_9  and  C8_10 
REMARK    7  A    between atoms: C8_10  and  N2_11 
REMARK    8  A    between atoms: N2_11  and  S2_12 
REMARK    9  A    between atoms: S2_12  and  C9_14 
REMARK   10  A    between atoms: C10_15  and  N3_16 
ROOT
HETATM    1  N2  UNL     1       2.220  -1.000  -1.121  1.00  0.00    -0.228 NA
HETATM    2  H15 UNL     1       1.982  -0.764  -2.104  1.00  0.00     0.138 HD
ENDROOT
BRANCH   1   3
HETATM    3  C8  UNL     1       1.058  -1.566  -0.448  1.00  0.00     0.194 C 
BRANCH   3   4
HETATM    4  C7  UNL     1       0.089  -0.530  -0.261  1.00  0.00    -0.097 C 
BRANCH   4   5
HETATM    5  S1  UNL     1      -0.762   0.413  -0.093  1.00  0.00    -0.087 SA
BRANCH   5   6
HETATM    6  C6  UNL     1      -1.771   1.570   0.114  1.00  0.00     0.114 C 
BRANCH   6   7
HETATM    7  C5  UNL     1      -3.191   1.128   0.323  1.00  0.00    -0.018 C 
HETATM    8  C4  UNL     1      -4.184   1.489  -0.495  1.00  0.00    -0.011 C 
BRANCH   8   9
HETATM    9  C3  UNL     1      -5.625   1.126  -0.405  1.00  0.00     0.143 C 
BRANCH   9  10
HETATM   10  N1  UNL     1      -5.958   0.291   0.700  1.00  0.00    -0.418 N 
HETATM   11  C1  UNL     1      -5.448  -1.043   0.658  1.00  0.00     0.142 C 
HETATM   12  C2  UNL     1      -7.311   0.409   1.148  1.00  0.00     0.142 C 
ENDBRANCH   9  10
ENDBRANCH   8   9
ENDBRANCH   6   7
ENDBRANCH   5   6
ENDBRANCH   4   5
ENDBRANCH   3   4
ENDBRANCH   1   3
BRANCH   1  13
HETATM   13  S2  UNL     1       2.910   0.307  -0.210  1.00  0.00     0.116 S 
HETATM   14  O1  UNL     1       2.731   1.602  -0.963  1.00  0.00    -0.237 OA
BRANCH  13  15
HETATM   15  C9  UNL     1       4.604  -0.069   0.121  1.00  0.00     0.113 C 
HETATM   16  C10 UNL     1       5.751   0.417  -0.295  1.00  0.00     0.107 C 
BRANCH  16  17
HETATM   17  N3  UNL     1       6.908  -0.202   0.244  1.00  0.00    -0.325 N 
HETATM   18  C11 UNL     1       6.940  -1.212   1.114  1.00  0.00     0.116 A 
HETATM   19  C12 UNL     1       8.279  -1.480   1.358  1.00  0.00     0.135 A 
HETATM   20  N4  UNL     1       8.980  -0.601   0.610  1.00  0.00    -0.254 NA
HETATM   21  C13 UNL     1       8.141   0.190  -0.080  1.00  0.00     0.213 A 
ENDBRANCH  16  17
ENDBRANCH  13  15
ENDBRANCH   1  13
TORSDOF 10
