REMARK  0 active torsions:
REMARK  status: ('A' for Active; 'I' for Inactive)
ROOT
HETATM    1  C1  UNL     1      -4.921   2.794   0.563  1.00  0.00     0.045 C 
HETATM    2  C2  UNL     1      -4.308   1.446   0.458  1.00  0.00    -0.065 A 
HETATM    3  C3  UNL     1      -4.883   0.539   1.190  1.00  0.00     0.006 A 
HETATM    4  C4  UNL     1      -4.251  -0.788   1.066  1.00  0.00     0.031 A 
HETATM    5  C5  UNL     1      -3.192  -1.090   0.300  1.00  0.00     0.048 A 
HETATM    6  C6  UNL     1      -2.694  -2.440   0.289  1.00  0.00     0.066 C 
HETATM    7  C7  UNL     1      -1.633  -3.113   0.719  1.00  0.00     0.079 C 
HETATM    8 CL1  UNL     1      -1.538  -4.824   0.421  1.00  0.00    -0.071 Cl
HETATM    9  N1  UNL     1      -0.855  -2.092   1.334  1.00  0.00    -0.259 NA
HETATM   10  C8  UNL     1      -0.091  -1.457   0.558  1.00  0.00     0.310 C 
HETATM   11  N2  UNL     1       0.706  -0.860  -0.500  1.00  0.00    -0.333 N 
HETATM   12  C9  UNL     1       1.727  -1.785  -0.218  1.00  0.00     0.246 C 
HETATM   13  N3  UNL     1       2.928  -1.666  -0.941  1.00  0.00    -0.398 N 
HETATM   14  C10 UNL     1       2.838  -2.016  -2.294  1.00  0.00     0.145 C 
HETATM   15  C11 UNL     1       4.154  -1.911  -0.324  1.00  0.00     0.145 C 
HETATM   16  C12 UNL     1       4.652  -0.923   0.660  1.00  0.00    -0.006 C 
HETATM   17  C13 UNL     1       4.473   0.243   1.307  1.00  0.00     0.051 C 
HETATM   18  C14 UNL     1       3.223   0.839   0.866  1.00  0.00     0.381 A 
HETATM   19  O1  UNL     1       3.272   1.910   1.499  1.00  0.00    -0.139 OA
HETATM   20  N4  UNL     1       2.234   1.881   0.832  1.00  0.00     0.122 N 
HETATM   21  C15 UNL     1       1.794   3.169   1.228  1.00  0.00     0.324 C 
HETATM   22  C16 UNL     1       1.078   1.483  -0.007  1.00  0.00     0.172 C 
HETATM   23  C17 UNL     1      -0.175   1.107   0.268  1.00  0.00     0.067 C 
HETATM   24  C18 UNL     1      -0.236   0.140  -0.899  1.00  0.00     0.145 C 
HETATM   25  C19 UNL     1       0.168   1.007  -2.050  1.00  0.00     0.029 C 
HETATM   26  C20 UNL     1       1.309   1.435  -1.474  1.00  0.00     0.040 C 
HETATM   27  N5  UNL     1      -1.497  -0.383  -1.202  1.00  0.00    -0.201 NA
HETATM   28  N6  UNL     1      -2.594  -0.029  -0.475  1.00  0.00    -0.306 N 
HETATM   29  C21 UNL     1      -3.151   1.309  -0.465  1.00  0.00     0.177 A 
HETATM   30  H23 UNL     1      -1.715  -0.347  -2.225  1.00  0.00     0.150 HD
ENDROOT
TORSDOF 0
