REMARK  7 active torsions:
REMARK  status: ('A' for Active; 'I' for Inactive)
REMARK    1  A    between atoms: C7_8  and  N1_9 
REMARK    2  A    between atoms: N1_9  and  C8_10 
REMARK    3  A    between atoms: C8_10  and  C9_11 
REMARK    4  A    between atoms: N3_15  and  C12_16 
REMARK    5  A    between atoms: C13_17  and  C14_18 
REMARK       I    between atoms: C14_18  and  N4_20 
REMARK    6  A    between atoms: N4_20  and  C16_22 
REMARK    7  A    between atoms: C16_22  and  C18_24 
ROOT
HETATM    1  C9  UNL     1       1.524   2.154  -0.704  1.00  0.00     0.052 A 
HETATM    2  C10 UNL     1       1.782   2.510  -2.006  1.00  0.00     0.145 A 
HETATM    3  N2  UNL     1       0.747   2.168  -2.795  1.00  0.00    -0.254 NA
HETATM    4  C11 UNL     1      -0.172   1.594  -1.992  1.00  0.00     0.213 A 
HETATM    5  N3  UNL     1       0.292   1.580  -0.709  1.00  0.00    -0.317 N 
ENDROOT
BRANCH   1   6
HETATM    6  C8  UNL     1       2.188   2.214   0.616  1.00  0.00     0.179 C 
BRANCH   6   7
HETATM    7  N1  UNL     1       2.926   1.022   0.964  1.00  0.00    -0.384 N 
HETATM    8  H7  UNL     1       2.505   0.524   1.795  1.00  0.00     0.160 HD
BRANCH   7   9
HETATM    9  C7  UNL     1       4.076   0.406   0.417  1.00  0.00     0.037 A 
HETATM   10  C2  UNL     1       4.581  -0.780   0.966  1.00  0.00    -0.035 A 
HETATM   11  C1  UNL     1       3.885  -1.395   2.133  1.00  0.00     0.050 C 
HETATM   12  C3  UNL     1       5.704  -1.357   0.426  1.00  0.00     0.012 A 
HETATM   13  C4  UNL     1       6.366  -0.811  -0.651  1.00  0.00     0.043 A 
HETATM   14  C5  UNL     1       5.907   0.356  -1.226  1.00  0.00     0.118 A 
HETATM   15  F1  UNL     1       6.537   0.917  -2.285  1.00  0.00    -0.206 F 
HETATM   16  C6  UNL     1       4.779   0.906  -0.657  1.00  0.00     0.072 A 
ENDBRANCH   7   9
ENDBRANCH   6   7
ENDBRANCH   1   6
BRANCH   5  17
HETATM   17  C12 UNL     1      -0.595   0.997   0.229  1.00  0.00     0.103 C 
HETATM   18  C13 UNL     1      -1.754   0.423   0.407  1.00  0.00     0.092 C 
BRANCH  18  19
HETATM   19  C14 UNL     1      -2.871   0.054  -0.443  1.00  0.00     0.244 C 
HETATM   20  O1  UNL     1      -3.099   0.168  -1.674  1.00  0.00    -0.268 OA
HETATM   21  N4  UNL     1      -4.016  -0.582   0.113  1.00  0.00    -0.346 N 
HETATM   22  C15 UNL     1      -4.025  -0.847   1.556  1.00  0.00     0.153 C 
BRANCH  21  23
HETATM   23  C16 UNL     1      -5.191  -1.011  -0.567  1.00  0.00     0.111 C 
HETATM   24  C17 UNL     1      -5.303  -2.516  -0.461  1.00  0.00     0.035 C 
BRANCH  23  25
HETATM   25  C18 UNL     1      -6.478  -0.410  -0.052  1.00  0.00     0.247 C 
HETATM   26  F2  UNL     1      -6.526   0.948  -0.129  1.00  0.00    -0.253 F 
ENDBRANCH  23  25
ENDBRANCH  21  23
ENDBRANCH  18  19
ENDBRANCH   5  17
TORSDOF 7
