REMARK  8 active torsions:
REMARK  status: ('A' for Active; 'I' for Inactive)
REMARK    1  A    between atoms: C2_2  and  C3_3 
REMARK    2  A    between atoms: C5_5  and  C6_6 
REMARK    3  A    between atoms: C6_6  and  C7_7 
REMARK    4  A    between atoms: C7_7  and  C8_8 
REMARK    5  A    between atoms: C10_11  and  N1_12 
REMARK    6  A    between atoms: N1_12  and  C11_13 
REMARK    7  A    between atoms: C17_19  and  N2_20 
REMARK    8  A    between atoms: N2_20  and  N3_21 
ROOT
HETATM    1  C3  UNL     1      -1.265   1.424  -0.186  1.00  0.00    -0.054 A 
HETATM    2  C4  UNL     1      -1.969   0.322  -0.385  1.00  0.00     0.012 A 
HETATM    3  C5  UNL     1      -1.655  -0.820   0.458  1.00  0.00    -0.059 A 
HETATM    4  C9  UNL     1      -0.698  -0.616   1.329  1.00  0.00     0.007 A 
HETATM    5  C10 UNL     1       0.178   0.566   1.670  1.00  0.00     0.133 A 
HETATM    6  C17 UNL     1      -0.156   1.713   0.783  1.00  0.00     0.149 A 
ENDROOT
BRANCH   5   7
HETATM    7  N1  UNL     1       1.560   0.225   1.763  1.00  0.00    -0.380 N 
HETATM    8  H15 UNL     1       2.087   0.374   2.667  1.00  0.00     0.160 HD
BRANCH   7   9
HETATM    9  C11 UNL     1       2.363  -0.320   0.736  1.00  0.00     0.028 A 
HETATM   10  C12 UNL     1       1.918  -0.603  -0.537  1.00  0.00     0.029 A 
HETATM   11  C13 UNL     1       2.668  -1.136  -1.562  1.00  0.00     0.002 A 
HETATM   12  C14 UNL     1       3.994  -1.423  -1.315  1.00  0.00     0.000 A 
HETATM   13  C15 UNL     1       4.515  -1.169  -0.064  1.00  0.00     0.002 A 
HETATM   14  C16 UNL     1       3.695  -0.634   0.903  1.00  0.00     0.029 A 
ENDBRANCH   7   9
ENDBRANCH   5   7
BRANCH   6  15
HETATM   15  N2  UNL     1       0.943   2.306   0.112  1.00  0.00    -0.348 N 
HETATM   16  H22 UNL     1       1.077   2.139  -0.876  1.00  0.00     0.174 HD
BRANCH  15  17
HETATM   17  N3  UNL     1       2.027   2.616   0.890  1.00  0.00    -0.254 NA
HETATM   18  H23 UNL     1       2.649   3.235   0.289  1.00  0.00     0.142 HD
HETATM   19  H24 UNL     1       1.806   3.223   1.709  1.00  0.00     0.142 HD
ENDBRANCH  15  17
ENDBRANCH   6  15
BRANCH   3  20
HETATM   20  C6  UNL     1      -2.336  -2.106   0.364  1.00  0.00     0.040 C 
BRANCH  20  21
HETATM   21  C7  UNL     1      -2.201  -2.766  -1.001  1.00  0.00     0.036 C 
BRANCH  21  22
HETATM   22  C8  UNL     1      -2.971  -4.085  -0.907  1.00  0.00     0.222 C 
HETATM   23  F1  UNL     1      -2.376  -4.822   0.094  1.00  0.00    -0.255 F 
ENDBRANCH  21  22
ENDBRANCH  20  21
ENDBRANCH   3  20
BRANCH   1  24
HETATM   24  C2  UNL     1      -1.593   2.576  -1.046  1.00  0.00     0.032 C 
HETATM   25  C1  UNL     1      -2.044   3.778  -0.242  1.00  0.00     0.010 C 
ENDBRANCH   1  24
TORSDOF 8
