REMARK  3 active torsions:
REMARK  status: ('A' for Active; 'I' for Inactive)
REMARK    1  A    between atoms: O1_2  and  P1_3 
REMARK    2  A    between atoms: C4_6  and  N1_7 
REMARK    3  A    between atoms: N1_7  and  C5_8 
ROOT
HETATM    1  P1  UNL     1      -2.022   1.191  -0.671  1.00  0.00    -0.015 P 
HETATM    2  C2  UNL     1      -0.591   0.112  -0.634  1.00  0.00     0.145 C 
HETATM    3  C3  UNL     1       0.255  -0.955  -0.787  1.00  0.00     0.041 A 
HETATM    4  C4  UNL     1       1.497  -0.724  -0.283  1.00  0.00     0.142 A 
HETATM    5  N2  UNL     1       2.422  -1.607  -0.650  1.00  0.00    -0.224 NA
HETATM    6  C11 UNL     1       2.104  -2.620  -1.448  1.00  0.00     0.235 A 
HETATM    7  N3  UNL     1       0.844  -2.847  -1.947  1.00  0.00    -0.241 NA
HETATM    8  C12 UNL     1      -0.122  -1.975  -1.594  1.00  0.00     0.069 A 
HETATM    9  C13 UNL     1      -1.371  -2.403  -1.892  1.00  0.00     0.011 C 
HETATM   10  C14 UNL     1      -2.783  -2.078  -1.532  1.00  0.00     0.045 C 
HETATM   11  C15 UNL     1      -2.703  -1.292  -0.377  1.00  0.00    -0.019 C 
HETATM   12  C16 UNL     1      -3.778  -0.628   0.455  1.00  0.00     0.011 C 
HETATM   13  C17 UNL     1      -3.365   0.857   0.546  1.00  0.00     0.029 C 
HETATM   14  C18 UNL     1      -2.817   1.058   1.933  1.00  0.00     0.016 C 
ENDROOT
BRANCH   4  15
HETATM   15  N1  UNL     1       1.813   0.338   0.594  1.00  0.00    -0.340 N 
HETATM   16  H5  UNL     1       1.109   0.974   0.980  1.00  0.00     0.167 HD
BRANCH  15  17
HETATM   17  C5  UNL     1       3.106   0.667   1.063  1.00  0.00     0.035 A 
HETATM   18  C6  UNL     1       3.320   1.459   2.188  1.00  0.00     0.032 A 
HETATM   19  C7  UNL     1       4.552   1.809   2.668  1.00  0.00     0.046 A 
HETATM   20  C8  UNL     1       5.684   1.380   2.040  1.00  0.00     0.138 A 
HETATM   21  F1  UNL     1       6.881   1.743   2.540  1.00  0.00    -0.204 F 
HETATM   22  C9  UNL     1       5.560   0.590   0.914  1.00  0.00     0.074 A 
HETATM   23 CL1  UNL     1       7.015   0.051   0.124  1.00  0.00    -0.081 Cl
HETATM   24  C10 UNL     1       4.292   0.275   0.484  1.00  0.00     0.056 A 
ENDBRANCH  15  17
ENDBRANCH   4  15
BRANCH   1  25
HETATM   25  O1  UNL     1      -2.541   1.694  -2.215  1.00  0.00    -0.377 OA
HETATM   26  C1  UNL     1      -3.695   1.145  -2.693  1.00  0.00     0.206 C 
ENDBRANCH   1  25
TORSDOF 3
