REMARK  8 active torsions:
REMARK  status: ('A' for Active; 'I' for Inactive)
REMARK    1  A    between atoms: C2_2  and  N1_3 
REMARK       I    between atoms: N1_3  and  C3_4 
REMARK    2  A    between atoms: C3_4  and  C4_6 
REMARK    3  A    between atoms: C5_7  and  C6_8 
REMARK    4  A    between atoms: C6_8  and  N2_9 
REMARK    5  A    between atoms: C9_12  and  C10_13 
REMARK    6  A    between atoms: C9_12  and  C23_29 
REMARK    7  A    between atoms: C15_19  and  N4_20 
REMARK    8  A    between atoms: N4_20  and  C16_21 
ROOT
HETATM    1  C10 UNL     1      -0.377   0.662  -0.807  1.00  0.00     0.039 C 
HETATM    2  C11 UNL     1      -1.566   0.384  -1.259  1.00  0.00     0.042 C 
HETATM    3  C12 UNL     1      -1.479  -0.133  -2.675  1.00  0.00     0.105 C 
HETATM    4  C13 UNL     1      -2.774  -0.401  -3.283  1.00  0.00     0.090 C 
HETATM    5  N3  UNL     1      -3.977   0.071  -3.257  1.00  0.00    -0.298 NA
HETATM    6  C14 UNL     1      -4.321   1.204  -2.428  1.00  0.00     0.226 C 
HETATM    7  C15 UNL     1      -3.958   0.838  -1.007  1.00  0.00     0.124 C 
HETATM    8  N5  UNL     1      -2.793   0.503  -0.564  1.00  0.00    -0.238 NA
ENDROOT
BRANCH   1   9
HETATM    9  C9  UNL     1       0.238   1.173   0.404  1.00  0.00    -0.006 C 
HETATM   10  C2  UNL     1       1.504   1.256   0.760  1.00  0.00     0.017 C 
HETATM   11  C1  UNL     1       1.961   1.799   2.041  1.00  0.00     0.069 C 
BRANCH  10  12
HETATM   12  N1  UNL     1       2.565   0.812  -0.038  1.00  0.00    -0.327 N 
HETATM   13  C3  UNL     1       3.927   0.668  -0.140  1.00  0.00     0.245 C 
HETATM   14  O1  UNL     1       4.433   1.145   0.942  1.00  0.00    -0.268 OA
HETATM   15  H4  UNL     1       2.245   0.385  -0.967  1.00  0.00     0.169 HD
BRANCH  13  16
HETATM   16  C4  UNL     1       4.764   0.118  -1.183  1.00  0.00     0.072 C 
HETATM   17  C5  UNL     1       6.056   0.101  -0.943  1.00  0.00     0.008 C 
BRANCH  17  18
HETATM   18  C6  UNL     1       7.135   0.410  -0.021  1.00  0.00     0.299 C 
BRANCH  18  19
HETATM   19  N2  UNL     1       7.883  -0.783   0.383  1.00  0.00     0.083 N 
HETATM   20  C7  UNL     1       8.623  -1.330  -0.731  1.00  0.00     0.309 C 
HETATM   21  C8  UNL     1       6.920  -1.795   0.808  1.00  0.00     0.309 C 
ENDBRANCH  18  19
ENDBRANCH  17  18
ENDBRANCH  13  16
ENDBRANCH  10  12
BRANCH   9  22
HETATM   22  C23 UNL     1      -0.909   1.699   1.130  1.00  0.00     0.262 C 
HETATM   23  F1  UNL     1      -0.671   2.397   2.282  1.00  0.00    -0.251 F 
ENDBRANCH   9  22
ENDBRANCH   1   9
BRANCH   7  24
HETATM   24  N4  UNL     1      -5.027   0.834  -0.083  1.00  0.00    -0.343 N 
HETATM   25  H21 UNL     1      -5.696   1.650  -0.129  1.00  0.00     0.167 HD
BRANCH  24  26
HETATM   26  C16 UNL     1      -5.165  -0.235   0.841  1.00  0.00     0.039 A 
HETATM   27  C17 UNL     1      -4.329  -0.941   1.661  1.00  0.00     0.030 A 
HETATM   28  C18 UNL     1      -4.767  -1.975   2.450  1.00  0.00     0.002 A 
HETATM   29  C19 UNL     1      -6.074  -2.378   2.477  1.00  0.00     0.001 A 
HETATM   30  C20 UNL     1      -6.944  -1.681   1.656  1.00  0.00     0.009 A 
HETATM   31  C21 UNL     1      -6.510  -0.630   0.852  1.00  0.00    -0.035 A 
HETATM   32  C22 UNL     1      -7.643  -0.039   0.053  1.00  0.00     0.050 C 
ENDBRANCH  24  26
ENDBRANCH   7  24
TORSDOF 8
