REMARK  9 active torsions:
REMARK  status: ('A' for Active; 'I' for Inactive)
REMARK    1  A    between atoms: C2_2  and  C3_3 
REMARK    2  A    between atoms: C8_8  and  N1_9 
REMARK    3  A    between atoms: N1_9  and  C9_10 
REMARK    4  A    between atoms: C11_12  and  C12_13 
REMARK    5  A    between atoms: C12_13  and  N2_14 
REMARK    6  A    between atoms: C14_16  and  C15_17 
REMARK    7  A    between atoms: C15_17  and  N3_18 
REMARK    8  A    between atoms: N3_18  and  C16_19 
REMARK    9  A    between atoms: C17_20  and  N4_21 
ROOT
HETATM    1  N4  UNL     1       5.525   1.776  -1.408  1.00  0.00    -0.352 N 
HETATM    2  C18 UNL     1       6.973   1.833  -1.756  1.00  0.00     0.152 C 
HETATM    3  C19 UNL     1       4.641   2.461  -2.394  1.00  0.00     0.351 C 
HETATM    4  O1  UNL     1       3.798   2.976  -3.101  1.00  0.00    -0.284 OA
ENDROOT
BRANCH   1   5
HETATM    5  C17 UNL     1       5.139   1.059  -0.211  1.00  0.00     0.152 C 
HETATM    6  C16 UNL     1       4.607  -0.055   0.276  1.00  0.00     0.083 C 
BRANCH   6   7
HETATM    7  N3  UNL     1       4.032  -1.345  -0.046  1.00  0.00    -0.395 N 
HETATM    8  H20 UNL     1       4.595  -1.504  -0.906  1.00  0.00     0.159 HD
BRANCH   7   9
HETATM    9  C15 UNL     1       3.050  -1.854   0.805  1.00  0.00     0.176 C 
BRANCH   9  10
HETATM   10  C14 UNL     1       1.728  -1.135   0.597  1.00  0.00     0.036 C 
HETATM   11  C13 UNL     1       1.159  -0.471   1.641  1.00  0.00     0.036 C 
HETATM   12  C10 UNL     1      -0.176   0.281   1.514  1.00  0.00    -0.030 C 
HETATM   13  C9  UNL     1      -0.882  -0.511   0.572  1.00  0.00     0.167 C 
HETATM   14  C11 UNL     1      -0.161   1.234   2.464  1.00  0.00     0.012 C 
HETATM   15  C22 UNL     1      -0.191  -0.778  -0.685  1.00  0.00     0.062 A 
HETATM   16  N5  UNL     1       0.998  -1.289  -0.687  1.00  0.00    -0.308 N 
HETATM   17  C21 UNL     1      -0.354  -0.838  -2.116  1.00  0.00     0.146 A 
HETATM   18  C20 UNL     1       1.666  -1.686  -1.684  1.00  0.00     0.214 A 
HETATM   19  N6  UNL     1       0.773  -1.390  -2.705  1.00  0.00    -0.254 NA
BRANCH  13  20
HETATM   20  N1  UNL     1      -2.264  -0.170   0.302  1.00  0.00    -0.375 N 
HETATM   21  H10 UNL     1      -1.724   0.786   0.168  1.00  0.00     0.160 HD
BRANCH  20  22
HETATM   22  C8  UNL     1      -3.626   0.173   0.034  1.00  0.00     0.035 A 
HETATM   23  C3  UNL     1      -4.259  -1.034   0.122  1.00  0.00    -0.032 A 
HETATM   24  C4  UNL     1      -5.613  -0.936   0.060  1.00  0.00     0.009 A 
HETATM   25  C5  UNL     1      -6.077   0.408  -0.104  1.00  0.00     0.001 A 
HETATM   26  C6  UNL     1      -5.434   1.716  -0.221  1.00  0.00     0.002 A 
HETATM   27  C7  UNL     1      -3.997   1.333  -0.102  1.00  0.00     0.029 A 
BRANCH  23  28
HETATM   28  C2  UNL     1      -3.943  -2.434   0.132  1.00  0.00     0.036 C 
HETATM   29  C1  UNL     1      -3.561  -3.158   1.345  1.00  0.00     0.010 C 
ENDBRANCH  23  28
ENDBRANCH  20  22
ENDBRANCH  13  20
BRANCH  14  30
HETATM   30  C12 UNL     1      -1.445   1.823   2.808  1.00  0.00     0.294 C 
BRANCH  30  31
HETATM   31  N2  UNL     1      -1.531   3.272   2.524  1.00  0.00     0.081 N 
HETATM   32  H15 UNL     1      -2.503   3.616   2.673  1.00  0.00     0.313 HD
HETATM   33  H16 UNL     1      -0.937   3.809   3.236  1.00  0.00     0.313 HD
ENDBRANCH  30  31
ENDBRANCH  14  30
ENDBRANCH   9  10
ENDBRANCH   7   9
ENDBRANCH   6   7
ENDBRANCH   1   5
TORSDOF 9
