REMARK  0 active torsions:
REMARK  status: ('A' for Active; 'I' for Inactive)
ROOT
HETATM    1 CL1  UNL     1       5.740  -2.118  -0.305  1.00  0.00    -0.085 Cl
HETATM    2  C1  UNL     1       4.449  -1.173   0.374  1.00  0.00     0.030 C 
HETATM    3  C2  UNL     1       3.974  -0.576   1.437  1.00  0.00     0.016 C 
HETATM    4  C3  UNL     1       2.901   0.253   2.098  1.00  0.00     0.148 C 
HETATM    5  N1  UNL     1       1.986   0.751   1.155  1.00  0.00    -0.394 N 
HETATM    6  C4  UNL     1       1.067   1.250   0.209  1.00  0.00     0.108 C 
HETATM    7  C5  UNL     1       0.469   0.728  -0.844  1.00  0.00     0.026 C 
HETATM    8  C6  UNL     1      -0.422   1.730  -1.509  1.00  0.00     0.152 A 
HETATM    9  P1  UNL     1       0.561   3.340  -1.502  1.00  0.00     0.017 P 
HETATM   10  N2  UNL     1      -0.409   4.541  -0.603  1.00  0.00    -0.256 NA
HETATM   11  C7  UNL     1      -1.557   4.215  -0.133  1.00  0.00     0.233 A 
HETATM   12  N3  UNL     1      -2.241   2.970  -0.204  1.00  0.00    -0.228 NA
HETATM   13  C8  UNL     1      -1.718   1.941  -0.804  1.00  0.00     0.117 A 
HETATM   14  N4  UNL     1      -2.755   1.000  -0.669  1.00  0.00    -0.374 N 
HETATM   15  C9  UNL     1      -3.211   0.197   0.437  1.00  0.00     0.148 C 
HETATM   16  C10 UNL     1      -4.267  -0.754  -0.065  1.00  0.00    -0.007 C 
HETATM   17  C11 UNL     1      -3.749  -1.939  -0.087  1.00  0.00    -0.002 C 
HETATM   18  C12 UNL     1      -2.455  -2.455   0.248  1.00  0.00    -0.000 C 
HETATM   19  C13 UNL     1      -1.217  -2.276   0.672  1.00  0.00    -0.000 C 
HETATM   20  C14 UNL     1      -0.132  -3.249   0.864  1.00  0.00    -0.004 C 
HETATM   21  C15 UNL     1       0.438  -3.565  -0.282  1.00  0.00    -0.082 C 
HETATM   22  B1  UNL     1       0.057  -2.249  -1.640  1.00  0.00     0.318 B 
HETATM   23  N5  UNL     1       0.782  -0.645  -1.136  1.00  0.00    -0.423 N 
HETATM   24  C16 UNL     1       2.186  -1.062  -1.111  1.00  0.00     0.118 C 
HETATM   25  C17 UNL     1       3.480  -1.319  -0.759  1.00  0.00     0.022 C 
HETATM   26  H4  UNL     1       2.661   0.918   0.321  1.00  0.00     0.159 HD
HETATM   27  H7  UNL     1       0.837   3.827  -2.816  1.00  0.00     0.083 HD
HETATM   28  H9  UNL     1      -3.212   0.968  -1.626  1.00  0.00     0.161 HD
ENDROOT
TORSDOF 0
