REMARK  3 active torsions:
REMARK  status: ('A' for Active; 'I' for Inactive)
REMARK    1  A    between atoms: N1_1  and  C1_2 
REMARK    2  A    between atoms: C9_12  and  O1_13 
REMARK    3  A    between atoms: O1_13  and  C10_14 
ROOT
HETATM    1  C1  UNL     1       3.946  -0.985   1.106  1.00  0.00     0.137 A 
HETATM    2  N2  UNL     1       5.163  -1.415   1.416  1.00  0.00    -0.224 NA
HETATM    3  C2  UNL     1       6.208  -1.109   0.591  1.00  0.00     0.235 A 
HETATM    4  N3  UNL     1       5.949  -0.378  -0.507  1.00  0.00    -0.244 NA
HETATM    5  C3  UNL     1       4.705   0.031  -0.776  1.00  0.00     0.072 A 
HETATM    6  C4  UNL     1       3.614  -0.243   0.007  1.00  0.00     0.065 A 
HETATM    7  C5  UNL     1       2.375   0.325  -0.475  1.00  0.00     0.077 A 
HETATM    8  C6  UNL     1       1.036   0.333   0.035  1.00  0.00    -0.007 A 
HETATM    9  C7  UNL     1       0.335  -0.297   1.005  1.00  0.00     0.016 A 
HETATM   10  C8  UNL     1      -0.937  -0.085   1.441  1.00  0.00     0.038 A 
HETATM   11  C9  UNL     1      -1.668   0.907   0.839  1.00  0.00     0.076 A 
HETATM   12  C16 UNL     1      -1.082   1.622  -0.160  1.00  0.00     0.038 A 
HETATM   13  C17 UNL     1       0.211   1.308  -0.506  1.00  0.00     0.016 A 
HETATM   14  N4  UNL     1       2.756   0.924  -1.525  1.00  0.00    -0.282 NA
HETATM   15  C18 UNL     1       4.123   0.841  -1.841  1.00  0.00     0.210 A 
ENDROOT
BRANCH   1  16
HETATM   16  N1  UNL     1       3.024  -1.352   2.094  1.00  0.00    -0.383 N 
HETATM   17  H1  UNL     1       2.820  -0.469   2.651  1.00  0.00     0.157 HD
HETATM   18  H2  UNL     1       2.793  -2.383   2.014  1.00  0.00     0.157 HD
ENDBRANCH   1  16
BRANCH  11  19
HETATM   19  O1  UNL     1      -2.960   1.161   1.244  1.00  0.00    -0.311 OA
BRANCH  19  20
HETATM   20  C10 UNL     1      -3.983   0.469   0.607  1.00  0.00     0.076 A 
HETATM   21  C11 UNL     1      -4.500   1.090  -0.511  1.00  0.00     0.037 A 
HETATM   22  C12 UNL     1      -5.515   0.562  -1.274  1.00  0.00     0.003 A 
HETATM   23  C13 UNL     1      -6.027  -0.666  -0.871  1.00  0.00     0.000 A 
HETATM   24  C14 UNL     1      -5.524  -1.315   0.254  1.00  0.00     0.003 A 
HETATM   25  C15 UNL     1      -4.492  -0.734   0.993  1.00  0.00     0.037 A 
ENDBRANCH  19  20
ENDBRANCH  11  19
TORSDOF 3
