REMARK  4 active torsions:
REMARK  status: ('A' for Active; 'I' for Inactive)
REMARK    1  A    between atoms: N1_1  and  C1_2 
REMARK    2  A    between atoms: C3_4  and  C4_5 
REMARK    3  A    between atoms: C7_8  and  O1_9 
REMARK    4  A    between atoms: O1_9  and  C8_10 
ROOT
HETATM    1  C1  UNL     1      -0.787   0.441  -2.428  1.00  0.00     0.145 A 
HETATM    2  C2  UNL     1      -1.246   0.138  -1.229  1.00  0.00     0.111 A 
HETATM    3  C3  UNL     1      -0.859   1.331  -0.497  1.00  0.00     0.097 C 
HETATM    4  N2  UNL     1      -1.543   2.347  -0.262  1.00  0.00    -0.258 NA
HETATM    5  C16 UNL     1      -2.860   2.686  -0.603  1.00  0.00     0.123 C 
HETATM    6  C17 UNL     1      -4.059   2.154  -0.464  1.00  0.00     0.093 C 
HETATM    7  C18 UNL     1      -4.291   0.898   0.177  1.00  0.00     0.244 C 
HETATM    8  O2  UNL     1      -5.463   0.634   0.201  1.00  0.00    -0.268 OA
HETATM    9  N3  UNL     1      -4.104  -0.371   0.861  1.00  0.00    -0.347 N 
HETATM   10  C19 UNL     1      -5.067  -1.392   1.373  1.00  0.00     0.126 C 
HETATM   11  C20 UNL     1      -4.753  -2.712   0.718  1.00  0.00     0.022 C 
HETATM   12  C21 UNL     1      -3.751  -2.548  -0.401  1.00  0.00     0.029 C 
HETATM   13  C22 UNL     1      -2.504  -1.842   0.023  1.00  0.00     0.109 C 
HETATM   14  C23 UNL     1      -2.859  -0.983   1.213  1.00  0.00     0.151 C 
HETATM   15  N4  UNL     1      -1.887  -1.107  -1.066  1.00  0.00    -0.329 N 
HETATM   16  C24 UNL     1      -1.956  -1.896  -2.256  1.00  0.00     0.233 A 
HETATM   17  N5  UNL     1      -1.514  -1.614  -3.432  1.00  0.00    -0.168 NA
HETATM   18  N6  UNL     1      -0.875  -0.383  -3.608  1.00  0.00    -0.260 N 
HETATM   19  H24 UNL     1      -0.501  -0.125  -4.569  1.00  0.00     0.191 HD
ENDROOT
BRANCH   3  20
HETATM   20  C4  UNL     1       0.501   1.390   0.005  1.00  0.00    -0.005 A 
HETATM   21  C5  UNL     1       0.992   2.511   0.692  1.00  0.00     0.016 A 
HETATM   22  C6  UNL     1       2.286   2.576   1.177  1.00  0.00     0.038 A 
HETATM   23  C7  UNL     1       3.150   1.488   0.982  1.00  0.00     0.076 A 
HETATM   24  C14 UNL     1       2.672   0.358   0.297  1.00  0.00     0.038 A 
HETATM   25  C15 UNL     1       1.382   0.360  -0.156  1.00  0.00     0.016 A 
BRANCH  23  26
HETATM   26  O1  UNL     1       4.399   1.710   1.522  1.00  0.00    -0.311 OA
BRANCH  26  27
HETATM   27  C8  UNL     1       5.436   0.822   1.504  1.00  0.00     0.076 A 
HETATM   28  C9  UNL     1       6.342   0.750   0.436  1.00  0.00     0.037 A 
HETATM   29  C10 UNL     1       7.388  -0.163   0.446  1.00  0.00     0.003 A 
HETATM   30  C11 UNL     1       7.573  -1.030   1.504  1.00  0.00     0.000 A 
HETATM   31  C12 UNL     1       6.658  -0.909   2.509  1.00  0.00     0.003 A 
HETATM   32  C13 UNL     1       5.595  -0.043   2.594  1.00  0.00     0.037 A 
ENDBRANCH  26  27
ENDBRANCH  23  26
ENDBRANCH   3  20
BRANCH   1  33
HETATM   33  N1  UNL     1      -0.160   1.695  -2.496  1.00  0.00    -0.382 N 
HETATM   34  H1  UNL     1       0.250   2.606  -2.271  1.00  0.00     0.157 HD
HETATM   35  H2  UNL     1       0.173   2.076  -3.405  1.00  0.00     0.157 HD
ENDBRANCH   1  33
TORSDOF 4
