REMARK  2 active torsions:
REMARK  status: ('A' for Active; 'I' for Inactive)
REMARK    1  A    between atoms: N4_10  and  C7_11 
REMARK       I    between atoms: N5_15  and  C11_16 
REMARK    2  A    between atoms: C11_16  and  C12_18 
ROOT
HETATM    1  C12 UNL     1      -5.310   1.102   0.384  1.00  0.00     0.226 C 
HETATM    2  C13 UNL     1      -5.585   2.511   0.730  1.00  0.00     0.068 C 
HETATM    3  N6  UNL     1      -5.809   3.637   0.997  1.00  0.00    -0.197 NA
ENDROOT
BRANCH   1   4
HETATM    4  C11 UNL     1      -4.019   1.027  -0.372  1.00  0.00     0.232 C 
HETATM    5  N5  UNL     1      -2.962   0.142  -0.051  1.00  0.00    -0.349 N 
HETATM    6  C10 UNL     1      -2.786  -0.832   1.014  1.00  0.00     0.128 C 
HETATM    7  C14 UNL     1      -1.795   0.152  -0.916  1.00  0.00     0.152 C 
HETATM    8  C9  UNL     1      -1.287  -1.034   1.064  1.00  0.00     0.048 C 
HETATM    9  C7  UNL     1      -0.863  -0.876  -0.380  1.00  0.00     0.047 C 
HETATM   10  C8  UNL     1      -1.000  -2.218  -1.027  1.00  0.00     0.036 C 
HETATM   11  O1  UNL     1      -4.122   1.885  -1.287  1.00  0.00    -0.272 OA
BRANCH   9  12
HETATM   12  N4  UNL     1       0.490  -0.348  -0.425  1.00  0.00    -0.215 NA
HETATM   13  N3  UNL     1       0.892  -0.199  -1.758  1.00  0.00    -0.312 N 
HETATM   14  C6  UNL     1       2.218  -0.132  -2.316  1.00  0.00     0.221 C 
HETATM   15  H7  UNL     1       0.136  -0.124  -2.469  1.00  0.00     0.181 HD
HETATM   16  N2  UNL     1       3.373   0.050  -1.716  1.00  0.00    -0.225 NA
HETATM   17  C5  UNL     1       3.490   0.225  -0.284  1.00  0.00     0.138 A 
HETATM   18  N1  UNL     1       4.464   0.941   0.351  1.00  0.00    -0.346 N 
HETATM   19  C4  UNL     1       2.616  -0.321   0.667  1.00  0.00     0.004 A 
HETATM   20  C1  UNL     1       5.544   1.651  -0.304  1.00  0.00     0.157 C 
HETATM   21  C2  UNL     1       4.242   0.870   1.672  1.00  0.00     0.093 A 
HETATM   22  C3  UNL     1       3.111   0.099   1.899  1.00  0.00     0.029 A 
HETATM   23  C15 UNL     1       1.419  -1.170   0.326  1.00  0.00     0.157 C 
ENDBRANCH   9  12
ENDBRANCH   1   4
TORSDOF 2
