REMARK  4 active torsions:
REMARK  status: ('A' for Active; 'I' for Inactive)
REMARK    1  A    between atoms: C2_2  and  C3_3 
REMARK       I    between atoms: C3_3  and  N1_5 
REMARK    2  A    between atoms: C8_11  and  O3_12 
REMARK    3  A    between atoms: O3_12  and  C9_13 
REMARK    4  A    between atoms: C19_24  and  N3_25 
ROOT
HETATM    1  C3  UNL     1      -4.369   1.549   1.821  1.00  0.00     0.242 C 
HETATM    2  O1  UNL     1      -4.127   2.764   2.027  1.00  0.00    -0.268 OA
HETATM    3  N1  UNL     1      -3.208   0.880   2.254  1.00  0.00    -0.347 N 
HETATM    4  C4  UNL     1      -2.142   1.696   2.769  1.00  0.00     0.127 C 
HETATM    5  C5  UNL     1      -0.818   1.082   2.379  1.00  0.00     0.029 C 
HETATM    6  C6  UNL     1      -0.913   0.368   1.023  1.00  0.00     0.036 C 
HETATM    7  C7  UNL     1       0.477   0.011   0.636  1.00  0.00     0.184 C 
HETATM    8  O2  UNL     1       0.629  -0.151  -0.772  1.00  0.00    -0.330 OA
HETATM    9  C8  UNL     1       1.886  -0.131  -1.359  1.00  0.00     0.182 C 
HETATM   10  C15 UNL     1       3.118  -0.409  -1.703  1.00  0.00     0.043 C 
HETATM   11  C16 UNL     1       4.161  -1.378  -1.426  1.00  0.00     0.087 C 
HETATM   12  C17 UNL     1       3.790  -2.486  -0.502  1.00  0.00     0.019 C 
HETATM   13  N2  UNL     1       4.555  -2.419   0.587  1.00  0.00    -0.308 NA
HETATM   14  C18 UNL     1       2.733  -3.105  -1.342  1.00  0.00     0.113 C 
HETATM   15  C19 UNL     1       1.828  -4.052  -1.552  1.00  0.00     0.089 C 
HETATM   16  N4  UNL     1       1.149  -5.250  -1.134  1.00  0.00    -0.237 NA
HETATM   17  C20 UNL     1      -0.061  -5.303  -1.508  1.00  0.00     0.106 C 
HETATM   18  C21 UNL     1      -0.727  -4.192  -1.657  1.00  0.00     0.151 C 
HETATM   19  N5  UNL     1      -0.239  -3.155  -0.779  1.00  0.00    -0.254 NA
HETATM   20  C22 UNL     1      -1.073  -2.887   0.192  1.00  0.00     0.202 C 
HETATM   21  N6  UNL     1      -1.248  -2.043   1.347  1.00  0.00    -0.378 N 
HETATM   22  C23 UNL     1      -1.877  -0.760   1.138  1.00  0.00     0.106 C 
HETATM   23  C24 UNL     1      -2.871  -0.542   2.278  1.00  0.00     0.151 C 
HETATM   24  H19 UNL     1       4.417  -3.130   1.335  1.00  0.00     0.186 HD
HETATM   25  H25 UNL     1      -0.939  -2.332   2.306  1.00  0.00     0.160 HD
ENDROOT
BRANCH   9  26
HETATM   26  O3  UNL     1       1.199   0.950  -1.887  1.00  0.00    -0.288 OA
BRANCH  26  27
HETATM   27  C9  UNL     1       1.646   2.241  -1.653  1.00  0.00     0.078 A 
HETATM   28  C10 UNL     1       0.867   3.213  -2.239  1.00  0.00     0.037 A 
HETATM   29  C11 UNL     1       1.159   4.550  -2.113  1.00  0.00     0.003 A 
HETATM   30  C12 UNL     1       2.270   4.939  -1.372  1.00  0.00     0.000 A 
HETATM   31  C13 UNL     1       3.025   3.953  -0.800  1.00  0.00     0.003 A 
HETATM   32  C14 UNL     1       2.751   2.598  -0.915  1.00  0.00     0.037 A 
ENDBRANCH  26  27
ENDBRANCH   9  26
BRANCH  15  33
HETATM   33  N3  UNL     1       1.534  -3.403  -2.786  1.00  0.00    -0.290 NA
HETATM   34  H21 UNL     1       1.811  -3.257  -3.778  1.00  0.00     0.125 HD
HETATM   35  H22 UNL     1       1.768  -3.220  -3.802  1.00  0.00     0.125 HD
ENDBRANCH  15  33
BRANCH   1  36
HETATM   36  C2  UNL     1      -5.677   1.314   1.249  1.00  0.00     0.064 C 
HETATM   37  C1  UNL     1      -6.166   2.556   1.149  1.00  0.00     0.017 C 
ENDBRANCH   1  36
TORSDOF 4
