REMARK  5 active torsions:
REMARK  status: ('A' for Active; 'I' for Inactive)
REMARK    1  A    between atoms: N1_5  and  C5_6 
REMARK    2  A    between atoms: C5_6  and  C6_7 
REMARK    3  A    between atoms: C6_7  and  O1_8 
REMARK    4  A    between atoms: C8_10  and  N2_11 
REMARK    5  A    between atoms: N2_11  and  N3_13 
ROOT
HETATM    1  C1  UNL     1       1.693  -1.305   2.453  1.00  0.00     0.011 C 
HETATM    2  C2  UNL     1       1.648  -0.768   1.071  1.00  0.00     0.004 C 
HETATM    3  C3  UNL     1       2.434  -1.637   0.082  1.00  0.00     0.025 C 
HETATM    4  C4  UNL     1       2.059  -1.202  -1.293  1.00  0.00     0.117 C 
HETATM    5  N1  UNL     1       1.518   0.083  -1.459  1.00  0.00    -0.409 N 
HETATM    6  C7  UNL     1       0.477   0.503  -0.596  1.00  0.00     0.138 C 
HETATM    7  C8  UNL     1       0.294  -0.578   0.457  1.00  0.00     0.101 C 
ENDROOT
BRANCH   7   8
HETATM    8  N2  UNL     1      -0.792  -0.368   1.333  1.00  0.00    -0.221 NA
HETATM    9  C9  UNL     1      -1.155  -1.532   2.067  1.00  0.00     0.137 C 
BRANCH   8  10
HETATM   10  N3  UNL     1      -1.886   0.277   0.754  1.00  0.00    -0.271 N 
HETATM   11  C10 UNL     1      -1.884   1.696   0.799  1.00  0.00     0.222 A 
HETATM   12  N4  UNL     1      -2.799   2.512   0.430  1.00  0.00    -0.264 NA
HETATM   13  C11 UNL     1      -4.100   2.397  -0.135  1.00  0.00     0.271 A 
HETATM   14  N5  UNL     1      -4.537   1.078  -0.459  1.00  0.00    -0.373 N 
HETATM   15  C12 UNL     1      -4.107  -0.289  -0.386  1.00  0.00     0.037 A 
HETATM   16  H23 UNL     1      -5.501   1.160  -0.894  1.00  0.00     0.161 HD
HETATM   17  C13 UNL     1      -2.882  -0.561   0.184  1.00  0.00     0.058 A 
HETATM   18  C14 UNL     1      -3.679  -1.706  -0.318  1.00  0.00     0.119 A 
ENDBRANCH   8  10
ENDBRANCH   7   8
BRANCH   5  19
HETATM   19  C5  UNL     1       2.346   1.094  -2.008  1.00  0.00     0.143 C 
BRANCH  19  20
HETATM   20  C6  UNL     1       3.493   1.558  -1.168  1.00  0.00     0.183 C 
BRANCH  20  21
HETATM   21  O1  UNL     1       4.183   2.547  -1.872  1.00  0.00    -0.399 OA
HETATM   22  H13 UNL     1       5.045   2.219  -2.257  1.00  0.00     0.209 HD
ENDBRANCH  20  21
ENDBRANCH  19  20
ENDBRANCH   5  19
TORSDOF 5
