REMARK  3 active torsions:
REMARK  status: ('A' for Active; 'I' for Inactive)
REMARK    1  A    between atoms: C14_17  and  C15_18 
REMARK    2  A    between atoms: C15_18  and  C16_19 
REMARK       I    between atoms: C16_19  and  N2_21 
REMARK    3  A    between atoms: N2_21  and  C17_22 
ROOT
HETATM    1  C1  UNL     1      -1.776  -2.160  -3.508  1.00  0.00     0.038 C 
HETATM    2  C2  UNL     1      -2.396  -1.145  -2.637  1.00  0.00    -0.000 C 
HETATM    3  C3  UNL     1      -2.393  -0.740  -1.397  1.00  0.00     0.045 C 
HETATM    4  C4  UNL     1      -3.323   0.407  -1.245  1.00  0.00     0.048 C 
HETATM    5  C5  UNL     1      -4.141   1.448  -0.985  1.00  0.00     0.042 C 
HETATM    6  C6  UNL     1      -4.948   2.136  -1.963  1.00  0.00     0.252 C 
HETATM    7  O1  UNL     1      -4.726   1.641  -3.079  1.00  0.00    -0.268 OA
HETATM    8  N1  UNL     1      -5.644   3.088  -1.176  1.00  0.00    -0.353 N 
HETATM    9  C7  UNL     1      -5.759   2.444   0.160  1.00  0.00     0.162 C 
HETATM   10  C8  UNL     1      -4.377   2.019   0.381  1.00  0.00    -0.025 C 
HETATM   11  C9  UNL     1      -3.383   2.030   1.288  1.00  0.00     0.030 C 
HETATM   12  C10 UNL     1      -2.039   1.574   1.099  1.00  0.00     0.166 C 
HETATM   13  F1  UNL     1      -2.057   2.149  -0.165  1.00  0.00    -0.234 F 
HETATM   14  C11 UNL     1      -0.914   1.124   0.560  1.00  0.00     0.047 C 
HETATM   15  C12 UNL     1       0.382   0.792   1.191  1.00  0.00     0.067 C 
HETATM   16  C13 UNL     1       0.652  -0.667   0.768  1.00  0.00     0.023 C 
HETATM   17  C14 UNL     1       1.730  -1.279   0.385  1.00  0.00     0.009 C 
HETATM   18  N3  UNL     1      -0.571  -1.492   0.650  1.00  0.00    -0.305 N 
HETATM   19  N4  UNL     1      -1.483  -1.249  -0.417  1.00  0.00    -0.301 N 
HETATM   20  H6  UNL     1      -5.884   3.950  -1.735  1.00  0.00     0.163 HD
HETATM   21  H22 UNL     1      -0.654  -2.201   1.397  1.00  0.00     0.186 HD
HETATM   22  H23 UNL     1      -1.420  -2.273  -0.712  1.00  0.00     0.187 HD
ENDROOT
BRANCH  17  23
HETATM   23  C15 UNL     1       3.061  -0.633   0.263  1.00  0.00     0.132 C 
BRANCH  23  24
HETATM   24  C16 UNL     1       4.102  -1.305   1.044  1.00  0.00     0.221 C 
HETATM   25  O2  UNL     1       4.014  -2.351   1.754  1.00  0.00    -0.273 OA
HETATM   26  N2  UNL     1       5.384  -0.658   0.965  1.00  0.00    -0.361 N 
HETATM   27  H16 UNL     1       5.611   0.209   0.419  1.00  0.00     0.162 HD
BRANCH  26  28
HETATM   28  C17 UNL     1       6.457  -1.297   1.716  1.00  0.00     0.118 C 
HETATM   29  C18 UNL     1       7.744  -0.555   1.601  1.00  0.00     0.026 C 
ENDBRANCH  26  28
ENDBRANCH  23  24
ENDBRANCH  17  23
TORSDOF 3
