REMARK  4 active torsions:
REMARK  status: ('A' for Active; 'I' for Inactive)
REMARK    1  A    between atoms: O1_2  and  C2_3 
REMARK    2  A    between atoms: C6_7  and  O2_8 
REMARK    3  A    between atoms: O2_8  and  C7_9 
REMARK    4  A    between atoms: N1_13  and  C10_14 
ROOT
HETATM    1  C2  UNL     1       2.516  -1.061   1.488  1.00  0.00     0.073 A 
HETATM    2  C3  UNL     1       2.241  -2.203   0.764  1.00  0.00     0.070 A 
HETATM    3  C4  UNL     1       1.165  -2.166  -0.097  1.00  0.00     0.083 A 
HETATM    4  C5  UNL     1       0.414  -1.015  -0.207  1.00  0.00     0.102 A 
HETATM    5  C6  UNL     1       0.667   0.137   0.503  1.00  0.00     0.104 A 
HETATM    6  C9  UNL     1       1.750   0.059   1.352  1.00  0.00     0.076 A 
HETATM    7  N1  UNL     1      -0.691  -0.973  -1.098  1.00  0.00    -0.300 N 
HETATM    8  C16 UNL     1      -0.989  -2.141  -1.865  1.00  0.00     0.237 A 
HETATM    9  N2  UNL     1      -0.296  -3.249  -1.785  1.00  0.00    -0.169 NA
HETATM   10  N3  UNL     1       0.789  -3.279  -0.902  1.00  0.00    -0.275 N 
HETATM   11  H14 UNL     1       1.361  -4.141  -0.813  1.00  0.00     0.189 HD
ENDROOT
BRANCH   7  12
HETATM   12  C10 UNL     1      -1.610   0.064  -1.341  1.00  0.00     0.042 A 
HETATM   13  C11 UNL     1      -1.491   0.518  -2.661  1.00  0.00     0.033 A 
HETATM   14  C12 UNL     1      -2.313   1.537  -3.155  1.00  0.00     0.046 A 
HETATM   15  C13 UNL     1      -3.269   2.126  -2.355  1.00  0.00     0.138 A 
HETATM   16  F2  UNL     1      -4.105   3.116  -2.750  1.00  0.00    -0.204 F 
HETATM   17  C14 UNL     1      -3.377   1.670  -1.060  1.00  0.00     0.074 A 
HETATM   18 CL1  UNL     1      -4.552   2.333   0.063  1.00  0.00    -0.081 Cl
HETATM   19  C15 UNL     1      -2.591   0.684  -0.558  1.00  0.00     0.057 A 
ENDBRANCH   7  12
BRANCH   5  20
HETATM   20  O2  UNL     1      -0.100   1.246   0.358  1.00  0.00    -0.314 OA
BRANCH  20  21
HETATM   21  C7  UNL     1      -0.004   2.483   0.973  1.00  0.00     0.309 C 
HETATM   22  C8  UNL     1      -1.226   2.849   1.789  1.00  0.00     0.076 C 
HETATM   23  F1  UNL     1       0.238   3.524   0.100  1.00  0.00    -0.220 F 
ENDBRANCH  20  21
ENDBRANCH   5  20
BRANCH   1  24
HETATM   24  O1  UNL     1       3.606  -1.128   2.348  1.00  0.00    -0.356 OA
HETATM   25  C1  UNL     1       4.380  -2.281   2.475  1.00  0.00     0.210 C 
ENDBRANCH   1  24
TORSDOF 4
