REMARK  5 active torsions:
REMARK  status: ('A' for Active; 'I' for Inactive)
REMARK    1  A    between atoms: C3_3  and  C4_4 
REMARK    2  A    between atoms: C4_4  and  C5_5 
REMARK    3  A    between atoms: C6_6  and  C7_7 
REMARK    4  A    between atoms: C7_7  and  C8_8 
REMARK    5  A    between atoms: C18_20  and  S1_21 
ROOT
HETATM    1  C7  UNL     1       0.017  -1.170   0.015  1.00  0.00     0.297 C 
HETATM    2  N1  UNL     1       0.235  -0.725   1.343  1.00  0.00    -0.253 NA
HETATM    3  C14 UNL     1      -0.645   0.133   1.652  1.00  0.00     0.137 C 
HETATM    4  C15 UNL     1      -1.575   0.344   0.500  1.00  0.00     0.232 A 
HETATM    5  C16 UNL     1      -1.354   1.582  -0.236  1.00  0.00     0.026 A 
HETATM    6  C17 UNL     1      -2.440   2.369  -0.140  1.00  0.00     0.020 A 
HETATM    7  C18 UNL     1      -3.403   1.655   0.669  1.00  0.00     0.030 A 
HETATM    8  C20 UNL     1      -2.943   0.476   1.061  1.00  0.00     0.045 A 
HETATM    9  N2  UNL     1      -1.373  -0.871  -0.259  1.00  0.00     0.145 N 
HETATM   10  H21 UNL     1      -1.935  -1.623   0.187  1.00  0.00     0.322 HD
ENDROOT
BRANCH   1  11
HETATM   11  C6  UNL     1       0.928  -0.365  -0.857  1.00  0.00     0.040 C 
HETATM   12  C5  UNL     1       1.995   0.251  -0.373  1.00  0.00    -0.022 C 
BRANCH  12  13
HETATM   13  C4  UNL     1       3.023   1.098  -1.074  1.00  0.00     0.053 C 
BRANCH  13  14
HETATM   14  C3  UNL     1       3.068   2.461  -0.525  1.00  0.00    -0.027 C 
HETATM   15  C2  UNL     1       4.102   3.055   0.033  1.00  0.00    -0.035 C 
HETATM   16  C1  UNL     1       5.400   2.387   0.179  1.00  0.00     0.036 C 
ENDBRANCH  13  14
ENDBRANCH  12  13
ENDBRANCH   1  11
BRANCH   1  17
HETATM   17  C8  UNL     1       0.288  -2.627  -0.142  1.00  0.00     0.006 A 
HETATM   18  C9  UNL     1       0.358  -3.377   1.025  1.00  0.00     0.015 A 
HETATM   19  C10 UNL     1       0.605  -4.730   0.987  1.00  0.00     0.043 A 
HETATM   20  C11 UNL     1       0.777  -5.309  -0.238  1.00  0.00     0.116 A 
HETATM   21  F1  UNL     1       1.020  -6.648  -0.270  1.00  0.00    -0.206 F 
HETATM   22  C12 UNL     1       0.708  -4.565  -1.397  1.00  0.00     0.043 A 
HETATM   23  C13 UNL     1       0.459  -3.193  -1.368  1.00  0.00     0.015 A 
ENDBRANCH   1  17
BRANCH   7  24
HETATM   24  S1  UNL     1      -5.005   2.293   1.079  1.00  0.00     0.045 S 
HETATM   25  C19 UNL     1      -6.009   2.579  -0.357  1.00  0.00     0.133 C 
HETATM   26  O1  UNL     1      -5.706   1.479   2.135  1.00  0.00    -0.253 OA
ENDBRANCH   7  24
TORSDOF 5
