REMARK  0 active torsions:
REMARK  status: ('A' for Active; 'I' for Inactive)
ROOT
HETATM    1  C1  UNL     1      -1.272   3.779   0.781  1.00  0.00     0.020 C 
HETATM    2  C2  UNL     1      -0.690   2.639   0.345  1.00  0.00    -0.040 C 
HETATM    3  C3  UNL     1       0.725   2.795   0.159  1.00  0.00     0.009 C 
HETATM    4  C4  UNL     1       1.749   2.062  -0.218  1.00  0.00     0.018 C 
HETATM    5  C5  UNL     1       1.767   0.637  -0.629  1.00  0.00     0.019 A 
HETATM    6  S1  UNL     1       3.256  -0.215  -1.129  1.00  0.00    -0.017 S 
HETATM    7  C6  UNL     1       3.888   0.622  -2.588  1.00  0.00     0.120 C 
HETATM    8  O1  UNL     1       4.274   0.011   0.005  1.00  0.00    -0.265 OA
HETATM    9  C7  UNL     1       1.548  -0.619  -0.951  1.00  0.00     0.152 A 
HETATM   10  C8  UNL     1       0.538  -1.629  -1.067  1.00  0.00    -0.000 C 
HETATM   11  C9  UNL     1       0.856  -2.740  -0.366  1.00  0.00    -0.007 C 
HETATM   12  C10 UNL     1       0.150  -3.069   0.924  1.00  0.00     0.063 C 
HETATM   13  C11 UNL     1      -1.206  -2.523   0.978  1.00  0.00    -0.066 C 
HETATM   14  C12 UNL     1      -1.766  -2.976  -0.170  1.00  0.00     0.053 C 
HETATM   15  S2  UNL     1      -1.023  -2.263  -1.670  1.00  0.00    -0.105 SA
HETATM   16  C13 UNL     1      -2.274  -1.737   1.636  1.00  0.00     0.104 C 
HETATM   17  C14 UNL     1      -2.595  -0.473   0.905  1.00  0.00     0.406 C 
HETATM   18  F1  UNL     1      -3.669   0.136   1.590  1.00  0.00    -0.216 F 
HETATM   19  N1  UNL     1      -1.460   0.469   1.045  1.00  0.00     0.121 N 
HETATM   20  C15 UNL     1      -1.733   1.639   0.193  1.00  0.00     0.311 C 
HETATM   21  H16 UNL     1      -1.429   0.815   2.025  1.00  0.00     0.320 HD
ENDROOT
TORSDOF 0
