REMARK  10 active torsions:
REMARK  status: ('A' for Active; 'I' for Inactive)
REMARK    1  A    between atoms: O1_2  and  C2_3 
REMARK    2  A    between atoms: C2_3  and  C3_4 
REMARK    3  A    between atoms: C3_4  and  C4_5 
REMARK    4  A    between atoms: C5_6  and  N1_7 
REMARK    5  A    between atoms: C6_8  and  O2_9 
REMARK    6  A    between atoms: O2_9  and  C7_10 
REMARK    7  A    between atoms: C11_14  and  C12_15 
REMARK    8  A    between atoms: C12_15  and  C13_16 
REMARK    9  A    between atoms: C12_15  and  N3_18 
REMARK   10  A    between atoms: N3_18  and  C14_19 
ROOT
HETATM    1  C4  UNL     1      -0.215  -0.874  -0.354  1.00  0.00    -0.027 C 
HETATM    2  C5  UNL     1      -1.027  -0.248   0.660  1.00  0.00     0.061 C 
HETATM    3  C6  UNL     1      -1.572   1.010   0.050  1.00  0.00     0.174 C 
HETATM    4  C10 UNL     1      -0.526   1.398  -0.992  1.00  0.00     0.050 C 
HETATM    5  C11 UNL     1       0.436   0.255  -1.069  1.00  0.00     0.051 C 
ENDROOT
BRANCH   5   6
HETATM    6  C12 UNL     1       1.794   0.505  -0.536  1.00  0.00     0.129 C 
BRANCH   6   7
HETATM    7  C13 UNL     1       2.605  -0.730  -0.725  1.00  0.00     0.105 C 
HETATM    8  N2  UNL     1       2.916  -1.567   0.194  1.00  0.00    -0.314 NA
HETATM    9  H21 UNL     1       2.594  -1.396   1.140  1.00  0.00     0.185 HD
ENDBRANCH   6   7
BRANCH   6  10
HETATM   10  N3  UNL     1       1.861   0.832   0.859  1.00  0.00    -0.388 N 
HETATM   11  H22 UNL     1       1.444   1.012   1.814  1.00  0.00     0.159 HD
BRANCH  10  12
HETATM   12  C14 UNL     1       3.184   1.072   1.363  1.00  0.00     0.102 C 
HETATM   13  C15 UNL     1       3.615   2.286   1.083  1.00  0.00     0.023 C 
HETATM   14  C16 UNL     1       4.935   2.907   1.437  1.00  0.00     0.063 C 
HETATM   15 CL1  UNL     1       2.739   3.540   0.195  1.00  0.00    -0.088 Cl
ENDBRANCH  10  12
ENDBRANCH   6  10
ENDBRANCH   5   6
BRANCH   1  16
HETATM   16  C3  UNL     1      -0.071  -2.158  -0.619  1.00  0.00     0.009 C 
BRANCH  16  17
HETATM   17  C2  UNL     1      -0.613  -3.414  -0.067  1.00  0.00     0.195 C 
BRANCH  17  18
HETATM   18  O1  UNL     1       0.342  -4.283   0.431  1.00  0.00    -0.392 OA
HETATM   19  C1  UNL     1       1.265  -4.705  -0.490  1.00  0.00     0.201 C 
ENDBRANCH  17  18
ENDBRANCH  16  17
ENDBRANCH   1  16
BRANCH   2  20
HETATM   20  N1  UNL     1      -1.255  -0.652   1.859  1.00  0.00    -0.301 NA
HETATM   21  H7  UNL     1      -0.873  -1.514   2.276  1.00  0.00     0.186 HD
ENDBRANCH   2  20
BRANCH   3  22
HETATM   22  O2  UNL     1      -2.797   0.703  -0.492  1.00  0.00    -0.375 OA
BRANCH  22  23
HETATM   23  C7  UNL     1      -3.843   1.408   0.094  1.00  0.00     0.114 C 
HETATM   24  C8  UNL     1      -4.892   0.524   0.688  1.00  0.00     0.039 C 
HETATM   25  C9  UNL     1      -4.491   2.253  -0.983  1.00  0.00     0.039 C 
ENDBRANCH  22  23
ENDBRANCH   3  22
TORSDOF 10
