REMARK  5 active torsions:
REMARK  status: ('A' for Active; 'I' for Inactive)
REMARK    1  A    between atoms: C2_2  and  C3_3 
REMARK    2  A    between atoms: C3_3  and  C4_4 
REMARK    3  A    between atoms: C7_7  and  O1_8 
REMARK    4  A    between atoms: C9_11  and  N2_12 
REMARK    5  A    between atoms: N2_12  and  C10_13 
ROOT
HETATM    1  C4  UNL     1      -2.256  -1.636  -0.674  1.00  0.00     0.083 C 
HETATM    2  C5  UNL     1      -1.457  -1.876   0.617  1.00  0.00     0.030 C 
HETATM    3  C6  UNL     1      -0.035  -1.503   0.171  1.00  0.00     0.065 C 
HETATM    4  C7  UNL     1       0.934  -1.367   1.288  1.00  0.00     0.168 C 
HETATM    5  C8  UNL     1       2.172  -2.176   0.976  1.00  0.00     0.230 C 
HETATM    6  N1  UNL     1       2.837  -1.354  -0.016  1.00  0.00    -0.102 NA
HETATM    7  C9  UNL     1       2.417  -0.147   0.114  1.00  0.00     0.701 C 
HETATM    8  N3  UNL     1       1.451   0.020   1.174  1.00  0.00    -0.180 N 
HETATM    9  C16 UNL     1       1.198   1.272   1.834  1.00  0.00     0.171 C 
HETATM   10  C17 UNL     1      -0.050   1.380   2.605  1.00  0.00     0.188 C 
HETATM   11  O2  UNL     1      -1.274   1.300   2.121  1.00  0.00    -0.389 OA
HETATM   12  C18 UNL     1      -1.917   2.084   1.296  1.00  0.00     0.175 C 
HETATM   13  C19 UNL     1      -1.542   2.172  -0.136  1.00  0.00     0.104 C 
HETATM   14  C20 UNL     1      -1.908   0.945  -0.885  1.00  0.00     0.096 C 
HETATM   15  N4  UNL     1      -2.948   1.032  -1.646  1.00  0.00    -0.282 NA
HETATM   16  C21 UNL     1      -3.705   2.233  -1.763  1.00  0.00     0.179 C 
HETATM   17  N5  UNL     1      -1.780  -0.408  -1.283  1.00  0.00    -0.374 N 
HETATM   18  H30 UNL     1      -1.204  -0.465  -2.194  1.00  0.00     0.161 HD
ENDROOT
BRANCH   7  19
HETATM   19  N2  UNL     1       2.949   0.853  -0.780  1.00  0.00    -0.184 N 
HETATM   20  H16 UNL     1       2.441   1.785  -0.835  1.00  0.00     0.184 HD
BRANCH  19  21
HETATM   21  C10 UNL     1       4.126   0.621  -1.583  1.00  0.00     0.126 A 
HETATM   22  C11 UNL     1       5.261   1.012  -0.878  1.00  0.00     0.149 A 
HETATM   23  F1  UNL     1       5.300   1.536   0.377  1.00  0.00    -0.203 F 
HETATM   24  C12 UNL     1       6.515   0.880  -1.455  1.00  0.00     0.087 A 
HETATM   25  C13 UNL     1       6.639   0.355  -2.746  1.00  0.00     0.122 A 
HETATM   26  F2  UNL     1       7.852   0.209  -3.352  1.00  0.00    -0.206 F 
HETATM   27  C14 UNL     1       5.486  -0.016  -3.402  1.00  0.00     0.087 A 
HETATM   28  C15 UNL     1       4.244   0.104  -2.852  1.00  0.00     0.149 A 
HETATM   29  F3  UNL     1       3.057  -0.223  -3.395  1.00  0.00    -0.203 F 
ENDBRANCH  19  21
ENDBRANCH   7  19
BRANCH   4  30
HETATM   30  O1  UNL     1       0.486  -1.673   2.538  1.00  0.00    -0.368 OA
HETATM   31  H13 UNL     1       0.788  -2.579   2.868  1.00  0.00     0.212 HD
ENDBRANCH   4  30
BRANCH   1  32
HETATM   32  C3  UNL     1      -3.692  -1.868  -0.599  1.00  0.00     0.024 C 
BRANCH  32  33
HETATM   33  C2  UNL     1      -4.549  -1.127   0.345  1.00  0.00    -0.002 C 
HETATM   34  C1  UNL     1      -4.245  -1.312   1.810  1.00  0.00     0.005 C 
ENDBRANCH  32  33
ENDBRANCH   1  32
TORSDOF 5
