REMARK  4 active torsions:
REMARK  status: ('A' for Active; 'I' for Inactive)
REMARK    1  A    between atoms: N1_1  and  O1_2 
REMARK    2  A    between atoms: O1_2  and  C1_3 
REMARK    3  A    between atoms: N2_6  and  C4_7 
REMARK    4  A    between atoms: C12_18  and  C13_19 
ROOT
HETATM    1  C4  UNL     1       0.351  -0.421   0.115  1.00  0.00     0.136 A 
HETATM    2  N3  UNL     1       0.943  -1.572   0.207  1.00  0.00    -0.245 NA
HETATM    3  C5  UNL     1       0.211  -2.730   0.669  1.00  0.00     0.117 A 
HETATM    4  C6  UNL     1      -1.040  -2.402   0.950  1.00  0.00     0.037 A 
HETATM    5  C7  UNL     1      -1.837  -1.113   0.892  1.00  0.00     0.217 A 
HETATM    6  C8  UNL     1      -3.153  -1.443   0.254  1.00  0.00     0.119 C 
HETATM    7  C9  UNL     1      -2.917  -2.422  -0.850  1.00  0.00     0.099 C 
HETATM    8  F1  UNL     1      -3.097  -3.768  -0.707  1.00  0.00    -0.211 F 
HETATM    9  C10 UNL     1      -2.512  -2.245  -2.128  1.00  0.00     0.082 C 
HETATM   10  C11 UNL     1      -2.189  -0.933  -2.757  1.00  0.00     0.143 C 
HETATM   11  F2  UNL     1      -2.310  -0.904  -4.124  1.00  0.00    -0.204 F 
HETATM   12  C12 UNL     1      -1.784   0.249  -2.238  1.00  0.00     0.074 C 
HETATM   13  N4  UNL     1      -1.515   0.623  -0.868  1.00  0.00    -0.368 N 
HETATM   14  C14 UNL     1      -1.076   0.025   0.385  1.00  0.00     0.159 A 
HETATM   15  C15 UNL     1      -1.077   1.061   1.454  1.00  0.00     0.193 C 
HETATM   16  O2  UNL     1      -2.244   1.814   1.443  1.00  0.00    -0.381 OA
HETATM   17  C16 UNL     1      -2.419   2.277   2.757  1.00  0.00     0.170 C 
HETATM   18  C17 UNL     1      -2.030   1.138   3.674  1.00  0.00     0.064 C 
HETATM   19  C18 UNL     1      -1.276   0.230   2.701  1.00  0.00     0.255 C 
HETATM   20  N5  UNL     1      -2.121  -0.853   2.315  1.00  0.00     0.107 N 
HETATM   21  H15 UNL     1      -1.706   1.672  -0.801  1.00  0.00     0.161 HD
HETATM   22  H22 UNL     1      -1.913  -1.673   2.913  1.00  0.00     0.318 HD
ENDROOT
BRANCH   1  23
HETATM   23  N2  UNL     1       1.341   0.502  -0.363  1.00  0.00    -0.367 N 
HETATM   24  C3  UNL     1       2.002   1.622   0.287  1.00  0.00     0.127 C 
HETATM   25  C2  UNL     1       3.402   1.752  -0.280  1.00  0.00     0.054 C 
HETATM   26  C1  UNL     1       3.943   0.357  -0.474  1.00  0.00     0.148 C 
HETATM   27  C20 UNL     1       3.178  -0.317  -1.612  1.00  0.00     0.054 C 
HETATM   28  C19 UNL     1       1.846   0.387  -1.740  1.00  0.00     0.127 C 
BRANCH  26  29
HETATM   29  O1  UNL     1       5.304   0.374  -0.802  1.00  0.00    -0.303 OA
BRANCH  29  30
HETATM   30  N1  UNL     1       6.004  -0.291   0.153  1.00  0.00    -0.215 NA
HETATM   31  H1  UNL     1       6.827  -0.722  -0.327  1.00  0.00     0.150 HD
HETATM   32  H2  UNL     1       5.408  -1.102   0.484  1.00  0.00     0.150 HD
ENDBRANCH  29  30
ENDBRANCH  26  29
ENDBRANCH   1  23
BRANCH  12  33
HETATM   33  C13 UNL     1      -1.579   1.318  -3.275  1.00  0.00     0.282 C 
HETATM   34  F3  UNL     1      -2.417   2.373  -3.006  1.00  0.00    -0.249 F 
ENDBRANCH  12  33
TORSDOF 4
