REMARK  3 active torsions:
REMARK  status: ('A' for Active; 'I' for Inactive)
REMARK    1  A    between atoms: C5_5  and  N1_6 
REMARK    2  A    between atoms: N2_11  and  C10_12 
REMARK    3  A    between atoms: C10_12  and  C11_13 
ROOT
HETATM    1  N1  UNL     1      -2.773  -0.932  -0.630  1.00  0.00    -0.405 N 
HETATM    2  C6  UNL     1      -2.210  -0.057  -1.593  1.00  0.00     0.118 C 
HETATM    3  C7  UNL     1      -0.728  -0.359  -1.630  1.00  0.00     0.037 C 
HETATM    4  C8  UNL     1      -0.435  -1.107  -0.346  1.00  0.00     0.021 C 
HETATM    5  C9  UNL     1       0.120  -0.187   0.719  1.00  0.00     0.137 C 
HETATM    6  N2  UNL     1       1.530  -0.065   0.532  1.00  0.00    -0.184 NA
HETATM    7  O1  UNL     1       2.176  -1.228   0.770  1.00  0.00    -0.261 OA
HETATM    8  C18 UNL     1       1.846  -2.291  -0.063  1.00  0.00     0.099 A 
HETATM    9  C19 UNL     1       2.644  -3.355  -0.381  1.00  0.00     0.039 A 
HETATM   10  C20 UNL     1       2.233  -4.370  -1.220  1.00  0.00     0.003 A 
HETATM   11  C21 UNL     1       0.955  -4.265  -1.738  1.00  0.00     0.001 A 
HETATM   12  C22 UNL     1       0.128  -3.204  -1.435  1.00  0.00     0.011 A 
HETATM   13  C23 UNL     1       0.572  -2.190  -0.581  1.00  0.00    -0.011 A 
HETATM   14  C24 UNL     1      -1.764  -1.645   0.058  1.00  0.00     0.133 C 
ENDROOT
BRANCH   6  15
HETATM   15  C10 UNL     1       2.119   1.099   1.066  1.00  0.00     0.177 C 
BRANCH  15  16
HETATM   16  C11 UNL     1       3.605   1.207   0.856  1.00  0.00     0.022 C 
HETATM   17  C12 UNL     1       4.204   2.218   0.176  1.00  0.00     0.036 C 
HETATM   18  C13 UNL     1       5.646   1.985   0.185  1.00  0.00    -0.023 C 
HETATM   19  C14 UNL     1       6.625   2.865   0.108  1.00  0.00     0.013 C 
HETATM   20  C17 UNL     1       5.594   0.492   0.238  1.00  0.00     0.184 C 
HETATM   21  C15 UNL     1       8.036   2.513   0.137  1.00  0.00     0.050 C 
HETATM   22  C16 UNL     1       8.346   1.237   0.256  1.00  0.00     0.155 C 
HETATM   23  F1  UNL     1       9.571   0.660   0.302  1.00  0.00    -0.198 F 
HETATM   24  S1  UNL     1       7.236  -0.142   0.475  1.00  0.00    -0.070 SA
HETATM   25  N3  UNL     1       4.656   0.304   1.301  1.00  0.00    -0.374 N 
HETATM   26  H22 UNL     1       4.537  -0.229   2.184  1.00  0.00     0.161 HD
ENDBRANCH  15  16
ENDBRANCH   6  15
BRANCH   1  27
HETATM   27  C5  UNL     1      -3.869  -0.444   0.129  1.00  0.00     0.107 C 
HETATM   28  C4  UNL     1      -5.014  -0.080  -0.792  1.00  0.00     0.029 C 
HETATM   29  C3  UNL     1      -6.250   0.284  -0.006  1.00  0.00     0.037 C 
HETATM   30  C2  UNL     1      -5.926   1.298   1.037  1.00  0.00     0.216 C 
HETATM   31  C1  UNL     1      -6.001   2.699   0.451  1.00  0.00     0.042 C 
HETATM   32  N4  UNL     1      -4.742   1.053   1.795  1.00  0.00     0.089 N 
HETATM   33  C25 UNL     1      -3.576   0.698   1.042  1.00  0.00     0.294 C 
HETATM   34  H31 UNL     1      -4.521   1.940   2.320  1.00  0.00     0.316 HD
ENDBRANCH   1  27
TORSDOF 3
