REMARK  2 active torsions:
REMARK  status: ('A' for Active; 'I' for Inactive)
REMARK       I    between atoms: N3_16  and  C14_17 
REMARK    1  A    between atoms: C14_17  and  C15_19 
REMARK    2  A    between atoms: C20_26  and  C21_27 
ROOT
HETATM    1  C1  UNL     1      -4.008   1.121  -2.305  1.00  0.00     0.010 C 
HETATM    2  C2  UNL     1      -3.026   1.576  -1.233  1.00  0.00    -0.014 C 
HETATM    3  C3  UNL     1      -3.730   2.180  -0.078  1.00  0.00     0.039 C 
HETATM    4  C4  UNL     1      -3.337   1.660   1.279  1.00  0.00     0.219 C 
HETATM    5  C5  UNL     1      -4.589   1.577   2.161  1.00  0.00     0.042 C 
HETATM    6  N1  UNL     1      -2.428   2.562   1.959  1.00  0.00     0.116 N 
HETATM    7  C6  UNL     1      -1.053   2.324   1.608  1.00  0.00     0.541 C 
HETATM    8  N2  UNL     1      -0.967   2.151   0.180  1.00  0.00     0.124 N 
HETATM    9  C7  UNL     1       0.161   2.842  -0.399  1.00  0.00     0.291 C 
HETATM   10  C8  UNL     1       0.506   1.990  -1.609  1.00  0.00     0.036 A 
HETATM   11  C9  UNL     1       0.425   2.506  -2.960  1.00  0.00     0.053 A 
HETATM   12  C10 UNL     1       1.744   2.371  -2.276  1.00  0.00    -0.066 A 
HETATM   13  C11 UNL     1       2.997   2.340  -1.883  1.00  0.00     0.005 C 
HETATM   14  C12 UNL     1       3.300   1.830  -0.514  1.00  0.00     0.018 C 
HETATM   15  C13 UNL     1       2.613   0.876   0.116  1.00  0.00     0.095 C 
HETATM   16  N3  UNL     1       1.464   0.119  -0.331  1.00  0.00    -0.315 N 
HETATM   17  C14 UNL     1       1.087  -1.212  -0.258  1.00  0.00     0.284 C 
HETATM   18  O1  UNL     1      -0.001  -1.734  -0.566  1.00  0.00    -0.265 OA
HETATM   19  C22 UNL     1       0.355   0.634  -1.103  1.00  0.00     0.141 C 
HETATM   20  C23 UNL     1      -0.867   0.764  -0.210  1.00  0.00     0.249 C 
HETATM   21  C24 UNL     1      -2.145   0.420  -0.926  1.00  0.00     0.042 C 
HETATM   22  H11 UNL     1      -2.588   2.452   2.987  1.00  0.00     0.318 HD
ENDROOT
BRANCH  17  23
HETATM   23  C15 UNL     1       1.764  -2.406   0.166  1.00  0.00     0.218 A 
HETATM   24  C16 UNL     1       2.951  -1.745   0.379  1.00  0.00     0.080 A 
HETATM   25  S1  UNL     1       3.897  -4.274   1.144  1.00  0.00    -0.085 SA
HETATM   26  C17 UNL     1       4.296  -5.316   1.483  1.00  0.00     0.086 A 
HETATM   27  C21 UNL     1       3.797  -4.028   1.063  1.00  0.00     0.183 A 
HETATM   28  H22 UNL     1       3.441  -2.988   0.730  1.00  0.00     0.155 HD
HETATM   29  C20 UNL     1       2.732  -5.375   1.026  1.00  0.00     0.133 A 
HETATM   30  N4  UNL     1       2.120  -3.776   0.531  1.00  0.00     0.005 N 
HETATM   31  C18 UNL     1       4.740  -6.415   1.852  1.00  0.00     0.061 A 
HETATM   32  C19 UNL     1       3.495  -6.593   1.513  1.00  0.00     0.142 A 
HETATM   33  F1  UNL     1       3.879  -7.830   1.892  1.00  0.00    -0.239 F 
HETATM   34  H25 UNL     1       0.917  -3.897   0.208  1.00  0.00     0.300 HD
ENDBRANCH  17  23
TORSDOF 2
