REMARK  6 active torsions:
REMARK  status: ('A' for Active; 'I' for Inactive)
REMARK    1  A    between atoms: C2_2  and  O1_4 
REMARK    2  A    between atoms: O1_4  and  C4_5 
REMARK    3  A    between atoms: C7_8  and  S1_9 
REMARK    4  A    between atoms: S1_9  and  O2_10 
REMARK    5  A    between atoms: C10_15  and  N3_16 
REMARK    6  A    between atoms: N3_16  and  C11_17 
ROOT
HETATM    1  C4  UNL     1      -1.724   0.348  -0.086  1.00  0.00     0.085 A 
HETATM    2  C5  UNL     1      -3.100   0.304  -0.139  1.00  0.00     0.039 A 
HETATM    3  C6  UNL     1      -3.861  -0.756  -0.584  1.00  0.00     0.026 A 
HETATM    4  C7  UNL     1      -3.209  -1.891  -1.022  1.00  0.00     0.058 A 
HETATM    5  C8  UNL     1      -1.831  -1.898  -0.990  1.00  0.00     0.093 A 
HETATM    6  N1  UNL     1      -1.253  -3.018  -1.425  1.00  0.00    -0.240 NA
HETATM    7  C9  UNL     1       0.086  -3.097  -1.424  1.00  0.00     0.236 A 
HETATM    8  N2  UNL     1       0.819  -2.066  -0.992  1.00  0.00    -0.223 NA
HETATM    9  C10 UNL     1       0.237  -0.941  -0.555  1.00  0.00     0.144 A 
HETATM   10  C17 UNL     1      -1.131  -0.802  -0.533  1.00  0.00     0.073 A 
ENDROOT
BRANCH   9  11
HETATM   11  N3  UNL     1       1.124   0.081  -0.126  1.00  0.00    -0.340 N 
HETATM   12  H12 UNL     1       1.143   1.055   0.226  1.00  0.00     0.167 HD
BRANCH  11  13
HETATM   13  C11 UNL     1       2.535  -0.152  -0.106  1.00  0.00     0.033 A 
HETATM   14  C12 UNL     1       3.571   0.699  -0.461  1.00  0.00     0.032 A 
HETATM   15  C13 UNL     1       4.906   0.386  -0.387  1.00  0.00     0.044 A 
HETATM   16  C14 UNL     1       5.273  -0.860   0.071  1.00  0.00     0.116 A 
HETATM   17  F1  UNL     1       6.604  -1.104   0.119  1.00  0.00    -0.206 F 
HETATM   18  C15 UNL     1       4.278  -1.766   0.446  1.00  0.00     0.044 A 
HETATM   19  C16 UNL     1       2.933  -1.401   0.353  1.00  0.00     0.032 A 
ENDBRANCH  11  13
ENDBRANCH   9  11
BRANCH   1  20
HETATM   20  O1  UNL     1      -0.974   1.398   0.354  1.00  0.00    -0.346 OA
BRANCH  20  21
HETATM   21  C2  UNL     1      -1.525   2.594   0.818  1.00  0.00     0.120 C 
HETATM   22  C1  UNL     1      -1.031   3.795   0.013  1.00  0.00     0.040 C 
HETATM   23  C3  UNL     1      -1.067   2.863   2.262  1.00  0.00     0.040 C 
ENDBRANCH  20  21
ENDBRANCH   1  20
BRANCH   4  24
HETATM   24  S1  UNL     1      -4.142  -3.294  -1.609  1.00  0.00     0.028 SA
BRANCH  24  25
HETATM   25  O2  UNL     1      -4.482  -4.352  -0.293  1.00  0.00    -0.325 OA
HETATM   26  H10 UNL     1      -3.851  -4.225   0.467  1.00  0.00     0.228 HD
ENDBRANCH  24  25
ENDBRANCH   4  24
TORSDOF 6
