REMARK  4 active torsions:
REMARK  status: ('A' for Active; 'I' for Inactive)
REMARK    1  A    between atoms: C3_3  and  C4_4 
REMARK    2  A    between atoms: C3_3  and  N1_6 
REMARK    3  A    between atoms: C7_11  and  N4_12 
REMARK    4  A    between atoms: C10_15  and  O1_16 
ROOT
HETATM    1  N1  UNL     1       2.308   0.446   0.092  1.00  0.00    -0.276 N 
HETATM    2  C5  UNL     1       2.117  -0.179   1.472  1.00  0.00     0.274 C 
HETATM    3  N2  UNL     1       1.219  -1.335   1.108  1.00  0.00    -0.350 N 
HETATM    4  C6  UNL     1      -0.109  -0.978   1.578  1.00  0.00     0.203 C 
HETATM    5  N3  UNL     1      -1.343  -1.169   1.121  1.00  0.00    -0.255 NA
HETATM    6  C7  UNL     1      -1.879  -0.917  -0.252  1.00  0.00     0.236 C 
HETATM    7  C13 UNL     1      -0.749  -0.396  -1.169  1.00  0.00     0.050 C 
HETATM    8  C14 UNL     1       0.495  -1.013  -1.058  1.00  0.00     0.057 C 
HETATM    9  N6  UNL     1       1.343   0.220  -1.011  1.00  0.00    -0.298 N 
HETATM   10  C15 UNL     1       0.906  -2.432  -0.939  1.00  0.00     0.195 C 
HETATM   11  O2  UNL     1       1.767  -3.068  -1.687  1.00  0.00    -0.378 OA
HETATM   12  C16 UNL     1       2.016  -4.238  -0.893  1.00  0.00     0.170 C 
HETATM   13  C17 UNL     1       1.710  -3.809   0.575  1.00  0.00     0.054 C 
HETATM   14  C18 UNL     1       1.784  -2.402   0.371  1.00  0.00     0.123 C 
HETATM   15  H21 UNL     1       1.025   0.742  -1.847  1.00  0.00     0.187 HD
ENDROOT
BRANCH   6  16
HETATM   16  N4  UNL     1      -2.983  -0.030  -0.207  1.00  0.00    -0.343 N 
HETATM   17  C8  UNL     1      -4.044  -0.307   0.783  1.00  0.00     0.129 C 
HETATM   18  C9  UNL     1      -4.565   0.941   1.396  1.00  0.00     0.052 C 
HETATM   19  C10 UNL     1      -4.905   2.043   0.451  1.00  0.00     0.126 C 
HETATM   20  C11 UNL     1      -3.671   2.346  -0.381  1.00  0.00     0.109 C 
HETATM   21  C12 UNL     1      -3.169   1.095  -1.037  1.00  0.00     0.098 C 
HETATM   22  N5  UNL     1      -2.915   0.981  -2.292  1.00  0.00    -0.288 NA
HETATM   23  H19 UNL     1      -2.588   0.171  -2.805  1.00  0.00     0.188 HD
BRANCH  19  24
HETATM   24  O1  UNL     1      -5.208   3.175   1.192  1.00  0.00    -0.395 OA
HETATM   25  H16 UNL     1      -5.373   3.965   0.606  1.00  0.00     0.210 HD
ENDBRANCH  19  24
ENDBRANCH   6  16
BRANCH   1  26
HETATM   26  C3  UNL     1       3.237   1.307  -0.525  1.00  0.00     0.054 C 
HETATM   27  C2  UNL     1       3.297   2.583  -0.221  1.00  0.00    -0.002 C 
HETATM   28  C1  UNL     1       4.312   3.434  -0.921  1.00  0.00     0.038 C 
BRANCH  26  29
HETATM   29  C4  UNL     1       4.165   0.721  -1.550  1.00  0.00     0.280 C 
HETATM   30  F1  UNL     1       3.429   0.191  -2.577  1.00  0.00    -0.249 F 
ENDBRANCH  26  29
ENDBRANCH   1  26
TORSDOF 4
