REMARK  1 active torsions:
REMARK  status: ('A' for Active; 'I' for Inactive)
REMARK    1  A    between atoms: C16_19  and  O1_20 
ROOT
HETATM    1  C1  UNL     1       1.759   1.763  -3.005  1.00  0.00     0.045 C 
HETATM    2  C2  UNL     1       1.440   1.508  -1.539  1.00  0.00     0.156 C 
HETATM    3  N1  UNL     1       0.651   0.355  -1.332  1.00  0.00    -0.369 N 
HETATM    4  C3  UNL     1      -0.666   0.889  -1.447  1.00  0.00     0.132 C 
HETATM    5  C4  UNL     1      -1.204   1.894  -0.557  1.00  0.00     0.039 A 
HETATM    6  C5  UNL     1      -1.680   1.603   0.817  1.00  0.00     0.124 A 
HETATM    7  N2  UNL     1      -3.009   1.831   0.509  1.00  0.00    -0.411 N 
HETATM    8  C6  UNL     1      -4.148   1.239   0.925  1.00  0.00     0.117 C 
HETATM    9  C7  UNL     1      -4.128  -0.190   1.478  1.00  0.00     0.021 C 
HETATM   10  C8  UNL     1      -3.585  -1.064   0.406  1.00  0.00     0.031 C 
HETATM   11  C9  UNL     1      -3.372  -2.528   0.697  1.00  0.00     0.269 C 
HETATM   12  N3  UNL     1      -2.504  -2.906  -0.495  1.00  0.00     0.083 N 
HETATM   13  C10 UNL     1      -1.242  -2.244  -0.247  1.00  0.00     0.275 C 
HETATM   14  C11 UNL     1      -0.435  -1.987  -1.490  1.00  0.00     0.086 C 
HETATM   15  C12 UNL     1       0.711  -1.057  -1.095  1.00  0.00     0.006 C 
HETATM   16  C13 UNL     1       1.617  -1.811  -0.502  1.00  0.00     0.003 C 
HETATM   17  C14 UNL     1       2.878  -2.126   0.218  1.00  0.00     0.071 C 
HETATM   18  C15 UNL     1       3.432  -1.087   0.974  1.00  0.00    -0.007 C 
HETATM   19  C16 UNL     1       3.687  -0.633   2.248  1.00  0.00     0.075 C 
HETATM   20  C17 UNL     1       3.964   0.812   2.666  1.00  0.00     0.062 C 
HETATM   21  C18 UNL     1       3.950   1.665   1.601  1.00  0.00     0.022 C 
HETATM   22  C19 UNL     1       5.039   1.092   0.591  1.00  0.00     0.105 C 
HETATM   23  C20 UNL     1       3.814   0.192   0.200  1.00  0.00     0.004 C 
HETATM   24  S1  UNL     1       3.156   1.526  -0.884  1.00  0.00    -0.072 SA
HETATM   25  N4  UNL     1       3.390   2.779   0.776  1.00  0.00    -0.337 N 
HETATM   26  C21 UNL     1      -2.711   2.016  -0.863  1.00  0.00     0.124 A 
HETATM   27  H18 UNL     1      -2.407  -3.925  -0.546  1.00  0.00     0.315 HD
HETATM   28  H30 UNL     1       3.299   3.625   1.264  1.00  0.00     0.173 HD
ENDROOT
BRANCH  19  29
HETATM   29  O1  UNL     1       3.614  -1.780   2.972  1.00  0.00    -0.360 OA
HETATM   30  H26 UNL     1       2.721  -2.186   3.178  1.00  0.00     0.217 HD
ENDBRANCH  19  29
TORSDOF 1
