REMARK  2 active torsions:
REMARK  status: ('A' for Active; 'I' for Inactive)
REMARK    1  A    between atoms: N1_2  and  C3_4 
REMARK    2  A    between atoms: C9_13  and  O1_14 
ROOT
HETATM    1  C3  UNL     1      -3.323   0.127  -0.674  1.00  0.00     0.723 A 
HETATM    2  N2  UNL     1      -2.432   1.027  -0.466  1.00  0.00    -0.056 NA
HETATM    3  C4  UNL     1      -1.037   0.717  -0.151  1.00  0.00     0.382 A 
HETATM    4  N3  UNL     1      -0.761   1.188   1.133  1.00  0.00    -0.146 NA
HETATM    5  N4  UNL     1       0.062   1.892   1.627  1.00  0.00    -0.190 NA
HETATM    6  C5  UNL     1       1.111   2.495   0.870  1.00  0.00     0.200 C 
HETATM    7  C6  UNL     1       2.443   2.010   1.321  1.00  0.00    -0.007 C 
HETATM    8  C7  UNL     1       3.498   1.391   0.848  1.00  0.00    -0.026 C 
HETATM    9  C8  UNL     1       3.857   0.853  -0.482  1.00  0.00     0.065 C 
HETATM   10  C9  UNL     1       4.080  -0.642  -0.439  1.00  0.00     0.176 C 
HETATM   11  C10 UNL     1       2.793  -1.265   0.049  1.00  0.00     0.013 A 
HETATM   12  C11 UNL     1       1.570  -0.726  -0.277  1.00  0.00     0.042 A 
HETATM   13  C12 UNL     1       0.403  -1.286   0.185  1.00  0.00     0.040 A 
HETATM   14  C13 UNL     1       0.454  -2.407   0.988  1.00  0.00     0.033 A 
HETATM   15  C14 UNL     1       1.657  -2.985   1.341  1.00  0.00     0.045 A 
HETATM   16  C15 UNL     1       2.808  -2.382   0.850  1.00  0.00     0.125 A 
HETATM   17  F1  UNL     1       4.032  -2.890   1.153  1.00  0.00    -0.205 F 
HETATM   18  N5  UNL     1      -0.901  -0.749  -0.121  1.00  0.00    -0.297 N 
HETATM   19  C16 UNL     1      -1.902  -1.694  -0.356  1.00  0.00     0.233 A 
HETATM   20  N6  UNL     1      -3.068  -1.270  -0.622  1.00  0.00    -0.058 NA
ENDROOT
BRANCH   1  21
HETATM   21  N1  UNL     1      -4.671   0.529  -0.977  1.00  0.00    -0.223 N 
HETATM   22  C1  UNL     1      -5.079   1.890  -0.721  1.00  0.00     0.168 C 
HETATM   23  C2  UNL     1      -5.637  -0.396  -1.534  1.00  0.00     0.168 C 
ENDBRANCH   1  21
BRANCH  10  24
HETATM   24  O1  UNL     1       5.129  -0.994   0.390  1.00  0.00    -0.302 OA
HETATM   25 BR1  UNL     1       6.456  -1.926  -0.475  1.00  0.00     0.100 Br
ENDBRANCH  10  24
TORSDOF 2
