REMARK  5 active torsions:
REMARK  status: ('A' for Active; 'I' for Inactive)
REMARK    1  A    between atoms: C2_3  and  C3_4 
REMARK    2  A    between atoms: C4_6  and  N2_7 
REMARK    3  A    between atoms: C4_6  and  N3_8 
REMARK    4  A    between atoms: C6_10  and  C7_11 
REMARK    5  A    between atoms: C9_13  and  O1_14 
ROOT
HETATM    1  B1  UNL     1      -4.952   3.016  -2.106  1.00  0.00     0.189 B 
HETATM    2  C1  UNL     1      -4.656   1.597  -1.039  1.00  0.00    -0.254 C 
HETATM    3  C2  UNL     1      -4.391   0.432  -0.170  1.00  0.00     0.142 C 
ENDROOT
BRANCH   3   4
HETATM    4  C3  UNL     1      -2.950   0.528   0.258  1.00  0.00     0.136 C 
HETATM    5  N1  UNL     1      -2.255  -0.491  -0.110  1.00  0.00    -0.203 NA
HETATM    6  C4  UNL     1      -0.889  -0.973  -0.013  1.00  0.00     0.466 C 
HETATM    7  C6  UNL     1       0.045   0.181  -0.267  1.00  0.00     0.237 C 
HETATM    8  N4  UNL     1       0.354   0.823   1.023  1.00  0.00    -0.179 NA
HETATM    9  N5  UNL     1      -0.341   1.625   1.718  1.00  0.00    -0.148 NA
HETATM   10  C13 UNL     1      -1.643   2.235   1.593  1.00  0.00     0.258 C 
HETATM   11  N6  UNL     1      -2.682   1.727   0.974  1.00  0.00    -0.224 NA
BRANCH   6  12
HETATM   12  N2  UNL     1      -0.749  -1.527   1.333  1.00  0.00     0.143 N 
HETATM   13  H3  UNL     1      -1.601  -2.153   1.440  1.00  0.00     0.318 HD
HETATM   14  H4  UNL     1      -0.936  -0.720   1.975  1.00  0.00     0.318 HD
ENDBRANCH   6  12
BRANCH   6  15
HETATM   15  N3  UNL     1      -0.687  -2.039  -0.977  1.00  0.00     0.143 N 
HETATM   16  C5  UNL     1      -1.595  -3.144  -0.726  1.00  0.00     0.313 C 
HETATM   17  H5  UNL     1       0.278  -2.410  -0.838  1.00  0.00     0.321 HD
ENDBRANCH   6  15
BRANCH   7  18
HETATM   18  C7  UNL     1       1.345  -0.170  -0.892  1.00  0.00     0.079 A 
HETATM   19  C8  UNL     1       2.244  -1.092  -0.172  1.00  0.00     0.022 A 
HETATM   20  C9  UNL     1       3.180  -0.223   0.184  1.00  0.00     0.071 A 
HETATM   21  C11 UNL     1       2.388   0.813  -0.500  1.00  0.00    -0.024 A 
HETATM   22  C12 UNL     1       2.330   2.117  -0.816  1.00  0.00     0.022 C 
BRANCH  20  23
HETATM   23  O1  UNL     1       4.381   0.087   0.813  1.00  0.00    -0.356 OA
HETATM   24  C10 UNL     1       5.461   0.690   0.146  1.00  0.00     0.210 C 
ENDBRANCH  20  23
ENDBRANCH   7  18
ENDBRANCH   3   4
TORSDOF 5
