REMARK  7 active torsions:
REMARK  status: ('A' for Active; 'I' for Inactive)
REMARK    1  A    between atoms: N1_2  and  C2_3 
REMARK    2  A    between atoms: C3_5  and  N3_6 
REMARK    3  A    between atoms: N4_7  and  C4_8 
REMARK    4  A    between atoms: C4_8  and  C5_9 
REMARK    5  A    between atoms: C8_12  and  O1_13 
REMARK    6  A    between atoms: C11_17  and  N6_18 
REMARK    7  A    between atoms: N6_18  and  C12_19 
ROOT
HETATM    1  C2  UNL     1       1.547  -2.201  -0.856  1.00  0.00     0.753 A 
HETATM    2  N2  UNL     1       0.301  -2.190  -0.328  1.00  0.00     0.134 NA
HETATM    3  C3  UNL     1       0.101  -1.624   0.884  1.00  0.00     0.798 A 
HETATM    4  N5  UNL     1       1.116  -1.082   1.551  1.00  0.00     0.135 NA
HETATM    5  C11 UNL     1       2.342  -1.092   1.033  1.00  0.00     0.758 A 
HETATM    6  N7  UNL     1       2.570  -1.654  -0.180  1.00  0.00     0.131 NA
ENDROOT
BRANCH   3   7
HETATM    7  N3  UNL     1      -1.189  -1.636   1.431  1.00  0.00     0.042 NA
HETATM    8  N4  UNL     1      -2.087  -0.869   1.076  1.00  0.00    -0.172 NA
BRANCH   8   9
HETATM    9  C4  UNL     1      -1.896   0.124   0.057  1.00  0.00     0.209 C 
BRANCH   9  10
HETATM   10  C5  UNL     1      -3.256   0.608  -0.315  1.00  0.00    -0.052 A 
HETATM   11  C6  UNL     1      -4.024   0.673  -1.385  1.00  0.00     0.007 A 
HETATM   12  C7  UNL     1      -5.316   1.283  -1.113  1.00  0.00     0.033 A 
HETATM   13  C8  UNL     1      -5.290   1.583   0.175  1.00  0.00     0.049 A 
HETATM   14  C10 UNL     1      -4.016   1.202   0.836  1.00  0.00     0.100 A 
BRANCH  13  15
HETATM   15  O1  UNL     1      -6.197   2.175   1.038  1.00  0.00    -0.360 OA
HETATM   16  C9  UNL     1      -7.188   1.435   1.728  1.00  0.00     0.209 C 
ENDBRANCH  13  15
ENDBRANCH   9  10
ENDBRANCH   8   9
ENDBRANCH   3   7
BRANCH   1  17
HETATM   17  N1  UNL     1       1.723  -2.814  -2.142  1.00  0.00    -0.226 N 
HETATM   18  C1  UNL     1       2.125  -4.202  -2.090  1.00  0.00     0.165 C 
HETATM   19  H4  UNL     1       1.522  -2.128  -2.900  1.00  0.00     0.177 HD
ENDBRANCH   1  17
BRANCH   5  20
HETATM   20  N6  UNL     1       3.580  -0.570   1.554  1.00  0.00    -0.187 N 
HETATM   21  H14 UNL     1       3.987  -0.986   2.420  1.00  0.00     0.184 HD
BRANCH  20  22
HETATM   22  C12 UNL     1       4.235   0.501   0.893  1.00  0.00     0.049 A 
HETATM   23  C13 UNL     1       3.753   1.036  -0.272  1.00  0.00     0.030 A 
HETATM   24  C14 UNL     1       4.412   2.062  -0.892  1.00  0.00     0.002 A 
HETATM   25  C15 UNL     1       5.594   2.617  -0.385  1.00  0.00     0.000 A 
HETATM   26  C16 UNL     1       6.060   2.051   0.805  1.00  0.00     0.002 A 
HETATM   27  C17 UNL     1       5.412   1.020   1.441  1.00  0.00     0.030 A 
ENDBRANCH  20  22
ENDBRANCH   5  20
TORSDOF 7
