REMARK  7 active torsions:
REMARK  status: ('A' for Active; 'I' for Inactive)
REMARK    1  A    between atoms: N1_2  and  C2_3 
REMARK    2  A    between atoms: C3_5  and  N3_6 
REMARK    3  A    between atoms: C4_9  and  N5_10 
REMARK    4  A    between atoms: N5_10  and  N6_11 
REMARK    5  A    between atoms: N6_11  and  C5_12 
REMARK    6  A    between atoms: C5_12  and  C6_13 
REMARK    7  A    between atoms: C9_16  and  O2_17 
ROOT
HETATM    1  C2  UNL     1       4.463   0.095  -0.901  1.00  0.00     0.753 A 
HETATM    2  N2  UNL     1       4.297   1.445  -0.787  1.00  0.00     0.135 NA
HETATM    3  C3  UNL     1       3.082   1.954  -0.462  1.00  0.00     0.805 A 
HETATM    4  N4  UNL     1       2.051   1.123  -0.255  1.00  0.00     0.139 NA
HETATM    5  C4  UNL     1       2.174  -0.216  -0.357  1.00  0.00     0.808 A 
HETATM    6  N7  UNL     1       3.376  -0.702  -0.678  1.00  0.00     0.135 NA
ENDROOT
BRANCH   5   7
HETATM    7  N5  UNL     1       1.185  -1.239  -0.130  1.00  0.00     0.097 NA
BRANCH   7   8
HETATM    8  N6  UNL     1       0.359  -1.151   0.641  1.00  0.00    -0.326 NA
BRANCH   8   9
HETATM    9  C5  UNL     1      -0.695  -1.345   1.439  1.00  0.00     0.287 C 
BRANCH   9  10
HETATM   10  C6  UNL     1      -2.019  -0.968   0.798  1.00  0.00    -0.026 A 
HETATM   11  C7  UNL     1      -2.350   0.369   0.863  1.00  0.00     0.012 A 
HETATM   12  C8  UNL     1      -3.553   0.796   0.344  1.00  0.00     0.037 A 
HETATM   13  C9  UNL     1      -4.443  -0.069  -0.239  1.00  0.00     0.068 A 
HETATM   14  C11 UNL     1      -4.089  -1.431  -0.299  1.00  0.00     0.037 A 
HETATM   15  C12 UNL     1      -2.888  -1.900   0.211  1.00  0.00     0.012 A 
BRANCH  13  16
HETATM   16  O2  UNL     1      -5.676   0.154  -0.808  1.00  0.00    -0.356 OA
HETATM   17  C10 UNL     1      -6.271   1.426  -0.901  1.00  0.00     0.210 C 
ENDBRANCH  13  16
ENDBRANCH   9  10
ENDBRANCH   8   9
ENDBRANCH   7   8
ENDBRANCH   5   7
BRANCH   3  18
HETATM   18  N3  UNL     1       2.741   3.304  -0.300  1.00  0.00     0.101 NA
HETATM   19  O1  UNL     1       3.567   4.224  -0.111  1.00  0.00    -0.044 OA
ENDBRANCH   3  18
BRANCH   1  20
HETATM   20  N1  UNL     1       5.723  -0.466  -1.221  1.00  0.00    -0.226 N 
HETATM   21  C1  UNL     1       6.438  -1.015  -0.062  1.00  0.00     0.165 C 
HETATM   22  H4  UNL     1       6.207  -0.540  -2.154  1.00  0.00     0.177 HD
ENDBRANCH   1  20
TORSDOF 7
