REMARK  2 active torsions:
REMARK  status: ('A' for Active; 'I' for Inactive)
REMARK    1  A    between atoms: C10_15  and  C11_16 
REMARK       I    between atoms: C11_16  and  N3_18 
REMARK    2  A    between atoms: N3_18  and  C12_19 
ROOT
HETATM    1  O1  UNL     1      -4.164  -2.982   2.000  1.00  0.00    -0.272 OA
HETATM    2  C1  UNL     1      -3.657  -2.797   0.863  1.00  0.00     0.235 C 
HETATM    3  N1  UNL     1      -2.622  -2.094   1.768  1.00  0.00    -0.353 N 
HETATM    4  C2  UNL     1      -2.546  -0.616   1.711  1.00  0.00     0.125 C 
HETATM    5  B1  UNL     1      -3.387  -0.230   0.201  1.00  0.00     0.319 B 
HETATM    6  N2  UNL     1      -1.778  -2.324  -0.396  1.00  0.00    -0.289 NA
HETATM    7  C3  UNL     1      -3.214  -2.687  -0.655  1.00  0.00     0.147 C 
HETATM    8  C4  UNL     1      -3.778  -1.446  -1.255  1.00  0.00     0.002 C 
HETATM    9  C5  UNL     1      -2.693  -1.020  -2.020  1.00  0.00     0.021 A 
HETATM   10  C6  UNL     1      -1.264  -1.187  -2.592  1.00  0.00     0.089 A 
HETATM   11  C7  UNL     1      -1.717  -0.010  -2.796  1.00  0.00     0.019 A 
HETATM   12 CL1  UNL     1      -0.259  -1.048  -3.084  1.00  0.00    -0.210 Cl
HETATM   13  C8  UNL     1      -1.914   1.388  -2.410  1.00  0.00     0.072 C 
HETATM   14  C9  UNL     1      -1.196   1.065  -1.265  1.00  0.00     0.021 C 
HETATM   15  C10 UNL     1      -0.440   0.265  -0.306  1.00  0.00     0.145 C 
HETATM   16  S1  UNL     1      -0.948   0.127   1.398  1.00  0.00    -0.138 SA
HETATM   17  H1  UNL     1      -1.841  -2.159   2.495  1.00  0.00     0.162 HD
ENDROOT
BRANCH  15  18
HETATM   18  C11 UNL     1       0.886   1.063  -0.188  1.00  0.00     0.236 C 
HETATM   19  O2  UNL     1       1.047   2.117  -0.852  1.00  0.00    -0.272 OA
HETATM   20  N3  UNL     1       1.917   0.622   0.657  1.00  0.00    -0.326 N 
HETATM   21  H10 UNL     1       1.646  -0.257   1.142  1.00  0.00     0.169 HD
BRANCH  20  22
HETATM   22  C12 UNL     1       3.180   1.185   0.908  1.00  0.00     0.034 A 
HETATM   23  C13 UNL     1       4.022   0.557   1.799  1.00  0.00     0.031 A 
HETATM   24  C14 UNL     1       5.272   1.031   2.106  1.00  0.00     0.026 A 
HETATM   25  C15 UNL     1       5.730   2.165   1.522  1.00  0.00     0.034 A 
HETATM   26 CL2  UNL     1       7.340   2.724   1.957  1.00  0.00    -0.084 Cl
HETATM   27  C16 UNL     1       4.962   2.849   0.629  1.00  0.00     0.026 A 
HETATM   28  C17 UNL     1       3.715   2.328   0.358  1.00  0.00     0.031 A 
ENDBRANCH  20  22
ENDBRANCH  15  18
TORSDOF 2
