REMARK  7 active torsions:
REMARK  status: ('A' for Active; 'I' for Inactive)
REMARK    1  A    between atoms: N1_2  and  C2_3 
REMARK    2  A    between atoms: C3_5  and  N3_6 
REMARK    3  A    between atoms: N4_7  and  O1_8 
REMARK    4  A    between atoms: O1_8  and  C4_9 
REMARK    5  A    between atoms: C7_12  and  O2_13 
REMARK    6  A    between atoms: C11_18  and  N6_19 
REMARK    7  A    between atoms: N6_19  and  C12_20 
ROOT
HETATM    1  C2  UNL     1      -1.237  -2.220   0.277  1.00  0.00     0.753 A 
HETATM    2  N2  UNL     1      -0.686  -2.069  -0.964  1.00  0.00     0.134 NA
HETATM    3  C3  UNL     1      -0.605  -0.824  -1.514  1.00  0.00     0.800 A 
HETATM    4  N5  UNL     1      -1.079   0.242  -0.807  1.00  0.00     0.135 NA
HETATM    5  C11 UNL     1      -1.624   0.106   0.417  1.00  0.00     0.758 A 
HETATM    6  N7  UNL     1      -1.702  -1.131   0.958  1.00  0.00     0.131 NA
ENDROOT
BRANCH   3   7
HETATM    7  N3  UNL     1      -0.087  -0.428  -2.765  1.00  0.00     0.071 NA
HETATM    8  N4  UNL     1       1.124  -0.339  -3.027  1.00  0.00    -0.006 NA
BRANCH   8   9
HETATM    9  O1  UNL     1       2.104  -0.610  -2.145  1.00  0.00    -0.229 OA
BRANCH   9  10
HETATM   10  C4  UNL     1       2.373   0.306  -1.086  1.00  0.00     0.182 A 
HETATM   11  C5  UNL     1       2.386  -0.440   0.173  1.00  0.00     0.010 A 
HETATM   12  C6  UNL     1       3.340  -0.613   1.099  1.00  0.00     0.035 A 
HETATM   13  C7  UNL     1       4.621   0.039   0.860  1.00  0.00     0.064 A 
HETATM   14  C9  UNL     1       4.666   0.731  -0.264  1.00  0.00     0.013 A 
HETATM   15  C10 UNL     1       3.697   0.996  -1.351  1.00  0.00     0.068 A 
BRANCH  13  16
HETATM   16  O2  UNL     1       5.689  -0.046   1.711  1.00  0.00    -0.356 OA
HETATM   17  C8  UNL     1       6.850   0.715   1.482  1.00  0.00     0.210 C 
ENDBRANCH  13  16
ENDBRANCH   9  10
ENDBRANCH   8   9
ENDBRANCH   3   7
BRANCH   1  18
HETATM   18  N1  UNL     1      -1.291  -3.541   0.797  1.00  0.00    -0.226 N 
HETATM   19  C1  UNL     1      -2.400  -4.445   0.577  1.00  0.00     0.165 C 
HETATM   20  H4  UNL     1      -0.385  -3.522   1.278  1.00  0.00     0.177 HD
ENDBRANCH   1  18
BRANCH   5  21
HETATM   21  N6  UNL     1      -2.107   1.266   1.125  1.00  0.00    -0.187 N 
HETATM   22  H14 UNL     1      -1.581   1.840   1.805  1.00  0.00     0.184 HD
BRANCH  21  23
HETATM   23  C12 UNL     1      -3.456   1.616   0.822  1.00  0.00     0.049 A 
HETATM   24  C13 UNL     1      -4.197   0.877  -0.081  1.00  0.00     0.030 A 
HETATM   25  C14 UNL     1      -5.505   1.252  -0.354  1.00  0.00     0.002 A 
HETATM   26  C15 UNL     1      -6.105   2.341   0.241  1.00  0.00     0.000 A 
HETATM   27  C16 UNL     1      -5.351   3.084   1.153  1.00  0.00     0.002 A 
HETATM   28  C17 UNL     1      -4.050   2.721   1.433  1.00  0.00     0.030 A 
ENDBRANCH  21  23
ENDBRANCH   5  21
TORSDOF 7
