REMARK  3 active torsions:
REMARK  status: ('A' for Active; 'I' for Inactive)
REMARK    1  A    between atoms: C2_2  and  C3_4 
REMARK    2  A    between atoms: C3_4  and  C4_5 
REMARK    3  A    between atoms: C12_14  and  N1_15 
ROOT
HETATM    1  C4  UNL     1      -0.725   0.498  -0.625  1.00  0.00     0.028 C 
HETATM    2  C5  UNL     1       0.545   0.090  -0.389  1.00  0.00     0.023 C 
HETATM    3  C6  UNL     1       1.154   1.401  -0.350  1.00  0.00     0.016 C 
HETATM    4  C7  UNL     1       2.175   2.020   0.191  1.00  0.00     0.024 C 
HETATM    5  C8  UNL     1       3.234   1.550   1.082  1.00  0.00     0.034 C 
HETATM    6 CL2  UNL     1       3.856   2.791   2.129  1.00  0.00    -0.084 Cl
HETATM    7  C9  UNL     1       3.796   0.332   1.218  1.00  0.00     0.023 C 
HETATM    8  C10 UNL     1       3.565  -0.942   0.546  1.00  0.00     0.002 C 
HETATM    9  C11 UNL     1       2.432  -1.437   0.032  1.00  0.00     0.038 C 
HETATM   10  C12 UNL     1       0.997  -1.282  -0.239  1.00  0.00     0.221 C 
HETATM   11  N2  UNL     1       0.337  -1.907   0.860  1.00  0.00    -0.250 NA
HETATM   12  C13 UNL     1      -0.579  -2.778   0.715  1.00  0.00     0.159 C 
HETATM   13  S1  UNL     1      -1.295  -3.456  -0.802  1.00  0.00    -0.113 SA
HETATM   14  C14 UNL     1      -3.008  -2.817  -0.909  1.00  0.00     0.183 C 
HETATM   15  C15 UNL     1      -2.878  -1.298  -0.948  1.00  0.00     0.231 C 
HETATM   16  O2  UNL     1      -3.566  -0.261  -1.111  1.00  0.00    -0.272 OA
HETATM   17  N3  UNL     1      -1.805  -0.404  -0.787  1.00  0.00    -0.329 N 
HETATM   18  H13 UNL     1      -1.214  -1.196  -0.742  1.00  0.00     0.168 HD
ENDROOT
BRANCH   1  19
HETATM   19  C3  UNL     1      -1.366   1.770  -0.796  1.00  0.00     0.104 C 
BRANCH  19  20
HETATM   20  C2  UNL     1      -2.304   1.904   0.420  1.00  0.00    -0.008 A 
HETATM   21  C1  UNL     1      -2.200   2.919   1.326  1.00  0.00     0.148 A 
HETATM   22 CL1  UNL     1      -3.559   1.609   1.579  1.00  0.00    -0.186 Cl
ENDBRANCH  19  20
ENDBRANCH   1  19
BRANCH  10  23
HETATM   23  N1  UNL     1       0.741  -2.121  -1.406  1.00  0.00    -0.096 NA
HETATM   24  O1  UNL     1       1.042  -1.684  -2.486  1.00  0.00    -0.063 OA
ENDBRANCH  10  23
TORSDOF 3
