REMARK  7 active torsions:
REMARK  status: ('A' for Active; 'I' for Inactive)
REMARK    1  A    between atoms: C2_2  and  C4_4 
REMARK    2  A    between atoms: C4_4  and  C15_20 
REMARK    3  A    between atoms: C8_10  and  N3_11 
REMARK    4  A    between atoms: N3_11  and  C9_12 
REMARK    5  A    between atoms: C15_20  and  O1_22 
REMARK    6  A    between atoms: O1_22  and  C17_23 
REMARK    7  A    between atoms: C17_23  and  O2_24 
ROOT
HETATM    1  C4  UNL     1      -1.363   0.415   0.196  1.00  0.00    -0.036 C 
HETATM    2  C5  UNL     1      -0.644   1.530   0.280  1.00  0.00     0.013 A 
HETATM    3  C6  UNL     1      -0.993   2.903   0.630  1.00  0.00     0.193 A 
HETATM    4  N1  UNL     1       0.099   3.820   0.604  1.00  0.00    -0.278 NA
HETATM    5  C7  UNL     1       1.278   3.771   0.282  1.00  0.00     0.229 A 
HETATM    6  N2  UNL     1       1.645   2.488  -0.162  1.00  0.00    -0.224 NA
HETATM    7  C8  UNL     1       0.771   1.541  -0.157  1.00  0.00     0.137 A 
ENDROOT
BRANCH   1   8
HETATM    8  C2  UNL     1      -2.817   0.388   0.448  1.00  0.00     0.010 C 
HETATM    9  C1  UNL     1      -3.135  -0.518   1.676  1.00  0.00     0.014 C 
HETATM   10  C3  UNL     1      -3.567   1.643   0.681  1.00  0.00     0.014 C 
ENDBRANCH   1   8
BRANCH   1  11
HETATM   11  C15 UNL     1      -1.144  -1.030  -0.028  1.00  0.00     0.150 C 
HETATM   12  C16 UNL     1       0.104  -1.623   0.573  1.00  0.00     0.044 C 
BRANCH  11  13
HETATM   13  O1  UNL     1      -1.360  -1.443  -1.330  1.00  0.00    -0.358 OA
BRANCH  13  14
HETATM   14  C17 UNL     1      -2.300  -2.358  -1.596  1.00  0.00     0.335 C 
BRANCH  14  15
HETATM   15  O2  UNL     1      -2.085  -3.597  -0.940  1.00  0.00    -0.377 OA
HETATM   16  H21 UNL     1      -1.560  -4.226  -1.473  1.00  0.00     0.212 HD
ENDBRANCH  14  15
ENDBRANCH  13  14
ENDBRANCH  11  13
ENDBRANCH   1  11
BRANCH   7  17
HETATM   17  N3  UNL     1       1.410   0.443  -0.844  1.00  0.00    -0.340 N 
HETATM   18  H11 UNL     1       0.741  -0.034  -1.542  1.00  0.00     0.167 HD
BRANCH  17  19
HETATM   19  C9  UNL     1       2.749  -0.055  -0.730  1.00  0.00     0.035 A 
HETATM   20  C10 UNL     1       3.147  -1.106  -1.534  1.00  0.00     0.032 A 
HETATM   21  C11 UNL     1       4.438  -1.564  -1.396  1.00  0.00     0.046 A 
HETATM   22  C12 UNL     1       5.374  -1.055  -0.512  1.00  0.00     0.138 A 
HETATM   23  F1  UNL     1       6.618  -1.592  -0.468  1.00  0.00    -0.204 F 
HETATM   24  C13 UNL     1       4.935  -0.010   0.269  1.00  0.00     0.074 A 
HETATM   25 CL1  UNL     1       6.062   0.686   1.410  1.00  0.00    -0.081 Cl
HETATM   26  C14 UNL     1       3.656   0.468   0.153  1.00  0.00     0.056 A 
ENDBRANCH  17  19
ENDBRANCH   7  17
TORSDOF 7
