REMARK  4 active torsions:
REMARK  status: ('A' for Active; 'I' for Inactive)
REMARK    1  A    between atoms: C4_5  and  C5_6 
REMARK    2  A    between atoms: C7_10  and  S1_11 
REMARK    3  A    between atoms: S1_11  and  C8_12 
REMARK    4  A    between atoms: C8_12  and  C9_13 
REMARK       I    between atoms: C9_13  and  N3_15 
ROOT
HETATM    1  C5  UNL     1      -3.945   0.322   0.333  1.00  0.00     0.159 A 
HETATM    2  N1  UNL     1      -3.710   1.438   0.907  1.00  0.00    -0.251 NA
HETATM    3  C6  UNL     1      -2.446   2.094   1.025  1.00  0.00     0.274 A 
HETATM    4  N2  UNL     1      -1.396   1.323   0.390  1.00  0.00    -0.351 N 
HETATM    5  C7  UNL     1      -1.660   0.064  -0.257  1.00  0.00     0.166 A 
HETATM    6  N4  UNL     1      -2.871  -0.381  -0.267  1.00  0.00    -0.205 NA
HETATM    7  H5  UNL     1      -0.450   1.755   0.446  1.00  0.00     0.163 HD
ENDROOT
BRANCH   5   8
HETATM    8  S1  UNL     1      -0.297  -0.823  -1.017  1.00  0.00    -0.083 SA
BRANCH   8   9
HETATM    9  C8  UNL     1       1.203   0.164  -0.762  1.00  0.00     0.187 C 
BRANCH   9  10
HETATM   10  C9  UNL     1       2.395  -0.470  -1.347  1.00  0.00     0.253 C 
HETATM   11  O2  UNL     1       2.614  -1.540  -1.985  1.00  0.00    -0.270 OA
HETATM   12  N3  UNL     1       3.565   0.282  -1.159  1.00  0.00    -0.218 NA
HETATM   13  C10 UNL     1       4.548  -0.028  -0.382  1.00  0.00     0.043 A 
HETATM   14  C11 UNL     1       5.640   0.939  -0.380  1.00  0.00     0.051 A 
HETATM   15  C15 UNL     1       4.526  -1.276   0.425  1.00  0.00     0.086 A 
HETATM   16  C12 UNL     1       6.693   0.707   0.388  1.00  0.00     0.035 A 
HETATM   17 CL1  UNL     1       8.016   1.852   0.407  1.00  0.00    -0.084 Cl
HETATM   18  C13 UNL     1       6.808  -0.476   1.232  1.00  0.00     0.020 A 
HETATM   19  C14 UNL     1       5.793  -1.326   1.198  1.00  0.00    -0.019 A 
ENDBRANCH   9  10
ENDBRANCH   8   9
ENDBRANCH   5   8
BRANCH   1  20
HETATM   20  C4  UNL     1      -5.310  -0.225   0.297  1.00  0.00     0.015 A 
HETATM   21  C3  UNL     1      -5.746  -1.479  -0.315  1.00  0.00     0.019 A 
HETATM   22  C2  UNL     1      -7.049  -1.642  -0.151  1.00  0.00     0.056 A 
HETATM   23  C1  UNL     1      -7.555  -0.484   0.591  1.00  0.00     0.172 A 
HETATM   24  O1  UNL     1      -8.708  -0.168   0.993  1.00  0.00    -0.288 OA
HETATM   25  C16 UNL     1      -6.374   0.342   0.819  1.00  0.00     0.070 A 
ENDBRANCH   1  20
TORSDOF 4
