REMARK  9 active torsions:
REMARK  status: ('A' for Active; 'I' for Inactive)
REMARK    1  A    between atoms: C2_2  and  C3_3 
REMARK    2  A    between atoms: C3_3  and  C4_4 
REMARK    3  A    between atoms: C4_4  and  C5_6 
REMARK    4  A    between atoms: C5_6  and  C6_7 
REMARK    5  A    between atoms: C6_7  and  N1_8 
REMARK    6  A    between atoms: N1_8  and  C7_9 
REMARK    7  A    between atoms: C8_11  and  N3_12 
REMARK    8  A    between atoms: N3_12  and  C9_13 
REMARK    9  A    between atoms: C9_13  and  C10_14 
ROOT
HETATM    1  C7  UNL     1       0.954  -0.706   1.025  1.00  0.00     0.156 A 
HETATM    2  N2  UNL     1       1.403   0.104   1.991  1.00  0.00    -0.230 NA
HETATM    3  C8  UNL     1      -0.058  -0.032   1.913  1.00  0.00     0.412 A 
ENDROOT
BRANCH   3   4
HETATM    4  N3  UNL     1      -0.730   1.114   1.409  1.00  0.00     0.116 N 
HETATM    5  H9  UNL     1      -0.069   1.912   1.339  1.00  0.00     0.319 HD
BRANCH   4   6
HETATM    6  C9  UNL     1      -1.466   0.910   0.200  1.00  0.00     0.283 C 
BRANCH   6   7
HETATM    7  C10 UNL     1      -2.664   0.026   0.346  1.00  0.00     0.065 C 
HETATM    8  C11 UNL     1      -3.301  -0.065  -1.034  1.00  0.00     0.038 C 
HETATM    9  C12 UNL     1      -4.475  -0.976  -0.961  1.00  0.00     0.168 C 
HETATM   10  O1  UNL     1      -5.199  -0.927   0.208  1.00  0.00    -0.385 OA
HETATM   11  C13 UNL     1      -5.112   0.294   0.859  1.00  0.00     0.221 C 
HETATM   12  C14 UNL     1      -3.704   0.625   1.228  1.00  0.00     0.033 C 
HETATM   13  N4  UNL     1      -3.265   1.344   2.187  1.00  0.00    -0.306 NA
HETATM   14  H19 UNL     1      -3.934   1.780   2.826  1.00  0.00     0.186 HD
ENDBRANCH   6   7
ENDBRANCH   4   6
ENDBRANCH   3   4
BRANCH   1  15
HETATM   15  N1  UNL     1       1.202  -1.579  -0.060  1.00  0.00    -0.351 N 
HETATM   16  H7  UNL     1       0.448  -1.687  -0.800  1.00  0.00     0.166 HD
BRANCH  15  17
HETATM   17  C6  UNL     1       2.417  -2.303  -0.178  1.00  0.00     0.092 C 
BRANCH  17  18
HETATM   18  C5  UNL     1       3.490  -1.626  -0.554  1.00  0.00     0.049 C 
BRANCH  18  19
HETATM   19  C4  UNL     1       3.541  -0.231  -0.854  1.00  0.00     0.076 C 
HETATM   20 CL1  UNL     1       2.720   0.772  -2.011  1.00  0.00    -0.075 Cl
BRANCH  19  21
HETATM   21  C3  UNL     1       4.388   0.470  -0.110  1.00  0.00    -0.126 C 
BRANCH  21  22
HETATM   22  C2  UNL     1       5.441   1.073   0.432  1.00  0.00     0.069 C 
HETATM   23  C1  UNL     1       6.715   1.025  -0.304  1.00  0.00     0.024 C 
ENDBRANCH  21  22
ENDBRANCH  19  21
ENDBRANCH  18  19
ENDBRANCH  17  18
ENDBRANCH  15  17
ENDBRANCH   1  15
TORSDOF 9
