REMARK  7 active torsions:
REMARK  status: ('A' for Active; 'I' for Inactive)
REMARK    1  A    between atoms: N1_2  and  C2_3 
REMARK    2  A    between atoms: C2_3  and  C3_4 
REMARK    3  A    between atoms: C3_4  and  C5_6 
REMARK    4  A    between atoms: C5_6  and  N2_7 
REMARK    5  A    between atoms: N2_7  and  C6_8 
REMARK    6  A    between atoms: C7_10  and  O1_11 
REMARK    7  A    between atoms: C9_14  and  N5_15 
ROOT
HETATM    1  C6  UNL     1       0.231  -1.397   0.425  1.00  0.00     0.741 A 
HETATM    2  N3  UNL     1      -0.150  -2.674   0.253  1.00  0.00    -0.018 NA
HETATM    3  C7  UNL     1      -1.473  -2.915   0.195  1.00  0.00     0.302 A 
HETATM    4  N4  UNL     1      -2.408  -1.931   0.304  1.00  0.00    -0.017 NA
HETATM    5  C9  UNL     1      -2.019  -0.636   0.479  1.00  0.00     0.744 A 
HETATM    6  N6  UNL     1      -0.693  -0.425   0.533  1.00  0.00     0.130 NA
ENDROOT
BRANCH   1   7
HETATM    7  N2  UNL     1       1.561  -0.829   0.508  1.00  0.00    -0.221 N 
HETATM    8  H13 UNL     1       1.987  -0.769   1.463  1.00  0.00     0.177 HD
BRANCH   7   9
HETATM    9  C5  UNL     1       1.857  -0.518  -0.874  1.00  0.00     0.144 C 
BRANCH   9  10
HETATM   10  C3  UNL     1       3.213   0.158  -1.033  1.00  0.00     0.017 C 
HETATM   11  C4  UNL     1       4.272  -0.825  -0.669  1.00  0.00     0.013 C 
BRANCH  10  12
HETATM   12  C2  UNL     1       3.288   1.441  -0.284  1.00  0.00     0.119 C 
BRANCH  12  13
HETATM   13  N1  UNL     1       4.487   2.177  -0.471  1.00  0.00    -0.425 N 
HETATM   14  C1  UNL     1       5.688   1.657   0.076  1.00  0.00     0.139 C 
HETATM   15  H4  UNL     1       4.409   3.184  -0.305  1.00  0.00     0.152 HD
ENDBRANCH  12  13
ENDBRANCH  10  12
ENDBRANCH   9  10
ENDBRANCH   7   9
ENDBRANCH   1   7
BRANCH   3  16
HETATM   16  O1  UNL     1      -1.838  -4.242   0.015  1.00  0.00    -0.323 OA
HETATM   17  C8  UNL     1      -3.210  -4.553  -0.053  1.00  0.00     0.213 C 
ENDBRANCH   3  16
BRANCH   5  18
HETATM   18  N5  UNL     1      -2.921   0.457   0.599  1.00  0.00    -0.209 N 
HETATM   19  C10 UNL     1      -2.393   1.787   0.894  1.00  0.00     0.167 C 
HETATM   20  C11 UNL     1      -3.167   2.885   0.235  1.00  0.00     0.188 C 
HETATM   21  O2  UNL     1      -4.518   2.726   0.514  1.00  0.00    -0.388 OA
HETATM   22  C12 UNL     1      -4.937   1.602  -0.196  1.00  0.00     0.188 C 
HETATM   23  C13 UNL     1      -4.354   0.356   0.444  1.00  0.00     0.167 C 
ENDBRANCH   5  18
TORSDOF 7
