REMARK  2 active torsions:
REMARK  status: ('A' for Active; 'I' for Inactive)
REMARK    1  A    between atoms: N1_2  and  C2_3 
REMARK    2  A    between atoms: C8_12  and  O1_13 
ROOT
HETATM    1  C2  UNL     1       2.763  -0.001  -0.652  1.00  0.00     0.194 A 
HETATM    2  N2  UNL     1       2.073   1.016  -0.436  1.00  0.00    -0.252 N 
HETATM    3  C3  UNL     1       2.409   2.382  -0.245  1.00  0.00     0.303 C 
HETATM    4  N3  UNL     1       1.219   3.199  -0.094  1.00  0.00    -0.251 NA
HETATM    5  S1  UNL     1      -0.193   2.624  -0.517  1.00  0.00    -0.116 SA
HETATM    6  C4  UNL     1      -1.430   3.892  -0.195  1.00  0.00     0.084 C 
HETATM    7  C5  UNL     1      -2.749   3.269  -0.026  1.00  0.00    -0.009 C 
HETATM    8  C6  UNL     1      -2.499   1.942  -0.202  1.00  0.00     0.049 C 
HETATM    9  C7  UNL     1      -3.382   0.735  -0.167  1.00  0.00     0.035 C 
HETATM   10  C8  UNL     1      -2.679  -0.348  -0.403  1.00  0.00     0.138 C 
HETATM   11  N4  UNL     1      -1.516  -1.102  -0.691  1.00  0.00    -0.336 N 
HETATM   12  C10 UNL     1      -0.434  -1.672   0.012  1.00  0.00     0.054 C 
HETATM   13  C11 UNL     1      -0.748  -2.792   0.664  1.00  0.00     0.031 C 
HETATM   14  C12 UNL     1       0.087  -3.670   1.511  1.00  0.00    -0.001 C 
HETATM   15  C13 UNL     1       1.318  -3.227   1.609  1.00  0.00    -0.021 C 
HETATM   16  C14 UNL     1       1.945  -2.025   1.015  1.00  0.00     0.082 C 
HETATM   17  C15 UNL     1       0.980  -1.349   0.130  1.00  0.00     0.047 C 
HETATM   18  N5  UNL     1       1.416  -0.413  -0.625  1.00  0.00    -0.124 NA
HETATM   19  H7  UNL     1      -0.483   1.451   0.175  1.00  0.00     0.115 HD
HETATM   20  H16 UNL     1      -1.088  -1.496  -1.542  1.00  0.00     0.168 HD
ENDROOT
BRANCH   1  21
HETATM   21  N1  UNL     1       4.094  -0.442  -0.826  1.00  0.00    -0.368 N 
HETATM   22  C1  UNL     1       4.937   0.545  -0.178  1.00  0.00     0.148 C 
HETATM   23  H4  UNL     1       3.974  -1.319  -1.359  1.00  0.00     0.161 HD
ENDBRANCH   1  21
BRANCH  10  24
HETATM   24  O1  UNL     1      -3.260  -1.623  -0.427  1.00  0.00    -0.341 OA
HETATM   25  C9  UNL     1      -4.618  -1.889  -0.573  1.00  0.00     0.211 C 
ENDBRANCH  10  24
TORSDOF 2
