REMARK  8 active torsions:
REMARK  status: ('A' for Active; 'I' for Inactive)
REMARK    1  A    between atoms: C3_4  and  C4_5 
REMARK    2  A    between atoms: C4_5  and  N1_6 
REMARK    3  A    between atoms: N1_6  and  C5_7 
REMARK    4  A    between atoms: C6_9  and  N3_10 
REMARK    5  A    between atoms: N4_11  and  C7_12 
REMARK    6  A    between atoms: C7_12  and  C8_13 
REMARK    7  A    between atoms: C11_16  and  O1_17 
REMARK    8  A    between atoms: C15_22  and  N6_23 
ROOT
HETATM    1  B1  UNL     1      -1.469   5.291  -0.694  1.00  0.00     0.195 B 
HETATM    2  C1  UNL     1      -2.735   3.658   0.466  1.00  0.00    -0.236 C 
HETATM    3  C2  UNL     1      -3.504   2.679   1.138  1.00  0.00     0.031 C 
HETATM    4  C3  UNL     1      -4.090   2.170   0.078  1.00  0.00    -0.000 C 
ENDROOT
BRANCH   4   5
HETATM    5  C4  UNL     1      -5.026   1.061   0.363  1.00  0.00     0.166 C 
BRANCH   5   6
HETATM    6  N1  UNL     1      -4.669  -0.175  -0.293  1.00  0.00    -0.218 N 
HETATM    7  H5  UNL     1      -5.279  -0.712  -0.969  1.00  0.00     0.178 HD
BRANCH   6   8
HETATM    8  C5  UNL     1      -3.524  -1.007  -0.274  1.00  0.00     0.754 A 
HETATM    9  N2  UNL     1      -2.504  -0.950  -1.173  1.00  0.00     0.134 NA
HETATM   10  C6  UNL     1      -1.444  -1.773  -1.089  1.00  0.00     0.798 A 
HETATM   11  N5  UNL     1      -1.405  -2.675  -0.082  1.00  0.00     0.134 NA
HETATM   12  C15 UNL     1      -2.392  -2.768   0.831  1.00  0.00     0.753 A 
HETATM   13  N7  UNL     1      -3.433  -1.919   0.703  1.00  0.00     0.131 NA
BRANCH  10  14
HETATM   14  N3  UNL     1      -0.393  -1.703  -2.042  1.00  0.00     0.042 NA
HETATM   15  N4  UNL     1       0.540  -0.885  -2.075  1.00  0.00    -0.172 NA
BRANCH  15  16
HETATM   16  C7  UNL     1       0.633   0.142  -1.061  1.00  0.00     0.212 C 
BRANCH  16  17
HETATM   17  C8  UNL     1       2.048   0.579  -0.864  1.00  0.00    -0.037 A 
HETATM   18  C9  UNL     1       2.870  -0.041   0.058  1.00  0.00     0.012 A 
HETATM   19  C10 UNL     1       4.177   0.359   0.235  1.00  0.00     0.037 A 
HETATM   20  C11 UNL     1       4.653   1.390  -0.524  1.00  0.00     0.068 A 
HETATM   21  C13 UNL     1       3.848   2.026  -1.453  1.00  0.00     0.037 A 
HETATM   22  C14 UNL     1       2.517   1.638  -1.650  1.00  0.00     0.012 A 
BRANCH  20  23
HETATM   23  O1  UNL     1       5.919   1.952  -0.516  1.00  0.00    -0.356 OA
HETATM   24  C12 UNL     1       6.938   1.500   0.335  1.00  0.00     0.210 C 
ENDBRANCH  20  23
ENDBRANCH  16  17
ENDBRANCH  15  16
ENDBRANCH  10  14
BRANCH  12  25
HETATM   25  N6  UNL     1      -2.348  -3.714   1.892  1.00  0.00    -0.226 N 
HETATM   26  C16 UNL     1      -1.192  -4.590   1.989  1.00  0.00     0.165 C 
HETATM   27  H15 UNL     1      -3.143  -3.748   2.563  1.00  0.00     0.177 HD
ENDBRANCH  12  25
ENDBRANCH   6   8
ENDBRANCH   5   6
ENDBRANCH   4   5
TORSDOF 8
