REMARK  7 active torsions:
REMARK  status: ('A' for Active; 'I' for Inactive)
REMARK    1  A    between atoms: C2_2  and  C3_3 
REMARK    2  A    between atoms: C4_5  and  C5_6 
REMARK    3  A    between atoms: C6_7  and  N1_8 
REMARK    4  A    between atoms: N1_8  and  C7_9 
REMARK    5  A    between atoms: C11_15  and  O1_16 
REMARK    6  A    between atoms: C14_19  and  O2_20 
REMARK    7  A    between atoms: O2_20  and  C15_21 
ROOT
HETATM    1  C7  UNL     1      -0.186  -0.094   0.409  1.00  0.00     0.150 C 
HETATM    2  N2  UNL     1       0.297   0.468   1.420  1.00  0.00    -0.225 NA
HETATM    3  C8  UNL     1      -0.181   0.665   2.709  1.00  0.00     0.235 C 
HETATM    4  N3  UNL     1      -1.362   0.160   3.015  1.00  0.00    -0.242 NA
HETATM    5  C9  UNL     1      -2.042  -0.584   1.979  1.00  0.00     0.085 A 
HETATM    6  C10 UNL     1      -2.938  -1.555   1.932  1.00  0.00     0.067 A 
HETATM    7  C11 UNL     1      -3.165  -1.822   0.512  1.00  0.00     0.070 A 
HETATM    8  C13 UNL     1      -2.416  -1.018  -0.261  1.00  0.00     0.062 A 
HETATM    9  C14 UNL     1      -1.646  -0.154   0.642  1.00  0.00     0.186 A 
ENDROOT
BRANCH   1  10
HETATM   10  N1  UNL     1       0.136  -0.414  -0.935  1.00  0.00    -0.351 N 
HETATM   11  H9  UNL     1      -0.426  -1.021  -1.535  1.00  0.00     0.166 HD
BRANCH  10  12
HETATM   12  C6  UNL     1       1.367   0.246  -1.270  1.00  0.00     0.089 C 
HETATM   13  C5  UNL     1       2.593   0.119  -0.794  1.00  0.00     0.018 C 
BRANCH  13  14
HETATM   14  C4  UNL     1       3.691   0.897  -1.288  1.00  0.00     0.021 C 
HETATM   15  C3  UNL     1       4.953   0.878  -0.914  1.00  0.00     0.011 C 
HETATM   16 CL1  UNL     1       6.063   1.984  -1.744  1.00  0.00    -0.089 Cl
BRANCH  15  17
HETATM   17  C2  UNL     1       5.874   0.218   0.028  1.00  0.00     0.047 C 
HETATM   18  C1  UNL     1       5.101  -0.799   0.861  1.00  0.00     0.011 C 
ENDBRANCH  15  17
ENDBRANCH  13  14
ENDBRANCH  10  12
ENDBRANCH   1  10
BRANCH   9  19
HETATM   19  O2  UNL     1      -2.201   1.149   0.413  1.00  0.00    -0.357 OA
BRANCH  19  20
HETATM   20  C15 UNL     1      -2.061   1.644  -0.833  1.00  0.00     0.116 C 
HETATM   21  C16 UNL     1      -1.496   3.070  -0.839  1.00  0.00     0.039 C 
HETATM   22  C17 UNL     1      -3.493   1.815  -1.383  1.00  0.00     0.039 C 
ENDBRANCH  19  20
ENDBRANCH   9  19
BRANCH   7  23
HETATM   23  O1  UNL     1      -4.059  -2.802   0.064  1.00  0.00    -0.356 OA
HETATM   24  C12 UNL     1      -3.815  -4.130   0.497  1.00  0.00     0.210 C 
ENDBRANCH   7  23
TORSDOF 7
