REMARK  0 active torsions:
REMARK  status: ('A' for Active; 'I' for Inactive)
ROOT
HETATM    1  C1  UNL     1      -3.193   2.303   2.289  1.00  0.00     0.012 C 
HETATM    2  C2  UNL     1      -2.007   1.555   1.681  1.00  0.00     0.011 C 
HETATM    3  C3  UNL     1      -1.826   0.330   2.398  1.00  0.00     0.146 C 
HETATM    4  N1  UNL     1      -0.944  -0.697   1.989  1.00  0.00    -0.312 N 
HETATM    5  N2  UNL     1       0.122  -1.402   1.485  1.00  0.00    -0.166 NA
HETATM    6  C4  UNL     1      -0.067  -1.878   0.243  1.00  0.00     0.124 C 
HETATM    7  C5  UNL     1      -1.407  -1.424  -0.091  1.00  0.00     0.081 C 
HETATM    8  C6  UNL     1      -1.376  -0.480  -1.262  1.00  0.00    -0.015 C 
HETATM    9  C7  UNL     1      -1.686   0.802  -0.913  1.00  0.00     0.030 A 
HETATM   10  C8  UNL     1      -2.076   1.759   0.256  1.00  0.00    -0.017 A 
HETATM   11  C9  UNL     1      -1.937   2.075  -0.951  1.00  0.00     0.023 A 
HETATM   12  C10 UNL     1      -0.687   2.927  -0.934  1.00  0.00     0.181 C 
HETATM   13  N3  UNL     1       0.424   2.196  -1.598  1.00  0.00    -0.175 NA
HETATM   14  N4  UNL     1       1.056   1.513  -0.708  1.00  0.00    -0.073 NA
HETATM   15  N5  UNL     1       2.098   0.692  -0.709  1.00  0.00    -0.258 N 
HETATM   16  C11 UNL     1       2.610  -0.633  -0.943  1.00  0.00     0.078 A 
HETATM   17  C12 UNL     1       3.617  -0.550  -1.858  1.00  0.00     0.033 A 
HETATM   18  C13 UNL     1       4.335  -1.634  -2.327  1.00  0.00     0.002 A 
HETATM   19  C14 UNL     1       3.967  -2.854  -1.803  1.00  0.00     0.002 A 
HETATM   20  C15 UNL     1       2.947  -2.922  -0.877  1.00  0.00     0.032 A 
HETATM   21  C16 UNL     1       2.224  -1.840  -0.402  1.00  0.00     0.062 A 
HETATM   22  N6  UNL     1       1.243  -2.339   0.528  1.00  0.00    -0.341 N 
HETATM   23  H7  UNL     1      -1.300  -1.668   2.302  1.00  0.00     0.182 HD
HETATM   24  H15 UNL     1       2.776   1.423  -0.394  1.00  0.00     0.191 HD
HETATM   25  H20 UNL     1       1.615  -2.999   1.292  1.00  0.00     0.167 HD
ENDROOT
TORSDOF 0
