REMARK  6 active torsions:
REMARK  status: ('A' for Active; 'I' for Inactive)
REMARK    1  A    between atoms: O1_2  and  C2_3 
REMARK    2  A    between atoms: C3_5  and  N2_6 
REMARK    3  A    between atoms: N2_6  and  C4_7 
REMARK    4  A    between atoms: C4_7  and  C5_8 
REMARK    5  A    between atoms: C9_15  and  N5_16 
REMARK    6  A    between atoms: N5_16  and  C10_17 
ROOT
HETATM    1  C2  UNL     1       0.752   2.692  -0.047  1.00  0.00     0.302 A 
HETATM    2  N1  UNL     1      -0.374   2.071   0.352  1.00  0.00    -0.018 NA
HETATM    3  C3  UNL     1      -0.557   0.743   0.249  1.00  0.00     0.742 A 
HETATM    4  N4  UNL     1       0.464   0.030  -0.285  1.00  0.00     0.130 NA
HETATM    5  C9  UNL     1       1.610   0.603  -0.700  1.00  0.00     0.746 A 
HETATM    6  N6  UNL     1       1.732   1.947  -0.570  1.00  0.00    -0.017 NA
ENDROOT
BRANCH   3   7
HETATM    7  N2  UNL     1      -1.799   0.167   0.713  1.00  0.00    -0.220 N 
HETATM    8  H4  UNL     1      -1.762  -0.335   1.635  1.00  0.00     0.177 HD
BRANCH   7   9
HETATM    9  C4  UNL     1      -2.794   0.479  -0.284  1.00  0.00     0.165 C 
BRANCH   9  10
HETATM   10  C5  UNL     1      -4.109  -0.141   0.128  1.00  0.00     0.130 C 
HETATM   11  C6  UNL     1      -4.003  -1.643   0.248  1.00  0.00     0.055 C 
HETATM   12  C7  UNL     1      -5.315  -2.105   0.844  1.00  0.00     0.178 C 
HETATM   13  O2  UNL     1      -6.239  -1.034   0.638  1.00  0.00    -0.345 OA
HETATM   14  C8  UNL     1      -6.318  -0.395  -0.613  1.00  0.00     0.245 C 
HETATM   15  N3  UNL     1      -5.138   0.094  -0.887  1.00  0.00    -0.272 NA
ENDBRANCH   9  10
ENDBRANCH   7   9
ENDBRANCH   3   7
BRANCH   1  16
HETATM   16  O1  UNL     1       0.779   4.038   0.124  1.00  0.00    -0.323 OA
HETATM   17  C1  UNL     1       1.847   4.881  -0.219  1.00  0.00     0.213 C 
ENDBRANCH   1  16
BRANCH   5  18
HETATM   18  N5  UNL     1       2.506  -0.365  -1.210  1.00  0.00    -0.188 N 
HETATM   19  H13 UNL     1       2.224  -0.627  -2.172  1.00  0.00     0.184 HD
BRANCH  18  20
HETATM   20  C10 UNL     1       3.638  -0.936  -0.582  1.00  0.00     0.049 A 
HETATM   21  C11 UNL     1       4.191  -0.484   0.609  1.00  0.00     0.032 A 
HETATM   22  C12 UNL     1       5.301  -1.115   1.137  1.00  0.00     0.026 A 
HETATM   23  C13 UNL     1       5.890  -2.209   0.489  1.00  0.00     0.034 A 
HETATM   24 CL1  UNL     1       7.298  -3.019   1.130  1.00  0.00    -0.084 Cl
HETATM   25  C14 UNL     1       5.345  -2.659  -0.692  1.00  0.00     0.026 A 
HETATM   26  C15 UNL     1       4.229  -2.030  -1.224  1.00  0.00     0.032 A 
ENDBRANCH  18  20
ENDBRANCH   5  18
TORSDOF 6
