REMARK  2 active torsions:
REMARK  status: ('A' for Active; 'I' for Inactive)
REMARK    1  A    between atoms: C2_2  and  O1_4 
REMARK    2  A    between atoms: O1_4  and  C4_5 
ROOT
HETATM    1  C4  UNL     1       1.026  -0.813   0.068  1.00  0.00     0.073 C 
HETATM    2  C5  UNL     1       0.982  -0.453  -1.250  1.00  0.00     0.087 C 
HETATM    3  C6  UNL     1      -0.280   0.142  -1.791  1.00  0.00     0.131 C 
HETATM    4  N1  UNL     1      -0.833   1.242  -2.144  1.00  0.00    -0.230 NA
HETATM    5  C7  UNL     1      -0.274   2.538  -2.116  1.00  0.00     0.335 C 
HETATM    6  N2  UNL     1       0.268   3.186  -1.088  1.00  0.00    -0.277 NA
HETATM    7  C8  UNL     1       0.304   2.496   0.182  1.00  0.00     0.051 C 
HETATM    8  C9  UNL     1      -0.471   1.678   0.864  1.00  0.00    -0.011 C 
HETATM    9  C10 UNL     1      -1.012   0.770   1.937  1.00  0.00     0.067 C 
HETATM   10  C11 UNL     1      -1.084  -0.568   1.198  1.00  0.00    -0.038 C 
HETATM   11  C12 UNL     1       0.138  -1.185   1.222  1.00  0.00     0.045 C 
HETATM   12  C13 UNL     1      -2.273  -1.123   0.490  1.00  0.00     0.022 A 
HETATM   13  C14 UNL     1      -2.346  -1.068  -0.929  1.00  0.00     0.046 A 
HETATM   14  C15 UNL     1      -3.483  -1.601  -1.497  1.00  0.00     0.033 A 
HETATM   15  C16 UNL     1      -4.485  -2.152  -0.736  1.00  0.00     0.046 A 
HETATM   16  C17 UNL     1      -4.353  -2.174   0.635  1.00  0.00     0.139 A 
HETATM   17  F1  UNL     1      -5.273  -2.691   1.513  1.00  0.00    -0.204 F 
HETATM   18  C18 UNL     1      -3.251  -1.662   1.260  1.00  0.00     0.085 A 
HETATM   19 CL1  UNL     1      -2.868  -1.579   2.950  1.00  0.00    -0.080 Cl
HETATM   20  N3  UNL     1      -1.531  -0.590  -2.054  1.00  0.00    -0.340 N 
HETATM   21  H17 UNL     1      -2.000  -0.866  -2.928  1.00  0.00     0.167 HD
ENDROOT
BRANCH   1  22
HETATM   22  O1  UNL     1       2.352  -0.846   0.481  1.00  0.00    -0.347 OA
BRANCH  22  23
HETATM   23  C2  UNL     1       3.171   0.276   0.661  1.00  0.00     0.120 C 
HETATM   24  C1  UNL     1       4.494  -0.269   1.214  1.00  0.00     0.040 C 
HETATM   25  C3  UNL     1       3.533   0.951  -0.657  1.00  0.00     0.040 C 
ENDBRANCH  22  23
ENDBRANCH   1  22
TORSDOF 2
