REMARK  1 active torsions:
REMARK  status: ('A' for Active; 'I' for Inactive)
REMARK    1  A    between atoms: C1_2  and  C2_3 
ROOT
HETATM    1  C2  UNL     1       0.728  -0.681   0.285  1.00  0.00     0.107 A 
HETATM    2  C3  UNL     1       1.718  -1.781   0.223  1.00  0.00     0.012 A 
HETATM    3  C4  UNL     1       3.028  -1.899   0.395  1.00  0.00     0.001 A 
HETATM    4  C5  UNL     1       3.950  -0.855   0.734  1.00  0.00     0.023 A 
HETATM    5  C6  UNL     1       4.277   0.414   1.032  1.00  0.00     0.034 A 
HETATM    6 CL1  UNL     1       5.974   0.853   1.359  1.00  0.00    -0.084 Cl
HETATM    7  C7  UNL     1       3.305   1.481   1.129  1.00  0.00     0.028 A 
HETATM    8  C8  UNL     1       2.245   2.203   1.144  1.00  0.00     0.054 A 
HETATM    9  C9  UNL     1       0.931   1.662   0.863  1.00  0.00     0.147 A 
HETATM   10  N2  UNL     1       1.531   0.505   0.660  1.00  0.00    -0.251 NA
HETATM   11  N3  UNL     1      -0.459   1.673   0.701  1.00  0.00    -0.225 NA
HETATM   12  C10 UNL     1      -1.324   2.558   0.956  1.00  0.00     0.206 C 
HETATM   13  N4  UNL     1      -2.611   2.027   0.585  1.00  0.00    -0.360 N 
HETATM   14  C11 UNL     1      -3.050   0.658   0.406  1.00  0.00     0.395 C 
HETATM   15  N5  UNL     1      -2.285   0.036  -0.585  1.00  0.00     0.106 NA
HETATM   16  C12 UNL     1      -2.625   0.193  -1.953  1.00  0.00     0.275 C 
HETATM   17  C13 UNL     1      -1.669  -0.780  -2.671  1.00  0.00     0.037 C 
HETATM   18  C14 UNL     1      -0.947  -1.482  -1.467  1.00  0.00     0.018 C 
HETATM   19  C15 UNL     1      -2.167  -1.417  -0.513  1.00  0.00     0.279 C 
HETATM   20  C16 UNL     1       0.028  -0.454  -1.003  1.00  0.00     0.049 C 
HETATM   21  H9  UNL     1      -3.272   2.825   0.439  1.00  0.00     0.162 HD
ENDROOT
BRANCH   1  22
HETATM   22  C1  UNL     1      -0.194  -0.882   1.394  1.00  0.00     0.117 C 
HETATM   23  N1  UNL     1       0.481  -1.039   2.494  1.00  0.00    -0.314 NA
HETATM   24  H1  UNL     1       1.517  -1.003   2.442  1.00  0.00     0.185 HD
ENDBRANCH   1  22
TORSDOF 1
