REMARK  9 active torsions:
REMARK  status: ('A' for Active; 'I' for Inactive)
REMARK    1  A    between atoms: C3_3  and  C4_5 
REMARK    2  A    between atoms: C5_6  and  C6_7 
REMARK    3  A    between atoms: C6_7  and  N1_8 
REMARK    4  A    between atoms: N1_8  and  C7_9 
REMARK    5  A    between atoms: C8_11  and  N3_12 
REMARK    6  A    between atoms: N3_12  and  C9_13 
REMARK    7  A    between atoms: C9_13  and  C10_14 
REMARK    8  A    between atoms: C10_14  and  N4_15 
REMARK    9  A    between atoms: C15_22  and  O2_23 
ROOT
HETATM    1  C7  UNL     1       1.310  -0.505   1.006  1.00  0.00     0.436 A 
HETATM    2  N2  UNL     1      -0.037  -0.058   0.707  1.00  0.00    -0.060 NA
HETATM    3  C8  UNL     1      -0.808  -1.097   0.668  1.00  0.00     0.722 A 
HETATM    4  N5  UNL     1      -0.053  -2.298   0.933  1.00  0.00    -0.039 NA
HETATM    5  C15 UNL     1       1.201  -1.984   1.137  1.00  0.00     0.215 A 
ENDROOT
BRANCH   3   6
HETATM    6  N3  UNL     1      -2.226  -1.045   0.395  1.00  0.00    -0.221 N 
HETATM    7  H11 UNL     1      -2.619  -1.794  -0.231  1.00  0.00     0.177 HD
BRANCH   6   8
HETATM    8  C9  UNL     1      -2.997   0.045   1.014  1.00  0.00     0.168 C 
BRANCH   8   9
HETATM    9  C10 UNL     1      -4.426  -0.055   0.613  1.00  0.00     0.292 C 
BRANCH   9  10
HETATM   10  N4  UNL     1      -4.692   0.030  -0.788  1.00  0.00     0.094 N 
HETATM   11  C11 UNL     1      -6.128  -0.105  -0.970  1.00  0.00     0.298 C 
HETATM   12  C12 UNL     1      -6.884   0.985  -0.272  1.00  0.00     0.198 C 
HETATM   13  O1  UNL     1      -6.379   2.251  -0.557  1.00  0.00    -0.388 OA
HETATM   14  C13 UNL     1      -5.480   2.222  -1.621  1.00  0.00     0.198 C 
HETATM   15  C14 UNL     1      -4.281   1.346  -1.241  1.00  0.00     0.298 C 
ENDBRANCH   9  10
ENDBRANCH   8   9
ENDBRANCH   6   8
ENDBRANCH   3   6
BRANCH   1  16
HETATM   16  N1  UNL     1       2.256  -0.088   0.005  1.00  0.00     0.120 N 
HETATM   17  H9  UNL     1       2.289   0.942   0.023  1.00  0.00     0.319 HD
BRANCH  16  18
HETATM   18  C6  UNL     1       3.565  -0.580   0.378  1.00  0.00     0.300 C 
BRANCH  18  19
HETATM   19  C5  UNL     1       4.579  -0.166  -0.656  1.00  0.00     0.005 C 
HETATM   20  C4  UNL     1       5.667   0.575  -0.541  1.00  0.00     0.021 C 
BRANCH  20  21
HETATM   21  C3  UNL     1       6.519   0.852  -1.698  1.00  0.00     0.029 C 
HETATM   22  C2  UNL     1       7.578   1.604  -1.479  1.00  0.00    -0.007 C 
HETATM   23  C1  UNL     1       7.919   2.169  -0.136  1.00  0.00     0.038 C 
HETATM   24 CL1  UNL     1       6.082   0.174  -3.244  1.00  0.00    -0.085 Cl
ENDBRANCH  20  21
ENDBRANCH  18  19
ENDBRANCH  16  18
ENDBRANCH   1  16
BRANCH   5  25
HETATM   25  O2  UNL     1       1.970  -3.105   1.397  1.00  0.00    -0.339 OA
HETATM   26  C16 UNL     1       1.590  -4.129   2.302  1.00  0.00     0.211 C 
ENDBRANCH   5  25
TORSDOF 9
