REMARK  7 active torsions:
REMARK  status: ('A' for Active; 'I' for Inactive)
REMARK    1  A    between atoms: O1_2  and  C2_3 
REMARK    2  A    between atoms: C3_5  and  N2_6 
REMARK    3  A    between atoms: N2_6  and  C4_7 
REMARK    4  A    between atoms: C10_16  and  N4_17 
REMARK    5  A    between atoms: N4_17  and  C11_18 
REMARK    6  A    between atoms: C11_18  and  C12_19 
REMARK    7  A    between atoms: C12_19  and  N5_20 
ROOT
HETATM    1  C2  UNL     1       0.759  -0.917   0.570  1.00  0.00     0.302 A 
HETATM    2  N1  UNL     1       1.991  -0.926   0.029  1.00  0.00    -0.017 NA
HETATM    3  C3  UNL     1       2.294  -0.209  -1.068  1.00  0.00     0.745 A 
HETATM    4  N3  UNL     1       1.313   0.516  -1.597  1.00  0.00     0.130 NA
HETATM    5  C10 UNL     1       0.056   0.557  -1.086  1.00  0.00     0.742 A 
HETATM    6  N6  UNL     1      -0.202  -0.169   0.001  1.00  0.00    -0.018 NA
ENDROOT
BRANCH   3   7
HETATM    7  N2  UNL     1       3.597  -0.222  -1.637  1.00  0.00    -0.197 N 
HETATM    8  H4  UNL     1       3.784   0.346  -2.481  1.00  0.00     0.183 HD
BRANCH   7   9
HETATM    9  C4  UNL     1       4.533  -1.046  -0.954  1.00  0.00     0.118 C 
HETATM   10  C5  UNL     1       5.455  -0.490  -0.212  1.00  0.00    -0.014 A 
HETATM   11  C6  UNL     1       5.564   0.949  -0.054  1.00  0.00     0.015 A 
HETATM   12  P1  UNL     1       6.699  -1.476   0.701  1.00  0.00    -0.069 P 
HETATM   13  C7  UNL     1       6.400   1.699   0.630  1.00  0.00     0.025 A 
HETATM   14  C8  UNL     1       7.429   1.030   1.394  1.00  0.00     0.034 A 
HETATM   15 CL1  UNL     1       8.526   2.082   2.295  1.00  0.00    -0.084 Cl
HETATM   16  C9  UNL     1       7.739  -0.235   1.570  1.00  0.00     0.032 A 
HETATM   17  H9  UNL     1       7.524  -2.245  -0.243  1.00  0.00     0.066 HD
ENDBRANCH   7   9
ENDBRANCH   3   7
BRANCH   1  18
HETATM   18  O1  UNL     1       0.521  -1.679   1.698  1.00  0.00    -0.323 OA
HETATM   19  C1  UNL     1      -0.763  -1.672   2.265  1.00  0.00     0.213 C 
ENDBRANCH   1  18
BRANCH   5  20
HETATM   20  N4  UNL     1      -0.997   1.337  -1.656  1.00  0.00    -0.220 N 
HETATM   21  H10 UNL     1      -0.729   1.890  -2.511  1.00  0.00     0.177 HD
BRANCH  20  22
HETATM   22  C11 UNL     1      -2.324   1.376  -1.116  1.00  0.00     0.168 C 
BRANCH  22  23
HETATM   23  C12 UNL     1      -3.009   0.026  -1.092  1.00  0.00     0.292 C 
BRANCH  23  24
HETATM   24  N5  UNL     1      -4.327   0.217  -0.528  1.00  0.00     0.094 N 
HETATM   25  C13 UNL     1      -5.094  -0.986  -0.444  1.00  0.00     0.298 C 
HETATM   26  C14 UNL     1      -6.565  -0.596  -0.384  1.00  0.00     0.198 C 
HETATM   27  O2  UNL     1      -6.697   0.589   0.331  1.00  0.00    -0.388 OA
HETATM   28  C15 UNL     1      -5.726   0.711   1.327  1.00  0.00     0.198 C 
HETATM   29  C16 UNL     1      -4.354   0.969   0.688  1.00  0.00     0.298 C 
ENDBRANCH  23  24
ENDBRANCH  22  23
ENDBRANCH  20  22
ENDBRANCH   5  20
TORSDOF 7
