REMARK  6 active torsions:
REMARK  status: ('A' for Active; 'I' for Inactive)
REMARK    1  A    between atoms: N1_1  and  C1_2 
REMARK    2  A    between atoms: N2_7  and  C5_8 
REMARK    3  A    between atoms: C5_8  and  C6_9 
REMARK    4  A    between atoms: C6_9  and  C7_10 
REMARK    5  A    between atoms: C15_20  and  O2_21 
REMARK    6  A    between atoms: O2_21  and  C16_22 
ROOT
HETATM    1  C7  UNL     1      -1.042  -1.068  -0.784  1.00  0.00     0.045 C 
HETATM    2  N3  UNL     1      -1.635  -1.794  -1.670  1.00  0.00    -0.274 NA
HETATM    3  C8  UNL     1      -2.929  -1.810  -2.284  1.00  0.00     0.270 C 
HETATM    4  N4  UNL     1      -3.541  -0.524  -2.493  1.00  0.00    -0.374 N 
HETATM    5  C9  UNL     1      -3.493   0.656  -1.700  1.00  0.00     0.021 A 
HETATM    6  C10 UNL     1      -2.703   0.945  -0.676  1.00  0.00     0.000 A 
HETATM    7  C11 UNL     1      -3.024   2.294  -0.170  1.00  0.00     0.011 A 
HETATM    8  C12 UNL     1      -4.001   2.781  -0.908  1.00  0.00    -0.020 A 
HETATM    9  C13 UNL     1      -4.416   1.816  -1.957  1.00  0.00     0.084 A 
HETATM   10  C14 UNL     1      -1.677   0.051  -0.142  1.00  0.00     0.022 C 
HETATM   11  C15 UNL     1      -1.323   0.353   1.093  1.00  0.00     0.150 C 
HETATM   12  H16 UNL     1      -4.120  -0.417  -3.364  1.00  0.00     0.161 HD
ENDROOT
BRANCH   1  13
HETATM   13  C6  UNL     1       0.376  -1.318  -0.337  1.00  0.00     0.079 C 
BRANCH  13  14
HETATM   14  C5  UNL     1       1.259  -0.160  -0.612  1.00  0.00     0.125 C 
BRANCH  14  15
HETATM   15  N2  UNL     1       2.634  -0.279  -0.237  1.00  0.00    -0.381 N 
HETATM   16  C1  UNL     1       2.880  -0.880   1.021  1.00  0.00     0.338 C 
HETATM   17  C2  UNL     1       3.918  -0.222   1.888  1.00  0.00     0.224 C 
HETATM   18  O1  UNL     1       4.847   0.519   1.191  1.00  0.00    -0.386 OA
HETATM   19  C3  UNL     1       4.183   1.530   0.473  1.00  0.00     0.187 C 
HETATM   20  C4  UNL     1       3.409   0.855  -0.599  1.00  0.00     0.145 C 
BRANCH  16  21
HETATM   21  N1  UNL     1       3.316  -2.270   0.799  1.00  0.00     0.103 N 
HETATM   22  H1  UNL     1       4.362  -2.268   0.604  1.00  0.00     0.315 HD
HETATM   23  H2  UNL     1       2.870  -2.565  -0.096  1.00  0.00     0.315 HD
ENDBRANCH  16  21
ENDBRANCH  14  15
ENDBRANCH  13  14
ENDBRANCH   1  13
BRANCH  11  24
HETATM   24  O2  UNL     1      -0.532   0.047   2.172  1.00  0.00    -0.348 OA
BRANCH  24  25
HETATM   25  C16 UNL     1      -0.885  -0.940   3.134  1.00  0.00     0.288 C 
HETATM   26 CL1  UNL     1       0.366  -1.099   4.369  1.00  0.00    -0.102 Cl
ENDBRANCH  24  25
ENDBRANCH  11  24
TORSDOF 6
