REMARK  7 active torsions:
REMARK  status: ('A' for Active; 'I' for Inactive)
REMARK    1  A    between atoms: O1_2  and  C2_3 
REMARK    2  A    between atoms: C3_5  and  N2_6 
REMARK    3  A    between atoms: N2_6  and  C4_7 
REMARK    4  A    between atoms: C4_7  and  C5_8 
REMARK    5  A    between atoms: C5_8  and  N3_9 
REMARK    6  A    between atoms: C10_16  and  N5_17 
REMARK    7  A    between atoms: N5_17  and  C11_18 
ROOT
HETATM    1  C2  UNL     1      -0.248  -2.954  -0.100  1.00  0.00     0.302 A 
HETATM    2  N1  UNL     1      -1.049  -1.881  -0.010  1.00  0.00    -0.018 NA
HETATM    3  C3  UNL     1      -0.558  -0.650   0.164  1.00  0.00     0.742 A 
HETATM    4  N4  UNL     1       0.773  -0.540   0.243  1.00  0.00     0.130 NA
HETATM    5  C10 UNL     1       1.648  -1.547   0.163  1.00  0.00     0.746 A 
HETATM    6  N6  UNL     1       1.057  -2.741  -0.010  1.00  0.00    -0.017 NA
ENDROOT
BRANCH   3   7
HETATM    7  N2  UNL     1      -1.161   0.609   0.288  1.00  0.00    -0.220 N 
HETATM    8  H4  UNL     1      -1.316   0.694   1.334  1.00  0.00     0.177 HD
BRANCH   7   9
HETATM    9  C4  UNL     1      -1.496   1.564  -0.738  1.00  0.00     0.157 C 
BRANCH   9  10
HETATM   10  C5  UNL     1      -2.526   1.119  -1.714  1.00  0.00     0.137 C 
BRANCH  10  11
HETATM   11  N3  UNL     1      -3.814   0.815  -1.202  1.00  0.00    -0.407 N 
HETATM   12  C6  UNL     1      -3.934  -0.334  -0.374  1.00  0.00     0.143 C 
HETATM   13  C7  UNL     1      -5.405  -0.575  -0.092  1.00  0.00     0.187 C 
HETATM   14  O2  UNL     1      -5.994   0.515   0.538  1.00  0.00    -0.388 OA
HETATM   15  C8  UNL     1      -5.192   1.634   0.609  1.00  0.00     0.187 C 
HETATM   16  C9  UNL     1      -4.589   1.943  -0.752  1.00  0.00     0.143 C 
ENDBRANCH  10  11
ENDBRANCH   9  10
ENDBRANCH   7   9
ENDBRANCH   3   7
BRANCH   1  17
HETATM   17  O1  UNL     1      -0.856  -4.183  -0.279  1.00  0.00    -0.323 OA
HETATM   18  C1  UNL     1      -0.174  -5.393  -0.392  1.00  0.00     0.213 C 
ENDBRANCH   1  17
BRANCH   5  19
HETATM   19  N5  UNL     1       3.059  -1.485   0.241  1.00  0.00    -0.188 N 
HETATM   20  H17 UNL     1       3.587  -2.391   0.155  1.00  0.00     0.184 HD
BRANCH  19  21
HETATM   21  C11 UNL     1       3.856  -0.335   0.424  1.00  0.00     0.049 A 
HETATM   22  C12 UNL     1       3.397   0.956   0.561  1.00  0.00     0.030 A 
HETATM   23  C13 UNL     1       4.166   2.084   0.740  1.00  0.00     0.009 A 
HETATM   24  C14 UNL     1       5.535   1.927   0.789  1.00  0.00    -0.062 A 
HETATM   25  C15 UNL     1       6.396   3.122   0.981  1.00  0.00     0.048 C 
HETATM   26  C16 UNL     1       6.059   0.659   0.658  1.00  0.00     0.009 A 
HETATM   27  C17 UNL     1       5.231  -0.425   0.482  1.00  0.00     0.030 A 
ENDBRANCH  19  21
ENDBRANCH   5  19
TORSDOF 7
