REMARK  7 active torsions:
REMARK  status: ('A' for Active; 'I' for Inactive)
REMARK    1  A    between atoms: O1_1  and  C1_2 
REMARK    2  A    between atoms: C2_4  and  N2_5 
REMARK    3  A    between atoms: N2_5  and  C3_6 
REMARK    4  A    between atoms: C3_6  and  C4_7 
REMARK    5  A    between atoms: C4_7  and  N3_8 
REMARK    6  A    between atoms: C9_15  and  N5_16 
REMARK    7  A    between atoms: N5_16  and  C10_17 
ROOT
HETATM    1  C1  UNL     1       1.110  -0.759  -1.743  1.00  0.00     0.300 A 
HETATM    2  N1  UNL     1       0.205  -0.850  -0.732  1.00  0.00    -0.018 NA
HETATM    3  C2  UNL     1       0.406  -0.186   0.446  1.00  0.00     0.742 A 
HETATM    4  N4  UNL     1       1.546   0.557   0.538  1.00  0.00     0.130 NA
HETATM    5  C9  UNL     1       2.436   0.655  -0.449  1.00  0.00     0.746 A 
HETATM    6  N6  UNL     1       2.206  -0.009  -1.588  1.00  0.00    -0.017 NA
ENDROOT
BRANCH   3   7
HETATM    7  N2  UNL     1      -0.537  -0.273   1.500  1.00  0.00    -0.220 N 
HETATM    8  H2  UNL     1      -0.251   0.086   2.439  1.00  0.00     0.177 HD
BRANCH   7   9
HETATM    9  C3  UNL     1      -1.827  -0.884   1.127  1.00  0.00     0.157 C 
BRANCH   9  10
HETATM   10  C4  UNL     1      -2.519   0.194   0.328  1.00  0.00     0.137 C 
BRANCH  10  11
HETATM   11  N3  UNL     1      -3.783  -0.120  -0.173  1.00  0.00    -0.407 N 
HETATM   12  C5  UNL     1      -4.555   1.033  -0.622  1.00  0.00     0.143 C 
HETATM   13  C6  UNL     1      -5.575   1.219   0.526  1.00  0.00     0.187 C 
HETATM   14  O2  UNL     1      -6.490   0.189   0.527  1.00  0.00    -0.388 OA
HETATM   15  C7  UNL     1      -6.004  -0.968  -0.097  1.00  0.00     0.187 C 
HETATM   16  C8  UNL     1      -4.558  -1.155   0.379  1.00  0.00     0.143 C 
ENDBRANCH  10  11
ENDBRANCH   9  10
ENDBRANCH   7   9
ENDBRANCH   3   7
BRANCH   1  17
HETATM   17  O1  UNL     1       0.941  -1.427  -2.966  1.00  0.00    -0.329 OA
HETATM   18  H1  UNL     1       0.326  -2.250  -2.996  1.00  0.00     0.221 HD
ENDBRANCH   1  17
BRANCH   5  19
HETATM   19  N5  UNL     1       3.556   1.496  -0.132  1.00  0.00    -0.188 N 
HETATM   20  H15 UNL     1       3.451   2.500   0.035  1.00  0.00     0.184 HD
BRANCH  19  21
HETATM   21  C10 UNL     1       4.840   0.905  -0.061  1.00  0.00     0.049 A 
HETATM   22  C11 UNL     1       4.970  -0.451  -0.269  1.00  0.00     0.032 A 
HETATM   23  C12 UNL     1       6.214  -1.051  -0.213  1.00  0.00     0.026 A 
HETATM   24  C13 UNL     1       7.285  -0.217   0.059  1.00  0.00     0.034 A 
HETATM   25 CL1  UNL     1       8.867  -0.988   0.100  1.00  0.00    -0.084 Cl
HETATM   26  C14 UNL     1       7.223   1.122   0.275  1.00  0.00     0.026 A 
HETATM   27  C15 UNL     1       5.962   1.671   0.208  1.00  0.00     0.032 A 
ENDBRANCH  19  21
ENDBRANCH   5  19
TORSDOF 7
