REMARK  5 active torsions:
REMARK  status: ('A' for Active; 'I' for Inactive)
REMARK    1  A    between atoms: O1_2  and  C2_3 
REMARK    2  A    between atoms: C5_6  and  C6_7 
REMARK    3  A    between atoms: N1_8  and  C7_9 
REMARK    4  A    between atoms: N3_12  and  C9_13 
REMARK    5  A    between atoms: C9_13  and  C10_14 
ROOT
HETATM    1  C7  UNL     1      -1.070   0.949  -0.289  1.00  0.00     0.733 C 
HETATM    2  N2  UNL     1      -1.607   0.058  -1.062  1.00  0.00    -0.088 NA
HETATM    3  C8  UNL     1      -2.952   0.510  -1.424  1.00  0.00     0.283 C 
HETATM    4  N3  UNL     1      -3.250   1.405  -0.352  1.00  0.00    -0.190 NA
HETATM    5  N4  UNL     1      -1.996   2.023  -0.090  1.00  0.00    -0.146 N 
HETATM    6  H14 UNL     1      -1.553   2.938   0.181  1.00  0.00     0.200 HD
ENDROOT
BRANCH   1   7
HETATM    7  N1  UNL     1       0.242   0.633   0.138  1.00  0.00    -0.074 NA
HETATM    8  C6  UNL     1       1.245   0.597  -0.673  1.00  0.00     0.147 C 
BRANCH   8   9
HETATM    9  C5  UNL     1       2.567   0.260  -0.138  1.00  0.00    -0.018 A 
HETATM   10  C4  UNL     1       3.710   0.198  -0.941  1.00  0.00     0.015 A 
HETATM   11  C3  UNL     1       4.947  -0.121  -0.418  1.00  0.00     0.037 A 
HETATM   12  C2  UNL     1       5.101  -0.391   0.920  1.00  0.00     0.068 A 
HETATM   13  C15 UNL     1       3.981  -0.337   1.746  1.00  0.00     0.037 A 
HETATM   14  C14 UNL     1       2.737  -0.015   1.216  1.00  0.00     0.015 A 
BRANCH  12  15
HETATM   15  O1  UNL     1       6.256  -0.720   1.580  1.00  0.00    -0.356 OA
HETATM   16  C1  UNL     1       7.528  -0.845   0.991  1.00  0.00     0.210 C 
ENDBRANCH  12  15
ENDBRANCH   8   9
ENDBRANCH   1   7
BRANCH   4  17
HETATM   17  C9  UNL     1      -3.676   0.696   0.826  1.00  0.00     0.181 C 
BRANCH  17  18
HETATM   18  C10 UNL     1      -4.887  -0.096   0.553  1.00  0.00     0.067 A 
HETATM   19  C11 UNL     1      -5.135  -1.390   0.150  1.00  0.00     0.036 A 
HETATM   20  C12 UNL     1      -6.483  -1.618   0.044  1.00  0.00     0.027 A 
HETATM   21  C13 UNL     1      -7.032  -0.392   0.406  1.00  0.00     0.142 A 
HETATM   22  O2  UNL     1      -6.076   0.451   0.689  1.00  0.00    -0.326 OA
ENDBRANCH  17  18
ENDBRANCH   4  17
TORSDOF 5
