REMARK  4 active torsions:
REMARK  status: ('A' for Active; 'I' for Inactive)
REMARK    1  A    between atoms: O1_2  and  C2_3 
REMARK    2  A    between atoms: C5_6  and  N1_7 
REMARK       I    between atoms: N1_7  and  C6_8 
REMARK       I    between atoms: C6_8  and  N3_10 
REMARK       I    between atoms: C7_11  and  N4_12 
REMARK       I    between atoms: C7_11  and  N5_15 
REMARK    3  A    between atoms: N5_15  and  C9_16 
REMARK    4  A    between atoms: C9_16  and  C10_17 
ROOT
HETATM    1  N1  UNL     1       0.595   0.721  -0.832  1.00  0.00    -0.188 N 
HETATM    2  C6  UNL     1      -0.530   1.339  -0.228  1.00  0.00     0.735 C 
HETATM    3  N2  UNL     1      -0.390   2.371   0.519  1.00  0.00    -0.115 NA
HETATM    4  N3  UNL     1      -1.829   0.783  -0.486  1.00  0.00     0.130 NA
HETATM    5  C7  UNL     1      -2.480   0.957  -1.574  1.00  0.00     0.739 C 
HETATM    6  N4  UNL     1      -2.002   1.724  -2.670  1.00  0.00    -0.063 NA
HETATM    7  C8  UNL     1      -2.383   1.549  -3.871  1.00  0.00     0.220 C 
HETATM    8 CL1  UNL     1      -1.431   2.783  -4.656  1.00  0.00    -0.075 Cl
HETATM    9  N5  UNL     1      -3.747   0.334  -1.657  1.00  0.00    -0.216 N 
HETATM   10  H6  UNL     1       0.565   0.447  -1.855  1.00  0.00     0.184 HD
HETATM   11  H7  UNL     1       0.552   2.762   0.686  1.00  0.00     0.206 HD
HETATM   12  H9  UNL     1      -4.064  -0.076  -2.589  1.00  0.00     0.178 HD
ENDROOT
BRANCH   1  13
HETATM   13  C5  UNL     1       1.767   0.447  -0.078  1.00  0.00     0.049 A 
HETATM   14  C4  UNL     1       1.928   0.524   1.280  1.00  0.00     0.033 A 
HETATM   15  C3  UNL     1       3.116   0.248   1.907  1.00  0.00     0.039 A 
HETATM   16  C2  UNL     1       4.232  -0.128   1.192  1.00  0.00     0.068 A 
HETATM   17  C15 UNL     1       4.143  -0.227  -0.178  1.00  0.00     0.039 A 
HETATM   18  C14 UNL     1       2.929   0.060  -0.755  1.00  0.00     0.033 A 
BRANCH  16  19
HETATM   19  O1  UNL     1       5.422  -0.401   1.851  1.00  0.00    -0.356 OA
HETATM   20  C1  UNL     1       6.556  -0.787   1.096  1.00  0.00     0.210 C 
ENDBRANCH  16  19
ENDBRANCH   1  13
BRANCH   9  21
HETATM   21  C9  UNL     1      -4.664   0.211  -0.552  1.00  0.00     0.203 C 
BRANCH  21  22
HETATM   22  C10 UNL     1      -4.058  -0.545   0.555  1.00  0.00     0.070 A 
HETATM   23  C11 UNL     1      -3.365  -0.211   1.677  1.00  0.00     0.036 A 
HETATM   24  C12 UNL     1      -3.028  -1.349   2.378  1.00  0.00     0.027 A 
HETATM   25  C13 UNL     1      -3.558  -2.379   1.612  1.00  0.00     0.142 A 
HETATM   26  O2  UNL     1      -4.144  -1.864   0.569  1.00  0.00    -0.325 OA
ENDBRANCH  21  22
ENDBRANCH   9  21
TORSDOF 4
