REMARK  4 active torsions:
REMARK  status: ('A' for Active; 'I' for Inactive)
REMARK    1  A    between atoms: O1_1  and  C1_2 
REMARK    2  A    between atoms: C5_6  and  N1_7 
REMARK    3  A    between atoms: C8_13  and  C9_14 
REMARK    4  A    between atoms: C9_14  and  C10_15 
ROOT
HETATM    1  N1  UNL     1       0.405  -0.324   0.519  1.00  0.00    -0.226 N 
HETATM    2  C6  UNL     1       0.394  -0.566   1.937  1.00  0.00     0.238 C 
HETATM    3  N2  UNL     1      -0.593  -1.067   2.620  1.00  0.00    -0.211 NA
HETATM    4  C7  UNL     1      -1.876  -1.495   2.172  1.00  0.00     0.226 C 
HETATM    5 CL1  UNL     1      -2.834  -2.290   3.402  1.00  0.00    -0.041 Cl
HETATM    6  N3  UNL     1      -2.434  -1.380   0.992  1.00  0.00    -0.201 NA
HETATM    7  C8  UNL     1      -1.898  -0.786  -0.185  1.00  0.00     0.156 C 
HETATM    8  N4  UNL     1      -0.681  -0.337  -0.378  1.00  0.00    -0.150 NA
ENDROOT
BRANCH   1   9
HETATM    9  C5  UNL     1       1.710  -0.041   0.014  1.00  0.00     0.059 C 
HETATM   10  C4  UNL     1       2.061   1.213  -0.226  1.00  0.00     0.031 C 
HETATM   11  C3  UNL     1       3.343   1.691  -0.741  1.00  0.00     0.001 C 
HETATM   12  C2  UNL     1       4.506   1.074  -0.736  1.00  0.00     0.008 C 
HETATM   13  C1  UNL     1       4.964  -0.250  -0.248  1.00  0.00     0.164 C 
HETATM   14  C15 UNL     1       3.855  -1.251  -0.283  1.00  0.00     0.011 C 
HETATM   15  C14 UNL     1       2.535  -1.230  -0.184  1.00  0.00     0.030 C 
BRANCH  13  16
HETATM   16  O1  UNL     1       6.058  -0.722  -0.934  1.00  0.00    -0.388 OA
HETATM   17  H1  UNL     1       6.881  -0.522  -0.388  1.00  0.00     0.210 HD
ENDBRANCH  13  16
ENDBRANCH   1   9
BRANCH   7  18
HETATM   18  C9  UNL     1      -2.830  -0.659  -1.336  1.00  0.00     0.147 C 
BRANCH  18  19
HETATM   19  C10 UNL     1      -4.000   0.189  -0.937  1.00  0.00     0.059 A 
HETATM   20  C11 UNL     1      -4.153   1.557  -1.035  1.00  0.00     0.035 A 
HETATM   21  C12 UNL     1      -5.398   1.825  -0.535  1.00  0.00     0.027 A 
HETATM   22  C13 UNL     1      -5.975   0.640  -0.148  1.00  0.00     0.142 A 
HETATM   23  O2  UNL     1      -5.109  -0.297  -0.407  1.00  0.00    -0.327 OA
ENDBRANCH  18  19
ENDBRANCH   7  18
TORSDOF 4
