REMARK  6 active torsions:
REMARK  status: ('A' for Active; 'I' for Inactive)
REMARK    1  A    between atoms: O1_2  and  C2_3 
REMARK    2  A    between atoms: C5_6  and  N1_7 
REMARK    3  A    between atoms: N1_7  and  C6_8 
REMARK    4  A    between atoms: C8_13  and  N3_14 
REMARK    5  A    between atoms: N3_14  and  C9_15 
REMARK    6  A    between atoms: C9_15  and  C10_16 
ROOT
HETATM    1  C6  UNL     1      -0.098  -0.835  -0.127  1.00  0.00     0.074 C 
HETATM    2  B1  UNL     1      -0.499  -1.725   1.554  1.00  0.00     0.316 B 
HETATM    3  C7  UNL     1       1.103  -2.626   1.899  1.00  0.00     0.077 C 
HETATM    4 CL1  UNL     1       1.312  -4.302   2.310  1.00  0.00    -0.081 Cl
HETATM    5  N2  UNL     1       2.117  -1.757   1.769  1.00  0.00    -0.068 NA
HETATM    6  C8  UNL     1       2.040  -0.697   0.911  1.00  0.00     0.723 C 
HETATM    7  N4  UNL     1       1.067  -0.290   0.078  1.00  0.00    -0.063 NA
ENDROOT
BRANCH   1   8
HETATM    8  N1  UNL     1      -1.307  -1.288  -0.616  1.00  0.00    -0.354 N 
HETATM    9  H6  UNL     1      -1.139  -2.178  -1.169  1.00  0.00     0.166 HD
BRANCH   8  10
HETATM   10  C5  UNL     1      -2.598  -0.728  -0.466  1.00  0.00     0.032 A 
HETATM   11  C4  UNL     1      -3.643  -1.466  -0.962  1.00  0.00     0.032 A 
HETATM   12  C3  UNL     1      -4.944  -1.018  -0.870  1.00  0.00     0.039 A 
HETATM   13  C2  UNL     1      -5.258   0.176  -0.285  1.00  0.00     0.068 A 
HETATM   14  C15 UNL     1      -4.208   0.924   0.216  1.00  0.00     0.039 A 
HETATM   15  C14 UNL     1      -2.912   0.460   0.114  1.00  0.00     0.032 A 
BRANCH  13  16
HETATM   16  O1  UNL     1      -6.608   0.491  -0.266  1.00  0.00    -0.356 OA
HETATM   17  C1  UNL     1      -7.051   1.702   0.315  1.00  0.00     0.210 C 
ENDBRANCH  13  16
ENDBRANCH   8  10
ENDBRANCH   1   8
BRANCH   6  18
HETATM   18  N3  UNL     1       3.215   0.120   0.873  1.00  0.00    -0.216 N 
HETATM   19  H7  UNL     1       3.481   0.879   1.556  1.00  0.00     0.178 HD
BRANCH  18  20
HETATM   20  C9  UNL     1       4.002  -0.264  -0.292  1.00  0.00     0.203 C 
BRANCH  20  21
HETATM   21  C10 UNL     1       5.285   0.453  -0.403  1.00  0.00     0.070 A 
HETATM   22  C11 UNL     1       5.397   1.673  -1.061  1.00  0.00     0.036 A 
HETATM   23  C12 UNL     1       6.744   1.975  -0.926  1.00  0.00     0.027 A 
HETATM   24  C13 UNL     1       7.330   0.966  -0.232  1.00  0.00     0.142 A 
HETATM   25  O2  UNL     1       6.461   0.053   0.085  1.00  0.00    -0.325 OA
ENDBRANCH  20  21
ENDBRANCH  18  20
ENDBRANCH   6  18
TORSDOF 6
