REMARK  4 active torsions:
REMARK  status: ('A' for Active; 'I' for Inactive)
REMARK    1  A    between atoms: C3_3  and  C5_5 
REMARK    2  A    between atoms: C6_7  and  N2_8 
REMARK    3  A    between atoms: N2_8  and  C7_9 
REMARK    4  A    between atoms: C10_12  and  O1_13 
ROOT
HETATM    1  C5  UNL     1      -1.892   0.418   0.412  1.00  0.00     0.079 C 
HETATM    2  N1  UNL     1      -1.031  -0.483   0.018  1.00  0.00    -0.065 NA
HETATM    3  C6  UNL     1       0.333  -0.616   0.438  1.00  0.00     0.730 C 
HETATM    4  N3  UNL     1       0.841  -0.232   1.561  1.00  0.00    -0.031 NA
HETATM    5  C13 UNL     1       0.127   0.409   2.612  1.00  0.00     0.236 C 
HETATM    6 CL1  UNL     1       0.655   0.261   4.302  1.00  0.00    -0.041 Cl
HETATM    7  N4  UNL     1      -0.923   1.140   2.536  1.00  0.00    -0.254 NA
HETATM    8  C14 UNL     1      -1.670   1.519   1.377  1.00  0.00     0.212 C 
ENDROOT
BRANCH   3   9
HETATM    9  N2  UNL     1       1.262  -1.231  -0.440  1.00  0.00    -0.188 N 
HETATM   10  H8  UNL     1       0.891  -2.002  -1.041  1.00  0.00     0.184 HD
BRANCH   9  11
HETATM   11  C7  UNL     1       2.622  -0.856  -0.540  1.00  0.00     0.049 A 
HETATM   12  C8  UNL     1       3.265   0.198   0.054  1.00  0.00     0.033 A 
HETATM   13  C9  UNL     1       4.603   0.478  -0.100  1.00  0.00     0.039 A 
HETATM   14  C10 UNL     1       5.391  -0.327  -0.895  1.00  0.00     0.065 A 
HETATM   15  C11 UNL     1       4.806  -1.405  -1.523  1.00  0.00     0.039 A 
HETATM   16  C12 UNL     1       3.463  -1.628  -1.326  1.00  0.00     0.033 A 
BRANCH  14  17
HETATM   17  O1  UNL     1       6.725   0.039  -0.985  1.00  0.00    -0.361 OA
HETATM   18  H11 UNL     1       6.927   0.948  -1.388  1.00  0.00     0.217 HD
ENDBRANCH  14  17
ENDBRANCH   9  11
ENDBRANCH   3   9
BRANCH   1  19
HETATM   19  C3  UNL     1      -3.207   0.281  -0.206  1.00  0.00    -0.039 C 
HETATM   20  C2  UNL     1      -4.287   1.025  -0.025  1.00  0.00    -0.022 C 
HETATM   21  C1  UNL     1      -5.483   0.651  -0.788  1.00  0.00     0.036 C 
HETATM   22  C4  UNL     1      -3.471  -0.805  -1.181  1.00  0.00     0.050 C 
ENDBRANCH   1  19
TORSDOF 4
