REMARK  6 active torsions:
REMARK  status: ('A' for Active; 'I' for Inactive)
REMARK    1  A    between atoms: O1_1  and  C1_2 
REMARK    2  A    between atoms: C4_5  and  N1_6 
REMARK    3  A    between atoms: N1_6  and  C5_7 
REMARK    4  A    between atoms: C7_12  and  N4_13 
REMARK    5  A    between atoms: N4_13  and  C8_14 
REMARK    6  A    between atoms: C8_14  and  C9_15 
ROOT
HETATM    1  C5  UNL     1       0.541  -1.465   0.588  1.00  0.00     0.745 A 
HETATM    2  N2  UNL     1      -0.364  -2.397   0.918  1.00  0.00    -0.030 NA
HETATM    3  C6  UNL     1      -1.643  -2.122   1.206  1.00  0.00     0.259 A 
HETATM    4 CL1  UNL     1      -2.677  -3.463   1.613  1.00  0.00    -0.040 Cl
HETATM    5  N3  UNL     1      -2.054  -0.844   1.166  1.00  0.00    -0.030 NA
HETATM    6  C7  UNL     1      -1.190   0.132   0.843  1.00  0.00     0.741 A 
HETATM    7  N5  UNL     1       0.072  -0.217   0.567  1.00  0.00     0.130 NA
ENDROOT
BRANCH   1   8
HETATM    8  N1  UNL     1       1.874  -1.857   0.299  1.00  0.00    -0.188 N 
HETATM    9  H4  UNL     1       2.087  -2.898   0.362  1.00  0.00     0.184 HD
BRANCH   8  10
HETATM   10  C4  UNL     1       2.983  -1.052  -0.066  1.00  0.00     0.049 A 
HETATM   11  C3  UNL     1       4.223  -1.603  -0.315  1.00  0.00     0.033 A 
HETATM   12  C2  UNL     1       5.313  -0.864  -0.668  1.00  0.00     0.039 A 
HETATM   13  C1  UNL     1       5.227   0.506  -0.799  1.00  0.00     0.065 A 
HETATM   14  C14 UNL     1       4.012   1.112  -0.563  1.00  0.00     0.039 A 
HETATM   15  C13 UNL     1       2.950   0.314  -0.210  1.00  0.00     0.033 A 
BRANCH  13  16
HETATM   16  O1  UNL     1       6.362   1.191  -1.158  1.00  0.00    -0.361 OA
HETATM   17  H1  UNL     1       7.113   1.439  -0.502  1.00  0.00     0.217 HD
ENDBRANCH  13  16
ENDBRANCH   8  10
ENDBRANCH   1   8
BRANCH   6  18
HETATM   18  N4  UNL     1      -1.612   1.491   0.797  1.00  0.00    -0.216 N 
HETATM   19  H5  UNL     1      -0.918   2.226   0.542  1.00  0.00     0.178 HD
BRANCH  18  20
HETATM   20  C8  UNL     1      -2.995   1.797   1.108  1.00  0.00     0.203 C 
BRANCH  20  21
HETATM   21  C9  UNL     1      -3.959   1.132   0.200  1.00  0.00     0.070 A 
HETATM   22  C10 UNL     1      -4.453   1.647  -0.995  1.00  0.00     0.036 A 
HETATM   23  C11 UNL     1      -5.330   0.709  -1.539  1.00  0.00     0.027 A 
HETATM   24  C12 UNL     1      -5.310  -0.327  -0.626  1.00  0.00     0.142 A 
HETATM   25  O2  UNL     1      -4.504  -0.060   0.381  1.00  0.00    -0.325 OA
ENDBRANCH  20  21
ENDBRANCH  18  20
ENDBRANCH   6  18
TORSDOF 6
