REMARK  2 active torsions:
REMARK  status: ('A' for Active; 'I' for Inactive)
REMARK       I    between atoms: C10_14  and  N4_15 
REMARK    1  A    between atoms: N4_15  and  C11_16 
REMARK    2  A    between atoms: C17_23  and  N6_24 
ROOT
HETATM    1  C1  UNL     1      -0.098   2.774  -0.574  1.00  0.00     0.040 C 
HETATM    2  C2  UNL     1       0.940   1.799  -1.042  1.00  0.00     0.175 C 
HETATM    3  N1  UNL     1       1.800   1.304  -0.096  1.00  0.00    -0.189 NA
HETATM    4  N2  UNL     1       2.585   1.855   0.670  1.00  0.00    -0.193 NA
HETATM    5  C3  UNL     1       3.354   0.889   1.563  1.00  0.00     0.211 C 
HETATM    6  C4  UNL     1       2.828  -0.443   1.041  1.00  0.00    -0.037 A 
HETATM    7  C5  UNL     1       3.635  -1.101   0.162  1.00  0.00     0.012 A 
HETATM    8  C6  UNL     1       3.017  -2.149  -0.483  1.00  0.00     0.040 A 
HETATM    9  C7  UNL     1       1.716  -2.284  -0.080  1.00  0.00     0.099 A 
HETATM   10  C8  UNL     1       0.955  -1.585   0.826  1.00  0.00     0.040 A 
HETATM   11  C9  UNL     1       1.535  -0.530   1.492  1.00  0.00     0.012 A 
HETATM   12  O1  UNL     1       0.791  -3.254  -0.573  1.00  0.00    -0.224 OA
HETATM   13  N3  UNL     1      -0.220  -2.680  -1.410  1.00  0.00    -0.089 N 
HETATM   14  C10 UNL     1      -0.766  -1.322  -1.246  1.00  0.00     0.722 C 
HETATM   15  N4  UNL     1      -2.088  -1.545  -0.676  1.00  0.00    -0.189 N 
HETATM   16  N5  UNL     1      -0.714  -0.042  -1.365  1.00  0.00    -0.073 NA
HETATM   17  C17 UNL     1       0.318   0.714  -1.925  1.00  0.00     0.296 C 
HETATM   18  H11 UNL     1      -0.657  -3.205  -2.224  1.00  0.00     0.213 HD
HETATM   19  H12 UNL     1      -2.707  -2.373  -0.990  1.00  0.00     0.184 HD
ENDROOT
BRANCH  15  20
HETATM   20  C11 UNL     1      -2.740  -0.753   0.335  1.00  0.00     0.049 A 
HETATM   21  C12 UNL     1      -2.140   0.261   1.046  1.00  0.00     0.030 A 
HETATM   22  C13 UNL     1      -2.750   1.037   2.003  1.00  0.00     0.002 A 
HETATM   23  C14 UNL     1      -4.070   0.798   2.290  1.00  0.00     0.000 A 
HETATM   24  C15 UNL     1      -4.709  -0.206   1.604  1.00  0.00     0.002 A 
HETATM   25  C16 UNL     1      -4.060  -0.959   0.653  1.00  0.00     0.030 A 
ENDBRANCH  15  20
BRANCH  17  26
HETATM   26  N6  UNL     1       1.425  -0.035  -2.452  1.00  0.00    -0.170 NA
HETATM   27  N7  UNL     1       2.218   0.415  -3.271  1.00  0.00    -0.206 NA
HETATM   28  H19 UNL     1       2.117   1.395  -3.630  1.00  0.00     0.211 HD
ENDBRANCH  17  26
TORSDOF 2
