REMARK  7 active torsions:
REMARK  status: ('A' for Active; 'I' for Inactive)
REMARK    1  A    between atoms: C2_2  and  C3_3 
REMARK    2  A    between atoms: C4_5  and  N2_6 
REMARK    3  A    between atoms: N3_7  and  C5_8 
REMARK    4  A    between atoms: C5_8  and  C6_9 
REMARK    5  A    between atoms: C9_12  and  O1_13 
REMARK    6  A    between atoms: C12_16  and  N4_17 
REMARK    7  A    between atoms: N4_17  and  C13_18 
ROOT
HETATM    1  C3  UNL     1       0.618   2.979  -0.554  1.00  0.00     0.125 A 
HETATM    2  N1  UNL     1      -0.357   2.450  -1.214  1.00  0.00    -0.237 NA
HETATM    3  C4  UNL     1      -0.132   1.045  -1.359  1.00  0.00     0.322 A 
HETATM    4  C12 UNL     1       1.144   0.819  -0.674  1.00  0.00     0.154 A 
HETATM    5  N5  UNL     1       1.561   1.970  -0.212  1.00  0.00    -0.216 NA
ENDROOT
BRANCH   3   6
HETATM    6  N2  UNL     1      -1.154   0.343  -0.635  1.00  0.00    -0.162 NA
HETATM    7  N3  UNL     1      -1.314   0.596   0.571  1.00  0.00    -0.191 NA
BRANCH   7   8
HETATM    8  C5  UNL     1      -2.281  -0.013   1.421  1.00  0.00     0.211 C 
BRANCH   8   9
HETATM    9  C6  UNL     1      -3.431  -0.587   0.711  1.00  0.00    -0.037 A 
HETATM   10  C7  UNL     1      -4.580   0.141   0.440  1.00  0.00     0.012 A 
HETATM   11  C8  UNL     1      -5.640  -0.429  -0.228  1.00  0.00     0.037 A 
HETATM   12  C9  UNL     1      -5.506  -1.754  -0.614  1.00  0.00     0.065 A 
HETATM   13  C10 UNL     1      -4.376  -2.509  -0.360  1.00  0.00     0.037 A 
HETATM   14  C11 UNL     1      -3.341  -1.902   0.309  1.00  0.00     0.012 A 
BRANCH  12  15
HETATM   15  O1  UNL     1      -6.550  -2.360  -1.287  1.00  0.00    -0.361 OA
HETATM   16  H11 UNL     1      -7.096  -3.069  -0.847  1.00  0.00     0.217 HD
ENDBRANCH  12  15
ENDBRANCH   8   9
ENDBRANCH   7   8
ENDBRANCH   3   6
BRANCH   4  17
HETATM   17  N4  UNL     1       1.803  -0.412  -0.538  1.00  0.00    -0.350 N 
HETATM   18  H14 UNL     1       1.630  -1.201  -1.214  1.00  0.00     0.166 HD
BRANCH  17  19
HETATM   19  C13 UNL     1       2.731  -0.648   0.514  1.00  0.00     0.101 C 
HETATM   20  C14 UNL     1       3.790  -1.444   0.413  1.00  0.00    -0.020 C 
HETATM   21  C15 UNL     1       4.740  -1.676   1.516  1.00  0.00     0.025 C 
HETATM   22  C19 UNL     1       4.121  -2.174  -0.812  1.00  0.00     0.013 C 
HETATM   23  C16 UNL     1       5.649  -2.609   1.437  1.00  0.00    -0.025 C 
HETATM   24  C17 UNL     1       6.078  -3.106   0.336  1.00  0.00     0.012 C 
HETATM   25  C18 UNL     1       5.208  -2.962  -0.845  1.00  0.00     0.002 C 
ENDBRANCH  17  19
ENDBRANCH   4  17
BRANCH   1  26
HETATM   26  C2  UNL     1       0.782   4.405  -0.181  1.00  0.00     0.075 C 
HETATM   27  C1  UNL     1       0.859   4.613   1.323  1.00  0.00     0.013 C 
ENDBRANCH   1  26
TORSDOF 7
