REMARK  5 active torsions:
REMARK  status: ('A' for Active; 'I' for Inactive)
REMARK    1  A    between atoms: O1_2  and  C2_3 
REMARK    2  A    between atoms: C5_6  and  N1_7 
REMARK    3  A    between atoms: N1_7  and  C6_8 
REMARK    4  A    between atoms: N3_12  and  C9_13 
REMARK    5  A    between atoms: C9_13  and  C10_14 
ROOT
HETATM    1  C6  UNL     1      -0.786  -0.557  -0.901  1.00  0.00     0.210 C 
HETATM    2  C7  UNL     1      -0.536   0.843  -0.471  1.00  0.00     0.126 C 
HETATM    3  N2  UNL     1      -1.011   1.119   0.708  1.00  0.00    -0.287 NA
HETATM    4  C8  UNL     1      -1.691   0.082   1.424  1.00  0.00     0.256 C 
HETATM    5  N3  UNL     1      -2.619  -0.648   0.602  1.00  0.00    -0.224 NA
HETATM    6  N4  UNL     1      -2.182  -0.853  -0.695  1.00  0.00    -0.230 NA
HETATM    7  H16 UNL     1      -2.801  -0.495  -1.426  1.00  0.00     0.143 HD
ENDROOT
BRANCH   1   8
HETATM    8  N1  UNL     1       0.011  -1.533  -0.209  1.00  0.00    -0.368 N 
HETATM    9  H6  UNL     1      -0.433  -2.288   0.359  1.00  0.00     0.161 HD
BRANCH   8  10
HETATM   10  C5  UNL     1       1.432  -1.512  -0.266  1.00  0.00     0.029 A 
HETATM   11  C4  UNL     1       2.146  -0.573  -0.981  1.00  0.00     0.032 A 
HETATM   12  C3  UNL     1       3.527  -0.535  -1.048  1.00  0.00     0.039 A 
HETATM   13  C2  UNL     1       4.241  -1.504  -0.354  1.00  0.00     0.068 A 
HETATM   14  C15 UNL     1       3.593  -2.471   0.380  1.00  0.00     0.039 A 
HETATM   15  C14 UNL     1       2.204  -2.441   0.398  1.00  0.00     0.032 A 
BRANCH  13  16
HETATM   16  O1  UNL     1       5.618  -1.481  -0.411  1.00  0.00    -0.356 OA
HETATM   17  C1  UNL     1       6.347  -0.534  -1.131  1.00  0.00     0.210 C 
ENDBRANCH  13  16
ENDBRANCH   8  10
ENDBRANCH   1   8
BRANCH   5  18
HETATM   18  C9  UNL     1      -3.970  -0.125   0.651  1.00  0.00     0.174 C 
BRANCH  18  19
HETATM   19  C10 UNL     1      -3.972   1.278   0.179  1.00  0.00     0.067 A 
HETATM   20  C11 UNL     1      -3.808   2.446   0.897  1.00  0.00     0.036 A 
HETATM   21  C12 UNL     1      -3.895   3.483  -0.031  1.00  0.00     0.027 A 
HETATM   22  C13 UNL     1      -4.109   2.866  -1.268  1.00  0.00     0.142 A 
HETATM   23  O2  UNL     1      -4.144   1.575  -1.075  1.00  0.00    -0.326 OA
ENDBRANCH  18  19
ENDBRANCH   5  18
TORSDOF 5
