REMARK  6 active torsions:
REMARK  status: ('A' for Active; 'I' for Inactive)
REMARK    1  A    between atoms: N1_2  and  C2_3 
REMARK    2  A    between atoms: C3_5  and  N3_6 
REMARK    3  A    between atoms: N4_7  and  C4_8 
REMARK    4  A    between atoms: C4_8  and  C5_9 
REMARK    5  A    between atoms: C8_12  and  O1_13 
REMARK    6  A    between atoms: C11_17  and  N6_18 
ROOT
HETATM    1  C2  UNL     1      -1.083   2.159   0.927  1.00  0.00     0.753 A 
HETATM    2  N2  UNL     1      -0.082   1.552   1.590  1.00  0.00     0.134 NA
HETATM    3  C3  UNL     1      -0.133   0.243   1.776  1.00  0.00     0.798 A 
HETATM    4  N5  UNL     1      -1.179  -0.422   1.296  1.00  0.00     0.135 NA
HETATM    5  C11 UNL     1      -2.213   0.118   0.626  1.00  0.00     0.760 A 
HETATM    6  N7  UNL     1      -2.116   1.451   0.463  1.00  0.00     0.131 NA
ENDROOT
BRANCH   3   7
HETATM    7  N3  UNL     1       0.805  -0.606   2.442  1.00  0.00     0.042 NA
HETATM    8  N4  UNL     1       1.833  -0.937   1.776  1.00  0.00    -0.172 NA
BRANCH   8   9
HETATM    9  C4  UNL     1       1.955  -0.431   0.422  1.00  0.00     0.212 C 
BRANCH   9  10
HETATM   10  C5  UNL     1       3.386  -0.693   0.029  1.00  0.00    -0.037 A 
HETATM   11  C6  UNL     1       3.851  -1.839  -0.584  1.00  0.00     0.012 A 
HETATM   12  C7  UNL     1       5.196  -1.937  -0.886  1.00  0.00     0.037 A 
HETATM   13  C8  UNL     1       6.090  -0.920  -0.593  1.00  0.00     0.065 A 
HETATM   14  C9  UNL     1       5.587   0.205   0.018  1.00  0.00     0.037 A 
HETATM   15  C10 UNL     1       4.252   0.358   0.343  1.00  0.00     0.012 A 
BRANCH  13  16
HETATM   16  O1  UNL     1       7.434  -1.047  -0.908  1.00  0.00    -0.361 OA
HETATM   17  H9  UNL     1       8.084  -0.455  -0.384  1.00  0.00     0.217 HD
ENDBRANCH  13  16
ENDBRANCH   9  10
ENDBRANCH   8   9
ENDBRANCH   3   7
BRANCH   1  18
HETATM   18  N1  UNL     1      -1.022   3.567   0.731  1.00  0.00    -0.226 N 
HETATM   19  C1  UNL     1      -2.092   4.237   0.020  1.00  0.00     0.165 C 
HETATM   20  H4  UNL     1      -0.228   4.129   1.086  1.00  0.00     0.177 HD
ENDBRANCH   1  18
BRANCH   5  21
HETATM   21  N6  UNL     1      -3.310  -0.650   0.135  1.00  0.00    -0.185 N 
HETATM   22  C12 UNL     1      -4.330   0.063  -0.556  1.00  0.00     0.109 A 
HETATM   23  C13 UNL     1      -5.349  -0.643  -1.013  1.00  0.00     0.018 A 
HETATM   24  C14 UNL     1      -5.478  -2.086  -0.850  1.00  0.00    -0.001 A 
HETATM   25  C15 UNL     1      -4.500  -2.667  -0.205  1.00  0.00    -0.006 A 
HETATM   26  C16 UNL     1      -3.273  -2.079   0.390  1.00  0.00     0.174 A 
ENDBRANCH   5  21
TORSDOF 6
