REMARK  6 active torsions:
REMARK  status: ('A' for Active; 'I' for Inactive)
REMARK    1  A    between atoms: O1_2  and  C2_3 
REMARK    2  A    between atoms: C5_6  and  N1_7 
REMARK    3  A    between atoms: N1_7  and  C6_8 
REMARK    4  A    between atoms: C8_12  and  N4_13 
REMARK    5  A    between atoms: N4_13  and  C9_14 
REMARK    6  A    between atoms: C10_15  and  N5_16 
ROOT
HETATM    1  C6  UNL     1      -0.152   0.604   0.929  1.00  0.00     0.150 A 
HETATM    2  N2  UNL     1       0.150   0.794   2.193  1.00  0.00    -0.225 NA
HETATM    3  C7  UNL     1      -0.995   0.393   2.974  1.00  0.00     0.232 A 
HETATM    4  N3  UNL     1      -1.944  -0.019   2.214  1.00  0.00    -0.249 NA
HETATM    5  C8  UNL     1      -1.515   0.069   0.846  1.00  0.00     0.277 A 
ENDROOT
BRANCH   1   6
HETATM    6  N1  UNL     1       0.752   0.895  -0.139  1.00  0.00    -0.341 N 
HETATM    7  H6  UNL     1       0.327   1.315  -1.019  1.00  0.00     0.167 HD
BRANCH   6   8
HETATM    8  C5  UNL     1       2.136   0.631  -0.017  1.00  0.00     0.033 A 
HETATM    9  C4  UNL     1       3.118   1.442   0.493  1.00  0.00     0.032 A 
HETATM   10  C3  UNL     1       4.455   1.134   0.583  1.00  0.00     0.039 A 
HETATM   11  C2  UNL     1       4.829  -0.121   0.109  1.00  0.00     0.068 A 
HETATM   12  C14 UNL     1       3.906  -1.009  -0.423  1.00  0.00     0.039 A 
HETATM   13  C13 UNL     1       2.563  -0.621  -0.480  1.00  0.00     0.032 A 
BRANCH  11  14
HETATM   14  O1  UNL     1       6.199  -0.421   0.210  1.00  0.00    -0.356 OA
HETATM   15  C1  UNL     1       6.713  -1.661  -0.235  1.00  0.00     0.210 C 
ENDBRANCH  11  14
ENDBRANCH   6   8
ENDBRANCH   1   6
BRANCH   5  16
HETATM   16  N4  UNL     1      -2.447   0.947   0.137  1.00  0.00    -0.361 N 
HETATM   17  H9  UNL     1      -2.178   1.864  -0.283  1.00  0.00     0.162 HD
BRANCH  16  18
HETATM   18  C9  UNL     1      -3.801   0.543   0.004  1.00  0.00     0.050 C 
HETATM   19  C10 UNL     1      -4.493  -0.417  -0.587  1.00  0.00     0.032 C 
HETATM   20  C11 UNL     1      -5.947  -0.223  -0.293  1.00  0.00     0.220 C 
HETATM   21  O2  UNL     1      -5.974   0.734   0.692  1.00  0.00    -0.380 OA
HETATM   22  C12 UNL     1      -4.781   1.413   0.720  1.00  0.00     0.226 C 
BRANCH  19  23
HETATM   23  N5  UNL     1      -4.179  -1.550  -1.410  1.00  0.00    -0.303 NA
HETATM   24  H10 UNL     1      -3.301  -2.144  -1.308  1.00  0.00     0.124 HD
HETATM   25  H11 UNL     1      -3.305  -2.103  -1.274  1.00  0.00     0.124 HD
ENDBRANCH  19  23
ENDBRANCH  16  18
ENDBRANCH   5  16
TORSDOF 6
