REMARK  8 active torsions:
REMARK  status: ('A' for Active; 'I' for Inactive)
REMARK    1  A    between atoms: N1_2  and  C2_3 
REMARK    2  A    between atoms: C3_5  and  N3_6 
REMARK    3  A    between atoms: N4_7  and  C4_8 
REMARK    4  A    between atoms: C4_8  and  C5_9 
REMARK    5  A    between atoms: C8_12  and  O1_13 
REMARK    6  A    between atoms: C11_17  and  N6_18 
REMARK    7  A    between atoms: N6_18  and  C12_19 
REMARK    8  A    between atoms: C12_19  and  C13_20 
ROOT
HETATM    1  C2  UNL     1      -0.577  -2.664   0.378  1.00  0.00     0.753 A 
HETATM    2  N2  UNL     1       0.478  -1.913   0.792  1.00  0.00     0.134 NA
HETATM    3  C3  UNL     1       0.504  -0.588   0.448  1.00  0.00     0.798 A 
HETATM    4  N5  UNL     1      -0.518  -0.113  -0.280  1.00  0.00     0.134 NA
HETATM    5  C11 UNL     1      -1.579  -0.832  -0.704  1.00  0.00     0.754 A 
HETATM    6  N7  UNL     1      -1.596  -2.128  -0.363  1.00  0.00     0.131 NA
ENDROOT
BRANCH   3   7
HETATM    7  N3  UNL     1       1.308   0.588   0.590  1.00  0.00     0.042 NA
HETATM    8  N4  UNL     1       2.221   0.712  -0.280  1.00  0.00    -0.172 NA
BRANCH   8   9
HETATM    9  C4  UNL     1       3.173   1.739  -0.429  1.00  0.00     0.212 C 
BRANCH   9  10
HETATM   10  C5  UNL     1       4.533   1.307  -0.156  1.00  0.00    -0.037 A 
HETATM   11  C6  UNL     1       5.332   0.708  -1.120  1.00  0.00     0.012 A 
HETATM   12  C7  UNL     1       6.637   0.338  -0.895  1.00  0.00     0.037 A 
HETATM   13  C8  UNL     1       7.094   0.618   0.390  1.00  0.00     0.065 A 
HETATM   14  C9  UNL     1       6.353   1.209   1.391  1.00  0.00     0.037 A 
HETATM   15  C10 UNL     1       5.029   1.568   1.113  1.00  0.00     0.012 A 
BRANCH  13  16
HETATM   16  O1  UNL     1       8.434   0.241   0.631  1.00  0.00    -0.361 OA
HETATM   17  H9  UNL     1       9.085   1.028   0.494  1.00  0.00     0.217 HD
ENDBRANCH  13  16
ENDBRANCH   9  10
ENDBRANCH   8   9
ENDBRANCH   3   7
BRANCH   1  18
HETATM   18  N1  UNL     1      -0.624  -4.032   0.724  1.00  0.00    -0.226 N 
HETATM   19  C1  UNL     1      -1.304  -4.836   1.733  1.00  0.00     0.165 C 
HETATM   20  H4  UNL     1       0.009  -4.453   0.018  1.00  0.00     0.177 HD
ENDBRANCH   1  18
BRANCH   5  21
HETATM   21  N6  UNL     1      -2.762  -0.590  -1.438  1.00  0.00    -0.217 N 
HETATM   22  H12 UNL     1      -2.320  -0.491  -2.378  1.00  0.00     0.178 HD
BRANCH  21  23
HETATM   23  C12 UNL     1      -4.159  -0.479  -1.180  1.00  0.00     0.173 C 
BRANCH  23  24
HETATM   24  C13 UNL     1      -4.556   0.610  -0.255  1.00  0.00    -0.047 C 
HETATM   25  C14 UNL     1      -3.951   1.557   0.432  1.00  0.00    -0.021 C 
HETATM   26  C15 UNL     1      -4.385   2.790   0.297  1.00  0.00     0.012 C 
HETATM   27  C16 UNL     1      -5.576   3.024  -0.543  1.00  0.00    -0.003 C 
HETATM   28  C17 UNL     1      -6.428   2.002  -0.714  1.00  0.00    -0.022 C 
HETATM   29  C18 UNL     1      -6.035   0.728  -0.003  1.00  0.00     0.064 C 
ENDBRANCH  23  24
ENDBRANCH  21  23
ENDBRANCH   5  21
TORSDOF 8
