REMARK  5 active torsions:
REMARK  status: ('A' for Active; 'I' for Inactive)
REMARK    1  A    between atoms: O1_2  and  C2_3 
REMARK    2  A    between atoms: C5_6  and  C6_7 
REMARK    3  A    between atoms: C6_7  and  C7_8 
REMARK    4  A    between atoms: C13_16  and  C14_17 
REMARK    5  A    between atoms: C14_17  and  N3_18 
ROOT
HETATM    1  C7  UNL     1      -0.530   0.446  -0.953  1.00  0.00     0.127 C 
HETATM    2  N1  UNL     1      -1.335  -0.116  -1.720  1.00  0.00    -0.274 NA
HETATM    3  C8  UNL     1      -2.353  -1.093  -1.645  1.00  0.00     0.159 C 
HETATM    4  C9  UNL     1      -2.830  -1.547  -0.322  1.00  0.00     0.026 C 
HETATM    5  C10 UNL     1      -3.782  -2.750  -0.737  1.00  0.00     0.016 C 
HETATM    6  C11 UNL     1      -3.898  -0.739   0.345  1.00  0.00     0.013 C 
HETATM    7  C12 UNL     1      -3.783  -0.619   1.670  1.00  0.00     0.084 C 
HETATM    8  N2  UNL     1      -2.669  -0.030   2.021  1.00  0.00    -0.230 NA
HETATM    9  C13 UNL     1      -1.972   0.400   0.820  1.00  0.00     0.156 C 
HETATM   10  N4  UNL     1      -0.989  -0.229   0.207  1.00  0.00    -0.216 NA
ENDROOT
BRANCH   1  11
HETATM   11  C6  UNL     1       0.546   1.465  -0.992  1.00  0.00     0.118 C 
BRANCH  11  12
HETATM   12  C5  UNL     1       1.845   0.924  -0.512  1.00  0.00    -0.051 A 
HETATM   13  C4  UNL     1       2.248   0.968   0.811  1.00  0.00     0.010 A 
HETATM   14  C3  UNL     1       3.484   0.433   1.149  1.00  0.00     0.037 A 
HETATM   15  C2  UNL     1       4.291  -0.134   0.170  1.00  0.00     0.068 A 
HETATM   16  C16 UNL     1       3.863  -0.163  -1.135  1.00  0.00     0.037 A 
HETATM   17  C15 UNL     1       2.639   0.361  -1.505  1.00  0.00     0.010 A 
BRANCH  15  18
HETATM   18  O1  UNL     1       5.534  -0.686   0.436  1.00  0.00    -0.356 OA
HETATM   19  C1  UNL     1       6.128  -0.744   1.706  1.00  0.00     0.210 C 
ENDBRANCH  15  18
ENDBRANCH  11  12
ENDBRANCH   1  11
BRANCH   9  20
HETATM   20  C14 UNL     1      -2.491   1.744   0.350  1.00  0.00     0.346 C 
BRANCH  20  21
HETATM   21  N3  UNL     1      -2.223   2.765   1.343  1.00  0.00     0.085 N 
HETATM   22  H17 UNL     1      -1.246   2.859   1.628  1.00  0.00     0.313 HD
HETATM   23  H18 UNL     1      -2.745   3.610   1.103  1.00  0.00     0.313 HD
ENDBRANCH  20  21
ENDBRANCH   9  20
TORSDOF 5
