REMARK  5 active torsions:
REMARK  status: ('A' for Active; 'I' for Inactive)
REMARK    1  A    between atoms: N1_2  and  C2_3 
REMARK    2  A    between atoms: C3_5  and  N3_6 
REMARK    3  A    between atoms: N4_7  and  C4_8 
REMARK    4  A    between atoms: C11_16  and  N6_17 
REMARK    5  A    between atoms: N6_17  and  C12_18 
ROOT
HETATM    1  C2  UNL     1      -0.823   2.841   0.322  1.00  0.00     0.753 A 
HETATM    2  N2  UNL     1       0.116   1.923   0.014  1.00  0.00     0.134 NA
HETATM    3  C3  UNL     1      -0.173   0.643  -0.229  1.00  0.00     0.798 A 
HETATM    4  N5  UNL     1      -1.449   0.320  -0.151  1.00  0.00     0.135 NA
HETATM    5  C11 UNL     1      -2.475   1.128   0.144  1.00  0.00     0.758 A 
HETATM    6  N7  UNL     1      -2.084   2.391   0.371  1.00  0.00     0.131 NA
ENDROOT
BRANCH   3   7
HETATM    7  N3  UNL     1       0.771  -0.350  -0.554  1.00  0.00     0.042 NA
HETATM    8  N4  UNL     1       2.012  -0.102  -0.490  1.00  0.00    -0.167 NA
BRANCH   8   9
HETATM    9  C4  UNL     1       3.030  -1.081  -0.811  1.00  0.00     0.158 A 
HETATM   10  C5  UNL     1       4.023  -0.542  -1.764  1.00  0.00     0.002 A 
HETATM   11  C6  UNL     1       5.331  -0.384  -1.788  1.00  0.00    -0.002 A 
HETATM   12  C7  UNL     1       6.015  -0.842  -0.593  1.00  0.00     0.002 A 
HETATM   13  C8  UNL     1       5.200  -1.341   0.316  1.00  0.00    -0.081 A 
HETATM   14  C9  UNL     1       5.832  -1.834   1.576  1.00  0.00     0.043 C 
HETATM   15  C10 UNL     1       3.740  -1.552   0.420  1.00  0.00     0.067 A 
ENDBRANCH   8   9
ENDBRANCH   3   7
BRANCH   1  16
HETATM   16  N1  UNL     1      -0.518   4.208   0.582  1.00  0.00    -0.226 N 
HETATM   17  C1  UNL     1      -1.584   5.142   0.908  1.00  0.00     0.165 C 
HETATM   18  H4  UNL     1       0.508   4.480   0.521  1.00  0.00     0.177 HD
ENDBRANCH   1  16
BRANCH   5  19
HETATM   19  N6  UNL     1      -3.848   0.796   0.232  1.00  0.00    -0.187 N 
HETATM   20  H14 UNL     1      -4.508   1.575   0.477  1.00  0.00     0.184 HD
BRANCH  19  21
HETATM   21  C12 UNL     1      -4.438  -0.465   0.028  1.00  0.00     0.049 A 
HETATM   22  C13 UNL     1      -3.781  -1.629  -0.300  1.00  0.00     0.030 A 
HETATM   23  C14 UNL     1      -4.362  -2.862  -0.499  1.00  0.00     0.002 A 
HETATM   24  C15 UNL     1      -5.730  -2.962  -0.361  1.00  0.00     0.000 A 
HETATM   25  C16 UNL     1      -6.441  -1.828  -0.034  1.00  0.00     0.002 A 
HETATM   26  C17 UNL     1      -5.801  -0.644   0.148  1.00  0.00     0.030 A 
ENDBRANCH  19  21
ENDBRANCH   5  19
TORSDOF 5
