REMARK  7 active torsions:
REMARK  status: ('A' for Active; 'I' for Inactive)
REMARK    1  A    between atoms: C3_3  and  C4_4 
REMARK    2  A    between atoms: C3_3  and  N1_7 
REMARK    3  A    between atoms: C4_4  and  O1_5 
REMARK    4  A    between atoms: N1_7  and  C6_8 
REMARK    5  A    between atoms: C8_13  and  N4_14 
REMARK    6  A    between atoms: N4_14  and  C9_15 
REMARK    7  A    between atoms: C9_15  and  C10_16 
ROOT
HETATM    1  C6  UNL     1      -0.956   0.500   0.627  1.00  0.00     0.745 A 
HETATM    2  N2  UNL     1      -1.222   1.486  -0.260  1.00  0.00    -0.030 NA
HETATM    3  C7  UNL     1      -0.239   2.050  -1.011  1.00  0.00     0.259 A 
HETATM    4 CL1  UNL     1      -0.558   3.334  -2.174  1.00  0.00    -0.040 Cl
HETATM    5  N3  UNL     1       1.040   1.628  -0.880  1.00  0.00    -0.030 NA
HETATM    6  C8  UNL     1       1.292   0.649   0.004  1.00  0.00     0.741 A 
HETATM    7  N5  UNL     1       0.313   0.074   0.764  1.00  0.00     0.130 NA
ENDROOT
BRANCH   1   8
HETATM    8  N1  UNL     1      -2.148   0.092   1.279  1.00  0.00    -0.189 N 
HETATM    9  H10 UNL     1      -2.612   0.357   2.177  1.00  0.00     0.184 HD
BRANCH   8  10
HETATM   10  C3  UNL     1      -2.879  -0.895   0.559  1.00  0.00     0.046 C 
HETATM   11  C2  UNL     1      -2.663  -2.196   0.610  1.00  0.00    -0.003 C 
HETATM   12  C1  UNL     1      -3.459  -3.136  -0.162  1.00  0.00     0.038 C 
BRANCH  10  13
HETATM   13  C4  UNL     1      -3.915  -0.180  -0.249  1.00  0.00     0.224 C 
BRANCH  13  14
HETATM   14  O1  UNL     1      -4.795   0.545   0.519  1.00  0.00    -0.390 OA
HETATM   15  C5  UNL     1      -5.750   1.220  -0.206  1.00  0.00     0.201 C 
ENDBRANCH  13  14
ENDBRANCH  10  13
ENDBRANCH   8  10
ENDBRANCH   1   8
BRANCH   6  16
HETATM   16  N4  UNL     1       2.615   0.169   0.192  1.00  0.00    -0.216 N 
HETATM   17  H11 UNL     1       2.857  -0.578   0.853  1.00  0.00     0.178 HD
BRANCH  16  18
HETATM   18  C9  UNL     1       3.624   0.801  -0.615  1.00  0.00     0.203 C 
BRANCH  18  19
HETATM   19  C10 UNL     1       4.984   0.274  -0.366  1.00  0.00     0.070 A 
HETATM   20  C11 UNL     1       5.770   0.883   0.622  1.00  0.00     0.036 A 
HETATM   21  C12 UNL     1       6.970   0.170   0.612  1.00  0.00     0.027 A 
HETATM   22  C13 UNL     1       6.799  -0.798  -0.374  1.00  0.00     0.142 A 
HETATM   23  O2  UNL     1       5.628  -0.700  -0.917  1.00  0.00    -0.325 OA
ENDBRANCH  18  19
ENDBRANCH  16  18
ENDBRANCH   6  16
TORSDOF 7
