REMARK  5 active torsions:
REMARK  status: ('A' for Active; 'I' for Inactive)
REMARK    1  A    between atoms: C5_6  and  N1_7 
REMARK    2  A    between atoms: N1_7  and  C6_8 
REMARK    3  A    between atoms: C8_10  and  N2_11 
REMARK    4  A    between atoms: N2_11  and  C9_12 
REMARK    5  A    between atoms: C9_12  and  C10_13 
ROOT
HETATM    1  C6  UNL     1       1.612   1.985   0.828  1.00  0.00     0.009 A 
HETATM    2  C7  UNL     1       0.707   2.623   0.104  1.00  0.00     0.069 A 
HETATM    3  C8  UNL     1      -0.553   2.243  -0.309  1.00  0.00     0.140 A 
HETATM    4  N3  UNL     1      -1.303   3.077  -1.052  1.00  0.00    -0.224 NA
HETATM    5  C16 UNL     1      -0.897   4.300  -1.433  1.00  0.00     0.237 A 
HETATM    6  N4  UNL     1       0.331   4.677  -1.033  1.00  0.00    -0.223 NA
HETATM    7  C17 UNL     1       1.098   3.858  -0.290  1.00  0.00     0.145 A 
HETATM    8  N5  UNL     1       2.262   4.183   0.105  1.00  0.00    -0.335 NA
HETATM    9  B1  UNL     1       2.800   3.001   0.911  1.00  0.00     0.353 B 
HETATM   10  H14 UNL     1       3.908   2.783   1.262  1.00  0.00     0.009 HD
ENDROOT
BRANCH   1  11
HETATM   11  N1  UNL     1       1.557   0.687   1.410  1.00  0.00    -0.367 N 
HETATM   12  H4  UNL     1       1.066   0.401   2.300  1.00  0.00     0.165 HD
BRANCH  11  13
HETATM   13  C5  UNL     1       2.234  -0.377   0.740  1.00  0.00     0.033 A 
HETATM   14  C4  UNL     1       2.267  -1.682   1.185  1.00  0.00     0.029 A 
HETATM   15  C3  UNL     1       2.926  -2.689   0.520  1.00  0.00     0.004 A 
HETATM   16  C2  UNL     1       3.596  -2.413  -0.650  1.00  0.00     0.024 A 
HETATM   17  C1  UNL     1       3.604  -1.131  -1.152  1.00  0.00     0.036 A 
HETATM   18 CL1  UNL     1       4.450  -0.766  -2.638  1.00  0.00    -0.084 Cl
HETATM   19  C18 UNL     1       2.927  -0.165  -0.444  1.00  0.00     0.053 A 
ENDBRANCH  11  13
ENDBRANCH   1  11
BRANCH   3  20
HETATM   20  N2  UNL     1      -1.105   0.964   0.030  1.00  0.00    -0.370 N 
HETATM   21  H5  UNL     1      -0.616   0.248   0.595  1.00  0.00     0.161 HD
BRANCH  20  22
HETATM   22  C9  UNL     1      -2.451   0.589  -0.426  1.00  0.00     0.160 C 
BRANCH  22  23
HETATM   23  C10 UNL     1      -2.834  -0.771   0.030  1.00  0.00    -0.041 A 
HETATM   24  C11 UNL     1      -2.491  -1.808  -0.843  1.00  0.00     0.009 A 
HETATM   25  C12 UNL     1      -2.778  -3.143  -0.566  1.00  0.00     0.001 A 
HETATM   26  C13 UNL     1      -3.427  -3.388   0.633  1.00  0.00     0.000 A 
HETATM   27  C14 UNL     1      -3.783  -2.398   1.520  1.00  0.00     0.001 A 
HETATM   28  C15 UNL     1      -3.481  -1.079   1.211  1.00  0.00     0.009 A 
ENDBRANCH  22  23
ENDBRANCH  20  22
ENDBRANCH   3  20
TORSDOF 5
