REMARK  2 active torsions:
REMARK  status: ('A' for Active; 'I' for Inactive)
REMARK    1  A    between atoms: C7_10  and  N3_11 
REMARK    2  A    between atoms: N3_11  and  C8_12 
ROOT
HETATM    1  F1  UNL     1       2.383  -2.269  -2.345  1.00  0.00    -0.206 F 
HETATM    2  C1  UNL     1       2.759  -1.238  -1.554  1.00  0.00     0.120 C 
HETATM    3  C2  UNL     1       4.102  -1.045  -1.326  1.00  0.00     0.056 C 
HETATM    4  C3  UNL     1       4.538   0.259  -1.326  1.00  0.00    -0.002 A 
HETATM    5  C4  UNL     1       4.919   1.596  -1.191  1.00  0.00     0.046 A 
HETATM    6  C5  UNL     1       4.187   0.967  -0.121  1.00  0.00     0.069 A 
HETATM    7  N1  UNL     1       3.591   0.933   1.086  1.00  0.00    -0.241 NA
HETATM    8  C6  UNL     1       2.277   1.266   1.247  1.00  0.00     0.235 C 
HETATM    9  N2  UNL     1       1.185   1.372   0.434  1.00  0.00    -0.224 NA
HETATM   10  C7  UNL     1       0.867   0.424  -0.443  1.00  0.00     0.131 C 
HETATM   11  C14 UNL     1       1.813  -0.409  -0.997  1.00  0.00     0.092 C 
ENDROOT
BRANCH  10  12
HETATM   12  N3  UNL     1      -0.458   0.186  -0.884  1.00  0.00    -0.350 N 
HETATM   13  H4  UNL     1      -0.754  -0.539  -1.567  1.00  0.00     0.166 HD
BRANCH  12  14
HETATM   14  C8  UNL     1      -1.724   0.728  -0.635  1.00  0.00     0.101 C 
HETATM   15  C9  UNL     1      -2.651   0.177   0.132  1.00  0.00    -0.017 A 
HETATM   16  C10 UNL     1      -3.955   0.803   0.346  1.00  0.00     0.030 A 
HETATM   17  C13 UNL     1      -2.436  -1.090   0.817  1.00  0.00     0.055 A 
HETATM   18  C11 UNL     1      -4.901   0.287   1.100  1.00  0.00     0.090 A 
HETATM   19  N4  UNL     1      -4.610  -0.961   1.738  1.00  0.00    -0.357 N 
HETATM   20  C12 UNL     1      -3.373  -1.644   1.591  1.00  0.00     0.104 A 
HETATM   21  H8  UNL     1      -5.330  -1.406   2.345  1.00  0.00     0.166 HD
HETATM   22 CL1  UNL     1      -3.085  -3.175   2.404  1.00  0.00    -0.065 Cl
ENDBRANCH  12  14
ENDBRANCH  10  12
TORSDOF 2
