REMARK  4 active torsions:
REMARK  status: ('A' for Active; 'I' for Inactive)
REMARK    1  A    between atoms: O1_2  and  C2_3 
REMARK    2  A    between atoms: C6_7  and  N1_8 
REMARK    3  A    between atoms: N1_8  and  C7_9 
REMARK    4  A    between atoms: C10_13  and  N3_14 
ROOT
HETATM    1  C7  UNL     1       0.506  -0.409  -0.003  1.00  0.00     0.148 A 
HETATM    2  C8  UNL     1       0.876   0.348  -1.086  1.00  0.00     0.071 A 
HETATM    3  C9  UNL     1       0.011   1.021  -1.950  1.00  0.00     0.140 A 
HETATM    4  N2  UNL     1      -1.288   0.859  -1.615  1.00  0.00    -0.075 NA
HETATM    5  C10 UNL     1      -1.709   0.135  -0.574  1.00  0.00     0.730 A 
HETATM    6  N4  UNL     1      -0.834  -0.513   0.253  1.00  0.00    -0.045 NA
ENDROOT
BRANCH   1   7
HETATM    7  N1  UNL     1       1.424  -1.059   0.860  1.00  0.00    -0.340 N 
HETATM    8  H7  UNL     1       1.069  -1.718   1.586  1.00  0.00     0.167 HD
BRANCH   7   9
HETATM    9  C6  UNL     1       2.836  -0.914   0.853  1.00  0.00     0.036 A 
HETATM   10  C5  UNL     1       3.629  -2.034   1.011  1.00  0.00     0.029 A 
HETATM   11  C4  UNL     1       5.024  -1.986   1.026  1.00  0.00     0.005 A 
HETATM   12  C3  UNL     1       5.642  -0.745   0.873  1.00  0.00     0.037 A 
HETATM   13  C2  UNL     1       4.894   0.401   0.713  1.00  0.00     0.070 A 
HETATM   14  C17 UNL     1       3.505   0.311   0.704  1.00  0.00     0.066 A 
BRANCH  13  15
HETATM   15  O1  UNL     1       5.348   1.697   0.548  1.00  0.00    -0.356 OA
HETATM   16  C1  UNL     1       6.737   1.952   0.527  1.00  0.00     0.210 C 
ENDBRANCH  13  15
ENDBRANCH   7   9
ENDBRANCH   1   7
BRANCH   5  17
HETATM   17  N3  UNL     1      -3.106   0.051  -0.332  1.00  0.00    -0.186 N 
HETATM   18  C11 UNL     1      -3.970   0.828  -1.152  1.00  0.00     0.110 A 
HETATM   19  C12 UNL     1      -5.288   0.862  -1.072  1.00  0.00     0.024 A 
HETATM   20  C13 UNL     1      -5.945   0.044  -0.067  1.00  0.00    -0.063 A 
HETATM   21  C14 UNL     1      -7.425   0.062   0.039  1.00  0.00     0.048 C 
HETATM   22  C15 UNL     1      -5.154  -0.674   0.693  1.00  0.00     0.000 A 
HETATM   23  C16 UNL     1      -3.694  -0.775   0.679  1.00  0.00     0.174 A 
ENDBRANCH   5  17
TORSDOF 4
