REMARK  9 active torsions:
REMARK  status: ('A' for Active; 'I' for Inactive)
REMARK    1  A    between atoms: O1_2  and  C2_3 
REMARK    2  A    between atoms: C6_7  and  C7_8 
REMARK    3  A    between atoms: C7_8  and  O2_9 
REMARK    4  A    between atoms: O2_9  and  C8_10 
REMARK    5  A    between atoms: C12_14  and  N1_15 
REMARK    6  A    between atoms: N1_15  and  C13_16 
REMARK    7  A    between atoms: C13_16  and  N2_17 
REMARK    8  A    between atoms: C14_18  and  C15_19 
REMARK    9  A    between atoms: C16_20  and  N3_21 
ROOT
HETATM    1  C8  UNL     1       0.383   0.002  -0.921  1.00  0.00     0.071 A 
HETATM    2  C9  UNL     1      -0.173  -0.640  -2.004  1.00  0.00     0.037 A 
HETATM    3  C10 UNL     1      -1.543  -0.666  -2.192  1.00  0.00     0.005 A 
HETATM    4  C11 UNL     1      -2.317  -0.016  -1.241  1.00  0.00     0.029 A 
HETATM    5  C12 UNL     1      -1.825   0.644  -0.135  1.00  0.00     0.031 A 
HETATM    6  C17 UNL     1      -0.453   0.637   0.000  1.00  0.00     0.065 A 
ENDROOT
BRANCH   1   7
HETATM    7  O2  UNL     1       1.721   0.103  -0.616  1.00  0.00    -0.347 OA
BRANCH   7   8
HETATM    8  C7  UNL     1       2.777  -0.440  -1.367  1.00  0.00     0.214 C 
BRANCH   8   9
HETATM    9  C6  UNL     1       4.045  -0.084  -0.662  1.00  0.00    -0.031 A 
HETATM   10  C5  UNL     1       4.658   1.122  -1.023  1.00  0.00     0.009 A 
HETATM   11  C4  UNL     1       5.838   1.572  -0.448  1.00  0.00     0.003 A 
HETATM   12  C3  UNL     1       6.385   0.752   0.517  1.00  0.00     0.037 A 
HETATM   13  C2  UNL     1       5.805  -0.439   0.892  1.00  0.00     0.068 A 
HETATM   14  C18 UNL     1       4.633  -0.869   0.310  1.00  0.00     0.046 A 
BRANCH  13  15
HETATM   15  O1  UNL     1       6.393  -1.232   1.869  1.00  0.00    -0.356 OA
HETATM   16  C1  UNL     1       7.593  -0.862   2.513  1.00  0.00     0.210 C 
ENDBRANCH  13  15
ENDBRANCH   8   9
ENDBRANCH   7   8
ENDBRANCH   1   7
BRANCH   5  17
HETATM   17  N1  UNL     1      -2.661   1.291   0.806  1.00  0.00    -0.372 N 
HETATM   18  H12 UNL     1      -2.216   1.772   1.617  1.00  0.00     0.161 HD
BRANCH  17  19
HETATM   19  C13 UNL     1      -4.095   1.277   0.634  1.00  0.00     0.270 C 
BRANCH  19  20
HETATM   20  N2  UNL     1      -4.544  -0.093   0.642  1.00  0.00    -0.282 NA
HETATM   21  C14 UNL     1      -5.803  -0.372   0.516  1.00  0.00     0.113 C 
BRANCH  21  22
HETATM   22  C15 UNL     1      -6.759   0.723   0.367  1.00  0.00     0.035 C 
HETATM   23  C16 UNL     1      -8.049   0.438   0.239  1.00  0.00     0.082 C 
BRANCH  23  24
HETATM   24  N3  UNL     1      -8.443  -0.941   0.253  1.00  0.00    -0.408 N 
HETATM   25  H18 UNL     1      -8.418  -1.575  -0.580  1.00  0.00     0.155 HD
HETATM   26  H19 UNL     1      -8.771  -1.280   1.197  1.00  0.00     0.155 HD
ENDBRANCH  23  24
ENDBRANCH  21  22
ENDBRANCH  19  20
ENDBRANCH  17  19
ENDBRANCH   5  17
TORSDOF 9
