REMARK  3 active torsions:
REMARK  status: ('A' for Active; 'I' for Inactive)
REMARK    1  A    between atoms: C3_3  and  C4_4 
REMARK    2  A    between atoms: C12_14  and  O1_15 
REMARK    3  A    between atoms: C13_16  and  C14_17 
ROOT
HETATM    1  C4  UNL     1       2.595  -0.579   0.154  1.00  0.00     0.024 C 
HETATM    2  C5  UNL     1       2.867  -1.759   0.685  1.00  0.00     0.008 C 
HETATM    3  C6  UNL     1       2.263  -3.030   1.159  1.00  0.00     0.084 C 
HETATM    4  C7  UNL     1       0.795  -2.975   1.193  1.00  0.00     0.022 C 
HETATM    5  N1  UNL     1      -0.277  -3.219   1.911  1.00  0.00    -0.239 NA
HETATM    6  C8  UNL     1      -1.159  -2.062   1.774  1.00  0.00     0.129 C 
HETATM    7  C9  UNL     1      -0.475  -1.225   0.953  1.00  0.00    -0.004 C 
HETATM    8  C10 UNL     1      -0.097  -2.425   0.096  1.00  0.00     0.095 C 
HETATM    9  C11 UNL     1      -0.005   0.169   0.649  1.00  0.00     0.146 C 
HETATM   10  N2  UNL     1       1.383   0.159   0.220  1.00  0.00    -0.379 N 
HETATM   11  C12 UNL     1      -0.857   0.826  -0.406  1.00  0.00     0.175 C 
HETATM   12  C13 UNL     1      -2.130   1.384   0.269  1.00  0.00     0.184 C 
HETATM   13  N3  UNL     1      -2.578   0.268   1.082  1.00  0.00    -0.185 NA
HETATM   14  N4  UNL     1      -2.112   0.263   2.244  1.00  0.00    -0.178 NA
HETATM   15  C17 UNL     1      -2.446  -0.776   3.179  1.00  0.00     0.296 C 
HETATM   16  N5  UNL     1      -2.430  -2.065   2.451  1.00  0.00    -0.355 N 
HETATM   17  H12 UNL     1       1.515   1.097  -0.218  1.00  0.00     0.160 HD
HETATM   18  H23 UNL     1      -3.030  -2.905   2.301  1.00  0.00     0.163 HD
ENDROOT
BRANCH   1  19
HETATM   19  C3  UNL     1       3.685   0.029  -0.588  1.00  0.00     0.024 C 
HETATM   20  C2  UNL     1       3.716   1.180  -1.218  1.00  0.00    -0.029 C 
HETATM   21  C1  UNL     1       4.901   1.730  -1.966  1.00  0.00     0.036 C 
ENDBRANCH   1  19
BRANCH  11  22
HETATM   22  O1  UNL     1      -0.234   1.725  -1.215  1.00  0.00    -0.391 OA
HETATM   23  H14 UNL     1       0.201   1.305  -1.991  1.00  0.00     0.210 HD
ENDBRANCH  11  22
BRANCH  12  24
HETATM   24  C14 UNL     1      -3.125   1.849  -0.698  1.00  0.00     0.000 C 
HETATM   25  C15 UNL     1      -3.034   2.116  -1.998  1.00  0.00    -0.033 C 
HETATM   26  C16 UNL     1      -4.187   2.587  -2.815  1.00  0.00     0.036 C 
ENDBRANCH  12  24
TORSDOF 3
