REMARK  9 active torsions:
REMARK  status: ('A' for Active; 'I' for Inactive)
REMARK    1  A    between atoms: C2_2  and  C3_3 
REMARK    2  A    between atoms: N1_7  and  C7_8 
REMARK    3  A    between atoms: C7_8  and  N3_12 
REMARK    4  A    between atoms: C8_9  and  C9_10 
REMARK    5  A    between atoms: C9_10  and  N2_11 
REMARK    6  A    between atoms: N3_12  and  C10_13 
REMARK    7  A    between atoms: C10_13  and  C11_14 
REMARK    8  A    between atoms: C11_14  and  N4_15 
REMARK    9  A    between atoms: N4_15  and  C12_16 
ROOT
HETATM    1  C7  UNL     1      -1.165  -0.717  -0.351  1.00  0.00     0.136 C 
HETATM    2  C8  UNL     1      -1.722  -1.909  -0.226  1.00  0.00     0.069 C 
ENDROOT
BRANCH   1   3
HETATM    3  N1  UNL     1      -1.787   0.332   0.399  1.00  0.00    -0.361 N 
HETATM    4  C6  UNL     1      -1.861   0.431   1.848  1.00  0.00     0.151 C 
HETATM    5  C5  UNL     1      -3.289   0.445   2.295  1.00  0.00    -0.011 C 
HETATM    6  C4  UNL     1      -4.179   0.937   1.428  1.00  0.00    -0.023 C 
HETATM    7  C3  UNL     1      -3.946   1.471   0.080  1.00  0.00     0.025 C 
HETATM    8  C18 UNL     1      -2.454   1.486  -0.186  1.00  0.00     0.133 C 
BRANCH   7   9
HETATM    9  C2  UNL     1      -4.563   0.602  -1.016  1.00  0.00     0.005 C 
HETATM   10  C1  UNL     1      -6.046   0.460  -0.886  1.00  0.00     0.006 C 
ENDBRANCH   7   9
ENDBRANCH   1   3
BRANCH   1  11
HETATM   11  N3  UNL     1      -0.027  -0.566  -1.192  1.00  0.00    -0.187 NA
BRANCH  11  12
HETATM   12  C10 UNL     1       1.076  -1.050  -0.745  1.00  0.00     0.003 C 
BRANCH  12  13
HETATM   13  C11 UNL     1       2.062  -1.785  -0.253  1.00  0.00     0.166 C 
BRANCH  13  14
HETATM   14  N4  UNL     1       2.764  -1.053   0.741  1.00  0.00    -0.359 N 
HETATM   15  H15 UNL     1       2.300  -1.231   1.659  1.00  0.00     0.165 HD
BRANCH  14  16
HETATM   16  C12 UNL     1       3.900  -0.212   0.576  1.00  0.00     0.033 C 
HETATM   17  C13 UNL     1       4.476   0.081   1.719  1.00  0.00     0.027 C 
HETATM   18  C14 UNL     1       5.665   0.927   1.847  1.00  0.00     0.000 C 
HETATM   19  C15 UNL     1       6.406   1.496   0.882  1.00  0.00    -0.001 C 
HETATM   20  C16 UNL     1       6.157   1.375  -0.593  1.00  0.00     0.195 C 
HETATM   21  O1  UNL     1       5.582   0.165  -0.941  1.00  0.00    -0.382 OA
HETATM   22  C17 UNL     1       4.195   0.154  -0.834  1.00  0.00     0.224 C 
ENDBRANCH  14  16
ENDBRANCH  13  14
ENDBRANCH  12  13
ENDBRANCH  11  12
ENDBRANCH   1  11
BRANCH   2  23
HETATM   23  C9  UNL     1      -1.196  -3.049  -0.925  1.00  0.00     0.111 C 
BRANCH  23  24
HETATM   24  N2  UNL     1      -0.499  -3.834  -1.666  1.00  0.00    -0.312 NA
HETATM   25  H13 UNL     1       0.321  -3.442  -2.199  1.00  0.00     0.186 HD
ENDBRANCH  23  24
ENDBRANCH   2  23
TORSDOF 9
