REMARK  2 active torsions:
REMARK  status: ('A' for Active; 'I' for Inactive)
REMARK    1  A    between atoms: N1_2  and  C2_3 
REMARK    2  A    between atoms: C11_17  and  C12_18 
ROOT
HETATM    1  C2  UNL     1       2.241   1.464  -1.483  1.00  0.00     0.753 A 
HETATM    2  N2  UNL     1       2.184   0.428  -0.579  1.00  0.00     0.131 NA
HETATM    3  C3  UNL     1       1.100   0.062   0.049  1.00  0.00     0.758 A 
HETATM    4  N3  UNL     1       0.100   0.819  -0.307  1.00  0.00     0.131 NA
HETATM    5  C4  UNL     1      -0.031   1.808  -1.115  1.00  0.00     0.754 A 
HETATM    6  N4  UNL     1       1.115   2.198  -1.784  1.00  0.00     0.131 NA
HETATM    7  N5  UNL     1      -1.326   2.405  -1.270  1.00  0.00    -0.221 N 
HETATM    8  C5  UNL     1      -2.244   1.837  -2.221  1.00  0.00     0.144 C 
HETATM    9  C6  UNL     1      -2.702   0.469  -1.912  1.00  0.00     0.018 C 
HETATM   10  C7  UNL     1      -2.960  -0.662  -1.456  1.00  0.00     0.022 C 
HETATM   11  C8  UNL     1      -2.786  -1.625  -0.407  1.00  0.00    -0.023 C 
HETATM   12  C9  UNL     1      -2.530  -2.391   0.639  1.00  0.00    -0.004 C 
HETATM   13  C10 UNL     1      -1.688  -1.895   1.770  1.00  0.00     0.202 C 
HETATM   14  O1  UNL     1      -0.517  -2.709   1.954  1.00  0.00    -0.348 OA
HETATM   15  C11 UNL     1       0.350  -2.225   2.941  1.00  0.00     0.091 C 
HETATM   16  C13 UNL     1       1.128  -1.389   2.282  1.00  0.00     0.141 C 
HETATM   17  N6  UNL     1       1.174  -1.000   0.925  1.00  0.00    -0.195 N 
HETATM   18  H5  UNL     1      -1.120   3.134  -0.544  1.00  0.00     0.177 HD
HETATM   19  H17 UNL     1       1.334  -1.919   0.450  1.00  0.00     0.183 HD
ENDROOT
BRANCH   1  20
HETATM   20  N1  UNL     1       3.479   1.775  -2.125  1.00  0.00    -0.226 N 
HETATM   21  C1  UNL     1       3.808   2.814  -3.072  1.00  0.00     0.165 C 
HETATM   22  H4  UNL     1       4.291   1.160  -1.894  1.00  0.00     0.177 HD
ENDBRANCH   1  20
BRANCH  15  23
HETATM   23  C12 UNL     1       0.628  -2.356   4.386  1.00  0.00     0.288 C 
HETATM   24  F1  UNL     1      -0.512  -2.046   5.124  1.00  0.00    -0.248 F 
ENDBRANCH  15  23
TORSDOF 2
