REMARK  6 active torsions:
REMARK  status: ('A' for Active; 'I' for Inactive)
REMARK    1  A    between atoms: O1_2  and  C2_3 
REMARK    2  A    between atoms: P1_8  and  N1_9 
REMARK    3  A    between atoms: N1_9  and  C7_10 
REMARK    4  A    between atoms: C10_14  and  N3_15 
REMARK    5  A    between atoms: N3_15  and  C11_16 
REMARK    6  A    between atoms: C16_21  and  O2_22 
ROOT
HETATM    1  C7  UNL     1       1.117   0.188   0.333  1.00  0.00     0.147 A 
HETATM    2  C8  UNL     1       1.183   0.288   1.701  1.00  0.00     0.071 A 
HETATM    3  C9  UNL     1       0.037   0.246   2.449  1.00  0.00     0.140 A 
HETATM    4  N2  UNL     1      -1.111   0.104   1.785  1.00  0.00    -0.075 NA
HETATM    5  C10 UNL     1      -1.253   0.000   0.458  1.00  0.00     0.728 A 
HETATM    6  N4  UNL     1      -0.094   0.049  -0.218  1.00  0.00    -0.045 NA
ENDROOT
BRANCH   1   7
HETATM    7  N1  UNL     1       2.272   0.226  -0.491  1.00  0.00    -0.343 N 
HETATM    8  H9  UNL     1       2.197   0.149  -1.507  1.00  0.00     0.166 HD
BRANCH   7   9
HETATM    9  P1  UNL     1       3.896   0.407   0.177  1.00  0.00     0.046 P 
HETATM   10  C2  UNL     1       5.200  -0.315  -0.887  1.00  0.00     0.092 A 
HETATM   11  C3  UNL     1       6.272   0.271  -1.397  1.00  0.00     0.039 A 
HETATM   12  C4  UNL     1       6.462   1.682  -1.084  1.00  0.00    -0.001 A 
HETATM   13  C5  UNL     1       5.644   2.373  -0.344  1.00  0.00    -0.020 A 
HETATM   14  C6  UNL     1       4.386   2.186   0.409  1.00  0.00     0.090 A 
BRANCH  10  15
HETATM   15  O1  UNL     1       4.985  -1.644  -1.159  1.00  0.00    -0.354 OA
HETATM   16  C1  UNL     1       4.183  -2.542  -0.465  1.00  0.00     0.210 C 
ENDBRANCH  10  15
ENDBRANCH   7   9
ENDBRANCH   1   7
BRANCH   5  17
HETATM   17  N3  UNL     1      -2.471  -0.150  -0.254  1.00  0.00    -0.185 N 
HETATM   18  H12 UNL     1      -2.384  -0.216  -1.307  1.00  0.00     0.184 HD
BRANCH  17  19
HETATM   19  C11 UNL     1      -3.774  -0.223   0.247  1.00  0.00     0.082 A 
HETATM   20  C12 UNL     1      -4.118  -0.159   1.579  1.00  0.00     0.033 A 
HETATM   21  C13 UNL     1      -5.388  -0.227   2.110  1.00  0.00     0.002 A 
HETATM   22  C14 UNL     1      -6.441  -0.375   1.233  1.00  0.00     0.003 A 
HETATM   23  C15 UNL     1      -6.159  -0.445  -0.113  1.00  0.00     0.039 A 
HETATM   24  C16 UNL     1      -4.875  -0.373  -0.606  1.00  0.00     0.095 A 
BRANCH  24  25
HETATM   25  O2  UNL     1      -4.629  -0.448  -1.969  1.00  0.00    -0.354 OA
HETATM   26  C17 UNL     1      -5.729  -0.600  -2.842  1.00  0.00     0.210 C 
ENDBRANCH  24  25
ENDBRANCH  17  19
ENDBRANCH   5  17
TORSDOF 6
