REMARK  3 active torsions:
REMARK  status: ('A' for Active; 'I' for Inactive)
REMARK    1  A    between atoms: O1_2  and  C2_3 
REMARK    2  A    between atoms: N2_11  and  C8_12 
REMARK    3  A    between atoms: C12_16  and  O2_17 
ROOT
HETATM    1  C2  UNL     1      -3.700   1.930  -0.540  1.00  0.00     0.083 C 
HETATM    2  C3  UNL     1      -3.235   2.148   0.800  1.00  0.00     0.026 C 
HETATM    3  C4  UNL     1      -2.420   0.930   1.557  1.00  0.00     0.071 A 
HETATM    4  C5  UNL     1      -2.212  -0.574   0.565  1.00  0.00     0.206 A 
HETATM    5  S1  UNL     1      -1.989  -0.603   0.608  1.00  0.00    -0.198 SA
HETATM    6  C6  UNL     1      -0.854  -0.727   0.831  1.00  0.00     0.066 A 
HETATM    7  N1  UNL     1       0.405  -0.855   1.050  1.00  0.00    -0.201 NA
HETATM    8  C7  UNL     1       0.693  -0.342  -0.430  1.00  0.00     0.281 C 
HETATM    9  N2  UNL     1       1.702  -0.084  -1.264  1.00  0.00    -0.315 N 
HETATM   10  N3  UNL     1      -0.321   0.005  -1.354  1.00  0.00    -0.386 NA
HETATM   11  C15 UNL     1      -1.386   0.210  -1.864  1.00  0.00     0.165 C 
HETATM   12  C16 UNL     1      -2.862   0.397  -2.291  1.00  0.00     0.114 C 
HETATM   13  C17 UNL     1      -3.762   0.462  -0.998  1.00  0.00     0.032 C 
HETATM   14  N4  UNL     1      -4.592  -0.295   0.016  1.00  0.00    -0.259 NA
HETATM   15  H7  UNL     1      -3.630  -0.464   0.303  1.00  0.00     0.192 HD
HETATM   16  H8  UNL     1       2.460   0.102  -1.867  1.00  0.00     0.170 HD
ENDROOT
BRANCH   9  17
HETATM   17  C8  UNL     1       2.679  -0.399  -0.234  1.00  0.00     0.038 A 
HETATM   18  C9  UNL     1       3.022   0.403   0.874  1.00  0.00     0.030 A 
HETATM   19  C10 UNL     1       3.932   0.146   1.875  1.00  0.00     0.005 A 
HETATM   20  C11 UNL     1       4.583  -1.053   1.762  1.00  0.00     0.037 A 
HETATM   21  C12 UNL     1       4.373  -1.957   0.747  1.00  0.00     0.070 A 
HETATM   22  C14 UNL     1       3.439  -1.588  -0.193  1.00  0.00     0.066 A 
BRANCH  21  23
HETATM   23  O2  UNL     1       5.028  -3.162   0.634  1.00  0.00    -0.356 OA
HETATM   24  C13 UNL     1       5.989  -3.503   1.632  1.00  0.00     0.210 C 
ENDBRANCH  21  23
ENDBRANCH   9  17
BRANCH   1  25
HETATM   25  O1  UNL     1      -4.083   2.879  -1.439  1.00  0.00    -0.355 OA
HETATM   26  C1  UNL     1      -5.377   2.847  -1.995  1.00  0.00     0.210 C 
ENDBRANCH   1  25
TORSDOF 3
