REMARK  6 active torsions:
REMARK  status: ('A' for Active; 'I' for Inactive)
REMARK    1  A    between atoms: C2_2  and  O1_3 
REMARK    2  A    between atoms: O1_3  and  C3_4 
REMARK    3  A    between atoms: C3_4  and  C4_5 
REMARK    4  A    between atoms: N1_8  and  C7_9 
REMARK    5  A    between atoms: C10_13  and  N3_14 
REMARK    6  A    between atoms: N3_14  and  C11_15 
ROOT
HETATM    1  C7  UNL     1       0.575   0.557   0.059  1.00  0.00     0.731 A 
HETATM    2  N2  UNL     1       1.059   1.776  -0.279  1.00  0.00    -0.075 NA
HETATM    3  C8  UNL     1       0.328   2.899  -0.179  1.00  0.00     0.140 A 
HETATM    4  C9  UNL     1      -0.969   2.853   0.281  1.00  0.00     0.071 A 
HETATM    5  C10 UNL     1      -1.477   1.621   0.630  1.00  0.00     0.148 A 
HETATM    6  N4  UNL     1      -0.683   0.551   0.500  1.00  0.00    -0.045 NA
ENDROOT
BRANCH   5   7
HETATM    7  N3  UNL     1      -2.766   1.212   1.131  1.00  0.00    -0.344 N 
HETATM    8  H13 UNL     1      -2.820   1.368   2.160  1.00  0.00     0.167 HD
BRANCH   7   9
HETATM    9  C11 UNL     1      -3.908   0.666   0.507  1.00  0.00     0.012 C 
HETATM   10  C12 UNL     1      -4.487   1.164  -0.572  1.00  0.00     0.025 C 
HETATM   11  C13 UNL     1      -5.704   0.637  -1.289  1.00  0.00     0.204 C 
HETATM   12  O2  UNL     1      -5.466  -0.726  -1.672  1.00  0.00    -0.360 OA
HETATM   13  C14 UNL     1      -4.709  -1.664  -0.964  1.00  0.00     0.131 C 
HETATM   14  C15 UNL     1      -4.205  -1.689   0.254  1.00  0.00     0.003 C 
HETATM   15  C16 UNL     1      -4.377  -0.557   1.234  1.00  0.00     0.086 C 
ENDBRANCH   7   9
ENDBRANCH   5   7
BRANCH   1  16
HETATM   16  N1  UNL     1       1.372  -0.625  -0.053  1.00  0.00    -0.179 N 
HETATM   17  C4  UNL     1       2.776  -0.910  -0.251  1.00  0.00     0.155 A 
HETATM   18  C5  UNL     1       2.241  -2.321  -0.167  1.00  0.00     0.019 A 
HETATM   19  C6  UNL     1       0.973  -1.997   0.014  1.00  0.00     0.108 A 
BRANCH  17  20
HETATM   20  C3  UNL     1       3.661  -0.570   0.917  1.00  0.00     0.198 C 
BRANCH  20  21
HETATM   21  O1  UNL     1       4.988  -0.828   0.761  1.00  0.00    -0.389 OA
BRANCH  21  22
HETATM   22  C2  UNL     1       5.560  -0.096  -0.264  1.00  0.00     0.163 C 
HETATM   23  C1  UNL     1       7.034  -0.404  -0.424  1.00  0.00     0.033 C 
ENDBRANCH  21  22
ENDBRANCH  20  21
ENDBRANCH  17  20
ENDBRANCH   1  16
TORSDOF 6
