REMARK  6 active torsions:
REMARK  status: ('A' for Active; 'I' for Inactive)
REMARK    1  A    between atoms: O1_2  and  C2_3 
REMARK    2  A    between atoms: C6_7  and  N1_8 
REMARK    3  A    between atoms: N1_8  and  C7_9 
REMARK    4  A    between atoms: C10_13  and  N3_14 
REMARK    5  A    between atoms: N3_14  and  C11_15 
REMARK    6  A    between atoms: C15_19  and  O2_20 
ROOT
HETATM    1  C7  UNL     1      -0.933  -0.990   0.574  1.00  0.00     0.148 A 
HETATM    2  C8  UNL     1      -0.798  -2.307   0.211  1.00  0.00     0.071 A 
HETATM    3  C9  UNL     1       0.374  -3.012   0.062  1.00  0.00     0.140 A 
HETATM    4  N2  UNL     1       1.495  -2.297   0.307  1.00  0.00    -0.075 NA
HETATM    5  C10 UNL     1       1.433  -0.995   0.667  1.00  0.00     0.728 A 
HETATM    6  N4  UNL     1       0.245  -0.399   0.786  1.00  0.00    -0.045 NA
ENDROOT
BRANCH   1   7
HETATM    7  N1  UNL     1      -2.115  -0.250   0.749  1.00  0.00    -0.340 N 
HETATM    8  H7  UNL     1      -1.982   0.779   0.976  1.00  0.00     0.167 HD
BRANCH   7   9
HETATM    9  C6  UNL     1      -3.490  -0.554   0.706  1.00  0.00     0.036 A 
HETATM   10  C5  UNL     1      -4.041  -1.769   1.044  1.00  0.00     0.029 A 
HETATM   11  C4  UNL     1      -5.409  -2.050   0.958  1.00  0.00     0.005 A 
HETATM   12  C3  UNL     1      -6.245  -1.061   0.514  1.00  0.00     0.037 A 
HETATM   13  C2  UNL     1      -5.759   0.167   0.165  1.00  0.00     0.070 A 
HETATM   14  C18 UNL     1      -4.411   0.374   0.273  1.00  0.00     0.066 A 
BRANCH  13  15
HETATM   15  O1  UNL     1      -6.685   1.098  -0.269  1.00  0.00    -0.356 OA
HETATM   16  C1  UNL     1      -6.218   2.380  -0.640  1.00  0.00     0.210 C 
ENDBRANCH  13  15
ENDBRANCH   7   9
ENDBRANCH   1   7
BRANCH   5  17
HETATM   17  N3  UNL     1       2.679  -0.359   0.903  1.00  0.00    -0.188 N 
HETATM   18  H10 UNL     1       2.897  -0.281   1.922  1.00  0.00     0.184 HD
BRANCH  17  19
HETATM   19  C11 UNL     1       3.540   0.120  -0.121  1.00  0.00     0.052 A 
HETATM   20  C12 UNL     1       3.180  -0.065  -1.437  1.00  0.00     0.030 A 
HETATM   21  C13 UNL     1       4.033   0.390  -2.442  1.00  0.00     0.005 A 
HETATM   22  C14 UNL     1       5.203   1.005  -2.049  1.00  0.00     0.037 A 
HETATM   23  C15 UNL     1       5.564   1.190  -0.711  1.00  0.00     0.070 A 
HETATM   24  C17 UNL     1       4.711   0.737   0.265  1.00  0.00     0.066 A 
BRANCH  23  25
HETATM   25  O2  UNL     1       6.782   1.832  -0.552  1.00  0.00    -0.356 OA
HETATM   26  C16 UNL     1       7.283   2.095   0.762  1.00  0.00     0.210 C 
ENDBRANCH  23  25
ENDBRANCH  17  19
ENDBRANCH   5  17
TORSDOF 6
