REMARK  6 active torsions:
REMARK  status: ('A' for Active; 'I' for Inactive)
REMARK    1  A    between atoms: O1_2  and  C2_3 
REMARK    2  A    between atoms: C6_7  and  C7_8 
REMARK    3  A    between atoms: C7_8  and  C8_9 
REMARK    4  A    between atoms: C11_13  and  N2_14 
REMARK    5  A    between atoms: N2_14  and  C12_15 
REMARK    6  A    between atoms: C16_19  and  O2_20 
ROOT
HETATM    1  C8  UNL     1       0.727  -1.389  -1.064  1.00  0.00     0.132 A 
HETATM    2  N1  UNL     1       0.560  -2.715  -0.932  1.00  0.00    -0.245 NA
HETATM    3  C9  UNL     1      -0.296  -3.209   0.007  1.00  0.00     0.122 A 
HETATM    4  C10 UNL     1      -1.017  -2.384   0.850  1.00  0.00     0.070 A 
HETATM    5  C11 UNL     1      -0.831  -1.027   0.698  1.00  0.00     0.131 A 
HETATM    6  N3  UNL     1       0.022  -0.601  -0.240  1.00  0.00    -0.216 NA
ENDROOT
BRANCH   5   7
HETATM    7  N2  UNL     1      -1.503  -0.062   1.497  1.00  0.00    -0.341 N 
HETATM    8  H11 UNL     1      -0.914   0.165   2.309  1.00  0.00     0.167 HD
BRANCH   7   9
HETATM    9  C12 UNL     1      -2.773   0.547   1.292  1.00  0.00     0.036 A 
HETATM   10  C13 UNL     1      -3.213   1.502   2.201  1.00  0.00     0.029 A 
HETATM   11  C14 UNL     1      -4.455   2.070   1.975  1.00  0.00     0.005 A 
HETATM   12  C15 UNL     1      -5.253   1.718   0.889  1.00  0.00     0.037 A 
HETATM   13  C16 UNL     1      -4.801   0.763  -0.010  1.00  0.00     0.070 A 
HETATM   14  C18 UNL     1      -3.549   0.186   0.211  1.00  0.00     0.066 A 
BRANCH  13  15
HETATM   15  O2  UNL     1      -5.462   0.297  -1.138  1.00  0.00    -0.356 OA
HETATM   16  C17 UNL     1      -6.717   0.706  -1.583  1.00  0.00     0.210 C 
ENDBRANCH  13  15
ENDBRANCH   7   9
ENDBRANCH   5   7
BRANCH   1  17
HETATM   17  C7  UNL     1       1.630  -0.713  -2.045  1.00  0.00     0.119 C 
BRANCH  17  18
HETATM   18  C6  UNL     1       2.963  -0.541  -1.441  1.00  0.00    -0.048 A 
HETATM   19  C5  UNL     1       3.873  -1.557  -1.619  1.00  0.00     0.007 A 
HETATM   20  C4  UNL     1       5.143  -1.483  -1.091  1.00  0.00     0.003 A 
HETATM   21  C3  UNL     1       5.525  -0.373  -0.367  1.00  0.00     0.037 A 
HETATM   22  C2  UNL     1       4.638   0.679  -0.161  1.00  0.00     0.068 A 
HETATM   23  C19 UNL     1       3.379   0.551  -0.712  1.00  0.00     0.044 A 
BRANCH  22  24
HETATM   24  O1  UNL     1       4.932   1.829   0.551  1.00  0.00    -0.356 OA
HETATM   25  C1  UNL     1       6.196   2.036   1.147  1.00  0.00     0.210 C 
ENDBRANCH  22  24
ENDBRANCH  17  18
ENDBRANCH   1  17
TORSDOF 6
