REMARK  2 active torsions:
REMARK  status: ('A' for Active; 'I' for Inactive)
REMARK    1  A    between atoms: O1_2  and  C2_3 
REMARK    2  A    between atoms: N1_13  and  C11_14 
ROOT
HETATM    1  C2  UNL     1       2.193  -0.886  -0.387  1.00  0.00     0.059 C 
HETATM    2  C3  UNL     1       1.654  -2.065  -0.558  1.00  0.00     0.004 C 
HETATM    3  C4  UNL     1       1.497  -2.240  -1.879  1.00  0.00     0.014 C 
HETATM    4  C5  UNL     1       0.203  -1.767  -1.793  1.00  0.00     0.196 C 
HETATM    5  O2  UNL     1      -0.735  -2.482  -0.873  1.00  0.00    -0.381 OA
HETATM    6  C6  UNL     1      -1.664  -1.596  -0.207  1.00  0.00     0.055 A 
HETATM    7  C7  UNL     1      -1.814  -0.324   0.252  1.00  0.00     0.135 A 
HETATM    8  C8  UNL     1      -0.732   0.621   0.094  1.00  0.00     0.199 A 
HETATM    9  C9  UNL     1       0.350   1.414  -0.123  1.00  0.00     0.405 A 
HETATM   10  C10 UNL     1       1.641   1.594  -0.608  1.00  0.00     0.093 A 
HETATM   11  N1  UNL     1       1.035   2.688  -0.025  1.00  0.00    -0.202 N 
HETATM   12  C11 UNL     1      -0.143   2.861   0.520  1.00  0.00     0.499 A 
HETATM   13  N2  UNL     1      -0.945   1.824   0.544  1.00  0.00     0.179 N 
HETATM   14  N3  UNL     1      -1.428   2.949   1.086  1.00  0.00     0.170 N 
HETATM   15  C12 UNL     1      -2.709   2.300   1.424  1.00  0.00     0.236 A 
HETATM   16  C13 UNL     1      -3.342   1.173   1.343  1.00  0.00     0.006 A 
HETATM   17  C14 UNL     1      -3.180  -0.153   0.866  1.00  0.00     0.026 A 
HETATM   18  C15 UNL     1      -2.942  -1.317   0.407  1.00  0.00     0.033 A 
HETATM   19  C16 UNL     1       2.111   0.248  -1.231  1.00  0.00     0.096 C 
HETATM   20  H9  UNL     1      -1.038   3.902   1.229  1.00  0.00     0.327 HD
ENDROOT
BRANCH   1  21
HETATM   21  O1  UNL     1       2.706  -1.445   0.808  1.00  0.00    -0.359 OA
HETATM   22  C1  UNL     1       3.971  -0.960   1.290  1.00  0.00     0.209 C 
ENDBRANCH   1  21
TORSDOF 2
