REMARK  5 active torsions:
REMARK  status: ('A' for Active; 'I' for Inactive)
REMARK    1  A    between atoms: O1_2  and  C2_3 
REMARK    2  A    between atoms: N1_6  and  C5_7 
REMARK    3  A    between atoms: C8_11  and  N3_12 
REMARK    4  A    between atoms: N3_12  and  C9_13 
REMARK    5  A    between atoms: C13_17  and  O2_18 
ROOT
HETATM    1  C5  UNL     1       1.313   0.583  -0.787  1.00  0.00     0.154 A 
HETATM    2  C6  UNL     1       0.827   1.522  -1.669  1.00  0.00     0.071 A 
HETATM    3  C7  UNL     1      -0.507   1.829  -1.828  1.00  0.00     0.140 A 
HETATM    4  N2  UNL     1      -1.379   1.152  -1.057  1.00  0.00    -0.075 NA
HETATM    5  C8  UNL     1      -0.956   0.213  -0.168  1.00  0.00     0.728 A 
HETATM    6  N4  UNL     1       0.357  -0.034  -0.066  1.00  0.00    -0.044 NA
ENDROOT
BRANCH   5   7
HETATM    7  N3  UNL     1      -1.907  -0.482   0.629  1.00  0.00    -0.188 N 
HETATM    8  H9  UNL     1      -1.562  -1.197   1.304  1.00  0.00     0.184 HD
BRANCH   7   9
HETATM    9  C9  UNL     1      -3.279  -0.232   0.531  1.00  0.00     0.049 C 
HETATM   10  C10 UNL     1      -3.797  -0.205  -0.681  1.00  0.00     0.030 C 
HETATM   11  C11 UNL     1      -5.200   0.036  -1.047  1.00  0.00     0.001 C 
HETATM   12  C12 UNL     1      -6.242  -0.166  -0.230  1.00  0.00     0.008 C 
HETATM   13  C13 UNL     1      -6.402  -0.640   1.163  1.00  0.00     0.164 C 
HETATM   14  C14 UNL     1      -5.270  -0.210   2.031  1.00  0.00     0.011 C 
HETATM   15  C15 UNL     1      -3.976  -0.029   1.815  1.00  0.00     0.029 C 
BRANCH  13  16
HETATM   16  O2  UNL     1      -7.605  -0.129   1.640  1.00  0.00    -0.388 OA
HETATM   17  H14 UNL     1      -7.879  -0.655   2.433  1.00  0.00     0.210 HD
ENDBRANCH  13  16
ENDBRANCH   7   9
ENDBRANCH   5   7
BRANCH   1  18
HETATM   18  N1  UNL     1       2.681   0.252  -0.607  1.00  0.00    -0.317 N 
HETATM   19  C4  UNL     1       3.024  -0.750   0.354  1.00  0.00     0.097 A 
HETATM   20  C3  UNL     1       4.281  -1.082   0.547  1.00  0.00     0.026 A 
HETATM   21  C2  UNL     1       5.422  -0.501  -0.158  1.00  0.00     0.169 A 
HETATM   22  C17 UNL     1       4.931   0.517  -1.119  1.00  0.00     0.026 A 
HETATM   23  C16 UNL     1       3.691   0.900  -1.364  1.00  0.00     0.097 A 
BRANCH  21  24
HETATM   24  O1  UNL     1       6.391   0.018   0.690  1.00  0.00    -0.383 OA
HETATM   25  C1  UNL     1       7.623  -0.582   0.592  1.00  0.00     0.202 C 
ENDBRANCH  21  24
ENDBRANCH   1  18
TORSDOF 5
