REMARK  8 active torsions:
REMARK  status: ('A' for Active; 'I' for Inactive)
REMARK    1  A    between atoms: O1_2  and  C2_3 
REMARK    2  A    between atoms: C2_3  and  C3_4 
REMARK    3  A    between atoms: C3_4  and  C4_5 
REMARK    4  A    between atoms: C3_4  and  N4_15 
REMARK    5  A    between atoms: C5_6  and  C6_7 
REMARK    6  A    between atoms: C6_7  and  N1_8 
REMARK    7  A    between atoms: N1_8  and  C7_9 
REMARK    8  A    between atoms: C15_20  and  O2_21 
ROOT
HETATM    1  C3  UNL     1      -1.141  -0.934   0.594  1.00  0.00     0.272 C 
ENDROOT
BRANCH   1   2
HETATM    2  C2  UNL     1      -1.005  -1.985   1.628  1.00  0.00     0.207 C 
BRANCH   2   3
HETATM    3  O1  UNL     1      -2.110  -2.672   2.013  1.00  0.00    -0.394 OA
HETATM    4  C1  UNL     1      -2.706  -3.409   0.995  1.00  0.00     0.201 C 
ENDBRANCH   2   3
ENDBRANCH   1   2
BRANCH   1   5
HETATM    5  C4  UNL     1       0.265  -0.401   0.417  1.00  0.00     0.008 C 
HETATM    6  C5  UNL     1       1.133  -1.111  -0.297  1.00  0.00    -0.009 C 
BRANCH   6   7
HETATM    7  C6  UNL     1       2.526  -0.711  -0.547  1.00  0.00     0.148 C 
BRANCH   7   8
HETATM    8  N1  UNL     1       2.889   0.544   0.058  1.00  0.00    -0.371 N 
HETATM    9  H11 UNL     1       2.505   1.316   0.641  1.00  0.00     0.161 HD
BRANCH   8  10
HETATM   10  C7  UNL     1       4.264   0.819  -0.259  1.00  0.00     0.126 A 
HETATM   11  C8  UNL     1       5.257   0.373   0.581  1.00  0.00     0.069 A 
HETATM   12  C9  UNL     1       6.594   0.621   0.306  1.00  0.00     0.122 A 
HETATM   13  N2  UNL     1       6.933   1.310  -0.802  1.00  0.00    -0.254 NA
HETATM   14  C10 UNL     1       5.958   1.738  -1.612  1.00  0.00     0.234 A 
HETATM   15  N3  UNL     1       4.662   1.508  -1.360  1.00  0.00    -0.225 NA
ENDBRANCH   8  10
ENDBRANCH   7   8
ENDBRANCH   6   7
ENDBRANCH   1   5
BRANCH   1  16
HETATM   16  N4  UNL     1      -1.980   0.138   0.963  1.00  0.00     0.131 N 
HETATM   17  C11 UNL     1      -3.342  -0.096   1.257  1.00  0.00     0.281 C 
HETATM   18  C12 UNL     1      -4.257  -0.203   0.062  1.00  0.00     0.057 C 
HETATM   19  C13 UNL     1      -3.582   0.117  -1.227  1.00  0.00    -0.025 C 
HETATM   20  C14 UNL     1      -2.452   0.822  -1.314  1.00  0.00     0.032 C 
HETATM   21  C15 UNL     1      -1.939   1.254   0.019  1.00  0.00     0.383 C 
BRANCH  21  22
HETATM   22  O2  UNL     1      -2.647   2.279   0.593  1.00  0.00    -0.359 OA
HETATM   23  C16 UNL     1      -1.917   3.434   0.796  1.00  0.00     0.204 C 
ENDBRANCH  21  22
ENDBRANCH   1  16
TORSDOF 8
