REMARK  6 active torsions:
REMARK  status: ('A' for Active; 'I' for Inactive)
REMARK    1  A    between atoms: C3_3  and  C4_4 
REMARK    2  A    between atoms: C3_3  and  O2_21 
REMARK    3  A    between atoms: C4_4  and  N1_5 
REMARK    4  A    between atoms: N1_5  and  C5_6 
REMARK    5  A    between atoms: N3_11  and  C9_12 
REMARK    6  A    between atoms: C14_17  and  O1_18 
ROOT
HETATM    1  C5  UNL     1       0.830  -0.010   0.248  1.00  0.00     0.117 C 
HETATM    2  C6  UNL     1       1.367  -0.875  -0.594  1.00  0.00     0.068 C 
HETATM    3  C7  UNL     1       0.655  -1.810  -1.453  1.00  0.00     0.116 C 
HETATM    4  N2  UNL     1      -0.542  -2.226  -1.433  1.00  0.00    -0.280 NA
HETATM    5  C8  UNL     1      -1.667  -1.980  -0.602  1.00  0.00     0.297 C 
HETATM    6  N3  UNL     1      -1.588  -0.715   0.082  1.00  0.00    -0.268 N 
HETATM    7  N4  UNL     1      -0.583   0.184   0.485  1.00  0.00    -0.281 N 
HETATM    8  H19 UNL     1      -0.929   1.034   0.984  1.00  0.00     0.189 HD
ENDROOT
BRANCH   1   9
HETATM    9  N1  UNL     1       1.566   0.905   1.085  1.00  0.00    -0.369 N 
HETATM   10  H7  UNL     1       1.299   0.895   2.108  1.00  0.00     0.161 HD
BRANCH   9  11
HETATM   11  C4  UNL     1       2.589   1.776   0.635  1.00  0.00     0.185 C 
BRANCH  11  12
HETATM   12  C3  UNL     1       3.856   1.175   0.221  1.00  0.00     0.059 C 
HETATM   13  C2  UNL     1       4.364   1.284  -1.018  1.00  0.00     0.003 C 
HETATM   14  C1  UNL     1       5.593   0.784  -1.676  1.00  0.00     0.038 C 
BRANCH  12  15
HETATM   15  O2  UNL     1       4.718   0.426   0.997  1.00  0.00    -0.359 OA
HETATM   16  C16 UNL     1       4.780  -0.976   1.066  1.00  0.00     0.209 C 
ENDBRANCH  12  15
ENDBRANCH  11  12
ENDBRANCH   9  11
ENDBRANCH   1   9
BRANCH   6  17
HETATM   17  C9  UNL     1      -2.913  -0.266   0.446  1.00  0.00     0.086 A 
HETATM   18  C10 UNL     1      -2.969  -0.188   1.839  1.00  0.00     0.034 A 
HETATM   19  C11 UNL     1      -4.147   0.221   2.472  1.00  0.00     0.002 A 
HETATM   20  C12 UNL     1      -5.230   0.537   1.669  1.00  0.00     0.003 A 
HETATM   21  C13 UNL     1      -5.152   0.452   0.289  1.00  0.00     0.039 A 
HETATM   22  C14 UNL     1      -3.999   0.052  -0.330  1.00  0.00     0.096 A 
BRANCH  22  23
HETATM   23  O1  UNL     1      -3.753  -0.085  -1.675  1.00  0.00    -0.354 OA
HETATM   24  C15 UNL     1      -4.735   0.194  -2.662  1.00  0.00     0.210 C 
ENDBRANCH  22  23
ENDBRANCH   6  17
TORSDOF 6
