REMARK  5 active torsions:
REMARK  status: ('A' for Active; 'I' for Inactive)
REMARK    1  A    between atoms: C2_2  and  C3_3 
REMARK    2  A    between atoms: N1_7  and  C7_8 
REMARK    3  A    between atoms: C8_9  and  C9_10 
REMARK    4  A    between atoms: C10_11  and  N2_12 
REMARK    5  A    between atoms: C14_16  and  O1_17 
ROOT
HETATM    1  C7  UNL     1       0.206   1.086   0.820  1.00  0.00     0.133 A 
HETATM    2  C8  UNL     1      -1.113   1.223   0.848  1.00  0.00     0.008 A 
HETATM    3  C16 UNL     1      -1.449   2.261   1.857  1.00  0.00     0.090 A 
HETATM    4  C17 UNL     1      -0.093   2.649   2.351  1.00  0.00     0.096 A 
HETATM    5  N3  UNL     1       0.823   1.971   1.750  1.00  0.00    -0.247 NA
ENDROOT
BRANCH   2   6
HETATM    6  C9  UNL     1      -2.175   0.552   0.106  1.00  0.00     0.034 A 
HETATM    7  C10 UNL     1      -3.197   1.257  -0.494  1.00  0.00     0.039 A 
HETATM    8  C11 UNL     1      -4.258   0.702  -1.196  1.00  0.00     0.030 A 
HETATM    9  C12 UNL     1      -4.277  -0.680  -1.295  1.00  0.00     0.005 A 
HETATM   10  C13 UNL     1      -3.289  -1.456  -0.722  1.00  0.00     0.038 A 
HETATM   11  C14 UNL     1      -2.272  -0.824  -0.040  1.00  0.00     0.081 A 
BRANCH   7  12
HETATM   12  N2  UNL     1      -3.259   2.677  -0.455  1.00  0.00    -0.398 N 
HETATM   13  H9  UNL     1      -2.533   3.260  -0.960  1.00  0.00     0.156 HD
HETATM   14  H10 UNL     1      -3.811   3.495  -0.075  1.00  0.00     0.156 HD
ENDBRANCH   7  12
BRANCH  11  15
HETATM   15  O1  UNL     1      -1.306  -1.602   0.524  1.00  0.00    -0.355 OA
HETATM   16  C15 UNL     1      -1.172  -2.982   0.525  1.00  0.00     0.210 C 
ENDBRANCH  11  15
ENDBRANCH   2   6
BRANCH   1  17
HETATM   17  N1  UNL     1       1.064   0.245   0.063  1.00  0.00    -0.361 N 
HETATM   18  C6  UNL     1       1.283   0.616  -1.344  1.00  0.00     0.151 C 
HETATM   19  C5  UNL     1       2.730   1.000  -1.408  1.00  0.00    -0.010 C 
HETATM   20  C4  UNL     1       3.587   0.427  -0.560  1.00  0.00    -0.019 C 
HETATM   21  C3  UNL     1       3.280  -0.596   0.493  1.00  0.00     0.048 C 
HETATM   22  C18 UNL     1       1.816  -0.972   0.405  1.00  0.00     0.137 C 
BRANCH  21  23
HETATM   23  C2  UNL     1       4.136  -1.802   0.343  1.00  0.00    -0.027 C 
HETATM   24  C1  UNL     1       5.036  -1.961  -0.616  1.00  0.00     0.007 C 
ENDBRANCH  21  23
ENDBRANCH   1  17
TORSDOF 5
