REMARK  9 active torsions:
REMARK  status: ('A' for Active; 'I' for Inactive)
REMARK    1  A    between atoms: C2_2  and  C3_3 
REMARK    2  A    between atoms: C3_3  and  C4_4 
REMARK    3  A    between atoms: C4_4  and  C5_5 
REMARK    4  A    between atoms: C5_5  and  C6_6 
REMARK    5  A    between atoms: C6_6  and  N1_7 
REMARK    6  A    between atoms: N1_7  and  C7_8 
REMARK    7  A    between atoms: C10_12  and  N3_13 
REMARK    8  A    between atoms: N3_13  and  C11_14 
REMARK    9  A    between atoms: C16_19  and  O1_20 
ROOT
HETATM    1  C7  UNL     1       0.130   1.793  -0.539  1.00  0.00     0.147 A 
HETATM    2  C8  UNL     1       0.080   3.097  -0.168  1.00  0.00     0.071 A 
HETATM    3  C9  UNL     1      -1.003   3.743   0.350  1.00  0.00     0.140 A 
HETATM    4  N2  UNL     1      -2.185   3.067   0.539  1.00  0.00    -0.075 NA
HETATM    5  C10 UNL     1      -2.179   1.730   0.175  1.00  0.00     0.728 A 
HETATM    6  N4  UNL     1      -1.028   1.155  -0.343  1.00  0.00    -0.045 NA
ENDROOT
BRANCH   5   7
HETATM    7  N3  UNL     1      -3.266   0.892   0.167  1.00  0.00    -0.185 N 
HETATM    8  H13 UNL     1      -2.727   0.307   0.892  1.00  0.00     0.184 HD
BRANCH   7   9
HETATM    9  C11 UNL     1      -4.372   0.060   0.153  1.00  0.00     0.082 A 
HETATM   10  C12 UNL     1      -5.639   0.638   0.191  1.00  0.00     0.033 A 
HETATM   11  C13 UNL     1      -6.678  -0.257   0.156  1.00  0.00     0.002 A 
HETATM   12  C14 UNL     1      -6.452  -1.595   0.098  1.00  0.00     0.003 A 
HETATM   13  C15 UNL     1      -5.244  -2.238   0.067  1.00  0.00     0.039 A 
HETATM   14  C16 UNL     1      -4.169  -1.340   0.093  1.00  0.00     0.095 A 
BRANCH  14  15
HETATM   15  O1  UNL     1      -2.879  -1.667   0.066  1.00  0.00    -0.354 OA
HETATM   16  C17 UNL     1      -2.289  -2.887  -0.017  1.00  0.00     0.210 C 
ENDBRANCH  14  15
ENDBRANCH   7   9
ENDBRANCH   5   7
BRANCH   1  17
HETATM   17  N1  UNL     1       0.986   0.794  -1.076  1.00  0.00    -0.350 N 
HETATM   18  H10 UNL     1       1.197   0.527  -2.097  1.00  0.00     0.166 HD
BRANCH  17  19
HETATM   19  C6  UNL     1       1.702  -0.098  -0.197  1.00  0.00     0.089 C 
BRANCH  19  20
HETATM   20  C5  UNL     1       2.938   0.306  -0.097  1.00  0.00     0.017 C 
BRANCH  20  21
HETATM   21  C4  UNL     1       4.004  -0.272   0.678  1.00  0.00    -0.003 C 
BRANCH  21  22
HETATM   22  C3  UNL     1       5.258  -0.057   0.931  1.00  0.00    -0.027 C 
BRANCH  22  23
HETATM   23  C2  UNL     1       6.597  -0.178   1.455  1.00  0.00     0.022 C 
HETATM   24  C1  UNL     1       7.626  -0.328   0.312  1.00  0.00     0.009 C 
ENDBRANCH  22  23
ENDBRANCH  21  22
ENDBRANCH  20  21
ENDBRANCH  19  20
ENDBRANCH  17  19
ENDBRANCH   1  17
TORSDOF 9
