REMARK  4 active torsions:
REMARK  status: ('A' for Active; 'I' for Inactive)
REMARK    1  A    between atoms: C2_2  and  C3_3 
REMARK    2  A    between atoms: C9_9  and  N1_10 
REMARK    3  A    between atoms: N1_10  and  C10_11 
REMARK    4  A    between atoms: C15_16  and  O1_17 
ROOT
HETATM    1  C3  UNL     1       3.886   0.088   0.812  1.00  0.00     0.065 C 
HETATM    2  C4  UNL     1       3.751   1.000  -0.450  1.00  0.00     0.009 C 
HETATM    3  C5  UNL     1       3.104  -0.064  -0.971  1.00  0.00    -0.001 C 
HETATM    4  C6  UNL     1       2.257  -1.034  -0.312  1.00  0.00     0.030 C 
HETATM    5  C7  UNL     1       2.471  -0.328   0.775  1.00  0.00    -0.042 C 
HETATM    6  C8  UNL     1       1.129  -0.217   1.386  1.00  0.00     0.058 C 
HETATM    7  C9  UNL     1       0.121  -0.161   0.512  1.00  0.00     0.127 C 
HETATM    8  N2  UNL     1      -0.003  -0.226  -0.853  1.00  0.00    -0.246 NA
HETATM    9  C17 UNL     1       0.670  -0.271  -1.871  1.00  0.00     0.115 C 
HETATM   10  C18 UNL     1       1.727  -0.309  -2.865  1.00  0.00     0.277 C 
HETATM   11  N3  UNL     1       3.011  -0.214  -2.449  1.00  0.00    -0.300 NA
ENDROOT
BRANCH   7  12
HETATM   12  N1  UNL     1      -1.129  -0.050   1.163  1.00  0.00    -0.339 N 
HETATM   13  H8  UNL     1      -1.387  -0.611   1.999  1.00  0.00     0.167 HD
BRANCH  12  14
HETATM   14  C10 UNL     1      -2.315   0.708   0.996  1.00  0.00     0.067 A 
HETATM   15  C11 UNL     1      -2.276   1.917   1.663  1.00  0.00     0.032 A 
HETATM   16  C12 UNL     1      -3.349   2.786   1.611  1.00  0.00     0.002 A 
HETATM   17  C13 UNL     1      -4.441   2.383   0.869  1.00  0.00     0.003 A 
HETATM   18  C14 UNL     1      -4.470   1.176   0.209  1.00  0.00     0.039 A 
HETATM   19  C15 UNL     1      -3.398   0.297   0.254  1.00  0.00     0.094 A 
BRANCH  19  20
HETATM   20  O1  UNL     1      -3.348  -0.928  -0.378  1.00  0.00    -0.354 OA
HETATM   21  C16 UNL     1      -4.453  -1.393  -1.159  1.00  0.00     0.210 C 
ENDBRANCH  19  20
ENDBRANCH  12  14
ENDBRANCH   7  12
BRANCH   1  22
HETATM   22  C2  UNL     1       4.851  -0.972   0.594  1.00  0.00    -0.024 C 
HETATM   23  C1  UNL     1       4.547  -2.241   0.374  1.00  0.00     0.008 C 
ENDBRANCH   1  22
TORSDOF 4
