REMARK  6 active torsions:
REMARK  status: ('A' for Active; 'I' for Inactive)
REMARK    1  A    between atoms: O1_2  and  C2_3 
REMARK    2  A    between atoms: C7_8  and  N1_9 
REMARK    3  A    between atoms: N1_9  and  C8_10 
REMARK    4  A    between atoms: C11_14  and  N2_15 
REMARK    5  A    between atoms: N2_15  and  C12_16 
REMARK    6  A    between atoms: C17_21  and  O2_22 
ROOT
HETATM    1  C8  UNL     1      -0.664  -0.405   1.049  1.00  0.00     0.130 A 
HETATM    2  C9  UNL     1      -0.659  -0.690   2.378  1.00  0.00     0.052 A 
HETATM    3  C10 UNL     1       0.429  -0.307   3.137  1.00  0.00     0.023 A 
HETATM    4  P1  UNL     1       1.709   0.518   2.308  1.00  0.00     0.019 P 
HETATM    5  C11 UNL     1       1.393   0.726   0.611  1.00  0.00     0.141 A 
HETATM    6  N3  UNL     1       0.222   0.207   0.285  1.00  0.00    -0.212 NA
ENDROOT
BRANCH   1   7
HETATM    7  N1  UNL     1      -1.845  -0.851   0.349  1.00  0.00    -0.339 N 
HETATM    8  H8  UNL     1      -2.021  -1.745  -0.150  1.00  0.00     0.167 HD
BRANCH   7   9
HETATM    9  C7  UNL     1      -2.910   0.104   0.365  1.00  0.00     0.067 A 
HETATM   10  C2  UNL     1      -4.122  -0.134  -0.252  1.00  0.00     0.094 A 
HETATM   11  C3  UNL     1      -5.159   0.794  -0.236  1.00  0.00     0.039 A 
HETATM   12  C4  UNL     1      -4.992   2.001   0.415  1.00  0.00     0.003 A 
HETATM   13  C5  UNL     1      -3.796   2.278   1.045  1.00  0.00     0.002 A 
HETATM   14  C6  UNL     1      -2.773   1.324   1.010  1.00  0.00     0.032 A 
BRANCH  10  15
HETATM   15  O1  UNL     1      -4.350  -1.313  -0.916  1.00  0.00    -0.354 OA
HETATM   16  C1  UNL     1      -5.546  -1.648  -1.574  1.00  0.00     0.210 C 
ENDBRANCH  10  15
ENDBRANCH   7   9
ENDBRANCH   1   7
BRANCH   5  17
HETATM   17  N2  UNL     1       2.247   1.366  -0.361  1.00  0.00    -0.338 N 
HETATM   18  H11 UNL     1       2.256   2.384  -0.637  1.00  0.00     0.167 HD
BRANCH  17  19
HETATM   19  C12 UNL     1       3.187   0.495  -1.016  1.00  0.00     0.067 A 
HETATM   20  C13 UNL     1       2.969   0.489  -2.390  1.00  0.00     0.032 A 
HETATM   21  C14 UNL     1       3.780  -0.298  -3.204  1.00  0.00     0.002 A 
HETATM   22  C15 UNL     1       4.772  -1.043  -2.630  1.00  0.00     0.003 A 
HETATM   23  C16 UNL     1       4.986  -1.036  -1.283  1.00  0.00     0.039 A 
HETATM   24  C17 UNL     1       4.198  -0.268  -0.457  1.00  0.00     0.094 A 
BRANCH  24  25
HETATM   25  O2  UNL     1       4.253  -0.125   0.916  1.00  0.00    -0.354 OA
HETATM   26  C18 UNL     1       5.162  -0.763   1.771  1.00  0.00     0.210 C 
ENDBRANCH  24  25
ENDBRANCH  17  19
ENDBRANCH   5  17
TORSDOF 6
