REMARK  9 active torsions:
REMARK  status: ('A' for Active; 'I' for Inactive)
REMARK    1  A    between atoms: C3_3  and  N1_4 
REMARK    2  A    between atoms: N1_4  and  C4_5 
REMARK    3  A    between atoms: C7_10  and  C8_11 
REMARK    4  A    between atoms: C13_17  and  C14_18 
REMARK    5  A    between atoms: C14_18  and  N4_19 
REMARK    6  A    between atoms: N4_19  and  C15_20 
REMARK    7  A    between atoms: C15_20  and  C16_21 
REMARK    8  A    between atoms: C16_21  and  S1_22 
REMARK    9  A    between atoms: S1_22  and  C17_24 
ROOT
HETATM    1  C4  UNL     1      -1.692   1.607   0.160  1.00  0.00     0.111 C 
HETATM    2  N2  UNL     1      -2.609   0.921   0.569  1.00  0.00    -0.175 NA
HETATM    3  C5  UNL     1      -3.923   0.985   1.064  1.00  0.00     0.205 A 
HETATM    4  N3  UNL     1      -3.889   0.039   0.288  1.00  0.00    -0.219 NA
HETATM    5  C6  UNL     1      -3.574  -0.884  -0.573  1.00  0.00     0.116 C 
HETATM    6  C7  UNL     1      -3.211  -2.297  -0.511  1.00  0.00     0.020 C 
HETATM    7  C9  UNL     1      -1.920  -2.760   0.094  1.00  0.00     0.072 C 
HETATM    8  C10 UNL     1      -0.725  -2.001  -0.597  1.00  0.00     0.054 A 
HETATM    9  C11 UNL     1      -1.204  -0.815  -0.177  1.00  0.00     0.050 A 
HETATM   10  C12 UNL     1      -0.835   0.468  -0.301  1.00  0.00     0.037 A 
HETATM   11  C13 UNL     1       0.212  -0.024  -1.017  1.00  0.00     0.095 A 
HETATM   12  O2  UNL     1       0.282  -1.366  -1.180  1.00  0.00    -0.317 OA
ENDROOT
BRANCH  11  13
HETATM   13  C14 UNL     1       1.157   1.021  -1.532  1.00  0.00     0.335 C 
BRANCH  13  14
HETATM   14  N4  UNL     1       2.478   0.349  -1.717  1.00  0.00     0.090 N 
HETATM   15  H18 UNL     1       2.396  -0.434  -2.375  1.00  0.00     0.316 HD
BRANCH  14  16
HETATM   16  C15 UNL     1       2.901  -0.201  -0.447  1.00  0.00     0.282 C 
BRANCH  16  17
HETATM   17  C16 UNL     1       4.333  -0.739  -0.654  1.00  0.00     0.141 C 
BRANCH  17  18
HETATM   18  S1  UNL     1       4.825  -1.411   0.948  1.00  0.00     0.045 S 
HETATM   19  O1  UNL     1       3.897  -2.593   1.218  1.00  0.00    -0.256 OA
BRANCH  18  20
HETATM   20  C17 UNL     1       6.493  -2.092   0.881  1.00  0.00     0.330 C 
HETATM   21  F1  UNL     1       7.422  -1.132   0.500  1.00  0.00    -0.242 F 
ENDBRANCH  18  20
ENDBRANCH  17  18
ENDBRANCH  16  17
ENDBRANCH  14  16
ENDBRANCH  13  14
ENDBRANCH  11  13
BRANCH   1  22
HETATM   22  N1  UNL     1      -1.102   2.847  -0.162  1.00  0.00    -0.355 N 
HETATM   23  H6  UNL     1      -0.591   2.786  -1.037  1.00  0.00     0.166 HD
BRANCH  22  24
HETATM   24  C3  UNL     1      -1.494   3.732   0.933  1.00  0.00     0.085 C 
HETATM   25  C2  UNL     1      -0.712   4.690   1.283  1.00  0.00    -0.014 C 
HETATM   26  C1  UNL     1       0.465   4.535   0.322  1.00  0.00     0.037 C 
ENDBRANCH  22  24
ENDBRANCH   1  22
BRANCH   6  27
HETATM   27  C8  UNL     1      -4.337  -3.246  -0.045  1.00  0.00     0.120 C 
HETATM   28 CL1  UNL     1      -3.687  -4.888  -0.055  1.00  0.00    -0.130 Cl
ENDBRANCH   6  27
TORSDOF 9
