REMARK  5 active torsions:
REMARK  status: ('A' for Active; 'I' for Inactive)
REMARK    1  A    between atoms: O1_2  and  C2_3 
REMARK    2  A    between atoms: N1_7  and  C6_8 
REMARK    3  A    between atoms: C9_12  and  N3_13 
REMARK    4  A    between atoms: N3_13  and  C10_14 
REMARK    5  A    between atoms: C15_19  and  O2_20 
ROOT
HETATM    1  C6  UNL     1       1.262  -0.119  -0.442  1.00  0.00     0.150 A 
HETATM    2  C7  UNL     1       1.413  -1.485  -0.366  1.00  0.00     0.071 A 
HETATM    3  C8  UNL     1       0.458  -2.458  -0.333  1.00  0.00     0.140 A 
HETATM    4  N2  UNL     1      -0.728  -1.908  -0.385  1.00  0.00    -0.075 NA
HETATM    5  C9  UNL     1      -1.036  -0.577  -0.461  1.00  0.00     0.728 A 
HETATM    6  N4  UNL     1       0.021   0.313  -0.489  1.00  0.00    -0.045 NA
ENDROOT
BRANCH   5   7
HETATM    7  N3  UNL     1      -2.333  -0.085  -0.391  1.00  0.00    -0.185 N 
HETATM    8  H9  UNL     1      -2.721  -0.995  -0.808  1.00  0.00     0.184 HD
BRANCH   7   9
HETATM    9  C10 UNL     1      -3.626   0.422  -0.321  1.00  0.00     0.082 A 
HETATM   10  C11 UNL     1      -3.830   1.720  -0.731  1.00  0.00     0.033 A 
HETATM   11  C12 UNL     1      -5.110   2.224  -0.692  1.00  0.00     0.002 A 
HETATM   12  C13 UNL     1      -6.130   1.429  -0.251  1.00  0.00     0.003 A 
HETATM   13  C14 UNL     1      -6.041   0.102   0.187  1.00  0.00     0.039 A 
HETATM   14  C15 UNL     1      -4.743  -0.366   0.135  1.00  0.00     0.095 A 
BRANCH  14  15
HETATM   15  O2  UNL     1      -4.264  -1.596   0.486  1.00  0.00    -0.354 OA
HETATM   16  C16 UNL     1      -4.980  -2.652   0.974  1.00  0.00     0.210 C 
ENDBRANCH  14  15
ENDBRANCH   7   9
ENDBRANCH   5   7
BRANCH   1  17
HETATM   17  N1  UNL     1       2.573   0.454  -0.393  1.00  0.00    -0.335 N 
HETATM   18  C5  UNL     1       2.688   1.594  -1.231  1.00  0.00     0.093 A 
HETATM   19  C4  UNL     1       3.820   2.266  -1.292  1.00  0.00     0.020 A 
HETATM   20  C3  UNL     1       4.939   1.816  -0.488  1.00  0.00     0.035 A 
HETATM   21  C2  UNL     1       4.853   0.771   0.295  1.00  0.00     0.064 A 
HETATM   22  C17 UNL     1       3.651  -0.052   0.455  1.00  0.00     0.194 A 
BRANCH  21  23
HETATM   23  O1  UNL     1       5.963   0.379   1.051  1.00  0.00    -0.359 OA
HETATM   24  C1  UNL     1       7.257   0.191   0.567  1.00  0.00     0.209 C 
ENDBRANCH  21  23
ENDBRANCH   1  17
TORSDOF 5
