REMARK  9 active torsions:
REMARK  status: ('A' for Active; 'I' for Inactive)
REMARK    1  A    between atoms: C2_2  and  C3_3 
REMARK    2  A    between atoms: C3_3  and  C4_4 
REMARK    3  A    between atoms: C4_4  and  C5_5 
REMARK    4  A    between atoms: C5_5  and  C6_6 
REMARK    5  A    between atoms: C6_6  and  N1_10 
REMARK    6  A    between atoms: C7_7  and  O1_8 
REMARK    7  A    between atoms: C11_14  and  N3_15 
REMARK    8  A    between atoms: N3_15  and  C12_16 
REMARK    9  A    between atoms: C17_21  and  O2_22 
ROOT
HETATM    1  N1  UNL     1      -1.223  -1.673   0.736  1.00  0.00    -0.167 N 
HETATM    2  N2  UNL     1      -0.561  -2.743   1.393  1.00  0.00    -0.163 NA
HETATM    3  C9  UNL     1       0.669  -2.703   1.734  1.00  0.00     0.144 A 
HETATM    4  C10 UNL     1       1.495  -1.513   1.459  1.00  0.00     0.071 A 
HETATM    5  C11 UNL     1       0.879  -0.521   0.849  1.00  0.00     0.123 A 
HETATM    6  N4  UNL     1      -0.482  -0.505   0.446  1.00  0.00    -0.262 N 
HETATM    7  H22 UNL     1      -0.935   0.295  -0.033  1.00  0.00     0.191 HD
ENDROOT
BRANCH   5   8
HETATM    8  N3  UNL     1       1.588   0.663   0.542  1.00  0.00    -0.339 N 
HETATM    9  H14 UNL     1       1.210   1.534   0.134  1.00  0.00     0.167 HD
BRANCH   8  10
HETATM   10  C12 UNL     1       2.917   1.149   0.627  1.00  0.00     0.067 A 
HETATM   11  C13 UNL     1       3.405   1.849   1.717  1.00  0.00     0.032 A 
HETATM   12  C14 UNL     1       4.720   2.313   1.769  1.00  0.00     0.002 A 
HETATM   13  C15 UNL     1       5.534   2.049   0.681  1.00  0.00     0.003 A 
HETATM   14  C16 UNL     1       5.115   1.358  -0.436  1.00  0.00     0.039 A 
HETATM   15  C17 UNL     1       3.801   0.920  -0.436  1.00  0.00     0.094 A 
BRANCH  15  16
HETATM   16  O2  UNL     1       3.308   0.215  -1.532  1.00  0.00    -0.354 OA
HETATM   17  C18 UNL     1       4.152  -0.050  -2.641  1.00  0.00     0.210 C 
ENDBRANCH  15  16
ENDBRANCH   8  10
ENDBRANCH   5   8
BRANCH   1  18
HETATM   18  C6  UNL     1      -2.560  -1.779   0.394  1.00  0.00     0.123 C 
HETATM   19  C7  UNL     1      -3.298  -2.695  -0.437  1.00  0.00     0.236 C 
BRANCH  18  20
HETATM   20  C5  UNL     1      -3.253  -0.816   0.979  1.00  0.00    -0.097 C 
BRANCH  20  21
HETATM   21  C4  UNL     1      -4.004   0.212   1.333  1.00  0.00     0.057 C 
BRANCH  21  22
HETATM   22  C3  UNL     1      -4.053   1.339   0.469  1.00  0.00     0.004 C 
BRANCH  22  23
HETATM   23  C2  UNL     1      -5.041   2.207   0.368  1.00  0.00    -0.030 C 
HETATM   24  C1  UNL     1      -5.088   3.395  -0.546  1.00  0.00     0.036 C 
ENDBRANCH  22  23
ENDBRANCH  21  22
ENDBRANCH  20  21
ENDBRANCH  18  20
BRANCH  19  25
HETATM   25  O1  UNL     1      -2.982  -2.775  -1.762  1.00  0.00    -0.389 OA
HETATM   26  C8  UNL     1      -1.670  -3.180  -1.950  1.00  0.00     0.202 C 
ENDBRANCH  19  25
ENDBRANCH   1  18
TORSDOF 9
