REMARK  3 active torsions:
REMARK  status: ('A' for Active; 'I' for Inactive)
REMARK    1  A    between atoms: O1_2  and  C2_3 
REMARK    2  A    between atoms: C7_8  and  N1_9 
REMARK    3  A    between atoms: N1_9  and  C8_10 
ROOT
HETATM    1  C8  UNL     1       0.028   0.830   0.523  1.00  0.00     0.069 C 
HETATM    2  C9  UNL     1      -0.451   1.715  -0.392  1.00  0.00     0.123 C 
HETATM    3  N2  UNL     1      -1.675   1.819  -1.183  1.00  0.00    -0.365 N 
HETATM    4  C10 UNL     1      -2.611   0.758  -1.521  1.00  0.00     0.033 C 
HETATM    5  C11 UNL     1      -2.532  -0.515  -2.003  1.00  0.00     0.028 C 
HETATM    6  C12 UNL     1      -2.579  -1.450  -0.795  1.00  0.00     0.017 C 
HETATM    7  C13 UNL     1      -2.325  -0.736   0.344  1.00  0.00    -0.013 C 
HETATM    8  C14 UNL     1      -3.445   0.133   0.902  1.00  0.00     0.212 C 
HETATM    9  O2  UNL     1      -4.357   0.638   0.049  1.00  0.00    -0.380 OA
HETATM   10  C15 UNL     1      -3.901   1.420  -1.047  1.00  0.00     0.225 C 
HETATM   11  S1  UNL     1      -1.042  -0.299   1.542  1.00  0.00    -0.193 SA
HETATM   12  C16 UNL     1      -1.703   0.488   3.035  1.00  0.00     0.077 C 
HETATM   13  H10 UNL     1      -2.061   2.677  -1.604  1.00  0.00     0.165 HD
HETATM   14  H17 UNL     1      -0.055  -1.473   2.030  1.00  0.00     0.092 HD
ENDROOT
BRANCH   1  15
HETATM   15  N1  UNL     1       1.442   0.988   0.500  1.00  0.00    -0.349 N 
HETATM   16  H8  UNL     1       1.645   1.710   1.231  1.00  0.00     0.166 HD
BRANCH  15  17
HETATM   17  C7  UNL     1       2.404   0.334  -0.315  1.00  0.00     0.066 A 
HETATM   18  C2  UNL     1       3.064  -0.849  -0.020  1.00  0.00     0.094 A 
HETATM   19  C3  UNL     1       3.979  -1.371  -0.910  1.00  0.00     0.039 A 
HETATM   20  C4  UNL     1       4.227  -0.706  -2.089  1.00  0.00     0.003 A 
HETATM   21  C5  UNL     1       3.577   0.482  -2.404  1.00  0.00     0.002 A 
HETATM   22  C6  UNL     1       2.652   1.009  -1.505  1.00  0.00     0.032 A 
BRANCH  18  23
HETATM   23  O1  UNL     1       2.657  -1.343   1.219  1.00  0.00    -0.354 OA
HETATM   24  C1  UNL     1       3.239  -2.536   1.653  1.00  0.00     0.210 C 
ENDBRANCH  18  23
ENDBRANCH  15  17
ENDBRANCH   1  15
TORSDOF 3
