REMARK  2 active torsions:
REMARK  status: ('A' for Active; 'I' for Inactive)
REMARK    1  A    between atoms: C11_14  and  O4_15 
REMARK    2  A    between atoms: O4_15  and  O5_16 
ROOT
HETATM    1  O1  UNL     1       0.347  -1.982   1.934  1.00  0.00    -0.286 OA
HETATM    2  C1  UNL     1      -0.277  -1.694   0.883  1.00  0.00     0.198 C 
HETATM    3  C2  UNL     1      -1.654  -1.993   0.591  1.00  0.00     0.071 A 
HETATM    4  C3  UNL     1      -2.136  -3.225   0.597  1.00  0.00     0.161 A 
HETATM    5  O2  UNL     1      -3.415  -2.876   0.268  1.00  0.00    -0.321 OA
HETATM    6  C4  UNL     1      -2.982  -1.532   0.239  1.00  0.00     0.087 A 
HETATM    7  C5  UNL     1      -3.434  -0.270   0.011  1.00  0.00     0.017 C 
HETATM    8  C6  UNL     1      -2.243   0.621   0.195  1.00  0.00     0.024 C 
HETATM    9  C7  UNL     1      -2.018   1.966   0.112  1.00  0.00     0.006 C 
HETATM   10  C8  UNL     1      -0.665   2.459   0.369  1.00  0.00     0.089 C 
HETATM   11  C9  UNL     1       0.363   1.452   0.707  1.00  0.00     0.163 C 
HETATM   12  O3  UNL     1       0.970   1.411   1.802  1.00  0.00    -0.292 OA
HETATM   13  C10 UNL     1       1.082   0.295   0.199  1.00  0.00     0.060 A 
HETATM   14  C11 UNL     1       2.238   0.718  -0.471  1.00  0.00     0.121 A 
HETATM   15  C12 UNL     1       3.161  -0.119  -1.115  1.00  0.00     0.041 A 
HETATM   16  C13 UNL     1       2.887  -1.462  -1.067  1.00  0.00     0.004 A 
HETATM   17  C14 UNL     1       1.732  -1.876  -0.394  1.00  0.00     0.017 A 
HETATM   18  C15 UNL     1       0.834  -1.045   0.232  1.00  0.00     0.032 A 
ENDROOT
BRANCH  14  19
HETATM   19  O4  UNL     1       2.412   2.116  -0.442  1.00  0.00    -0.199 OA
BRANCH  19  20
HETATM   20  O5  UNL     1       3.494   2.591  -1.041  1.00  0.00    -0.245 OA
HETATM   21  H7  UNL     1       3.461   3.561  -1.227  1.00  0.00     0.254 HD
ENDBRANCH  19  20
ENDBRANCH  14  19
TORSDOF 2
