REMARK  2 active torsions:
REMARK  status: ('A' for Active; 'I' for Inactive)
REMARK    1  A    between atoms: C7_7  and  N1_8 
REMARK    2  A    between atoms: N1_8  and  C8_9 
ROOT
HETATM    1  C8  UNL     1      -0.957  -0.701  -0.883  1.00  0.00     0.129 C 
HETATM    2  C9  UNL     1      -0.657  -2.009  -0.973  1.00  0.00     0.069 C 
HETATM    3  C10 UNL     1       0.615  -2.712  -0.757  1.00  0.00     0.116 C 
HETATM    4  N2  UNL     1       1.522  -1.885  -0.440  1.00  0.00    -0.282 NA
HETATM    5  C11 UNL     1       2.887  -2.114  -0.144  1.00  0.00     0.270 C 
HETATM    6  N3  UNL     1       3.804  -1.089  -0.527  1.00  0.00    -0.371 N 
HETATM    7  C12 UNL     1       3.829   0.252  -0.096  1.00  0.00     0.040 A 
HETATM    8  C13 UNL     1       5.070   0.796   0.177  1.00  0.00     0.030 A 
HETATM    9  C14 UNL     1       5.302   2.094   0.611  1.00  0.00     0.002 A 
HETATM   10  C15 UNL     1       4.199   2.906   0.782  1.00  0.00     0.001 A 
HETATM   11  C16 UNL     1       2.958   2.368   0.511  1.00  0.00     0.014 A 
HETATM   12  C17 UNL     1       2.744   1.074   0.080  1.00  0.00     0.003 A 
HETATM   13  O1  UNL     1       1.410   0.760  -0.127  1.00  0.00     0.000 OA
HETATM   14  C18 UNL     1       0.723   0.933  -1.311  1.00  0.00     0.138 A 
HETATM   15  N4  UNL     1       0.210   0.024  -0.518  1.00  0.00    -0.242 N 
HETATM   16  H13 UNL     1       4.578  -1.320  -1.221  1.00  0.00     0.161 HD
ENDROOT
BRANCH   1  17
HETATM   17  N1  UNL     1      -2.191  -0.033  -1.094  1.00  0.00    -0.341 N 
HETATM   18  H8  UNL     1      -1.954   0.322  -2.046  1.00  0.00     0.167 HD
BRANCH  17  19
HETATM   19  C7  UNL     1      -3.389   0.177  -0.402  1.00  0.00     0.039 A 
HETATM   20  C2  UNL     1      -3.558  -0.366   0.852  1.00  0.00    -0.035 A 
HETATM   21  C1  UNL     1      -2.561  -1.177   1.552  1.00  0.00     0.050 C 
HETATM   22  C3  UNL     1      -4.781  -0.093   1.441  1.00  0.00     0.009 A 
HETATM   23  C4  UNL     1      -5.783   0.658   0.865  1.00  0.00     0.001 A 
HETATM   24  C5  UNL     1      -5.522   1.158  -0.388  1.00  0.00     0.002 A 
HETATM   25  C6  UNL     1      -4.322   0.940  -1.069  1.00  0.00     0.030 A 
ENDBRANCH  17  19
ENDBRANCH   1  17
TORSDOF 2
