REMARK  5 active torsions:
REMARK  status: ('A' for Active; 'I' for Inactive)
REMARK    1  A    between atoms: O1_2  and  C2_3 
REMARK    2  A    between atoms: C7_8  and  N1_9 
REMARK    3  A    between atoms: N1_9  and  C8_10 
REMARK    4  A    between atoms: C11_14  and  N3_15 
REMARK    5  A    between atoms: N3_15  and  C12_16 
ROOT
HETATM    1  C8  UNL     1      -0.691  -0.632  -0.064  1.00  0.00     0.728 A 
HETATM    2  N2  UNL     1      -0.573  -1.909  -0.542  1.00  0.00    -0.075 NA
HETATM    3  C9  UNL     1       0.546  -2.262  -1.231  1.00  0.00     0.140 A 
HETATM    4  C10 UNL     1       1.513  -1.253  -1.401  1.00  0.00     0.071 A 
HETATM    5  C11 UNL     1       1.367   0.051  -0.902  1.00  0.00     0.148 A 
HETATM    6  N4  UNL     1       0.247   0.344  -0.228  1.00  0.00    -0.045 NA
ENDROOT
BRANCH   1   7
HETATM    7  N1  UNL     1      -1.951  -0.535   0.582  1.00  0.00    -0.185 N 
HETATM    8  H8  UNL     1      -1.934  -0.887   1.567  1.00  0.00     0.184 HD
BRANCH   7   9
HETATM    9  C7  UNL     1      -3.156  -0.017  -0.022  1.00  0.00     0.082 A 
HETATM   10  C2  UNL     1      -4.393  -0.032   0.622  1.00  0.00     0.095 A 
HETATM   11  C3  UNL     1      -5.412   0.527  -0.099  1.00  0.00     0.039 A 
HETATM   12  C4  UNL     1      -5.314   1.077  -1.355  1.00  0.00     0.003 A 
HETATM   13  C5  UNL     1      -4.060   1.052  -1.920  1.00  0.00     0.002 A 
HETATM   14  C6  UNL     1      -2.936   0.516  -1.300  1.00  0.00     0.033 A 
BRANCH  10  15
HETATM   15  O1  UNL     1      -4.354  -0.607   1.861  1.00  0.00    -0.354 OA
HETATM   16  C1  UNL     1      -5.481  -0.730   2.682  1.00  0.00     0.210 C 
ENDBRANCH  10  15
ENDBRANCH   7   9
ENDBRANCH   1   7
BRANCH   5  17
HETATM   17  N3  UNL     1       2.532   0.722  -1.303  1.00  0.00    -0.340 N 
HETATM   18  H11 UNL     1       2.500   1.333  -2.149  1.00  0.00     0.167 HD
BRANCH  17  19
HETATM   19  C12 UNL     1       3.694   0.511  -0.514  1.00  0.00     0.039 A 
HETATM   20  C13 UNL     1       4.679  -0.115  -1.282  1.00  0.00     0.030 A 
HETATM   21  C14 UNL     1       5.949  -0.479  -0.827  1.00  0.00     0.002 A 
HETATM   22  C15 UNL     1       6.209  -0.181   0.486  1.00  0.00     0.001 A 
HETATM   23  C16 UNL     1       5.254   0.435   1.259  1.00  0.00     0.009 A 
HETATM   24  C17 UNL     1       4.004   0.793   0.809  1.00  0.00    -0.035 A 
HETATM   25  C18 UNL     1       2.910   1.468   1.519  1.00  0.00     0.050 C 
ENDBRANCH  17  19
ENDBRANCH   5  17
TORSDOF 5
