REMARK  4 active torsions:
REMARK  status: ('A' for Active; 'I' for Inactive)
REMARK    1  A    between atoms: N1_1  and  C1_2 
REMARK    2  A    between atoms: C10_15  and  C11_16 
REMARK    3  A    between atoms: C11_16  and  C12_17 
REMARK    4  A    between atoms: C13_18  and  C14_19 
ROOT
HETATM    1  C1  UNL     1      -2.127  -1.256   1.302  1.00  0.00     0.112 C 
HETATM    2  N2  UNL     1      -2.483  -0.948   2.489  1.00  0.00    -0.256 NA
HETATM    3  C2  UNL     1      -1.617  -0.878   3.606  1.00  0.00     0.272 C 
HETATM    4  N3  UNL     1      -1.495   0.533   4.051  1.00  0.00    -0.372 N 
HETATM    5  C3  UNL     1      -1.386   1.410   2.954  1.00  0.00     0.024 A 
HETATM    6  C4  UNL     1      -0.186   0.825   2.653  1.00  0.00     0.012 A 
HETATM    7  C5  UNL     1      -0.207   1.584   1.527  1.00  0.00     0.081 A 
HETATM    8  C6  UNL     1      -0.259   2.390   0.359  1.00  0.00     0.130 A 
HETATM    9  C7  UNL     1      -1.367   2.743   0.964  1.00  0.00     0.102 A 
HETATM   10 CL1  UNL     1      -2.246   3.954   0.119  1.00  0.00    -0.110 Cl
HETATM   11  C8  UNL     1      -1.993   2.390   2.120  1.00  0.00     0.031 A 
HETATM   12  O1  UNL     1       0.782   2.320  -0.618  1.00  0.00    -0.368 OA
HETATM   13  C9  UNL     1       1.572   1.133  -0.660  1.00  0.00     0.221 C 
HETATM   14  C10 UNL     1       0.832  -0.128  -0.951  1.00  0.00     0.015 C 
HETATM   15  N4  UNL     1      -0.264  -0.685  -0.159  1.00  0.00    -0.387 N 
HETATM   16  C15 UNL     1      -0.751  -1.663   0.776  1.00  0.00     0.197 C 
HETATM   17  H5  UNL     1      -1.476   0.818   5.088  1.00  0.00     0.161 HD
HETATM   18  H16 UNL     1      -0.960  -0.014  -0.558  1.00  0.00     0.159 HD
ENDROOT
BRANCH  14  19
HETATM   19  C11 UNL     1       1.369  -0.716  -2.127  1.00  0.00     0.069 C 
BRANCH  19  20
HETATM   20  C12 UNL     1       1.688  -1.495  -3.221  1.00  0.00    -0.017 C 
HETATM   21  C13 UNL     1       2.700  -0.784  -3.741  1.00  0.00     0.001 C 
BRANCH  21  22
HETATM   22  C14 UNL     1       3.675  -0.825  -4.929  1.00  0.00     0.249 C 
HETATM   23  F1  UNL     1       3.330  -2.029  -5.593  1.00  0.00    -0.251 F 
ENDBRANCH  21  22
ENDBRANCH  19  20
ENDBRANCH  14  19
BRANCH   1  24
HETATM   24  N1  UNL     1      -2.904  -1.348   0.143  1.00  0.00    -0.386 N 
HETATM   25  H1  UNL     1      -3.624  -0.786  -0.399  1.00  0.00     0.157 HD
HETATM   26  H2  UNL     1      -3.463  -1.426  -0.703  1.00  0.00     0.157 HD
ENDBRANCH   1  24
TORSDOF 4
