REMARK  7 active torsions:
REMARK  status: ('A' for Active; 'I' for Inactive)
REMARK       I    between atoms: C2_2  and  N1_4 
REMARK    1  A    between atoms: N1_4  and  C3_5 
REMARK    2  A    between atoms: C6_8  and  S1_9 
REMARK    3  A    between atoms: S1_9  and  N2_12 
REMARK    4  A    between atoms: N2_12  and  C7_13 
REMARK    5  A    between atoms: C13_21  and  C14_22 
REMARK    6  A    between atoms: C17_25  and  C18_26 
REMARK    7  A    between atoms: C18_26  and  O5_28 
ROOT
HETATM    1  C7  UNL     1       0.891   0.130  -0.095  1.00  0.00     0.167 C 
HETATM    2  N3  UNL     1      -0.072   1.140   0.156  1.00  0.00    -0.229 NA
HETATM    3  C8  UNL     1       0.489   2.514  -0.110  1.00  0.00     0.057 C 
HETATM    4  C9  UNL     1       1.306   3.027   0.845  1.00  0.00     0.036 C 
HETATM    5  C10 UNL     1       2.210   3.106  -0.323  1.00  0.00     0.157 C 
HETATM    6  C11 UNL     1       1.357   4.076  -1.131  1.00  0.00     0.006 C 
HETATM    7  C12 UNL     1       0.449   3.188  -1.454  1.00  0.00     0.029 C 
HETATM    8  N4  UNL     1       2.491   1.839  -0.966  1.00  0.00    -0.272 NA
HETATM    9  C13 UNL     1       2.299   0.598  -0.454  1.00  0.00     0.109 C 
ENDROOT
BRANCH   1  10
HETATM   10  N2  UNL     1       0.677  -1.242  -0.099  1.00  0.00    -0.262 N 
HETATM   11  H7  UNL     1       1.319  -1.716  -0.818  1.00  0.00     0.180 HD
BRANCH  10  12
HETATM   12  S1  UNL     1      -0.562  -1.626   1.060  1.00  0.00     0.264 S 
HETATM   13  O2  UNL     1      -0.714  -3.141   0.965  1.00  0.00    -0.200 OA
HETATM   14  O3  UNL     1      -0.158  -1.353   2.459  1.00  0.00    -0.200 OA
BRANCH  12  15
HETATM   15  C6  UNL     1      -2.093  -0.880   0.696  1.00  0.00     0.080 A 
HETATM   16  C5  UNL     1      -2.665   0.257   1.229  1.00  0.00     0.027 A 
HETATM   17  C4  UNL     1      -3.896   0.691   0.786  1.00  0.00     0.031 A 
HETATM   18  C3  UNL     1      -4.619   0.038  -0.191  1.00  0.00     0.034 A 
HETATM   19  C22 UNL     1      -4.068  -1.102  -0.740  1.00  0.00     0.031 A 
HETATM   20  C21 UNL     1      -2.835  -1.534  -0.294  1.00  0.00     0.027 A 
BRANCH  18  21
HETATM   21  N1  UNL     1      -5.882   0.573  -0.575  1.00  0.00    -0.328 N 
HETATM   22  C2  UNL     1      -6.918   0.026   0.219  1.00  0.00     0.218 C 
HETATM   23  C1  UNL     1      -8.359   0.346   0.108  1.00  0.00     0.117 C 
HETATM   24  O1  UNL     1      -6.729  -0.820   1.139  1.00  0.00    -0.274 OA
HETATM   25  H4  UNL     1      -6.150   1.258  -1.301  1.00  0.00     0.169 HD
ENDBRANCH  18  21
ENDBRANCH  12  15
ENDBRANCH  10  12
ENDBRANCH   1  10
BRANCH   9  26
HETATM   26  C14 UNL     1       3.409  -0.302  -0.323  1.00  0.00    -0.004 A 
HETATM   27  C15 UNL     1       4.610   0.021  -0.882  1.00  0.00     0.015 A 
HETATM   28  C16 UNL     1       5.754  -0.696  -0.757  1.00  0.00     0.019 A 
HETATM   29  C17 UNL     1       5.765  -1.845  -0.020  1.00  0.00     0.037 A 
HETATM   30  C19 UNL     1       4.565  -2.189   0.555  1.00  0.00     0.019 A 
HETATM   31  C20 UNL     1       3.421  -1.440   0.409  1.00  0.00     0.015 A 
BRANCH  29  32
HETATM   32  C18 UNL     1       6.980  -2.637   0.131  1.00  0.00     0.176 C 
HETATM   33  O4  UNL     1       8.015  -2.215  -0.445  1.00  0.00    -0.646 OA
BRANCH  32  34
HETATM   34  O5  UNL     1       6.975  -3.800   0.882  1.00  0.00    -0.773 OA
HETATM   35  H14 UNL     1       7.671  -4.513   0.699  1.00  0.00     0.167 HD
ENDBRANCH  32  34
ENDBRANCH  29  32
ENDBRANCH   9  26
TORSDOF 7
