REMARK  3 active torsions:
REMARK  status: ('A' for Active; 'I' for Inactive)
REMARK    1  A    between atoms: O1_2  and  C2_3 
REMARK    2  A    between atoms: C4_5  and  O2_6 
REMARK    3  A    between atoms: C9_12  and  O3_13 
ROOT
HETATM    1  C2  UNL     1       2.468  -0.292  -0.252  1.00  0.00     0.055 C 
HETATM    2  C3  UNL     1       2.999   0.854   0.226  1.00  0.00     0.070 C 
HETATM    3  C4  UNL     1       2.649   2.243   0.460  1.00  0.00     0.085 C 
HETATM    4  C5  UNL     1       1.623   3.029   0.326  1.00  0.00     0.152 C 
HETATM    5  N1  UNL     1       0.303   2.745  -0.167  1.00  0.00    -0.274 NA
HETATM    6  C6  UNL     1      -0.490   1.990   0.561  1.00  0.00     0.094 C 
HETATM    7  C7  UNL     1      -1.873   1.605   0.190  1.00  0.00     0.089 C 
HETATM    8  C8  UNL     1      -2.090   0.132   0.189  1.00  0.00    -0.006 A 
HETATM    9  C9  UNL     1      -3.464  -0.131   0.138  1.00  0.00     0.073 A 
HETATM   10  C10 UNL     1      -4.007  -1.399   0.129  1.00  0.00     0.037 A 
HETATM   11  C11 UNL     1      -3.199  -2.505   0.172  1.00  0.00     0.004 A 
HETATM   12  C12 UNL     1      -1.829  -2.213   0.223  1.00  0.00     0.016 A 
HETATM   13  C13 UNL     1      -1.250  -0.964   0.233  1.00  0.00     0.019 A 
HETATM   14  C14 UNL     1       0.203  -0.877   0.284  1.00  0.00     0.166 C 
HETATM   15  O4  UNL     1       0.455  -1.311   1.433  1.00  0.00    -0.292 OA
HETATM   16  C15 UNL     1       1.089  -0.387  -0.788  1.00  0.00     0.148 C 
ENDROOT
BRANCH   1  17
HETATM   17  O1  UNL     1       3.297  -1.429  -0.239  1.00  0.00    -0.360 OA
HETATM   18  C1  UNL     1       3.100  -2.412  -1.234  1.00  0.00     0.209 C 
ENDBRANCH   1  17
BRANCH   3  19
HETATM   19  O2  UNL     1       3.604   3.104   0.984  1.00  0.00    -0.359 OA
HETATM   20  H5  UNL     1       4.428   3.339   0.444  1.00  0.00     0.217 HD
ENDBRANCH   3  19
BRANCH   9  21
HETATM   21  O3  UNL     1      -4.471   0.852   0.088  1.00  0.00    -0.360 OA
HETATM   22  H10 UNL     1      -5.139   0.837   0.832  1.00  0.00     0.217 HD
ENDBRANCH   9  21
TORSDOF 3
