REMARK  3 active torsions:
REMARK  status: ('A' for Active; 'I' for Inactive)
REMARK    1  A    between atoms: O1_2  and  C2_3 
REMARK    2  A    between atoms: C10_12  and  O3_13 
REMARK    3  A    between atoms: C13_16  and  O4_17 
ROOT
HETATM    1  C2  UNL     1      -2.310  -0.225   0.434  1.00  0.00     0.083 A 
HETATM    2  C3  UNL     1      -2.981  -1.422   0.578  1.00  0.00     0.038 A 
HETATM    3  C4  UNL     1      -2.287  -2.614   0.553  1.00  0.00     0.004 A 
HETATM    4  C5  UNL     1      -0.928  -2.682   0.389  1.00  0.00     0.017 A 
HETATM    5  C6  UNL     1      -0.251  -1.488   0.245  1.00  0.00     0.032 A 
HETATM    6  C7  UNL     1      -0.926  -0.305   0.268  1.00  0.00     0.062 A 
HETATM    7  C8  UNL     1      -0.097   0.882   0.105  1.00  0.00     0.200 A 
HETATM    8  O2  UNL     1      -0.656   2.022   0.116  1.00  0.00    -0.286 OA
HETATM    9  C9  UNL     1       1.344   0.853  -0.072  1.00  0.00     0.065 A 
HETATM   10  C10 UNL     1       2.051   2.047  -0.220  1.00  0.00     0.081 A 
HETATM   11  C11 UNL     1       3.410   1.953  -0.383  1.00  0.00     0.040 A 
HETATM   12  C12 UNL     1       4.109   0.745  -0.407  1.00  0.00     0.040 A 
HETATM   13  C13 UNL     1       3.357  -0.393  -0.257  1.00  0.00     0.081 A 
HETATM   14  C14 UNL     1       1.982  -0.367  -0.088  1.00  0.00     0.065 A 
HETATM   15  C15 UNL     1       1.198  -1.593   0.071  1.00  0.00     0.197 A 
HETATM   16  O5  UNL     1       1.801  -2.682   0.052  1.00  0.00    -0.286 OA
ENDROOT
BRANCH   1  17
HETATM   17  O1  UNL     1      -2.814   1.064   0.431  1.00  0.00    -0.355 OA
HETATM   18  C1  UNL     1      -4.179   1.397   0.582  1.00  0.00     0.210 C 
ENDBRANCH   1  17
BRANCH  10  19
HETATM   19  O3  UNL     1       1.405   3.285  -0.203  1.00  0.00    -0.360 OA
HETATM   20  H7  UNL     1       0.944   3.693   0.577  1.00  0.00     0.217 HD
ENDBRANCH  10  19
BRANCH  13  21
HETATM   21  O4  UNL     1       3.968  -1.640  -0.268  1.00  0.00    -0.360 OA
HETATM   22  H10 UNL     1       3.889  -2.229  -1.092  1.00  0.00     0.217 HD
ENDBRANCH  13  21
TORSDOF 3
