REMARK  2 active torsions:
REMARK  status: ('A' for Active; 'I' for Inactive)
REMARK    1  A    between atoms: C5_7  and  C6_8 
REMARK    2  A    between atoms: C14_16  and  C15_17 
REMARK       I    between atoms: C15_17  and  N2_18 
ROOT
HETATM    1  C1  UNL     1      -5.480  -1.025  -0.310  1.00  0.00     0.018 C 
HETATM    2  C2  UNL     1      -4.279  -0.600  -0.718  1.00  0.00    -0.048 C 
HETATM    3  C3  UNL     1      -2.924  -1.083  -0.973  1.00  0.00     0.156 C 
HETATM    4  N1  UNL     1      -2.659  -2.444  -0.545  1.00  0.00    -0.379 N 
HETATM    5  C4  UNL     1      -1.222  -2.447  -0.574  1.00  0.00     0.087 A 
HETATM    6  S1  UNL     1       0.210  -3.031  -1.315  1.00  0.00    -0.070 SA
HETATM    7  C5  UNL     1       1.496  -2.004  -0.456  1.00  0.00     0.030 A 
HETATM    8  C13 UNL     1       0.784  -1.255   0.370  1.00  0.00     0.013 A 
HETATM    9  C14 UNL     1      -0.560  -1.432   0.363  1.00  0.00     0.077 A 
HETATM   10  O2  UNL     1       1.051  -0.240   1.329  1.00  0.00     0.000 OA
HETATM   11  C16 UNL     1       0.425   0.978   1.074  1.00  0.00     0.038 C 
HETATM   12  C17 UNL     1       0.085   2.238   0.897  1.00  0.00    -0.041 A 
HETATM   13  C18 UNL     1       1.200   3.051   1.171  1.00  0.00     0.008 A 
HETATM   14  C19 UNL     1       1.108   4.396   1.045  1.00  0.00     0.001 A 
HETATM   15  C20 UNL     1      -0.043   4.980   0.659  1.00  0.00     0.001 A 
HETATM   16  C21 UNL     1      -1.103   4.118   0.405  1.00  0.00     0.014 A 
HETATM   17  C22 UNL     1      -1.114   2.732   0.502  1.00  0.00    -0.008 A 
HETATM   18  C23 UNL     1      -2.296   2.347   0.153  1.00  0.00     0.146 C 
HETATM   19  O3  UNL     1      -3.076   1.306  -0.045  1.00  0.00    -0.358 OA
HETATM   20  C24 UNL     1      -4.087   0.918  -0.902  1.00  0.00     0.209 C 
HETATM   21  H5  UNL     1      -2.794  -3.400  -0.236  1.00  0.00     0.160 HD
ENDROOT
BRANCH   7  22
HETATM   22  C6  UNL     1       2.833  -2.206  -0.740  1.00  0.00    -0.012 A 
HETATM   23  C7  UNL     1       3.195  -3.418  -1.354  1.00  0.00     0.013 A 
HETATM   24  C8  UNL     1       4.492  -3.733  -1.703  1.00  0.00     0.001 A 
HETATM   25  C9  UNL     1       5.563  -2.898  -1.490  1.00  0.00     0.001 A 
HETATM   26  C10 UNL     1       5.249  -1.681  -0.884  1.00  0.00     0.007 A 
HETATM   27  C11 UNL     1       3.940  -1.427  -0.561  1.00  0.00    -0.050 A 
HETATM   28  C12 UNL     1       3.724  -0.052  -0.030  1.00  0.00     0.049 C 
ENDBRANCH   7  22
BRANCH   9  29
HETATM   29  C15 UNL     1      -1.463  -0.939   1.426  1.00  0.00     0.253 C 
HETATM   30  N2  UNL     1      -1.692  -0.053   2.416  1.00  0.00    -0.366 N 
HETATM   31  H13 UNL     1      -1.231   0.233   3.314  1.00  0.00     0.159 HD
HETATM   32  H14 UNL     1      -1.885   0.620   3.147  1.00  0.00     0.159 HD
HETATM   33  O1  UNL     1      -2.604  -1.467   1.687  1.00  0.00    -0.268 OA
ENDBRANCH   9  29
TORSDOF 2
