REMARK  6 active torsions:
REMARK  status: ('A' for Active; 'I' for Inactive)
REMARK       I    between atoms: C1_2  and  N1_3 
REMARK       I    between atoms: C1_2  and  N5_12 
REMARK    1  A    between atoms: N1_3  and  N2_4 
REMARK       I    between atoms: N2_4  and  C2_5 
REMARK    2  A    between atoms: C2_5  and  C3_7 
REMARK    3  A    between atoms: N5_12  and  C5_13 
REMARK    4  A    between atoms: C10_18  and  C11_19 
REMARK    5  A    between atoms: C11_19  and  C12_20 
REMARK    6  A    between atoms: C13_21  and  S2_22 
ROOT
HETATM    1  O1  UNL     1       1.953  -1.017  -0.304  1.00  0.00    -0.245 OA
HETATM    2  C1  UNL     1       1.160  -0.198   0.217  1.00  0.00     0.339 C 
HETATM    3  N1  UNL     1       1.728   1.049   0.571  1.00  0.00    -0.248 N 
HETATM    4  N5  UNL     1      -0.195  -0.549   0.413  1.00  0.00    -0.307 N 
HETATM    5  H1  UNL     1       1.100   1.782   1.014  1.00  0.00     0.192 HD
HETATM    6  H4  UNL     1      -0.712   0.229   0.857  1.00  0.00     0.170 HD
ENDROOT
BRANCH   4   7
HETATM    7  C5  UNL     1      -0.856  -1.756   0.094  1.00  0.00     0.043 A 
HETATM    8  C6  UNL     1      -0.301  -2.866  -0.495  1.00  0.00     0.030 A 
HETATM    9  C7  UNL     1      -0.969  -4.031  -0.793  1.00  0.00     0.002 A 
HETATM   10  C8  UNL     1      -2.311  -4.122  -0.485  1.00  0.00     0.001 A 
HETATM   11  C9  UNL     1      -2.891  -3.020   0.107  1.00  0.00     0.010 A 
HETATM   12  C10 UNL     1      -2.192  -1.860   0.394  1.00  0.00    -0.028 A 
BRANCH  12  13
HETATM   13  C11 UNL     1      -2.980  -0.766   1.029  1.00  0.00     0.068 C 
BRANCH  13  14
HETATM   14  C12 UNL     1      -3.337   0.317   0.055  1.00  0.00    -0.015 C 
HETATM   15  C13 UNL     1      -4.452   0.892  -0.443  1.00  0.00     0.040 C 
BRANCH  15  16
HETATM   16  S2  UNL     1      -4.769   2.226  -1.644  1.00  0.00    -0.136 SA
HETATM   17  C14 UNL     1      -4.078   3.552  -2.421  1.00  0.00     0.021 A 
HETATM   18  C15 UNL     1      -5.206   3.966  -1.772  1.00  0.00     0.063 A 
ENDBRANCH  15  16
ENDBRANCH  13  14
ENDBRANCH  12  13
ENDBRANCH   4   7
BRANCH   3  19
HETATM   19  N2  UNL     1       3.074   1.358   0.363  1.00  0.00    -0.260 N 
HETATM   20  C2  UNL     1       4.183   1.177   1.219  1.00  0.00     0.297 C 
HETATM   21  O2  UNL     1       3.874   0.661   2.317  1.00  0.00    -0.264 OA
HETATM   22  H2  UNL     1       3.056   1.764  -0.606  1.00  0.00     0.190 HD
BRANCH  20  23
HETATM   23  C3  UNL     1       5.423   1.665   0.550  1.00  0.00     0.186 A 
HETATM   24  N3  UNL     1       6.437   1.613   1.072  1.00  0.00    -0.227 NA
HETATM   25  C4  UNL     1       7.628   1.998   0.625  1.00  0.00     0.243 A 
HETATM   26  N4  UNL     1       7.647   2.516  -0.591  1.00  0.00    -0.203 NA
HETATM   27  S1  UNL     1       5.861   2.431  -1.088  1.00  0.00     0.038 SA
ENDBRANCH  20  23
ENDBRANCH   3  19
TORSDOF 6
