REMARK  7 active torsions:
REMARK  status: ('A' for Active; 'I' for Inactive)
REMARK       I    between atoms: C1_2  and  N1_3 
REMARK    1  A    between atoms: C1_2  and  C8_11 
REMARK    2  A    between atoms: N1_3  and  C2_4 
REMARK    3  A    between atoms: C8_11  and  C9_12 
REMARK    4  A    between atoms: C8_11  and  O2_20 
REMARK    5  A    between atoms: C9_12  and  N2_13 
REMARK    6  A    between atoms: N2_13  and  C10_14 
REMARK    7  A    between atoms: O2_20  and  O3_21 
ROOT
HETATM    1  C8  UNL     1       0.153  -0.578   0.545  1.00  0.00     0.269 C 
ENDROOT
BRANCH   1   2
HETATM    2  C1  UNL     1      -1.297  -0.365   0.281  1.00  0.00     0.256 C 
HETATM    3  O1  UNL     1      -1.397  -1.183   1.234  1.00  0.00    -0.270 OA
HETATM    4  N1  UNL     1      -1.943   0.446  -0.670  1.00  0.00    -0.325 N 
HETATM    5  H1  UNL     1      -1.255   0.970  -1.274  1.00  0.00     0.169 HD
BRANCH   4   6
HETATM    6  C2  UNL     1      -3.377   0.383  -0.612  1.00  0.00     0.036 A 
HETATM    7  C3  UNL     1      -3.985   1.299   0.221  1.00  0.00     0.029 A 
HETATM    8  C4  UNL     1      -5.376   1.308   0.337  1.00  0.00     0.004 A 
HETATM    9  C5  UNL     1      -6.115   0.396  -0.388  1.00  0.00     0.019 A 
HETATM   10  C6  UNL     1      -5.483  -0.504  -1.208  1.00  0.00     0.013 A 
HETATM   11 BR1  UNL     1      -6.567  -1.750  -2.192  1.00  0.00    -0.051 Br
HETATM   12  C7  UNL     1      -4.111  -0.533  -1.340  1.00  0.00     0.048 A 
ENDBRANCH   4   6
ENDBRANCH   1   2
BRANCH   1  13
HETATM   13  C9  UNL     1       0.756   0.721   1.019  1.00  0.00     0.164 C 
BRANCH  13  14
HETATM   14  N2  UNL     1       2.118   0.581   1.432  1.00  0.00    -0.387 N 
HETATM   15  H9  UNL     1       2.260   0.723   2.473  1.00  0.00     0.159 HD
BRANCH  14  16
HETATM   16  C10 UNL     1       3.287   0.288   0.691  1.00  0.00     0.028 A 
HETATM   17  C11 UNL     1       4.519   0.162   1.315  1.00  0.00     0.029 A 
HETATM   18  C12 UNL     1       5.671  -0.109   0.617  1.00  0.00     0.002 A 
HETATM   19  C13 UNL     1       5.635  -0.267  -0.743  1.00  0.00     0.000 A 
HETATM   20  C14 UNL     1       4.439  -0.154  -1.417  1.00  0.00     0.002 A 
HETATM   21  C15 UNL     1       3.328   0.117  -0.674  1.00  0.00     0.029 A 
ENDBRANCH  14  16
ENDBRANCH  13  14
ENDBRANCH   1  13
BRANCH   1  22
HETATM   22  O2  UNL     1       0.209  -1.490   1.608  1.00  0.00    -0.227 OA
BRANCH  22  23
HETATM   23  O3  UNL     1       0.827  -2.557   1.138  1.00  0.00    -0.250 OA
HETATM   24  H15 UNL     1       1.768  -2.278   0.979  1.00  0.00     0.253 HD
ENDBRANCH  22  23
ENDBRANCH   1  22
TORSDOF 7
