REMARK  5 active torsions:
REMARK  status: ('A' for Active; 'I' for Inactive)
REMARK       I    between atoms: C1_2  and  N1_3 
REMARK       I    between atoms: C1_2  and  N4_16 
REMARK    1  A    between atoms: N1_3  and  N2_4 
REMARK    2  A    between atoms: N2_4  and  C2_5 
REMARK    3  A    between atoms: C3_7  and  C4_8 
REMARK    4  A    between atoms: C4_8  and  C5_9 
REMARK    5  A    between atoms: N4_16  and  C10_17 
ROOT
HETATM    1  N2  UNL     1      -0.005  -2.464  -0.308  1.00  0.00    -0.283 N 
HETATM    2  H2  UNL     1      -0.051  -3.341   0.291  1.00  0.00     0.188 HD
ENDROOT
BRANCH   1   3
HETATM    3  N1  UNL     1      -1.195  -2.036  -0.953  1.00  0.00    -0.250 N 
HETATM    4  C1  UNL     1      -2.127  -1.125  -0.335  1.00  0.00     0.339 C 
HETATM    5  O1  UNL     1      -1.876  -0.702   0.803  1.00  0.00    -0.245 OA
HETATM    6  N4  UNL     1      -3.294  -0.746  -1.049  1.00  0.00    -0.308 N 
HETATM    7  H11 UNL     1      -3.440  -1.150  -2.018  1.00  0.00     0.170 HD
HETATM    8  H1  UNL     1      -1.371  -2.415  -1.912  1.00  0.00     0.192 HD
BRANCH   6   9
HETATM    9  C10 UNL     1      -4.235   0.144  -0.482  1.00  0.00     0.036 A 
HETATM   10  C11 UNL     1      -4.235   1.526  -0.592  1.00  0.00     0.029 A 
HETATM   11  C12 UNL     1      -5.249   2.252   0.037  1.00  0.00     0.002 A 
HETATM   12  C13 UNL     1      -6.242   1.612   0.762  1.00  0.00     0.000 A 
HETATM   13  C14 UNL     1      -6.245   0.239   0.873  1.00  0.00     0.002 A 
HETATM   14  C15 UNL     1      -5.237  -0.470   0.246  1.00  0.00     0.029 A 
ENDBRANCH   6   9
ENDBRANCH   1   3
BRANCH   1  15
HETATM   15  C2  UNL     1       1.254  -1.766  -0.428  1.00  0.00     0.123 C 
HETATM   16  N3  UNL     1       1.312  -0.526  -0.628  1.00  0.00    -0.259 NA
HETATM   17  C3  UNL     1       2.576   0.090  -0.735  1.00  0.00     0.175 C 
HETATM   18  S2  UNL     1       3.648  -1.327  -1.118  1.00  0.00    -0.134 SA
HETATM   19  C9  UNL     1       2.536  -2.559  -0.315  1.00  0.00     0.155 C 
BRANCH  17  20
HETATM   20  C4  UNL     1       3.103   0.683   0.542  1.00  0.00     0.077 C 
BRANCH  20  21
HETATM   21  C5  UNL     1       4.429   1.280   0.237  1.00  0.00    -0.048 A 
HETATM   22  C6  UNL     1       5.597   0.572   0.348  1.00  0.00     0.015 A 
HETATM   23  C7  UNL     1       6.817   1.245   0.033  1.00  0.00     0.050 A 
HETATM   24  S1  UNL     1       6.265   2.943  -0.435  1.00  0.00    -0.113 SA
HETATM   25  C8  UNL     1       4.486   2.646  -0.185  1.00  0.00     0.056 A 
ENDBRANCH  20  21
ENDBRANCH  17  20
ENDBRANCH   1  15
TORSDOF 5
