REMARK  2 active torsions:
REMARK  status: ('A' for Active; 'I' for Inactive)
REMARK    1  A    between atoms: O1_2  and  C2_3 
REMARK    2  A    between atoms: N1_16  and  O5_17 
ROOT
HETATM    1  C2  UNL     1       2.465   0.196   0.370  1.00  0.00     0.070 A 
HETATM    2  C3  UNL     1       2.348  -0.916  -0.436  1.00  0.00     0.038 A 
HETATM    3  C4  UNL     1       1.104  -1.393  -0.791  1.00  0.00     0.019 A 
HETATM    4  C5  UNL     1      -0.015  -0.735  -0.323  1.00  0.00     0.028 A 
HETATM    5  C6  UNL     1      -1.233  -1.257  -0.711  1.00  0.00     0.107 A 
HETATM    6  O2  UNL     1      -1.361  -2.313  -1.476  1.00  0.00    -0.274 OA
HETATM    7  C7  UNL     1      -2.535  -2.791  -1.832  1.00  0.00     0.288 A 
HETATM    8  O3  UNL     1      -2.389  -3.808  -2.567  1.00  0.00    -0.260 OA
HETATM    9  C8  UNL     1      -3.699  -2.206  -1.417  1.00  0.00     0.084 A 
HETATM   10  C9  UNL     1      -3.642  -1.075  -0.597  1.00  0.00     0.026 A 
HETATM   11  C10 UNL     1      -2.375  -0.604  -0.247  1.00  0.00     0.069 A 
HETATM   12  C11 UNL     1      -2.301   0.525   0.572  1.00  0.00     0.285 A 
HETATM   13  O4  UNL     1      -3.356   1.088   0.972  1.00  0.00    -0.265 OA
HETATM   14  N1  UNL     1      -1.073   0.960   0.897  1.00  0.00    -0.184 N 
HETATM   15  C13 UNL     1       0.068   0.378   0.484  1.00  0.00     0.082 A 
HETATM   16  C14 UNL     1       1.328   0.835   0.824  1.00  0.00     0.069 A 
ENDROOT
BRANCH   1  17
HETATM   17  O1  UNL     1       3.622   0.812   0.826  1.00  0.00    -0.356 OA
HETATM   18  C1  UNL     1       4.918   0.305   0.468  1.00  0.00     0.210 C 
ENDBRANCH   1  17
BRANCH  14  19
HETATM   19  O5  UNL     1      -0.982   2.066   1.699  1.00  0.00    -0.275 OA
HETATM   20  C12 UNL     1      -0.799   3.374   1.257  1.00  0.00     0.238 C 
ENDBRANCH  14  19
TORSDOF 2
