REMARK  5 active torsions:
REMARK  status: ('A' for Active; 'I' for Inactive)
REMARK    1  A    between atoms: O1_2  and  C2_3 
REMARK    2  A    between atoms: C8_9  and  C9_10 
REMARK    3  A    between atoms: C10_11  and  C11_12 
REMARK    4  A    between atoms: C11_12  and  O2_14 
REMARK    5  A    between atoms: O2_14  and  O3_15 
ROOT
HETATM    1  C2  UNL     1       3.615  -0.015  -0.118  1.00  0.00     0.048 A 
HETATM    2  C3  UNL     1       3.949   0.720  -1.151  1.00  0.00     0.032 A 
HETATM    3  C4  UNL     1       2.895   1.522  -1.757  1.00  0.00     0.001 A 
HETATM    4  C5  UNL     1       1.694   1.438  -1.210  1.00  0.00     0.009 A 
HETATM    5  C6  UNL     1       1.202   0.635  -0.034  1.00  0.00     0.079 A 
HETATM    6  C7  UNL     1       0.094  -0.193  -0.511  1.00  0.00     0.046 A 
HETATM    7  C8  UNL     1      -1.170  -0.221  -0.202  1.00  0.00     0.079 A 
HETATM    8  O4  UNL     1      -1.511   0.711   0.756  1.00  0.00    -0.262 OA
HETATM    9  C13 UNL     1      -0.612   1.577   1.323  1.00  0.00     0.367 A 
HETATM   10  O5  UNL     1      -1.009   2.410   2.202  1.00  0.00    -0.238 OA
HETATM   11  N1  UNL     1       0.760   1.583   0.964  1.00  0.00    -0.320 N 
HETATM   12  C14 UNL     1       2.319  -0.190   0.576  1.00  0.00     0.104 A 
HETATM   13  H15 UNL     1       1.410   2.255   1.418  1.00  0.00     0.166 HD
ENDROOT
BRANCH   7  14
HETATM   14  C9  UNL     1      -2.077  -1.181  -0.855  1.00  0.00     0.036 C 
HETATM   15  C10 UNL     1      -3.375  -1.338  -0.657  1.00  0.00     0.010 C 
BRANCH  15  16
HETATM   16  C11 UNL     1      -4.620  -0.974   0.013  1.00  0.00     0.179 C 
HETATM   17  C12 UNL     1      -4.460   0.093   1.093  1.00  0.00     0.047 C 
BRANCH  16  18
HETATM   18  O2  UNL     1      -5.591  -0.575  -0.917  1.00  0.00    -0.234 OA
BRANCH  18  19
HETATM   19  O3  UNL     1      -6.605  -1.396  -0.762  1.00  0.00    -0.250 OA
HETATM   20  H14 UNL     1      -6.353  -2.281  -0.408  1.00  0.00     0.253 HD
ENDBRANCH  18  19
ENDBRANCH  16  18
ENDBRANCH  15  16
ENDBRANCH   7  14
BRANCH   1  21
HETATM   21  O1  UNL     1       4.593  -0.810   0.508  1.00  0.00    -0.360 OA
HETATM   22  C1  UNL     1       5.956  -0.494   0.522  1.00  0.00     0.209 C 
ENDBRANCH   1  21
TORSDOF 5
