REMARK  3 active torsions:
REMARK  status: ('A' for Active; 'I' for Inactive)
REMARK    1  A    between atoms: O1_2  and  C2_3 
REMARK    2  A    between atoms: C3_4  and  C4_5 
REMARK    3  A    between atoms: C14_19  and  O5_20 
ROOT
HETATM    1  C4  UNL     1       1.368  -0.803  -0.500  1.00  0.00     0.013 C 
HETATM    2  C5  UNL     1       0.334  -0.025  -0.223  1.00  0.00    -0.006 C 
HETATM    3  C6  UNL     1       0.549   1.406   0.029  1.00  0.00     0.167 C 
HETATM    4  N1  UNL     1      -0.674   2.179  -0.077  1.00  0.00    -0.348 N 
HETATM    5  C7  UNL     1      -0.526   3.625  -0.240  1.00  0.00     0.153 C 
HETATM    6  C8  UNL     1      -1.982   1.605  -0.031  1.00  0.00     0.259 C 
HETATM    7  O2  UNL     1      -3.016   2.325   0.055  1.00  0.00    -0.267 OA
HETATM    8  C9  UNL     1      -2.094   0.150  -0.085  1.00  0.00     0.099 C 
HETATM    9  C10 UNL     1      -0.999  -0.613  -0.176  1.00  0.00     0.095 C 
HETATM   10  O3  UNL     1      -0.999  -2.015  -0.234  1.00  0.00    -0.342 OA
HETATM   11  C11 UNL     1      -1.952  -2.932  -0.732  1.00  0.00     0.258 C 
HETATM   12  C12 UNL     1      -3.305  -2.724  -0.137  1.00  0.00     0.175 C 
HETATM   13  O4  UNL     1      -3.899  -3.742   0.349  1.00  0.00    -0.291 OA
HETATM   14  C13 UNL     1      -4.047  -1.453  -0.045  1.00  0.00     0.090 C 
HETATM   15  C14 UNL     1      -3.514  -0.253  -0.025  1.00  0.00     0.087 C 
ENDROOT
BRANCH   1  16
HETATM   16  C3  UNL     1       2.723  -0.276  -0.561  1.00  0.00     0.025 C 
HETATM   17  C2  UNL     1       3.779  -1.058  -0.841  1.00  0.00     0.134 C 
BRANCH  17  18
HETATM   18  O1  UNL     1       5.090  -0.585  -0.909  1.00  0.00    -0.368 OA
HETATM   19  C1  UNL     1       5.625  -0.115   0.331  1.00  0.00     0.208 C 
ENDBRANCH  17  18
ENDBRANCH   1  16
BRANCH  15  20
HETATM   20  O5  UNL     1      -4.439   0.781   0.067  1.00  0.00    -0.359 OA
HETATM   21  H15 UNL     1      -4.938   0.848   0.964  1.00  0.00     0.217 HD
ENDBRANCH  15  20
TORSDOF 3
