REMARK  6 active torsions:
REMARK  status: ('A' for Active; 'I' for Inactive)
REMARK    1  A    between atoms: C6_8  and  S2_9 
REMARK    2  A    between atoms: S2_9  and  C7_10 
REMARK    3  A    between atoms: C7_10  and  C8_11 
REMARK    4  A    between atoms: C8_11  and  N2_12 
REMARK    5  A    between atoms: C8_11  and  C9_13 
REMARK    6  A    between atoms: C10_14  and  O1_15 
ROOT
HETATM    1  C8  UNL     1      -1.838  -1.104   0.892  1.00  0.00     0.264 C 
ENDROOT
BRANCH   1   2
HETATM    2  C7  UNL     1      -1.253  -0.183   1.911  1.00  0.00     0.121 C 
BRANCH   2   3
HETATM    3  S2  UNL     1      -0.284   1.174   1.296  1.00  0.00    -0.104 SA
BRANCH   3   4
HETATM    4  C6  UNL     1       1.303   0.702   0.675  1.00  0.00     0.145 A 
HETATM    5  N1  UNL     1       1.743   1.780   0.106  1.00  0.00    -0.230 NA
HETATM    6  C5  UNL     1       3.047   1.507  -0.445  1.00  0.00     0.113 A 
HETATM    7  C4  UNL     1       3.423   0.202  -0.204  1.00  0.00     0.054 A 
HETATM    8  S1  UNL     1       4.446   2.142  -1.339  1.00  0.00    -0.074 SA
HETATM    9  C3  UNL     1       4.632  -0.251  -0.650  1.00  0.00     0.032 A 
HETATM   10  C15 UNL     1       2.298  -0.345   0.528  1.00  0.00     0.220 A 
HETATM   11  C2  UNL     1       5.441   0.613  -1.328  1.00  0.00    -0.018 A 
HETATM   12  C1  UNL     1       6.742   0.571  -1.952  1.00  0.00     0.056 C 
HETATM   13  O2  UNL     1       1.970  -1.418   1.043  1.00  0.00    -0.284 OA
ENDBRANCH   3   4
ENDBRANCH   2   3
ENDBRANCH   1   2
BRANCH   1  14
HETATM   14  N2  UNL     1      -0.939  -1.769   0.022  1.00  0.00     0.088 N 
HETATM   15  H8  UNL     1      -0.282  -1.155  -0.440  1.00  0.00     0.313 HD
HETATM   16  H9  UNL     1      -0.460  -2.561   0.484  1.00  0.00     0.313 HD
ENDBRANCH   1  14
BRANCH   1  17
HETATM   17  C9  UNL     1      -2.989  -0.425   0.216  1.00  0.00     0.030 A 
HETATM   18  C10 UNL     1      -4.307  -0.594   0.670  1.00  0.00     0.075 A 
HETATM   19  C11 UNL     1      -5.423  -0.024   0.135  1.00  0.00     0.037 A 
HETATM   20  C12 UNL     1      -5.267   0.798  -0.953  1.00  0.00     0.004 A 
HETATM   21  C13 UNL     1      -4.001   1.012  -1.455  1.00  0.00     0.024 A 
HETATM   22  C14 UNL     1      -2.937   0.409  -0.869  1.00  0.00     0.045 A 
HETATM   23 CL1  UNL     1      -1.381   0.755  -1.577  1.00  0.00    -0.084 Cl
BRANCH  18  24
HETATM   24  O1  UNL     1      -4.519  -1.420   1.774  1.00  0.00    -0.360 OA
HETATM   25  H10 UNL     1      -4.026  -1.269   2.652  1.00  0.00     0.217 HD
ENDBRANCH  18  24
ENDBRANCH   1  17
TORSDOF 6
