REMARK  8 active torsions:
REMARK  status: ('A' for Active; 'I' for Inactive)
REMARK    1  A    between atoms: C2_2  and  C3_3 
REMARK    2  A    between atoms: C3_3  and  C4_4 
REMARK    3  A    between atoms: C4_4  and  C5_5 
REMARK    4  A    between atoms: C5_5  and  N1_6 
REMARK    5  A    between atoms: C9_13  and  S2_14 
REMARK    6  A    between atoms: S2_14  and  C10_15 
REMARK    7  A    between atoms: C10_15  and  C11_16 
REMARK       I    between atoms: C11_16  and  N3_18 
REMARK    8  A    between atoms: N3_18  and  C12_19 
ROOT
HETATM    1  N1  UNL     1      -2.100   0.017   0.788  1.00  0.00    -0.267 N 
HETATM    2  C6  UNL     1      -2.127   1.412   1.186  1.00  0.00     0.270 C 
HETATM    3  O1  UNL     1      -2.767   1.571   2.292  1.00  0.00    -0.266 OA
HETATM    4  C7  UNL     1      -1.550   2.592   0.522  1.00  0.00     0.072 A 
HETATM    5  S1  UNL     1      -0.890   2.548  -0.969  1.00  0.00    -0.129 SA
HETATM    6  C8  UNL     1      -0.780   1.061  -1.991  1.00  0.00     0.225 C 
HETATM    7  N2  UNL     1      -0.563  -0.141  -1.169  1.00  0.00    -0.256 NA
HETATM    8  C9  UNL     1      -1.089  -0.549  -0.068  1.00  0.00     0.172 C 
HETATM    9  C18 UNL     1      -0.713   4.229  -0.480  1.00  0.00    -0.021 A 
HETATM   10  C19 UNL     1      -0.102   5.291  -1.280  1.00  0.00     0.056 C 
HETATM   11  C20 UNL     1      -1.301   4.011   0.713  1.00  0.00    -0.028 A 
HETATM   12  C21 UNL     1      -1.602   4.894   1.846  1.00  0.00     0.050 C 
ENDROOT
BRANCH   8  13
HETATM   13  S2  UNL     1      -0.399  -2.133   0.472  1.00  0.00    -0.082 SA
BRANCH  13  14
HETATM   14  C10 UNL     1       0.837  -2.715  -0.683  1.00  0.00     0.185 C 
BRANCH  14  15
HETATM   15  C11 UNL     1       2.038  -1.850  -0.722  1.00  0.00     0.231 C 
HETATM   16  O2  UNL     1       2.012  -0.913  -1.536  1.00  0.00    -0.272 OA
HETATM   17  N3  UNL     1       3.187  -1.998   0.073  1.00  0.00    -0.325 N 
HETATM   18  H12 UNL     1       3.208  -2.787   0.758  1.00  0.00     0.169 HD
BRANCH  17  19
HETATM   19  C12 UNL     1       4.169  -1.017  -0.192  1.00  0.00     0.056 A 
HETATM   20  C13 UNL     1       4.031   0.107   0.595  1.00  0.00     0.031 A 
HETATM   21  C14 UNL     1       4.912   1.169   0.466  1.00  0.00     0.002 A 
HETATM   22  C15 UNL     1       5.928   1.122  -0.438  1.00  0.00     0.002 A 
HETATM   23  C16 UNL     1       6.073   0.000  -1.229  1.00  0.00     0.026 A 
HETATM   24  C17 UNL     1       5.210  -1.067  -1.118  1.00  0.00     0.060 A 
HETATM   25 CL1  UNL     1       5.293  -2.523  -2.055  1.00  0.00    -0.082 Cl
ENDBRANCH  17  19
ENDBRANCH  14  15
ENDBRANCH  13  14
ENDBRANCH   8  13
BRANCH   1  26
HETATM   26  C5  UNL     1      -3.063  -0.909   1.213  1.00  0.00     0.102 C 
BRANCH  26  27
HETATM   27  C4  UNL     1      -3.917  -1.817   1.561  1.00  0.00     0.017 C 
BRANCH  27  28
HETATM   28  C3  UNL     1      -3.625  -3.070   0.907  1.00  0.00    -0.003 C 
BRANCH  28  29
HETATM   29  C2  UNL     1      -4.095  -4.295   0.853  1.00  0.00    -0.031 C 
HETATM   30  C1  UNL     1      -4.186  -5.701   0.443  1.00  0.00     0.036 C 
ENDBRANCH  28  29
ENDBRANCH  27  28
ENDBRANCH  26  27
ENDBRANCH   1  26
TORSDOF 8
