REMARK  4 active torsions:
REMARK  status: ('A' for Active; 'I' for Inactive)
REMARK    1  A    between atoms: C2_2  and  C3_3 
REMARK    2  A    between atoms: C8_8  and  O1_9 
REMARK    3  A    between atoms: O1_9  and  C9_10 
REMARK    4  A    between atoms: C11_12  and  C12_13 
ROOT
HETATM    1  C9  UNL     1       0.029   0.995   1.525  1.00  0.00     0.171 C 
HETATM    2  C10 UNL     1       0.834   1.032   0.465  1.00  0.00     0.071 C 
HETATM    3  C11 UNL     1       2.255   1.284   0.696  1.00  0.00    -0.008 C 
HETATM    4  C18 UNL     1       2.465   1.967   1.811  1.00  0.00     0.020 C 
HETATM    5  C19 UNL     1       1.839   1.531   2.862  1.00  0.00     0.101 C 
HETATM    6  N1  UNL     1       0.593   1.203   2.820  1.00  0.00    -0.221 NA
ENDROOT
BRANCH   1   7
HETATM    7  O1  UNL     1      -1.321   0.776   1.525  1.00  0.00    -0.291 OA
BRANCH   7   8
HETATM    8  C8  UNL     1      -1.841  -0.397   0.994  1.00  0.00     0.084 A 
HETATM    9  C3  UNL     1      -3.236  -0.494   1.059  1.00  0.00    -0.025 A 
HETATM   10  C4  UNL     1      -3.896  -1.622   0.560  1.00  0.00     0.010 A 
HETATM   11  C5  UNL     1      -3.209  -2.672  -0.008  1.00  0.00     0.001 A 
HETATM   12  C6  UNL     1      -1.837  -2.555  -0.060  1.00  0.00     0.003 A 
HETATM   13  C7  UNL     1      -1.166  -1.456   0.423  1.00  0.00     0.038 A 
BRANCH   9  14
HETATM   14  C2  UNL     1      -4.066   0.605   1.660  1.00  0.00     0.037 C 
HETATM   15  C1  UNL     1      -4.123   1.713   0.644  1.00  0.00     0.010 C 
ENDBRANCH   9  14
ENDBRANCH   7   8
ENDBRANCH   1   7
BRANCH   3  16
HETATM   16  C12 UNL     1       3.186   0.758  -0.311  1.00  0.00    -0.025 A 
HETATM   17  C13 UNL     1       3.994  -0.254   0.223  1.00  0.00     0.012 A 
HETATM   18  C14 UNL     1       4.952  -0.901  -0.544  1.00  0.00     0.001 A 
HETATM   19  C15 UNL     1       5.102  -0.525  -1.873  1.00  0.00     0.000 A 
HETATM   20  C16 UNL     1       4.296   0.470  -2.371  1.00  0.00     0.001 A 
HETATM   21  C17 UNL     1       3.343   1.116  -1.615  1.00  0.00     0.012 A 
ENDBRANCH   3  16
TORSDOF 4
