REMARK  1 active torsions:
REMARK  status: ('A' for Active; 'I' for Inactive)
REMARK    1  A    between atoms: N3_22  and  C17_23 
ROOT
HETATM    1  C1  UNL     1      -4.232  -3.823   1.222  1.00  0.00     0.048 C 
HETATM    2  C2  UNL     1      -2.981  -3.056   0.986  1.00  0.00    -0.061 A 
HETATM    3  C3  UNL     1      -1.758  -3.610   1.275  1.00  0.00     0.009 A 
HETATM    4  C4  UNL     1      -0.558  -2.958   1.083  1.00  0.00     0.031 A 
HETATM    5  C5  UNL     1      -0.583  -1.658   0.564  1.00  0.00     0.046 A 
HETATM    6  C6  UNL     1      -1.825  -1.120   0.281  1.00  0.00     0.042 A 
HETATM    7  C7  UNL     1      -3.029  -1.795   0.482  1.00  0.00     0.024 A 
HETATM    8  C8  UNL     1      -2.238   0.196  -0.262  1.00  0.00     0.198 C 
HETATM    9  O1  UNL     1      -3.336   0.135  -0.869  1.00  0.00    -0.286 OA
HETATM   10  C9  UNL     1      -1.661   1.536  -0.250  1.00  0.00     0.056 A 
HETATM   11  C10 UNL     1      -0.276   1.856  -0.161  1.00  0.00     0.088 A 
HETATM   12  S1  UNL     1      -0.216   3.659  -0.203  1.00  0.00    -0.076 SA
HETATM   13  C11 UNL     1      -1.973   3.887  -0.331  1.00  0.00    -0.012 A 
HETATM   14  C12 UNL     1      -2.674   5.187  -0.415  1.00  0.00     0.057 C 
HETATM   15  C13 UNL     1      -2.527   2.591  -0.336  1.00  0.00    -0.032 A 
HETATM   16  C14 UNL     1      -4.002   2.426  -0.426  1.00  0.00     0.050 C 
HETATM   17  N1  UNL     1       0.962   1.183  -0.055  1.00  0.00    -0.332 N 
HETATM   18  C15 UNL     1       1.407  -0.171  -0.351  1.00  0.00     0.279 A 
HETATM   19  N2  UNL     1       0.770  -1.179   0.444  1.00  0.00    -0.337 N 
HETATM   20  C16 UNL     1       1.548  -0.513  -1.790  1.00  0.00     0.300 A 
HETATM   21  O2  UNL     1       1.231  -0.777  -2.997  1.00  0.00    -0.266 OA
HETATM   22  N3  UNL     1       2.711  -0.363  -0.887  1.00  0.00    -0.257 N 
HETATM   23  H13 UNL     1       1.682   1.869   0.328  1.00  0.00     0.165 HD
HETATM   24  H14 UNL     1       1.360  -1.745   1.124  1.00  0.00     0.164 HD
ENDROOT
BRANCH  22  25
HETATM   25  C17 UNL     1       4.129  -0.377  -0.634  1.00  0.00     0.064 A 
HETATM   26  C18 UNL     1       4.705  -1.572  -0.244  1.00  0.00     0.031 A 
HETATM   27  C19 UNL     1       6.074  -1.608   0.005  1.00  0.00     0.002 A 
HETATM   28  C20 UNL     1       6.867  -0.495  -0.124  1.00  0.00     0.002 A 
HETATM   29  C21 UNL     1       6.288   0.693  -0.513  1.00  0.00     0.026 A 
HETATM   30  C22 UNL     1       4.932   0.743  -0.763  1.00  0.00     0.061 A 
HETATM   31 CL1  UNL     1       4.205   2.253  -1.256  1.00  0.00    -0.082 Cl
ENDBRANCH  22  25
TORSDOF 1
