REMARK  0 active torsions:
REMARK  status: ('A' for Active; 'I' for Inactive)
ROOT
HETATM    1  C1  UNL     1      -4.190   1.513  -0.843  1.00  0.00     0.043 C 
HETATM    2  C2  UNL     1      -3.422   0.588   0.029  1.00  0.00    -0.083 C 
HETATM    3  C3  UNL     1      -2.366   1.278   0.371  1.00  0.00     0.002 C 
HETATM    4  C4  UNL     1      -1.155   1.914   0.831  1.00  0.00    -0.003 C 
HETATM    5  C5  UNL     1      -0.001   2.034   1.475  1.00  0.00    -0.022 C 
HETATM    6  C6  UNL     1       0.686   0.970   2.335  1.00  0.00     0.067 C 
HETATM    7  C7  UNL     1       1.234   0.004   1.286  1.00  0.00    -0.034 A 
HETATM    8  C8  UNL     1       0.422  -1.077   1.232  1.00  0.00     0.016 A 
HETATM    9  C9  UNL     1       0.809  -1.722   0.085  1.00  0.00     0.177 A 
HETATM   10  N1  UNL     1       1.760  -1.437  -0.811  1.00  0.00    -0.227 NA
HETATM   11  C10 UNL     1       2.504  -0.303  -0.596  1.00  0.00     0.077 A 
HETATM   12  C11 UNL     1       2.250   0.504   0.523  1.00  0.00    -0.017 A 
HETATM   13  C12 UNL     1       3.162   1.671   0.560  1.00  0.00     0.081 A 
HETATM   14  C13 UNL     1       3.983   1.450  -0.670  1.00  0.00    -0.041 A 
HETATM   15  C14 UNL     1       4.989   2.306  -1.057  1.00  0.00     0.008 A 
HETATM   16  C15 UNL     1       5.670   1.970  -2.234  1.00  0.00     0.001 A 
HETATM   17  C16 UNL     1       5.308   0.825  -2.930  1.00  0.00     0.001 A 
HETATM   18  C17 UNL     1       4.274  -0.001  -2.478  1.00  0.00     0.014 A 
HETATM   19  C18 UNL     1       3.596   0.311  -1.330  1.00  0.00    -0.000 A 
HETATM   20  N2  UNL     1      -0.095  -2.727  -0.431  1.00  0.00    -0.044 NA
HETATM   21  C19 UNL     1      -1.192  -2.857   0.298  1.00  0.00     0.712 C 
HETATM   22  N3  UNL     1      -1.077  -2.819   1.711  1.00  0.00    -0.219 N 
HETATM   23  C20 UNL     1      -0.513  -1.548   2.242  1.00  0.00     0.181 C 
HETATM   24  N4  UNL     1      -2.247  -2.969  -0.666  1.00  0.00    -0.152 N 
HETATM   25  N5  UNL     1      -3.042  -2.155  -1.510  1.00  0.00    -0.225 NA
HETATM   26  C21 UNL     1      -4.201  -1.656  -0.835  1.00  0.00     0.115 C 
HETATM   27  C22 UNL     1      -3.997  -0.734   0.300  1.00  0.00     0.050 C 
HETATM   28  H15 UNL     1      -1.389  -3.669   2.266  1.00  0.00     0.178 HD
HETATM   29  H18 UNL     1      -2.433  -4.003  -0.700  1.00  0.00     0.199 HD
HETATM   30  H19 UNL     1      -3.171  -2.568  -2.425  1.00  0.00     0.147 HD
ENDROOT
TORSDOF 0
