REMARK  4 active torsions:
REMARK  status: ('A' for Active; 'I' for Inactive)
REMARK    1  A    between atoms: S1_2  and  N1_4 
REMARK    2  A    between atoms: S1_2  and  C7_14 
REMARK    3  A    between atoms: N1_4  and  C1_5 
REMARK    4  A    between atoms: C1_5  and  C2_6 
ROOT
HETATM    1  N1  UNL     1       0.109  -0.879  -1.315  1.00  0.00    -0.209 NA
HETATM    2  H1  UNL     1       0.608  -1.276  -2.115  1.00  0.00     0.140 HD
ENDROOT
BRANCH   1   3
HETATM    3  S1  UNL     1      -1.429  -1.679  -1.069  1.00  0.00     0.241 S 
HETATM    4  O1  UNL     1      -2.184  -1.782  -2.341  1.00  0.00    -0.206 OA
HETATM    5  O2  UNL     1      -1.071  -3.055  -0.530  1.00  0.00    -0.206 OA
BRANCH   3   6
HETATM    6  C7  UNL     1      -2.398  -0.813   0.072  1.00  0.00     0.074 A 
HETATM    7  C8  UNL     1      -2.376  -1.043   1.452  1.00  0.00     0.026 A 
HETATM    8  C9  UNL     1      -3.192  -0.296   2.286  1.00  0.00     0.025 A 
HETATM    9  C10 UNL     1      -4.029   0.675   1.775  1.00  0.00     0.034 A 
HETATM   10 CL2  UNL     1      -5.068   1.627   2.838  1.00  0.00    -0.084 Cl
HETATM   11  C11 UNL     1      -4.093   0.945   0.423  1.00  0.00     0.025 A 
HETATM   12  C12 UNL     1      -3.262   0.180  -0.398  1.00  0.00     0.026 A 
ENDBRANCH   3   6
ENDBRANCH   1   3
BRANCH   1  13
HETATM   13  C1  UNL     1       0.828  -0.843  -0.076  1.00  0.00     0.169 C 
BRANCH  13  14
HETATM   14  C2  UNL     1       2.147  -0.170  -0.236  1.00  0.00     0.068 C 
HETATM   15  C3  UNL     1       2.352   0.924   0.509  1.00  0.00     0.037 C 
HETATM   16  C4  UNL     1       3.522   1.768   0.560  1.00  0.00     0.047 C 
HETATM   17  C5  UNL     1       4.485   1.781  -0.358  1.00  0.00     0.128 C 
HETATM   18 CL1  UNL     1       5.764   2.915  -0.005  1.00  0.00    -0.062 Cl
HETATM   19  N2  UNL     1       4.613   1.022  -1.551  1.00  0.00    -0.225 NA
HETATM   20  C6  UNL     1       3.995  -0.066  -1.904  1.00  0.00     0.260 C 
HETATM   21  O3  UNL     1       3.028  -0.745  -1.140  1.00  0.00    -0.307 OA
ENDBRANCH  13  14
ENDBRANCH   1  13
TORSDOF 4
