REMARK  5 active torsions:
REMARK  status: ('A' for Active; 'I' for Inactive)
REMARK    1  A    between atoms: C2_2  and  C3_3 
REMARK    2  A    between atoms: C7_7  and  N1_8 
REMARK    3  A    between atoms: C14_16  and  N2_17 
REMARK    4  A    between atoms: C15_18  and  C16_19 
REMARK    5  A    between atoms: C16_19  and  N3_20 
ROOT
HETATM    1  C3  UNL     1      -0.471   3.527  -0.013  1.00  0.00     0.025 C 
HETATM    2  C4  UNL     1      -0.440   2.216  -0.082  1.00  0.00     0.030 C 
HETATM    3  C5  UNL     1      -1.555   1.523   0.534  1.00  0.00     0.043 C 
HETATM    4  C6  UNL     1      -1.741   0.370   1.062  1.00  0.00     0.002 C 
HETATM    5  C7  UNL     1      -1.550  -0.782   0.513  1.00  0.00     0.032 C 
HETATM    6  C13 UNL     1      -0.304  -1.528   0.218  1.00  0.00     0.136 C 
HETATM    7  S1  UNL     1       1.173  -0.531   0.539  1.00  0.00    -0.115 SA
HETATM    8  C14 UNL     1       1.567   0.555  -0.836  1.00  0.00     0.269 C 
HETATM    9  N4  UNL     1       0.690   1.725  -0.747  1.00  0.00    -0.359 N 
HETATM   10  H22 UNL     1       1.098   2.406  -1.452  1.00  0.00     0.162 HD
ENDROOT
BRANCH   5  11
HETATM   11  N1  UNL     1      -2.678  -1.532   0.091  1.00  0.00    -0.355 N 
HETATM   12  C8  UNL     1      -2.794  -2.873   0.546  1.00  0.00     0.091 A 
HETATM   13  C9  UNL     1      -3.813  -3.670   0.208  1.00  0.00     0.017 A 
HETATM   14  C10 UNL     1      -4.879  -3.162  -0.675  1.00  0.00    -0.001 A 
HETATM   15  C11 UNL     1      -4.748  -1.903  -1.088  1.00  0.00    -0.007 A 
HETATM   16  C12 UNL     1      -3.676  -0.942  -0.780  1.00  0.00     0.155 A 
ENDBRANCH   5  11
BRANCH   8  17
HETATM   17  N2  UNL     1       2.937   0.939  -0.692  1.00  0.00    -0.268 NA
HETATM   18  C15 UNL     1       3.844   0.253  -0.126  1.00  0.00     0.116 C 
BRANCH  18  19
HETATM   19  C16 UNL     1       3.981  -1.070   0.570  1.00  0.00     0.315 C 
BRANCH  19  20
HETATM   20  N3  UNL     1       5.388  -1.412   0.724  1.00  0.00     0.083 N 
HETATM   21  C17 UNL     1       6.006  -1.689  -0.538  1.00  0.00     0.307 C 
HETATM   22  H18 UNL     1       5.892  -0.766   1.346  1.00  0.00     0.315 HD
ENDBRANCH  19  20
ENDBRANCH  18  19
ENDBRANCH   8  17
BRANCH   1  23
HETATM   23  C2  UNL     1      -1.244   4.652   0.477  1.00  0.00    -0.024 C 
HETATM   24  C1  UNL     1      -1.151   5.974   0.474  1.00  0.00     0.031 C 
ENDBRANCH   1  23
TORSDOF 5
