REMARK  2 active torsions:
REMARK  status: ('A' for Active; 'I' for Inactive)
REMARK    1  A    between atoms: C10_14  and  C11_15 
REMARK    2  A    between atoms: N4_20  and  C15_21 
ROOT
HETATM    1  C1  UNL     1       5.734   1.108  -1.480  1.00  0.00     0.024 C 
HETATM    2  C2  UNL     1       5.282   0.318  -0.490  1.00  0.00    -0.027 A 
HETATM    3  C3  UNL     1       6.197  -0.032   0.618  1.00  0.00     0.014 A 
HETATM    4  C4  UNL     1       5.401  -0.811   1.374  1.00  0.00     0.042 A 
HETATM    5  C5  UNL     1       4.038  -0.980   0.819  1.00  0.00     0.187 A 
HETATM    6  C6  UNL     1       3.975  -0.298  -0.300  1.00  0.00     0.086 A 
HETATM    7  C7  UNL     1       2.966  -0.036  -1.312  1.00  0.00     0.302 C 
HETATM    8  O1  UNL     1       3.185  -0.614  -2.413  1.00  0.00    -0.259 OA
HETATM    9  O2  UNL     1       1.822   0.708  -1.337  1.00  0.00    -0.258 OA
HETATM   10  C8  UNL     1       0.947   0.887  -2.370  1.00  0.00     0.167 C 
HETATM   11  C9  UNL     1       1.466   1.493  -3.624  1.00  0.00     0.102 C 
HETATM   12  N1  UNL     1      -0.332   0.566  -2.352  1.00  0.00    -0.127 NA
HETATM   13  N2  UNL     1      -0.902  -0.003  -1.227  1.00  0.00    -0.127 NA
HETATM   14  C10 UNL     1      -1.791   0.526  -0.489  1.00  0.00     0.180 C 
HETATM   15  N4  UNL     1      -1.894  -0.557   0.475  1.00  0.00    -0.319 N 
HETATM   16  C21 UNL     1      -0.793  -0.494   1.348  1.00  0.00     0.204 C 
HETATM   17  S1  UNL     1      -0.600  -1.781   2.563  1.00  0.00    -0.144 SA
HETATM   18  C22 UNL     1       0.975  -1.404   3.438  1.00  0.00     0.156 C 
HETATM   19  C23 UNL     1       2.115  -1.513   2.490  1.00  0.00     0.366 A 
HETATM   20  O3  UNL     1       2.653  -0.500   1.927  1.00  0.00    -0.145 OA
HETATM   21  N5  UNL     1       3.195  -1.809   1.613  1.00  0.00     0.120 N 
HETATM   22  H21 UNL     1       3.423  -2.849   1.533  1.00  0.00     0.329 HD
ENDROOT
BRANCH  14  23
HETATM   23  C11 UNL     1      -2.638   1.672  -0.244  1.00  0.00     0.087 C 
HETATM   24  C12 UNL     1      -3.472   1.772   0.747  1.00  0.00     0.004 C 
HETATM   25  C13 UNL     1      -3.812   2.961   1.137  1.00  0.00     0.007 C 
HETATM   26  C14 UNL     1      -3.501   3.828  -0.022  1.00  0.00     0.148 C 
HETATM   27  N3  UNL     1      -2.816   2.914  -0.913  1.00  0.00    -0.383 N 
HETATM   28  H11 UNL     1      -2.475   3.069  -1.898  1.00  0.00     0.160 HD
ENDBRANCH  14  23
BRANCH  15  29
HETATM   29  C15 UNL     1      -3.040  -1.276   0.199  1.00  0.00     0.037 A 
HETATM   30  C16 UNL     1      -3.483  -2.117   1.230  1.00  0.00     0.029 A 
HETATM   31  C17 UNL     1      -4.602  -2.898   1.089  1.00  0.00     0.002 A 
HETATM   32  C18 UNL     1      -5.351  -2.908  -0.053  1.00  0.00     0.000 A 
HETATM   33  C19 UNL     1      -4.905  -2.070  -1.072  1.00  0.00     0.002 A 
HETATM   34  C20 UNL     1      -3.793  -1.286  -0.947  1.00  0.00     0.029 A 
ENDBRANCH  15  29
TORSDOF 2
