REMARK  5 active torsions:
REMARK  status: ('A' for Active; 'I' for Inactive)
REMARK    1  A    between atoms: S1_2  and  P1_4 
REMARK    2  A    between atoms: S1_2  and  C7_14 
REMARK    3  A    between atoms: P1_4  and  N1_5 
REMARK    4  A    between atoms: N1_5  and  C1_6 
REMARK    5  A    between atoms: C1_6  and  C2_7 
ROOT
HETATM    1  P1  UNL     1      -0.112  -0.226   1.444  1.00  0.00     0.081 P 
HETATM    2  H1  UNL     1      -0.602  -1.424   2.111  1.00  0.00     0.091 HD
ENDROOT
BRANCH   1   3
HETATM    3  S1  UNL     1      -1.048   0.079  -0.415  1.00  0.00     0.229 S 
HETATM    4  O1  UNL     1      -0.556  -0.806  -1.497  1.00  0.00    -0.215 OA
HETATM    5  O2  UNL     1      -0.846   1.528  -0.809  1.00  0.00    -0.215 OA
BRANCH   3   6
HETATM    6  C7  UNL     1      -2.781  -0.124  -0.161  1.00  0.00     0.175 A 
HETATM    7  C8  UNL     1      -3.639   0.833   0.169  1.00  0.00     0.062 A 
HETATM    8  C9  UNL     1      -5.036   0.466   0.334  1.00  0.00    -0.020 A 
HETATM    9  C10 UNL     1      -5.877   1.414   0.659  1.00  0.00     0.096 C 
HETATM   10  C11 UNL     1      -5.501  -0.906   0.147  1.00  0.00     0.037 A 
HETATM   11 CL2  UNL     1      -5.305   3.056   0.880  1.00  0.00    -0.096 Cl
HETATM   12  C12 UNL     1      -4.552  -1.781  -0.183  1.00  0.00     0.144 A 
HETATM   13  O3  UNL     1      -3.220  -1.415  -0.337  1.00  0.00    -0.311 OA
ENDBRANCH   3   6
ENDBRANCH   1   3
BRANCH   1  14
HETATM   14  N1  UNL     1       1.677  -0.251   1.316  1.00  0.00    -0.285 NA
HETATM   15  H2  UNL     1       2.015  -1.201   1.590  1.00  0.00     0.127 HD
BRANCH  14  16
HETATM   16  C1  UNL     1       2.069   0.065  -0.047  1.00  0.00     0.132 C 
BRANCH  16  17
HETATM   17  C2  UNL     1       3.566   0.052  -0.184  1.00  0.00    -0.027 A 
HETATM   18  C3  UNL     1       4.372   1.169   0.016  1.00  0.00     0.013 A 
HETATM   19  C4  UNL     1       5.740   0.996  -0.149  1.00  0.00     0.045 A 
HETATM   20  C5  UNL     1       6.320  -0.190  -0.489  1.00  0.00     0.125 A 
HETATM   21 CL1  UNL     1       8.078  -0.278  -0.668  1.00  0.00    -0.062 Cl
HETATM   22  N2  UNL     1       5.518  -1.252  -0.676  1.00  0.00    -0.248 NA
HETATM   23  C6  UNL     1       4.178  -1.135  -0.528  1.00  0.00     0.126 A 
ENDBRANCH  16  17
ENDBRANCH  14  16
ENDBRANCH   1  14
TORSDOF 5
