REMARK  3 active torsions:
REMARK  status: ('A' for Active; 'I' for Inactive)
REMARK    1  A    between atoms: C5_5  and  S1_6 
REMARK    2  A    between atoms: S1_6  and  N1_9 
REMARK       I    between atoms: N1_9  and  C6_10 
REMARK    3  A    between atoms: C6_10  and  C7_12 
ROOT
HETATM    1  N1  UNL     1       0.511  -1.514   0.643  1.00  0.00    -0.246 N 
HETATM    2  C6  UNL     1       1.253  -0.334   0.856  1.00  0.00     0.268 C 
HETATM    3  O3  UNL     1       0.845   0.486   1.734  1.00  0.00    -0.267 OA
HETATM    4  H6  UNL     1       0.852  -2.173  -0.072  1.00  0.00     0.182 HD
ENDROOT
BRANCH   1   5
HETATM    5  S1  UNL     1      -0.879  -1.668   1.638  1.00  0.00     0.265 S 
HETATM    6  O1  UNL     1      -0.683  -0.994   2.974  1.00  0.00    -0.200 OA
HETATM    7  O2  UNL     1      -1.060  -3.124   1.938  1.00  0.00    -0.200 OA
BRANCH   5   8
HETATM    8  C5  UNL     1      -2.313  -0.984   0.935  1.00  0.00     0.080 A 
HETATM    9  C4  UNL     1      -2.621   0.343   1.170  1.00  0.00     0.026 A 
HETATM   10  C3  UNL     1      -3.721   0.978   0.668  1.00  0.00     0.008 A 
HETATM   11  C2  UNL     1      -4.592   0.266  -0.125  1.00  0.00    -0.062 A 
HETATM   12  C1  UNL     1      -5.802   0.916  -0.693  1.00  0.00     0.048 C 
HETATM   13  C14 UNL     1      -4.313  -1.048  -0.375  1.00  0.00     0.008 A 
HETATM   14  C13 UNL     1      -3.189  -1.691   0.140  1.00  0.00     0.026 A 
ENDBRANCH   5   8
ENDBRANCH   1   5
BRANCH   2  15
HETATM   15  C7  UNL     1       2.465   0.056   0.162  1.00  0.00     0.073 A 
HETATM   16  C8  UNL     1       2.626   0.321  -1.177  1.00  0.00     0.022 A 
HETATM   17  C9  UNL     1       3.889   0.677  -1.599  1.00  0.00     0.028 A 
HETATM   18  C10 UNL     1       4.983   0.783  -0.775  1.00  0.00     0.032 A 
HETATM   19  C11 UNL     1       6.310   1.173  -1.305  1.00  0.00     0.070 C 
HETATM   20  N2  UNL     1       4.812   0.520   0.540  1.00  0.00    -0.241 NA
HETATM   21  C12 UNL     1       3.591   0.169   0.986  1.00  0.00     0.142 A 
HETATM   22 CL1  UNL     1       3.511  -0.146   2.723  1.00  0.00    -0.061 Cl
ENDBRANCH   2  15
TORSDOF 3
