REMARK  5 active torsions:
REMARK  status: ('A' for Active; 'I' for Inactive)
REMARK    1  A    between atoms: C2_2  and  C3_3 
REMARK    2  A    between atoms: C2_2  and  C11_16 
REMARK       I    between atoms: C3_3  and  N1_5 
REMARK    3  A    between atoms: N1_5  and  S1_6 
REMARK    4  A    between atoms: S1_6  and  C4_9 
REMARK    5  A    between atoms: N2_18  and  C12_19 
ROOT
HETATM    1  C3  UNL     1       1.296  -0.557   1.004  1.00  0.00     0.267 C 
HETATM    2  O1  UNL     1       1.358  -0.942   2.215  1.00  0.00    -0.267 OA
HETATM    3  N1  UNL     1       0.010  -0.232   0.545  1.00  0.00    -0.246 N 
HETATM    4  H3  UNL     1      -0.069   0.082  -0.430  1.00  0.00     0.182 HD
ENDROOT
BRANCH   3   5
HETATM    5  S1  UNL     1      -1.300  -0.395   1.662  1.00  0.00     0.265 S 
HETATM    6  O2  UNL     1      -1.328  -1.815   2.142  1.00  0.00    -0.200 OA
HETATM    7  O3  UNL     1      -1.022   0.527   2.827  1.00  0.00    -0.200 OA
BRANCH   5   8
HETATM    8  C4  UNL     1      -2.775   0.062   0.864  1.00  0.00     0.080 A 
HETATM    9  C5  UNL     1      -3.517  -0.891   0.197  1.00  0.00     0.026 A 
HETATM   10  C6  UNL     1      -4.708  -0.565  -0.457  1.00  0.00     0.008 A 
HETATM   11  C7  UNL     1      -5.164   0.735  -0.444  1.00  0.00    -0.062 A 
HETATM   12  C8  UNL     1      -6.438   0.929  -1.178  1.00  0.00     0.048 C 
HETATM   13  C9  UNL     1      -4.428   1.692   0.221  1.00  0.00     0.008 A 
HETATM   14  C10 UNL     1      -3.250   1.357   0.865  1.00  0.00     0.026 A 
ENDBRANCH   5   8
ENDBRANCH   3   5
BRANCH   1  15
HETATM   15  C2  UNL     1       2.400  -0.420   0.064  1.00  0.00     0.063 C 
HETATM   16  C1  UNL     1       2.346  -0.026  -1.176  1.00  0.00     0.032 C 
BRANCH  15  17
HETATM   17  C11 UNL     1       3.679  -0.780   0.639  1.00  0.00     0.136 A 
HETATM   18 CL1  UNL     1       3.977  -1.324   2.259  1.00  0.00    -0.045 Cl
HETATM   19  N2  UNL     1       4.893  -1.046   0.941  1.00  0.00    -0.287 N 
BRANCH  19  20
HETATM   20  C12 UNL     1       5.916  -0.877  -0.068  1.00  0.00     0.139 C 
HETATM   21  C13 UNL     1       6.720   0.345   0.314  1.00  0.00     0.028 C 
ENDBRANCH  19  20
ENDBRANCH  15  17
ENDBRANCH   1  15
TORSDOF 5
