REMARK  4 active torsions:
REMARK  status: ('A' for Active; 'I' for Inactive)
REMARK    1  A    between atoms: C5_5  and  C6_6 
REMARK       I    between atoms: C6_6  and  N1_8 
REMARK    2  A    between atoms: N1_8  and  S1_9 
REMARK    3  A    between atoms: S1_9  and  C7_12 
REMARK    4  A    between atoms: C13_19  and  C14_20 
ROOT
HETATM    1  C6  UNL     1      -0.188   0.069  -0.054  1.00  0.00     0.267 C 
HETATM    2  O1  UNL     1       0.534   0.266  -1.074  1.00  0.00    -0.267 OA
HETATM    3  N1  UNL     1       0.328  -0.298   1.224  1.00  0.00    -0.246 N 
HETATM    4  H6  UNL     1      -0.344  -0.444   2.032  1.00  0.00     0.182 HD
ENDROOT
BRANCH   3   5
HETATM    5  S1  UNL     1       1.894  -0.594   1.869  1.00  0.00     0.265 S 
HETATM    6  O2  UNL     1       2.147   0.306   3.065  1.00  0.00    -0.200 OA
HETATM    7  O3  UNL     1       1.929  -2.013   2.415  1.00  0.00    -0.200 OA
BRANCH   5   8
HETATM    8  C7  UNL     1       3.164  -0.386   0.669  1.00  0.00     0.080 A 
HETATM    9  C8  UNL     1       3.580  -1.443  -0.150  1.00  0.00     0.027 A 
HETATM   10  C9  UNL     1       4.582  -1.270  -1.094  1.00  0.00     0.020 A 
HETATM   11  C10 UNL     1       5.188  -0.037  -1.237  1.00  0.00     0.011 A 
HETATM   12 BR1  UNL     1       6.586   0.314  -2.510  1.00  0.00    -0.051 Br
HETATM   13  C11 UNL     1       4.809   1.033  -0.451  1.00  0.00     0.020 A 
HETATM   14  C12 UNL     1       3.804   0.833   0.486  1.00  0.00     0.027 A 
ENDBRANCH   5   8
ENDBRANCH   3   5
BRANCH   1  15
HETATM   15  C5  UNL     1      -1.640   0.220  -0.161  1.00  0.00     0.058 A 
HETATM   16  C4  UNL     1      -2.025   1.488   0.237  1.00  0.00     0.021 A 
HETATM   17  C3  UNL     1      -3.375   1.858   0.217  1.00  0.00     0.028 A 
HETATM   18  C2  UNL     1      -4.287   0.903  -0.217  1.00  0.00     0.031 A 
HETATM   19  C1  UNL     1      -5.749   1.245  -0.260  1.00  0.00     0.070 C 
HETATM   20  N2  UNL     1      -3.876  -0.326  -0.599  1.00  0.00    -0.256 NA
HETATM   21  C13 UNL     1      -2.583  -0.682  -0.579  1.00  0.00     0.064 A 
BRANCH  21  22
HETATM   22  C14 UNL     1      -2.028  -1.994  -0.976  1.00  0.00     0.175 C 
HETATM   23 CL1  UNL     1      -1.622  -2.878   0.526  1.00  0.00    -0.124 Cl
ENDBRANCH  21  22
ENDBRANCH   1  15
TORSDOF 4
