REMARK  5 active torsions:
REMARK  status: ('A' for Active; 'I' for Inactive)
REMARK    1  A    between atoms: C5_7  and  O1_8 
REMARK    2  A    between atoms: O1_8  and  C6_9 
REMARK    3  A    between atoms: C7_10  and  O2_11 
REMARK    4  A    between atoms: C12_18  and  N4_19 
REMARK    5  A    between atoms: N4_19  and  C13_20 
ROOT
HETATM    1  C6  UNL     1      -0.580  -1.738   0.078  1.00  0.00     0.118 A 
HETATM    2  C7  UNL     1      -1.559  -2.677   0.476  1.00  0.00     0.100 A 
HETATM    3  C8  UNL     1      -1.227  -3.799   1.252  1.00  0.00     0.041 A 
HETATM    4  C9  UNL     1       0.099  -4.022   1.656  1.00  0.00     0.035 A 
HETATM    5  C10 UNL     1       1.054  -3.116   1.268  1.00  0.00     0.075 A 
HETATM    6  N2  UNL     1       2.362  -3.209   1.577  1.00  0.00    -0.241 NA
HETATM    7  C11 UNL     1       3.292  -2.325   1.189  1.00  0.00     0.236 A 
HETATM    8  N3  UNL     1       2.905  -1.254   0.426  1.00  0.00    -0.223 NA
HETATM    9  C12 UNL     1       1.597  -1.118   0.089  1.00  0.00     0.144 A 
HETATM   10  C19 UNL     1       0.688  -2.033   0.509  1.00  0.00     0.075 A 
ENDROOT
BRANCH   9  11
HETATM   11  N4  UNL     1       1.385  -0.015  -0.766  1.00  0.00    -0.340 N 
HETATM   12  H14 UNL     1       0.713   0.392  -1.434  1.00  0.00     0.167 HD
BRANCH  11  13
HETATM   13  C13 UNL     1       2.376   0.991  -0.915  1.00  0.00     0.035 A 
HETATM   14  C14 UNL     1       2.920   1.311   0.339  1.00  0.00     0.032 A 
HETATM   15  C15 UNL     1       3.929   2.258   0.493  1.00  0.00     0.046 A 
HETATM   16  C16 UNL     1       4.388   2.886  -0.651  1.00  0.00     0.138 A 
HETATM   17  F1  UNL     1       5.361   3.820  -0.608  1.00  0.00    -0.204 F 
HETATM   18  C17 UNL     1       3.887   2.607  -1.899  1.00  0.00     0.074 A 
HETATM   19 CL1  UNL     1       4.387   3.330  -3.415  1.00  0.00    -0.081 Cl
HETATM   20  C18 UNL     1       2.893   1.667  -2.000  1.00  0.00     0.056 A 
ENDBRANCH  11  13
ENDBRANCH   9  11
BRANCH   1  21
HETATM   21  O1  UNL     1      -1.186  -0.759  -0.641  1.00  0.00    -0.340 OA
BRANCH  21  22
HETATM   22  C5  UNL     1      -1.686   0.485  -0.138  1.00  0.00     0.148 C 
HETATM   23  C2  UNL     1      -2.819   0.295   0.862  1.00  0.00     0.105 C 
HETATM   24  C1  UNL     1      -4.176   0.220   0.287  1.00  0.00     0.031 C 
HETATM   25  N1  UNL     1      -2.783   1.417   1.808  1.00  0.00    -0.207 NA
HETATM   26  P1  UNL     1      -2.721   2.848   1.062  1.00  0.00     0.020 P 
HETATM   27  C3  UNL     1      -2.709   2.683  -0.812  1.00  0.00     0.060 C 
HETATM   28  C4  UNL     1      -2.006   1.425  -1.241  1.00  0.00     0.040 C 
ENDBRANCH  21  22
ENDBRANCH   1  21
BRANCH   2  29
HETATM   29  O2  UNL     1      -2.952  -2.813   0.274  1.00  0.00    -0.358 OA
HETATM   30  H10 UNL     1      -3.215  -2.747  -0.726  1.00  0.00     0.217 HD
ENDBRANCH   2  29
TORSDOF 5
