REMARK  7 active torsions:
REMARK  status: ('A' for Active; 'I' for Inactive)
REMARK    1  A    between atoms: O1_2  and  C2_3 
REMARK    2  A    between atoms: C2_3  and  C3_4 
REMARK    3  A    between atoms: C3_4  and  O2_5 
REMARK    4  A    between atoms: O2_5  and  C4_6 
REMARK    5  A    between atoms: C6_9  and  C7_10 
REMARK    6  A    between atoms: C7_10  and  O4_11 
REMARK    7  A    between atoms: C12_18  and  N3_19 
ROOT
HETATM    1  C4  UNL     1       1.259  -0.004  -0.079  1.00  0.00     0.091 C 
HETATM    2  C5  UNL     1       2.237   0.891  -0.072  1.00  0.00     0.172 C 
HETATM    3  O3  UNL     1       2.202   2.253   0.226  1.00  0.00    -0.349 OA
HETATM    4  C6  UNL     1       1.394   3.362   0.019  1.00  0.00     0.176 C 
HETATM    5  C9  UNL     1      -0.037   3.222   0.267  1.00  0.00     0.040 C 
HETATM    6  C10 UNL     1      -0.994   2.343   0.421  1.00  0.00     0.071 A 
HETATM    7  N1  UNL     1      -2.159   2.982   0.635  1.00  0.00    -0.241 NA
HETATM    8  C11 UNL     1      -3.320   2.290   0.826  1.00  0.00     0.236 A 
HETATM    9  N2  UNL     1      -3.320   0.924   0.803  1.00  0.00    -0.223 NA
HETATM   10  C12 UNL     1      -2.150   0.244   0.588  1.00  0.00     0.144 A 
HETATM   11  C19 UNL     1      -1.009   0.991   0.400  1.00  0.00     0.041 A 
HETATM   12  C20 UNL     1      -0.169   0.018   0.195  1.00  0.00     0.056 C 
ENDROOT
BRANCH  10  13
HETATM   13  N3  UNL     1      -2.378  -1.137   0.667  1.00  0.00    -0.332 N 
HETATM   14  C13 UNL     1      -2.165  -2.095   1.735  1.00  0.00     0.158 A 
HETATM   15  C14 UNL     1      -2.543  -3.471   1.311  1.00  0.00    -0.007 A 
HETATM   16  C15 UNL     1      -3.027  -3.896   0.156  1.00  0.00    -0.001 A 
HETATM   17  C16 UNL     1      -3.220  -2.868  -0.862  1.00  0.00     0.024 A 
HETATM   18  C17 UNL     1      -2.910  -1.587  -0.598  1.00  0.00     0.009 A 
HETATM   19  C18 UNL     1      -3.201  -0.730  -1.801  1.00  0.00     0.068 C 
ENDBRANCH  10  13
BRANCH   1  20
HETATM   20  O2  UNL     1       1.748  -1.276  -0.443  1.00  0.00    -0.347 OA
BRANCH  20  21
HETATM   21  C3  UNL     1       2.262  -2.097   0.590  1.00  0.00     0.201 C 
BRANCH  21  22
HETATM   22  C2  UNL     1       2.746  -3.428   0.037  1.00  0.00     0.193 C 
BRANCH  22  23
HETATM   23  O1  UNL     1       3.753  -3.208  -0.898  1.00  0.00    -0.394 OA
HETATM   24  C1  UNL     1       4.233  -4.398  -1.436  1.00  0.00     0.201 C 
ENDBRANCH  22  23
ENDBRANCH  21  22
ENDBRANCH  20  21
ENDBRANCH   1  20
BRANCH   4  25
HETATM   25  C7  UNL     1       1.884   4.532   0.845  1.00  0.00     0.203 C 
BRANCH  25  26
HETATM   26  O4  UNL     1       1.090   5.631   0.634  1.00  0.00    -0.393 OA
HETATM   27  C8  UNL     1       1.039   6.102  -0.650  1.00  0.00     0.201 C 
ENDBRANCH  25  26
ENDBRANCH   4  25
TORSDOF 7
