REMARK  5 active torsions:
REMARK  status: ('A' for Active; 'I' for Inactive)
REMARK    1  A    between atoms: C1_2  and  C2_3 
REMARK    2  A    between atoms: C2_3  and  C3_4 
REMARK    3  A    between atoms: C2_3  and  N3_12 
REMARK    4  A    between atoms: N3_12  and  S1_13 
REMARK    5  A    between atoms: S1_13  and  C8_16 
ROOT
HETATM    1  N3  UNL     1       0.329  -1.035   2.113  1.00  0.00    -0.201 NA
HETATM    2  H5  UNL     1       0.646  -1.212   3.091  1.00  0.00     0.141 HD
ENDROOT
BRANCH   1   3
HETATM    3  C2  UNL     1       1.190  -0.190   1.348  1.00  0.00     0.157 C 
BRANCH   3   4
HETATM    4  C1  UNL     1       2.486  -0.007   2.064  1.00  0.00     0.255 C 
HETATM    5  O1  UNL     1       2.839  -0.468   3.133  1.00  0.00    -0.305 OA
ENDBRANCH   3   4
BRANCH   3   6
HETATM    6  C3  UNL     1       0.618   1.164   1.122  1.00  0.00     0.032 C 
HETATM    7  C4  UNL     1       1.178   1.984   0.248  1.00  0.00     0.060 C 
HETATM    8  C5  UNL     1       0.665   3.341  -0.027  1.00  0.00     0.075 C 
HETATM    9  N2  UNL     1       2.329   1.574  -0.480  1.00  0.00    -0.226 NA
HETATM   10  C6  UNL     1       1.342   4.033  -0.931  1.00  0.00     0.130 C 
HETATM   11 CL1  UNL     1       0.781   5.639  -1.295  1.00  0.00    -0.062 Cl
HETATM   12  N1  UNL     1       2.483   3.473  -1.574  1.00  0.00    -0.213 NA
HETATM   13  C7  UNL     1       2.751   2.220  -1.491  1.00  0.00     0.200 C 
ENDBRANCH   3   6
ENDBRANCH   1   3
BRANCH   1  14
HETATM   14  S1  UNL     1      -0.190  -2.424   1.268  1.00  0.00     0.242 S 
HETATM   15  O2  UNL     1      -0.984  -3.322   2.166  1.00  0.00    -0.206 OA
HETATM   16  O3  UNL     1       1.002  -3.220   0.787  1.00  0.00    -0.206 OA
BRANCH  14  17
HETATM   17  C8  UNL     1      -1.100  -1.941  -0.128  1.00  0.00     0.074 A 
HETATM   18  C9  UNL     1      -0.633  -1.697  -1.400  1.00  0.00     0.026 A 
HETATM   19  C10 UNL     1      -1.499  -1.317  -2.402  1.00  0.00     0.025 A 
HETATM   20  C11 UNL     1      -2.845  -1.178  -2.135  1.00  0.00     0.034 A 
HETATM   21 CL2  UNL     1      -3.878  -0.692  -3.463  1.00  0.00    -0.084 Cl
HETATM   22  C12 UNL     1      -3.362  -1.413  -0.872  1.00  0.00     0.025 A 
HETATM   23  C13 UNL     1      -2.468  -1.797   0.128  1.00  0.00     0.026 A 
ENDBRANCH  14  17
ENDBRANCH   1  14
TORSDOF 5
