REMARK  1 active torsions:
REMARK  status: ('A' for Active; 'I' for Inactive)
REMARK    1  A    between atoms: C2_2  and  C3_3 
ROOT
HETATM    1  C3  UNL     1       0.750  -1.409   0.743  1.00  0.00     0.061 C 
HETATM    2  C4  UNL     1      -0.210  -1.260  -0.270  1.00  0.00     0.013 C 
HETATM    3  C5  UNL     1      -1.251  -0.675  -1.183  1.00  0.00     0.098 C 
HETATM    4 BR1  UNL     1      -1.157  -1.510  -2.914  1.00  0.00    -0.086 Br
HETATM    5  C6  UNL     1      -1.122   0.838  -1.347  1.00  0.00     0.039 A 
HETATM    6  C7  UNL     1       0.175   0.646  -1.585  1.00  0.00     0.028 A 
HETATM    7  C8  UNL     1       0.170   1.950  -1.009  1.00  0.00     0.078 A 
HETATM    8  C9  UNL     1      -0.483   3.020  -0.475  1.00  0.00     0.116 A 
HETATM    9 CL1  UNL     1       0.738   4.160   0.007  1.00  0.00    -0.066 Cl
HETATM   10  N1  UNL     1      -1.843   2.792  -0.434  1.00  0.00    -0.248 NA
HETATM   11  C10 UNL     1      -2.189   1.569  -0.915  1.00  0.00     0.021 A 
HETATM   12  C11 UNL     1      -3.595   1.100  -0.942  1.00  0.00     0.066 C 
HETATM   13  C12 UNL     1       1.601   1.766  -0.375  1.00  0.00     0.271 A 
HETATM   14  O1  UNL     1       1.199   0.949   0.504  1.00  0.00     0.000 OA
HETATM   15  N2  UNL     1       2.227   0.965   0.748  1.00  0.00     0.198 N 
HETATM   16  S1  UNL     1       1.410  -0.176   1.890  1.00  0.00     0.267 SA
HETATM   17  O2  UNL     1       2.443  -0.812   2.713  1.00  0.00    -0.110 OA
HETATM   18  O3  UNL     1       0.425   0.465   2.718  1.00  0.00    -0.110 OA
HETATM   19  H10 UNL     1       3.131   1.471   0.391  1.00  0.00     0.338 HD
ENDROOT
BRANCH   1  20
HETATM   20  C2  UNL     1       1.303  -2.776   0.751  1.00  0.00     0.013 C 
HETATM   21  C1  UNL     1       2.205  -2.956   1.667  1.00  0.00     0.013 C 
ENDBRANCH   1  20
TORSDOF 1
