REMARK  0 active torsions:
REMARK  status: ('A' for Active; 'I' for Inactive)
ROOT
HETATM    1  C1  UNL     1      -4.336   1.640   0.664  1.00  0.00     0.072 C 
HETATM    2  C2  UNL     1      -2.988   1.087   0.349  1.00  0.00     0.056 C 
HETATM    3  C3  UNL     1      -2.052   1.526  -0.474  1.00  0.00     0.202 C 
HETATM    4  O1  UNL     1      -0.932   1.744  -1.233  1.00  0.00    -0.208 OA
HETATM    5  O2  UNL     1       0.306   1.671  -0.756  1.00  0.00    -0.232 OA
HETATM    6  C4  UNL     1       0.812   2.933  -0.438  1.00  0.00     0.238 C 
HETATM    7  C5  UNL     1       2.236   2.829  -0.076  1.00  0.00     0.017 C 
HETATM    8  C6  UNL     1       3.353   2.084   0.111  1.00  0.00    -0.008 C 
HETATM    9 BR1  UNL     1       4.943   3.058   0.675  1.00  0.00    -0.056 Br
HETATM   10  C7  UNL     1       2.876   0.711  -0.212  1.00  0.00     0.040 C 
HETATM   11  C8  UNL     1       3.193  -0.602  -0.318  1.00  0.00     0.014 C 
HETATM   12  C9  UNL     1       2.049  -1.441  -0.738  1.00  0.00     0.132 C 
HETATM   13  S1  UNL     1       1.753  -2.660   0.535  1.00  0.00     0.089 S 
HETATM   14  O3  UNL     1       3.040  -3.414   0.783  1.00  0.00    -0.241 OA
HETATM   15  N1  UNL     1       0.424  -3.712   0.179  1.00  0.00    -0.242 NA
HETATM   16  C10 UNL     1      -0.751  -2.985  -0.255  1.00  0.00     0.108 C 
HETATM   17  C11 UNL     1      -1.087  -2.034   0.904  1.00  0.00     0.087 C 
HETATM   18  C12 UNL     1      -2.232  -1.181   0.599  1.00  0.00     0.105 C 
HETATM   19 CL1  UNL     1      -3.517  -2.346   0.315  1.00  0.00    -0.067 Cl
HETATM   20  N2  UNL     1      -2.071   0.077   0.603  1.00  0.00    -0.244 NA
HETATM   21  H12 UNL     1       0.210  -4.238   1.055  1.00  0.00     0.137 HD
ENDROOT
TORSDOF 0
