REMARK  3 active torsions:
REMARK  status: ('A' for Active; 'I' for Inactive)
REMARK    1  A    between atoms: C5_5  and  S1_6 
REMARK    2  A    between atoms: S1_6  and  N1_9 
REMARK       I    between atoms: N1_9  and  C6_10 
REMARK    3  A    between atoms: C6_10  and  C7_12 
ROOT
HETATM    1  N1  UNL     1       1.053   0.281  -0.605  1.00  0.00    -0.246 N 
HETATM    2  C6  UNL     1       2.387   0.588  -0.989  1.00  0.00     0.265 C 
HETATM    3  O3  UNL     1       2.533   0.816  -2.217  1.00  0.00    -0.267 OA
HETATM    4  H6  UNL     1       0.872   0.083   0.403  1.00  0.00     0.182 HD
ENDROOT
BRANCH   1   5
HETATM    5  S1  UNL     1      -0.180   0.253  -1.805  1.00  0.00     0.265 S 
HETATM    6  O1  UNL     1       0.200  -0.724  -2.853  1.00  0.00    -0.200 OA
HETATM    7  O2  UNL     1      -0.329   1.602  -2.459  1.00  0.00    -0.200 OA
BRANCH   5   8
HETATM    8  C5  UNL     1      -1.707  -0.147  -1.066  1.00  0.00     0.080 A 
HETATM    9  C4  UNL     1      -2.169  -1.435  -0.926  1.00  0.00     0.026 A 
HETATM   10  C3  UNL     1      -3.392  -1.715  -0.332  1.00  0.00     0.008 A 
HETATM   11  C2  UNL     1      -4.177  -0.689   0.137  1.00  0.00    -0.062 A 
HETATM   12  C1  UNL     1      -5.486  -1.015   0.772  1.00  0.00     0.048 C 
HETATM   13  C13 UNL     1      -3.766   0.615   0.024  1.00  0.00     0.008 A 
HETATM   14  C12 UNL     1      -2.549   0.842  -0.571  1.00  0.00     0.026 A 
ENDBRANCH   5   8
ENDBRANCH   1   5
BRANCH   2  15
HETATM   15  C7  UNL     1       3.536   0.651  -0.093  1.00  0.00     0.035 A 
HETATM   16  C8  UNL     1       4.742   0.975  -0.728  1.00  0.00     0.033 A 
HETATM   17  P1  UNL     1       6.171   1.070   0.289  1.00  0.00    -0.032 P 
HETATM   18  C9  UNL     1       5.765   0.721   1.959  1.00  0.00     0.035 A 
HETATM   19  C10 UNL     1       4.436   0.440   2.194  1.00  0.00     0.013 A 
HETATM   20 BR1  UNL     1       4.064   0.068   4.050  1.00  0.00    -0.051 Br
HETATM   21  C11 UNL     1       3.474   0.420   1.243  1.00  0.00     0.036 A 
ENDBRANCH   2  15
TORSDOF 3
