REMARK  3 active torsions:
REMARK  status: ('A' for Active; 'I' for Inactive)
REMARK       I    between atoms: C1_2  and  N1_3 
REMARK    1  A    between atoms: C1_2  and  C9_13 
REMARK    2  A    between atoms: N1_3  and  S1_4 
REMARK    3  A    between atoms: S1_4  and  C2_6 
ROOT
HETATM    1  O1  UNL     1       1.314  -0.056  -2.041  1.00  0.00    -0.268 OA
HETATM    2  C1  UNL     1       1.587   0.398  -0.901  1.00  0.00     0.251 C 
HETATM    3  N1  UNL     1       0.896  -0.042   0.241  1.00  0.00    -0.269 N 
HETATM    4  H1  UNL     1       1.114   0.330   1.199  1.00  0.00     0.179 HD
ENDROOT
BRANCH   3   5
HETATM    5  S1  UNL     1      -0.363  -1.211   0.248  1.00  0.00     0.143 S 
HETATM    6  O2  UNL     1      -0.077  -2.415  -0.631  1.00  0.00    -0.231 OA
BRANCH   5   7
HETATM    7  C2  UNL     1      -1.978  -0.561   0.050  1.00  0.00     0.113 C 
HETATM    8  C3  UNL     1      -3.000  -1.348   0.266  1.00  0.00    -0.025 C 
HETATM    9  C4  UNL     1      -4.367  -0.813   0.102  1.00  0.00     0.024 C 
HETATM   10  C8  UNL     1      -2.854  -2.732   0.661  1.00  0.00     0.012 C 
HETATM   11  C5  UNL     1      -5.389  -1.569   0.413  1.00  0.00    -0.025 C 
HETATM   12  C6  UNL     1      -5.250  -2.838   0.672  1.00  0.00     0.012 C 
HETATM   13  C7  UNL     1      -3.926  -3.466   0.861  1.00  0.00     0.002 C 
ENDBRANCH   5   7
ENDBRANCH   3   5
BRANCH   2  14
HETATM   14  C9  UNL     1       2.643   1.390  -0.832  1.00  0.00     0.012 C 
HETATM   15  C10 UNL     1       3.309   1.807  -1.958  1.00  0.00     0.118 C 
HETATM   16  N2  UNL     1       4.466   2.461  -1.928  1.00  0.00    -0.272 NA
HETATM   17  C11 UNL     1       5.166   2.822  -0.861  1.00  0.00     0.138 C 
HETATM   18  C12 UNL     1       4.961   2.662   0.479  1.00  0.00     0.056 A 
HETATM   19  O3  UNL     1       4.889   2.540   1.840  1.00  0.00    -0.309 OA
HETATM   20  B1  UNL     1       3.086   2.082   0.785  1.00  0.00     0.388 B 
HETATM   21 BR1  UNL     1       3.295   2.006   2.650  1.00  0.00    -0.049 Br
ENDBRANCH   2  14
TORSDOF 3
