REMARK  4 active torsions:
REMARK  status: ('A' for Active; 'I' for Inactive)
REMARK       I    between atoms: C1_2  and  N1_3 
REMARK    1  A    between atoms: C1_2  and  S2_14 
REMARK    2  A    between atoms: N1_3  and  S1_4 
REMARK    3  A    between atoms: S1_4  and  C2_7 
REMARK    4  A    between atoms: S2_14  and  C8_15 
ROOT
HETATM    1  O1  UNL     1       0.199  -1.171   2.516  1.00  0.00    -0.259 OA
HETATM    2  C1  UNL     1      -0.586  -0.770   1.605  1.00  0.00     0.298 C 
HETATM    3  N1  UNL     1      -0.341  -1.018   0.204  1.00  0.00    -0.241 N 
HETATM    4  H1  UNL     1      -1.042  -0.650  -0.466  1.00  0.00     0.182 HD
ENDROOT
BRANCH   3   5
HETATM    5  S1  UNL     1       1.113  -1.908  -0.096  1.00  0.00     0.265 S 
HETATM    6  O2  UNL     1       0.954  -2.621  -1.414  1.00  0.00    -0.200 OA
HETATM    7  O3  UNL     1       1.368  -2.901   0.971  1.00  0.00    -0.200 OA
BRANCH   5   8
HETATM    8  C2  UNL     1       2.423  -0.771  -0.296  1.00  0.00     0.080 A 
HETATM    9  C3  UNL     1       3.088  -0.433   0.855  1.00  0.00     0.027 A 
HETATM   10  C4  UNL     1       4.150   0.460   0.846  1.00  0.00     0.020 A 
HETATM   11  C5  UNL     1       4.542   1.021  -0.368  1.00  0.00     0.011 A 
HETATM   12 BR1  UNL     1       6.008   2.259  -0.411  1.00  0.00    -0.051 Br
HETATM   13  C6  UNL     1       3.877   0.688  -1.549  1.00  0.00     0.020 A 
HETATM   14  C7  UNL     1       2.829  -0.206  -1.472  1.00  0.00     0.027 A 
ENDBRANCH   5   8
ENDBRANCH   3   5
BRANCH   2  15
HETATM   15  S2  UNL     1      -2.034   0.135   2.169  1.00  0.00    -0.027 SA
BRANCH  15  16
HETATM   16  C8  UNL     1      -3.043   0.635   0.791  1.00  0.00     0.027 A 
HETATM   17  C9  UNL     1      -4.009  -0.319   0.454  1.00  0.00     0.022 A 
HETATM   18  C10 UNL     1      -4.870  -0.050  -0.614  1.00  0.00     0.021 A 
HETATM   19  C11 UNL     1      -4.690   1.168  -1.263  1.00  0.00     0.116 A 
HETATM   20  N2  UNL     1      -3.756   2.093  -0.939  1.00  0.00    -0.272 NA
HETATM   21  C12 UNL     1      -2.941   1.816   0.087  1.00  0.00     0.135 A 
ENDBRANCH  15  16
ENDBRANCH   2  15
TORSDOF 4
