REMARK  4 active torsions:
REMARK  status: ('A' for Active; 'I' for Inactive)
REMARK    1  A    between atoms: C3_3  and  S1_8 
REMARK    2  A    between atoms: C4_4  and  C5_5 
REMARK    3  A    between atoms: S1_8  and  N1_11 
REMARK       I    between atoms: N1_11  and  C7_12 
REMARK    4  A    between atoms: C7_12  and  C8_14 
ROOT
HETATM    1  C1  UNL     1       2.810  -1.315   3.538  1.00  0.00     0.019 C 
HETATM    2  C2  UNL     1       2.702  -1.053   2.348  1.00  0.00    -0.064 C 
HETATM    3  C3  UNL     1       2.594  -0.724   0.934  1.00  0.00     0.132 C 
HETATM    4  C4  UNL     1       3.485   0.082   0.382  1.00  0.00     0.036 C 
ENDROOT
BRANCH   3   5
HETATM    5  S1  UNL     1       1.250  -1.465   0.124  1.00  0.00     0.273 S 
HETATM    6  O1  UNL     1       0.888  -2.791   0.765  1.00  0.00    -0.199 OA
HETATM    7  O2  UNL     1       1.566  -1.752  -1.296  1.00  0.00    -0.199 OA
BRANCH   5   8
HETATM    8  N1  UNL     1      -0.138  -0.455   0.199  1.00  0.00    -0.245 N 
HETATM    9  C7  UNL     1      -1.397  -0.788  -0.374  1.00  0.00     0.266 C 
HETATM   10  O3  UNL     1      -1.396  -1.922  -0.956  1.00  0.00    -0.267 OA
HETATM   11  H5  UNL     1      -0.069   0.470   0.695  1.00  0.00     0.182 HD
BRANCH   9  12
HETATM   12  C8  UNL     1      -2.569   0.078  -0.304  1.00  0.00     0.051 A 
HETATM   13  C9  UNL     1      -2.630   1.313   0.310  1.00  0.00     0.133 A 
HETATM   14  N2  UNL     1      -3.754   2.045   0.327  1.00  0.00    -0.271 NA
HETATM   15  C10 UNL     1      -4.877   1.596  -0.262  1.00  0.00     0.135 A 
HETATM   16  C11 UNL     1      -4.886   0.358  -0.900  1.00  0.00     0.029 A 
HETATM   17 BR1  UNL     1      -6.492  -0.268  -1.734  1.00  0.00    -0.050 Br
HETATM   18  C12 UNL     1      -3.719  -0.386  -0.910  1.00  0.00     0.039 A 
ENDBRANCH   9  12
ENDBRANCH   5   8
ENDBRANCH   3   5
BRANCH   4  19
HETATM   19  C5  UNL     1       3.629   0.576  -0.966  1.00  0.00     0.031 C 
HETATM   20  C6  UNL     1       4.542   1.385  -1.477  1.00  0.00     0.188 C 
HETATM   21  F1  UNL     1       4.461   1.706  -2.790  1.00  0.00    -0.219 F 
ENDBRANCH   4  19
TORSDOF 4
