REMARK  7 active torsions:
REMARK  status: ('A' for Active; 'I' for Inactive)
REMARK    1  A    between atoms: O1_2  and  C2_3 
REMARK    2  A    between atoms: C2_3  and  O2_4 
REMARK    3  A    between atoms: O2_4  and  C3_5 
REMARK    4  A    between atoms: C3_5  and  C4_6 
REMARK    5  A    between atoms: C4_6  and  O3_7 
REMARK    6  A    between atoms: O3_7  and  C5_8 
REMARK    7  A    between atoms: C5_8  and  C6_9 
ROOT
HETATM    1  C6  UNL     1       0.402   0.246   0.550  1.00  0.00    -0.054 C 
HETATM    2  C7  UNL     1      -0.035  -0.734   1.324  1.00  0.00     0.018 C 
HETATM    3  C8  UNL     1      -1.091  -1.023   2.286  1.00  0.00    -0.011 A 
HETATM    4  C9  UNL     1      -0.605  -1.493   3.436  1.00  0.00     0.013 A 
HETATM    5  C10 UNL     1      -1.447  -1.867   4.577  1.00  0.00    -0.003 A 
HETATM    6  C11 UNL     1      -2.735  -1.688   4.331  1.00  0.00    -0.021 A 
HETATM    7  C12 UNL     1      -3.480  -1.204   3.178  1.00  0.00     0.087 A 
HETATM    8  C13 UNL     1      -2.528  -0.826   2.103  1.00  0.00     0.049 A 
HETATM    9  N1  UNL     1      -3.020  -0.335   1.042  1.00  0.00    -0.246 NA
HETATM   10  C14 UNL     1      -4.438  -0.144   0.872  1.00  0.00     0.227 C 
HETATM   11  N2  UNL     1      -4.346  -0.692  -0.295  1.00  0.00    -0.279 NA
HETATM   12  C15 UNL     1      -5.496  -0.870  -1.161  1.00  0.00     0.177 C 
HETATM   13  C16 UNL     1      -5.343  -0.307  -2.505  1.00  0.00    -0.009 C 
HETATM   14  C17 UNL     1      -4.577   0.361  -3.389  1.00  0.00    -0.021 C 
HETATM   15  C18 UNL     1      -3.324   0.648  -2.636  1.00  0.00     0.050 C 
HETATM   16  C19 UNL     1      -2.123   1.233  -2.772  1.00  0.00     0.159 C 
HETATM   17  O4  UNL     1      -1.646   0.980  -1.479  1.00  0.00    -0.382 OA
HETATM   18  C20 UNL     1      -0.760   1.897  -0.888  1.00  0.00     0.172 C 
HETATM   19  C21 UNL     1      -0.295   1.566   0.486  1.00  0.00     0.062 C 
ENDROOT
BRANCH   1  20
HETATM   20  C5  UNL     1       1.579   0.207  -0.363  1.00  0.00     0.202 C 
BRANCH  20  21
HETATM   21  O3  UNL     1       2.496   1.159  -0.007  1.00  0.00    -0.385 OA
BRANCH  21  22
HETATM   22  C4  UNL     1       3.602   1.189  -0.819  1.00  0.00     0.194 C 
BRANCH  22  23
HETATM   23  C3  UNL     1       4.369  -0.097  -0.850  1.00  0.00     0.196 C 
BRANCH  23  24
HETATM   24  O2  UNL     1       5.474  -0.030  -1.679  1.00  0.00    -0.365 OA
BRANCH  24  25
HETATM   25  C2  UNL     1       6.410   0.902  -1.313  1.00  0.00     0.337 C 
BRANCH  25  26
HETATM   26  O1  UNL     1       6.878   0.582  -0.034  1.00  0.00    -0.372 OA
HETATM   27  C1  UNL     1       7.453  -0.670  -0.085  1.00  0.00     0.204 C 
ENDBRANCH  25  26
ENDBRANCH  24  25
ENDBRANCH  23  24
ENDBRANCH  22  23
ENDBRANCH  21  22
ENDBRANCH  20  21
ENDBRANCH   1  20
TORSDOF 7
