REMARK  4 active torsions:
REMARK  status: ('A' for Active; 'I' for Inactive)
REMARK       I    between atoms: C1_2  and  N1_3 
REMARK    1  A    between atoms: C1_2  and  C10_16 
REMARK    2  A    between atoms: N1_3  and  S1_4 
REMARK    3  A    between atoms: S1_4  and  C2_7 
REMARK    4  A    between atoms: C2_7  and  C3_8 
ROOT
HETATM    1  S1  UNL     1       0.779  -1.116   0.276  1.00  0.00     0.236 S 
HETATM    2  O2  UNL     1       0.704  -2.172  -0.759  1.00  0.00    -0.205 OA
HETATM    3  O3  UNL     1       0.076  -1.683   1.503  1.00  0.00    -0.205 OA
ENDROOT
BRANCH   1   4
HETATM    4  N1  UNL     1       2.348  -0.687   0.774  1.00  0.00    -0.250 N 
HETATM    5  C1  UNL     1       3.316  -0.658  -0.264  1.00  0.00     0.266 C 
HETATM    6  O1  UNL     1       2.819  -0.965  -1.394  1.00  0.00    -0.267 OA
HETATM    7  H1  UNL     1       2.622  -0.455   1.754  1.00  0.00     0.181 HD
BRANCH   5   8
HETATM    8  C10 UNL     1       4.722  -0.310  -0.026  1.00  0.00     0.050 A 
HETATM    9  C11 UNL     1       5.284   0.028   1.199  1.00  0.00     0.020 A 
HETATM   10  C12 UNL     1       6.635   0.328   1.231  1.00  0.00     0.020 A 
HETATM   11  C13 UNL     1       7.423   0.300   0.093  1.00  0.00     0.116 A 
HETATM   12  N3  UNL     1       6.845  -0.034  -1.094  1.00  0.00    -0.272 NA
HETATM   13  C14 UNL     1       5.524  -0.333  -1.157  1.00  0.00     0.133 A 
ENDBRANCH   5   8
ENDBRANCH   1   4
BRANCH   1  14
HETATM   14  C2  UNL     1      -0.208   0.305  -0.206  1.00  0.00     0.191 C 
BRANCH  14  15
HETATM   15  C3  UNL     1      -1.533  -0.233  -0.609  1.00  0.00    -0.006 C 
HETATM   16  C4  UNL     1      -2.812  -0.130  -0.269  1.00  0.00    -0.052 C 
HETATM   17  C5  UNL     1      -3.904  -0.895  -0.978  1.00  0.00     0.062 C 
HETATM   18  C9  UNL     1      -3.114   0.793   0.863  1.00  0.00     0.304 C 
HETATM   19  C6  UNL     1      -4.962   0.130  -1.303  1.00  0.00    -0.025 C 
HETATM   20  C7  UNL     1      -5.572   0.803  -0.319  1.00  0.00    -0.001 C 
HETATM   21  C8  UNL     1      -5.495   0.834   1.180  1.00  0.00     0.297 C 
HETATM   22  N2  UNL     1      -4.220   0.319   1.669  1.00  0.00     0.090 N 
HETATM   23  H11 UNL     1      -4.116   0.686   2.642  1.00  0.00     0.316 HD
ENDBRANCH  14  15
ENDBRANCH   1  14
TORSDOF 4
