REMARK  7 active torsions:
REMARK  status: ('A' for Active; 'I' for Inactive)
REMARK    1  A    between atoms: C6_8  and  C7_9 
REMARK    2  A    between atoms: C7_9  and  C8_10 
REMARK    3  A    between atoms: C8_10  and  O3_11 
REMARK    4  A    between atoms: C13_18  and  N3_19 
REMARK    5  A    between atoms: N3_19  and  C14_20 
REMARK    6  A    between atoms: C14_20  and  C15_21 
REMARK    7  A    between atoms: C16_22  and  C17_23 
ROOT
HETATM    1  C1  UNL     1       1.936  -3.060   2.272  1.00  0.00     0.044 C 
HETATM    2  C2  UNL     1       1.578  -2.094   1.444  1.00  0.00    -0.011 C 
HETATM    3  C3  UNL     1       0.609  -2.557   0.500  1.00  0.00     0.206 C 
HETATM    4  O1  UNL     1      -0.628  -1.987   0.363  1.00  0.00    -0.385 OA
HETATM    5  C4  UNL     1      -1.266  -2.835  -0.589  1.00  0.00     0.194 C 
HETATM    6  C5  UNL     1      -2.563  -2.350  -1.037  1.00  0.00     0.201 C 
HETATM    7  O2  UNL     1      -2.437  -1.103  -1.725  1.00  0.00    -0.349 OA
HETATM    8  C6  UNL     1      -3.496  -0.180  -1.516  1.00  0.00     0.068 C 
HETATM    9  C10 UNL     1      -2.697   0.907  -1.067  1.00  0.00     0.055 C 
HETATM   10  C11 UNL     1      -1.464   1.284  -0.853  1.00  0.00     0.120 C 
HETATM   11  N1  UNL     1      -0.130   1.416  -0.721  1.00  0.00    -0.254 NA
HETATM   12  C12 UNL     1       0.842   0.911  -0.215  1.00  0.00     0.234 C 
HETATM   13  N2  UNL     1       1.919   0.278   0.395  1.00  0.00    -0.225 NA
HETATM   14  C13 UNL     1       2.105  -0.799   0.974  1.00  0.00     0.129 C 
ENDROOT
BRANCH  14  15
HETATM   15  N3  UNL     1       3.572  -0.974   1.080  1.00  0.00    -0.371 N 
HETATM   16  H18 UNL     1       4.038  -1.807   1.577  1.00  0.00     0.161 HD
BRANCH  15  17
HETATM   17  C14 UNL     1       4.579  -0.106   0.533  1.00  0.00     0.148 C 
BRANCH  17  18
HETATM   18  C15 UNL     1       4.721   1.201   1.230  1.00  0.00    -0.007 C 
HETATM   19  C16 UNL     1       5.867   1.758   1.755  1.00  0.00    -0.000 C 
BRANCH  19  20
HETATM   20  C17 UNL     1       5.610   3.063   2.375  1.00  0.00     0.029 C 
HETATM   21  C18 UNL     1       6.839   3.319   2.798  1.00  0.00     0.188 C 
HETATM   22  F1  UNL     1       6.761   4.537   3.412  1.00  0.00    -0.219 F 
ENDBRANCH  19  20
ENDBRANCH  17  18
ENDBRANCH  15  17
ENDBRANCH  14  15
BRANCH   8  23
HETATM   23  C7  UNL     1      -4.785  -0.352  -1.711  1.00  0.00     0.036 C 
BRANCH  23  24
HETATM   24  C8  UNL     1      -5.810   0.644  -1.476  1.00  0.00     0.197 C 
BRANCH  24  25
HETATM   25  O3  UNL     1      -6.539   0.963  -2.637  1.00  0.00    -0.392 OA
HETATM   26  C9  UNL     1      -7.468   1.971  -2.234  1.00  0.00     0.201 C 
ENDBRANCH  24  25
ENDBRANCH  23  24
ENDBRANCH   8  23
TORSDOF 7
