REMARK  3 active torsions:
REMARK  status: ('A' for Active; 'I' for Inactive)
REMARK    1  A    between atoms: C5_5  and  S1_6 
REMARK    2  A    between atoms: S1_6  and  N1_9 
REMARK       I    between atoms: N1_9  and  C6_10 
REMARK    3  A    between atoms: C6_10  and  C7_12 
ROOT
HETATM    1  S1  UNL     1       0.202  -0.814   1.313  1.00  0.00     0.256 S 
HETATM    2  O1  UNL     1      -0.107  -0.738   2.784  1.00  0.00    -0.201 OA
HETATM    3  O2  UNL     1       0.090  -2.217   0.784  1.00  0.00    -0.201 OA
ENDROOT
BRANCH   1   4
HETATM    4  C5  UNL     1      -0.926   0.245   0.505  1.00  0.00     0.139 C 
HETATM    5  C4  UNL     1      -2.187  -0.079   0.348  1.00  0.00    -0.042 A 
HETATM    6  C3  UNL     1      -3.123   0.832  -0.339  1.00  0.00     0.014 A 
HETATM    7  C12 UNL     1      -2.717  -1.356   0.845  1.00  0.00     0.066 A 
HETATM    8  C2  UNL     1      -4.407   0.577  -0.537  1.00  0.00    -0.062 A 
HETATM    9  C1  UNL     1      -5.214   1.624  -1.257  1.00  0.00     0.048 C 
HETATM   10  C14 UNL     1      -4.951  -0.666  -0.059  1.00  0.00     0.003 A 
HETATM   11  C13 UNL     1      -4.153  -1.504   0.556  1.00  0.00    -0.022 A 
ENDBRANCH   1   4
BRANCH   1  12
HETATM   12  N1  UNL     1       1.823  -0.218   1.049  1.00  0.00    -0.247 N 
HETATM   13  C6  UNL     1       2.605  -0.636  -0.066  1.00  0.00     0.266 C 
HETATM   14  O3  UNL     1       2.057  -1.469  -0.862  1.00  0.00    -0.267 OA
HETATM   15  H6  UNL     1       2.200   0.463   1.747  1.00  0.00     0.182 HD
BRANCH  13  16
HETATM   16  C7  UNL     1       3.958  -0.137  -0.284  1.00  0.00     0.050 A 
HETATM   17  C8  UNL     1       4.623   0.761   0.523  1.00  0.00     0.020 A 
HETATM   18  C9  UNL     1       5.890   1.139   0.195  1.00  0.00     0.020 A 
HETATM   19  C10 UNL     1       6.533   0.650  -0.927  1.00  0.00     0.116 A 
HETATM   20  N2  UNL     1       5.899  -0.227  -1.725  1.00  0.00    -0.272 NA
HETATM   21  C11 UNL     1       4.643  -0.595  -1.389  1.00  0.00     0.133 A 
ENDBRANCH  13  16
ENDBRANCH   1  12
TORSDOF 3
