REMARK  0 active torsions:
REMARK  status: ('A' for Active; 'I' for Inactive)
ROOT
HETATM    1  O1  UNL     1       0.310   1.101   1.077  1.00  0.00    -0.265 OA
HETATM    2  C1  UNL     1       0.644   0.909  -0.103  1.00  0.00     0.278 C 
HETATM    3  N1  UNL     1      -0.268   1.613  -0.884  1.00  0.00    -0.215 N 
HETATM    4  O2  UNL     1      -1.146   2.291  -1.621  1.00  0.00    -0.171 OA
HETATM    5  S1  UNL     1      -2.417   2.911  -0.662  1.00  0.00     0.180 S 
HETATM    6  O3  UNL     1      -3.087   3.961  -1.526  1.00  0.00    -0.226 OA
HETATM    7  C2  UNL     1      -3.586   1.519  -0.492  1.00  0.00     0.168 C 
HETATM    8  C3  UNL     1      -2.884   0.393   0.171  1.00  0.00    -0.012 C 
HETATM    9  C4  UNL     1      -2.444  -0.568   0.918  1.00  0.00    -0.003 C 
HETATM   10  C5  UNL     1      -1.525  -1.630   1.253  1.00  0.00    -0.003 C 
HETATM   11  C6  UNL     1      -0.453  -2.116   0.672  1.00  0.00    -0.005 C 
HETATM   12  C7  UNL     1       0.570  -2.182  -0.399  1.00  0.00     0.133 C 
HETATM   13 BR1  UNL     1      -0.196  -1.640  -2.100  1.00  0.00    -0.080 Br
HETATM   14  C8  UNL     1       1.722  -1.297  -0.093  1.00  0.00     0.068 A 
HETATM   15  N2  UNL     1       2.904  -1.929   0.085  1.00  0.00    -0.262 NA
HETATM   16  C9  UNL     1       4.056  -1.309   0.387  1.00  0.00     0.136 A 
HETATM   17  C10 UNL     1       4.162   0.054   0.552  1.00  0.00     0.029 A 
HETATM   18 BR2  UNL     1       5.749   0.991   0.978  1.00  0.00    -0.050 Br
HETATM   19  C11 UNL     1       2.947   0.700   0.369  1.00  0.00     0.040 A 
HETATM   20  C12 UNL     1       1.785   0.062   0.061  1.00  0.00     0.061 A 
HETATM   21  H1  UNL     1       0.292   1.316  -1.698  1.00  0.00     0.199 HD
ENDROOT
TORSDOF 0
