REMARK  5 active torsions:
REMARK  status: ('A' for Active; 'I' for Inactive)
REMARK    1  A    between atoms: C3_3  and  C4_5 
REMARK    2  A    between atoms: C5_6  and  C6_7 
REMARK    3  A    between atoms: C6_7  and  S1_8 
REMARK    4  A    between atoms: S1_8  and  N1_11 
REMARK       I    between atoms: N1_11  and  C7_12 
REMARK    5  A    between atoms: C7_12  and  C8_14 
ROOT
HETATM    1  N1  UNL     1       1.837  -0.657   0.467  1.00  0.00    -0.250 N 
HETATM    2  C7  UNL     1       2.440   0.381  -0.320  1.00  0.00     0.266 C 
HETATM    3  O3  UNL     1       1.658   0.913  -1.147  1.00  0.00    -0.267 OA
HETATM    4  H9  UNL     1       2.348  -1.199   1.199  1.00  0.00     0.181 HD
ENDROOT
BRANCH   1   5
HETATM    5  S1  UNL     1       0.246  -1.269   0.449  1.00  0.00     0.236 S 
HETATM    6  O1  UNL     1      -0.407  -1.033   1.795  1.00  0.00    -0.205 OA
HETATM    7  O2  UNL     1       0.183  -2.742   0.183  1.00  0.00    -0.205 OA
BRANCH   5   8
HETATM    8  C6  UNL     1      -0.714  -0.409  -0.773  1.00  0.00     0.190 C 
BRANCH   8   9
HETATM    9  C5  UNL     1      -2.076  -0.988  -0.734  1.00  0.00    -0.009 C 
HETATM   10  C4  UNL     1      -3.179  -0.318  -0.464  1.00  0.00     0.015 C 
BRANCH  10  11
HETATM   11  C3  UNL     1      -4.533  -0.793  -0.404  1.00  0.00     0.006 C 
HETATM   12  C2  UNL     1      -5.578  -0.029  -0.121  1.00  0.00    -0.012 C 
HETATM   13  C1  UNL     1      -6.930  -0.641  -0.090  1.00  0.00     0.037 C 
HETATM   14 BR1  UNL     1      -4.716  -2.650  -0.770  1.00  0.00    -0.051 Br
ENDBRANCH  10  11
ENDBRANCH   8   9
ENDBRANCH   5   8
ENDBRANCH   1   5
BRANCH   2  15
HETATM   15  C8  UNL     1       3.842   0.717  -0.104  1.00  0.00     0.051 A 
HETATM   16  C9  UNL     1       4.724   0.153   0.795  1.00  0.00     0.133 A 
HETATM   17  N2  UNL     1       5.993   0.584   0.866  1.00  0.00    -0.271 NA
HETATM   18  C10 UNL     1       6.493   1.565   0.096  1.00  0.00     0.135 A 
HETATM   19  C11 UNL     1       5.623   2.136  -0.805  1.00  0.00     0.029 A 
HETATM   20 BR2  UNL     1       6.311   3.530  -1.908  1.00  0.00    -0.050 Br
HETATM   21  C12 UNL     1       4.307   1.740  -0.928  1.00  0.00     0.039 A 
ENDBRANCH   2  15
TORSDOF 5
