REMARK  3 active torsions:
REMARK  status: ('A' for Active; 'I' for Inactive)
REMARK       I    between atoms: C1_2  and  N1_3 
REMARK    1  A    between atoms: C1_2  and  C8_14 
REMARK    2  A    between atoms: N1_3  and  S1_4 
REMARK    3  A    between atoms: S1_4  and  C2_7 
ROOT
HETATM    1  O1  UNL     1      -1.310  -0.119  -2.428  1.00  0.00    -0.267 OA
HETATM    2  C1  UNL     1      -1.258  -0.452  -1.216  1.00  0.00     0.266 C 
HETATM    3  N1  UNL     1      -0.144   0.050  -0.494  1.00  0.00    -0.246 N 
HETATM    4  H1  UNL     1      -0.072  -0.208   0.511  1.00  0.00     0.182 HD
ENDROOT
BRANCH   3   5
HETATM    5  S1  UNL     1       0.937   1.036  -1.437  1.00  0.00     0.265 S 
HETATM    6  O2  UNL     1       0.151   2.198  -2.012  1.00  0.00    -0.200 OA
HETATM    7  O3  UNL     1       1.496   0.210  -2.559  1.00  0.00    -0.200 OA
BRANCH   5   8
HETATM    8  C2  UNL     1       2.250   1.582  -0.435  1.00  0.00     0.080 A 
HETATM    9  C3  UNL     1       3.414   0.869  -0.300  1.00  0.00     0.027 A 
HETATM   10  C4  UNL     1       4.417   1.371   0.519  1.00  0.00     0.025 A 
HETATM   11  C5  UNL     1       4.202   2.577   1.170  1.00  0.00     0.034 A 
HETATM   12 CL1  UNL     1       5.476   3.206   2.205  1.00  0.00    -0.084 Cl
HETATM   13  C6  UNL     1       3.022   3.301   1.034  1.00  0.00     0.025 A 
HETATM   14  C7  UNL     1       2.029   2.780   0.208  1.00  0.00     0.027 A 
ENDBRANCH   5   8
ENDBRANCH   3   5
BRANCH   2  15
HETATM   15  C8  UNL     1      -2.317  -1.300  -0.680  1.00  0.00     0.051 C 
HETATM   16  C9  UNL     1      -3.225  -1.609  -1.604  1.00  0.00     0.133 C 
HETATM   17  N2  UNL     1      -4.404  -2.424  -1.434  1.00  0.00    -0.272 NA
HETATM   18  C10 UNL     1      -4.616  -3.212  -0.426  1.00  0.00     0.117 C 
HETATM   19  C11 UNL     1      -3.726  -3.438   0.727  1.00  0.00     0.031 C 
HETATM   20  C12 UNL     1      -2.738  -2.768   1.204  1.00  0.00    -0.024 C 
HETATM   21  C13 UNL     1      -2.258  -1.684   0.716  1.00  0.00     0.030 C 
ENDBRANCH   2  15
TORSDOF 3
