REMARK  6 active torsions:
REMARK  status: ('A' for Active; 'I' for Inactive)
REMARK    1  A    between atoms: S1_2  and  N1_4 
REMARK    2  A    between atoms: S1_2  and  C7_15 
REMARK    3  A    between atoms: N1_4  and  C1_5 
REMARK    4  A    between atoms: C1_5  and  N2_6 
REMARK    5  A    between atoms: N2_6  and  C2_7 
REMARK    6  A    between atoms: C6_12  and  O3_13 
ROOT
HETATM    1  N1  UNL     1       0.529  -0.176   1.982  1.00  0.00    -0.299 N 
HETATM    2  H1  UNL     1       0.150  -0.439   2.895  1.00  0.00     0.174 HD
ENDROOT
BRANCH   1   3
HETATM    3  S1  UNL     1       1.985   0.709   1.983  1.00  0.00     0.260 S 
HETATM    4  O1  UNL     1       2.876   0.169   3.059  1.00  0.00    -0.200 OA
HETATM    5  O2  UNL     1       1.785   2.174   2.210  1.00  0.00    -0.200 OA
BRANCH   3   6
HETATM    6  C7  UNL     1       2.790   0.437   0.442  1.00  0.00     0.079 A 
HETATM    7  C8  UNL     1       3.679  -0.608   0.292  1.00  0.00     0.025 A 
HETATM    8  C9  UNL     1       4.361  -0.899  -0.886  1.00  0.00     0.002 A 
HETATM    9  C10 UNL     1       4.110  -0.071  -1.955  1.00  0.00     0.000 A 
HETATM   10  C11 UNL     1       3.229   0.985  -1.847  1.00  0.00     0.002 A 
HETATM   11  C12 UNL     1       2.567   1.250  -0.666  1.00  0.00     0.025 A 
ENDBRANCH   3   6
ENDBRANCH   1   3
BRANCH   1  12
HETATM   12  C1  UNL     1      -0.405   0.202   0.972  1.00  0.00     0.255 C 
BRANCH  12  13
HETATM   13  N2  UNL     1      -1.633  -0.601   1.031  1.00  0.00    -0.370 N 
HETATM   14  H4  UNL     1      -1.694  -1.331   1.772  1.00  0.00     0.161 HD
BRANCH  13  15
HETATM   15  C2  UNL     1      -2.694  -0.387   0.113  1.00  0.00     0.086 A 
HETATM   16  C3  UNL     1      -2.571   0.583  -0.843  1.00  0.00     0.035 A 
HETATM   17  C4  UNL     1      -3.624   0.753  -1.710  1.00  0.00     0.022 A 
HETATM   18  C5  UNL     1      -4.768  -0.014  -1.634  1.00  0.00     0.119 A 
HETATM   19  N3  UNL     1      -4.842  -0.955  -0.675  1.00  0.00    -0.233 NA
HETATM   20  C6  UNL     1      -3.838  -1.163   0.200  1.00  0.00     0.231 A 
BRANCH  20  21
HETATM   21  O3  UNL     1      -3.885  -2.129   1.201  1.00  0.00    -0.133 OA
HETATM   22  F1  UNL     1      -4.954  -2.941   1.374  1.00  0.00    -0.040 F 
ENDBRANCH  20  21
ENDBRANCH  13  15
ENDBRANCH  12  13
ENDBRANCH   1  12
TORSDOF 6
