REMARK  8 active torsions:
REMARK  status: ('A' for Active; 'I' for Inactive)
REMARK    1  A    between atoms: P1_2  and  C1_3 
REMARK    2  A    between atoms: C2_4  and  P2_5 
REMARK    3  A    between atoms: P2_5  and  C3_6 
REMARK    4  A    between atoms: C3_6  and  C4_7 
REMARK    5  A    between atoms: C4_7  and  C5_8 
REMARK    6  A    between atoms: C6_9  and  S1_10 
REMARK    7  A    between atoms: S1_10  and  N1_13 
REMARK    8  A    between atoms: N1_13  and  C7_14 
ROOT
HETATM    1  S1  UNL     1      -0.678   1.608  -0.413  1.00  0.00     0.249 S 
HETATM    2  O2  UNL     1       0.528   2.140   0.313  1.00  0.00    -0.201 OA
HETATM    3  O3  UNL     1      -1.417   2.829  -0.935  1.00  0.00    -0.201 OA
ENDROOT
BRANCH   1   4
HETATM    4  C6  UNL     1      -0.161   0.587  -1.728  1.00  0.00     0.132 C 
HETATM    5  C5  UNL     1       0.863  -0.215  -1.458  1.00  0.00     0.021 C 
BRANCH   5   6
HETATM    6  C4  UNL     1       1.605  -0.339  -0.186  1.00  0.00     0.057 C 
BRANCH   6   7
HETATM    7  C3  UNL     1       2.672   0.445  -0.145  1.00  0.00    -0.115 C 
BRANCH   7   8
HETATM    8  P2  UNL     1       4.241   0.991  -0.203  1.00  0.00     0.023 P 
BRANCH   8   9
HETATM    9  C2  UNL     1       5.545  -0.012  -1.061  1.00  0.00     0.028 C 
HETATM   10  C1  UNL     1       6.503  -0.568  -0.304  1.00  0.00     0.047 C 
BRANCH  10  11
HETATM   11  P1  UNL     1       8.002  -1.541   0.093  1.00  0.00     0.150 P 
HETATM   12  O1  UNL     1       9.329  -1.262  -0.645  1.00  0.00    -0.199 OA
ENDBRANCH  10  11
ENDBRANCH   8   9
ENDBRANCH   7   8
ENDBRANCH   6   7
ENDBRANCH   5   6
ENDBRANCH   1   4
BRANCH   1  13
HETATM   13  N1  UNL     1      -1.634   0.753   0.728  1.00  0.00    -0.306 N 
HETATM   14  H6  UNL     1      -1.668   1.187   1.652  1.00  0.00     0.173 HD
BRANCH  13  15
HETATM   15  C7  UNL     1      -2.847   0.216   0.203  1.00  0.00     0.137 A 
HETATM   16  C8  UNL     1      -3.973   0.998   0.810  1.00  0.00     0.021 A 
HETATM   17  C9  UNL     1      -5.024   0.533   1.442  1.00  0.00     0.026 A 
HETATM   18 BR1  UNL     1      -6.410   1.644   2.181  1.00  0.00    -0.050 Br
HETATM   19  C10 UNL     1      -5.086  -0.917   1.559  1.00  0.00     0.129 A 
HETATM   20  N2  UNL     1      -4.179  -1.675   1.078  1.00  0.00    -0.298 NA
HETATM   21  C11 UNL     1      -2.999  -1.256   0.373  1.00  0.00     0.178 A 
ENDBRANCH  13  15
ENDBRANCH   1  13
TORSDOF 8
