REMARK  5 active torsions:
REMARK  status: ('A' for Active; 'I' for Inactive)
REMARK    1  A    between atoms: C4_5  and  O1_6 
REMARK    2  A    between atoms: O1_6  and  C5_7 
REMARK    3  A    between atoms: C7_11  and  C9_13 
REMARK    4  A    between atoms: C9_13  and  N4_14 
REMARK    5  A    between atoms: N4_14  and  C10_15 
ROOT
HETATM    1  C5  UNL     1      -0.396  -0.992  -1.379  1.00  0.00     0.274 C 
HETATM    2  N2  UNL     1      -0.002  -2.367  -1.729  1.00  0.00    -0.251 NA
HETATM    3  C6  UNL     1       1.236  -2.537  -1.307  1.00  0.00     0.200 C 
HETATM    4  N3  UNL     1       1.735  -1.331  -0.671  1.00  0.00    -0.370 N 
HETATM    5  C7  UNL     1       0.997  -0.332  -1.395  1.00  0.00     0.088 C 
HETATM    6  C8  UNL     1       1.494  -0.398  -2.830  1.00  0.00     0.045 C 
HETATM    7  H11 UNL     1       2.415  -1.707   0.036  1.00  0.00     0.161 HD
ENDROOT
BRANCH   5   8
HETATM    8  C9  UNL     1       0.978   1.038  -0.850  1.00  0.00     0.155 C 
BRANCH   8   9
HETATM    9  N4  UNL     1       2.267   1.683  -0.852  1.00  0.00    -0.387 N 
HETATM   10  H17 UNL     1       2.346   2.390  -1.646  1.00  0.00     0.159 HD
BRANCH   9  11
HETATM   11  C10 UNL     1       3.405   1.553  -0.025  1.00  0.00     0.029 A 
HETATM   12  C11 UNL     1       3.509   0.764   1.083  1.00  0.00     0.032 A 
HETATM   13  C12 UNL     1       4.606   0.607   1.886  1.00  0.00     0.046 A 
HETATM   14  C13 UNL     1       5.746   1.336   1.531  1.00  0.00     0.138 A 
HETATM   15  F1  UNL     1       6.886   1.257   2.254  1.00  0.00    -0.204 F 
HETATM   16  C14 UNL     1       5.692   2.149   0.419  1.00  0.00     0.074 A 
HETATM   17 CL1  UNL     1       7.113   3.074  -0.043  1.00  0.00    -0.081 Cl
HETATM   18  C15 UNL     1       4.550   2.253  -0.338  1.00  0.00     0.056 A 
ENDBRANCH   9  11
ENDBRANCH   8   9
ENDBRANCH   5   8
BRANCH   1  19
HETATM   19  O1  UNL     1      -0.979  -0.975  -0.140  1.00  0.00    -0.357 OA
BRANCH  19  20
HETATM   20  C4  UNL     1      -2.226  -0.402  -0.094  1.00  0.00     0.127 C 
HETATM   21  C3  UNL     1      -2.283   0.796   0.839  1.00  0.00     0.062 C 
HETATM   22  C2  UNL     1      -3.719   1.179   1.116  1.00  0.00     0.274 C 
HETATM   23  N1  UNL     1      -4.459   0.143   1.766  1.00  0.00     0.084 N 
HETATM   24  C1  UNL     1      -5.737  -0.122   1.151  1.00  0.00     0.309 C 
HETATM   25  C17 UNL     1      -3.634  -1.056   1.804  1.00  0.00     0.274 C 
HETATM   26  C16 UNL     1      -3.250  -1.405   0.394  1.00  0.00     0.062 C 
ENDBRANCH  19  20
ENDBRANCH   1  19
TORSDOF 5
