REMARK  7 active torsions:
REMARK  status: ('A' for Active; 'I' for Inactive)
REMARK    1  A    between atoms: C4_5  and  O1_6 
REMARK    2  A    between atoms: O1_6  and  C5_7 
REMARK    3  A    between atoms: C10_12  and  C11_13 
REMARK    4  A    between atoms: C11_13  and  N2_14 
REMARK    5  A    between atoms: N2_14  and  C12_15 
REMARK    6  A    between atoms: C12_15  and  C13_16 
REMARK    7  A    between atoms: C14_17  and  C15_19 
ROOT
HETATM    1  C5  UNL     1       0.165  -2.165  -0.225  1.00  0.00     0.077 A 
HETATM    2  C6  UNL     1      -0.012  -3.127   0.786  1.00  0.00     0.037 A 
HETATM    3  C7  UNL     1       0.844  -4.223   0.960  1.00  0.00     0.003 A 
HETATM    4  C8  UNL     1       1.913  -4.351   0.085  1.00  0.00     0.001 A 
HETATM    5  C9  UNL     1       2.116  -3.432  -0.911  1.00  0.00     0.011 A 
HETATM    6  C10 UNL     1       1.241  -2.365  -1.041  1.00  0.00    -0.007 A 
ENDROOT
BRANCH   1   7
HETATM    7  O1  UNL     1      -0.813  -1.312  -0.084  1.00  0.00    -0.341 OA
BRANCH   7   8
HETATM    8  C4  UNL     1      -1.401  -0.219  -0.568  1.00  0.00     0.157 C 
HETATM    9  C3  UNL     1      -2.909  -0.443  -0.887  1.00  0.00     0.067 C 
HETATM   10  C2  UNL     1      -3.551   0.897  -0.911  1.00  0.00     0.275 C 
HETATM   11  N1  UNL     1      -4.111   1.284   0.370  1.00  0.00     0.088 N 
HETATM   12  C1  UNL     1      -4.337   2.717   0.335  1.00  0.00     0.310 C 
HETATM   13  C16 UNL     1      -3.174   1.026   1.451  1.00  0.00     0.304 C 
HETATM   14  P1  UNL     1      -1.459   1.191   0.694  1.00  0.00    -0.068 P 
HETATM   15  H21 UNL     1      -1.424   2.469   0.048  1.00  0.00     0.061 HD
ENDBRANCH   7   8
ENDBRANCH   1   7
BRANCH   6  16
HETATM   16  C11 UNL     1       1.548  -1.379  -2.080  1.00  0.00     0.156 C 
BRANCH  16  17
HETATM   17  N2  UNL     1       2.309  -0.258  -1.703  1.00  0.00    -0.414 N 
HETATM   18  H15 UNL     1       3.204  -0.085  -2.164  1.00  0.00     0.153 HD
BRANCH  17  19
HETATM   19  C12 UNL     1       1.864   0.635  -0.714  1.00  0.00     0.143 C 
BRANCH  19  20
HETATM   20  C13 UNL     1       2.912   1.699  -0.422  1.00  0.00     0.014 C 
HETATM   21  C14 UNL     1       3.452   1.865   0.774  1.00  0.00     0.038 C 
HETATM   22 CL1  UNL     1       3.123   0.963   2.232  1.00  0.00    -0.087 Cl
BRANCH  21  23
HETATM   23  C15 UNL     1       4.470   2.909   1.026  1.00  0.00     0.273 C 
HETATM   24  F1  UNL     1       4.098   3.828   1.984  1.00  0.00    -0.250 F 
ENDBRANCH  21  23
ENDBRANCH  19  20
ENDBRANCH  17  19
ENDBRANCH  16  17
ENDBRANCH   6  16
TORSDOF 7
