REMARK  3 active torsions:
REMARK  status: ('A' for Active; 'I' for Inactive)
REMARK       I    between atoms: C1_2  and  N1_3 
REMARK       I    between atoms: C1_2  and  N3_11 
REMARK    1  A    between atoms: N1_3  and  C2_4 
REMARK    2  A    between atoms: N3_11  and  S1_12 
REMARK    3  A    between atoms: S1_12  and  C7_15 
ROOT
HETATM    1  O1  UNL     1      -1.261   0.571  -1.318  1.00  0.00    -0.246 OA
HETATM    2  C1  UNL     1      -0.985   0.022  -0.217  1.00  0.00     0.334 C 
HETATM    3  N1  UNL     1      -2.132  -0.465   0.509  1.00  0.00    -0.305 N 
HETATM    4  N3  UNL     1       0.314  -0.154   0.356  1.00  0.00    -0.232 N 
HETATM    5  H1  UNL     1      -2.056  -0.947   1.446  1.00  0.00     0.171 HD
HETATM    6  H5  UNL     1       0.387  -0.630   1.282  1.00  0.00     0.183 HD
ENDROOT
BRANCH   4   7
HETATM    7  S1  UNL     1       1.556   0.501  -0.674  1.00  0.00     0.266 S 
HETATM    8  O2  UNL     1       1.273   1.994  -0.734  1.00  0.00    -0.200 OA
HETATM    9  O3  UNL     1       1.486  -0.119  -2.042  1.00  0.00    -0.200 OA
BRANCH   7  10
HETATM   10  C7  UNL     1       3.130   0.272   0.049  1.00  0.00     0.080 A 
HETATM   11  C8  UNL     1       3.645   1.254   0.891  1.00  0.00     0.027 A 
HETATM   12  C9  UNL     1       4.909   1.035   1.451  1.00  0.00     0.025 A 
HETATM   13  C10 UNL     1       5.586  -0.130   1.150  1.00  0.00     0.034 A 
HETATM   14 CL2  UNL     1       7.173  -0.349   1.885  1.00  0.00    -0.084 Cl
HETATM   15  C11 UNL     1       5.080  -1.112   0.313  1.00  0.00     0.025 A 
HETATM   16  C12 UNL     1       3.817  -0.897  -0.248  1.00  0.00     0.027 A 
ENDBRANCH   7  10
ENDBRANCH   4   7
BRANCH   3  17
HETATM   17  C2  UNL     1      -3.488  -0.374   0.089  1.00  0.00     0.077 A 
HETATM   18  C3  UNL     1      -4.284   0.725   0.423  1.00  0.00     0.034 A 
HETATM   19  C4  UNL     1      -5.603   0.878   0.051  1.00  0.00     0.022 A 
HETATM   20  C5  UNL     1      -6.130  -0.159  -0.706  1.00  0.00     0.118 A 
HETATM   21  N2  UNL     1      -5.408  -1.251  -1.062  1.00  0.00    -0.246 NA
HETATM   22  C6  UNL     1      -4.121  -1.351  -0.672  1.00  0.00     0.152 A 
HETATM   23 CL1  UNL     1      -3.176  -2.756  -1.123  1.00  0.00    -0.060 Cl
ENDBRANCH   3  17
TORSDOF 3
