REMARK  12 active torsions:
REMARK  status: ('A' for Active; 'I' for Inactive)
REMARK    1  A    between atoms: O1_2  and  C2_3 
REMARK    2  A    between atoms: C2_3  and  C3_5 
REMARK    3  A    between atoms: C3_5  and  C4_6 
REMARK    4  A    between atoms: C4_6  and  C5_7 
REMARK    5  A    between atoms: C5_7  and  C6_8 
REMARK    6  A    between atoms: C6_8  and  N1_9 
REMARK    7  A    between atoms: N1_9  and  C7_10 
REMARK    8  A    between atoms: C7_10  and  C8_11 
REMARK    9  A    between atoms: C8_11  and  C9_12 
REMARK   10  A    between atoms: C9_12  and  C10_13 
REMARK   11  A    between atoms: C10_13  and  C11_14 
REMARK   12  A    between atoms: C11_14  and  O4_16 
ROOT
HETATM    1  C7  UNL     1       0.576  -0.040  -0.129  1.00  0.00     0.260 A 
HETATM    2  N2  UNL     1       1.101   0.167   1.187  1.00  0.00    -0.351 N 
HETATM    3  C13 UNL     1       1.504  -1.210   1.334  1.00  0.00     0.041 A 
HETATM    4  C14 UNL     1       2.078  -2.208   2.093  1.00  0.00     0.030 A 
HETATM    5  C15 UNL     1       2.161  -3.474   1.510  1.00  0.00     0.002 A 
HETATM    6  C16 UNL     1       1.680  -3.682   0.227  1.00  0.00     0.001 A 
HETATM    7  C17 UNL     1       1.107  -2.686  -0.530  1.00  0.00     0.014 A 
HETATM    8  C18 UNL     1       1.034  -1.445   0.062  1.00  0.00     0.027 A 
HETATM    9  H22 UNL     1       1.136   1.058   1.766  1.00  0.00     0.162 HD
ENDROOT
BRANCH   1  10
HETATM   10  N1  UNL     1      -0.878   0.065  -0.069  1.00  0.00     0.117 N 
HETATM   11  H12 UNL     1      -1.346  -0.083  -0.974  1.00  0.00     0.319 HD
BRANCH  10  12
HETATM   12  C6  UNL     1      -1.435  -0.585   1.066  1.00  0.00     0.273 C 
BRANCH  12  13
HETATM   13  C5  UNL     1      -2.956  -0.393   0.997  1.00  0.00     0.030 C 
BRANCH  13  14
HETATM   14  C4  UNL     1      -3.298   1.065   1.016  1.00  0.00     0.012 C 
BRANCH  14  15
HETATM   15  C3  UNL     1      -4.772   1.319   0.950  1.00  0.00     0.111 C 
BRANCH  15  16
HETATM   16  C2  UNL     1      -5.311   0.750  -0.292  1.00  0.00     0.258 C 
HETATM   17  O2  UNL     1      -4.959   0.121  -1.322  1.00  0.00    -0.265 OA
BRANCH  16  18
HETATM   18  O1  UNL     1      -6.676   0.956  -0.410  1.00  0.00    -0.326 OA
HETATM   19  C1  UNL     1      -7.441   0.500  -1.526  1.00  0.00     0.213 C 
ENDBRANCH  16  18
ENDBRANCH  15  16
ENDBRANCH  14  15
ENDBRANCH  13  14
ENDBRANCH  12  13
ENDBRANCH  10  12
ENDBRANCH   1  10
BRANCH   1  20
HETATM   20  C8  UNL     1       1.198   0.624  -1.295  1.00  0.00     0.070 C 
BRANCH  20  21
HETATM   21  C9  UNL     1       2.670   0.581  -1.440  1.00  0.00     0.014 C 
BRANCH  21  22
HETATM   22  C10 UNL     1       3.415   1.242  -0.345  1.00  0.00     0.111 C 
BRANCH  22  23
HETATM   23  C11 UNL     1       4.911   1.168  -0.559  1.00  0.00     0.258 C 
HETATM   24  O3  UNL     1       5.812   0.739  -1.348  1.00  0.00    -0.265 OA
BRANCH  23  25
HETATM   25  O4  UNL     1       5.665   1.777   0.446  1.00  0.00    -0.326 OA
HETATM   26  C12 UNL     1       7.062   1.829   0.454  1.00  0.00     0.213 C 
ENDBRANCH  23  25
ENDBRANCH  22  23
ENDBRANCH  21  22
ENDBRANCH  20  21
ENDBRANCH   1  20
TORSDOF 12
