REMARK  4 active torsions:
REMARK  status: ('A' for Active; 'I' for Inactive)
REMARK       I    between atoms: C1_2  and  N1_3 
REMARK    1  A    between atoms: C1_2  and  C8_14 
REMARK    2  A    between atoms: N1_3  and  S1_4 
REMARK    3  A    between atoms: S1_4  and  P1_6 
REMARK    4  A    between atoms: S1_4  and  C2_7 
ROOT
HETATM    1  O1  UNL     1       0.795  -1.048  -1.769  1.00  0.00    -0.267 OA
HETATM    2  C1  UNL     1       1.243  -0.736  -0.626  1.00  0.00     0.264 C 
HETATM    3  N1  UNL     1       0.393  -0.975   0.490  1.00  0.00    -0.275 N 
HETATM    4  H1  UNL     1       0.675  -0.754   1.448  1.00  0.00     0.179 HD
ENDROOT
BRANCH   3   5
HETATM    5  S1  UNL     1      -1.167  -1.664   0.200  1.00  0.00     0.083 S 
HETATM    6  O2  UNL     1      -1.141  -2.597  -0.976  1.00  0.00    -0.240 OA
BRANCH   5   7
HETATM    7  P1  UNL     1      -1.661  -2.688   1.755  1.00  0.00     0.022 P 
HETATM    8  H2  UNL     1      -2.182  -4.036   1.615  1.00  0.00     0.078 HD
ENDBRANCH   5   7
BRANCH   5   9
HETATM    9  C2  UNL     1      -2.302  -0.352  -0.055  1.00  0.00     0.043 A 
HETATM   10  C3  UNL     1      -2.609   0.225  -1.270  1.00  0.00     0.025 A 
HETATM   11  C4  UNL     1      -3.527   1.257  -1.329  1.00  0.00     0.044 A 
HETATM   12  C5  UNL     1      -4.162   1.745  -0.198  1.00  0.00     0.116 A 
HETATM   13  F1  UNL     1      -5.059   2.756  -0.265  1.00  0.00    -0.206 F 
HETATM   14  C6  UNL     1      -3.833   1.150   0.986  1.00  0.00     0.044 A 
HETATM   15  C7  UNL     1      -2.926   0.117   1.107  1.00  0.00     0.025 A 
ENDBRANCH   5   9
ENDBRANCH   3   5
BRANCH   2  16
HETATM   16  C8  UNL     1       2.573  -0.158  -0.461  1.00  0.00     0.050 A 
HETATM   17  C9  UNL     1       3.142   0.213   0.759  1.00  0.00     0.022 A 
HETATM   18  C10 UNL     1       4.409   0.752   0.814  1.00  0.00     0.045 A 
HETATM   19  C11 UNL     1       5.153   0.942  -0.340  1.00  0.00     0.125 A 
HETATM   20 CL1  UNL     1       6.772   1.633  -0.259  1.00  0.00    -0.062 Cl
HETATM   21  N2  UNL     1       4.582   0.577  -1.504  1.00  0.00    -0.248 NA
HETATM   22  C12 UNL     1       3.347   0.048  -1.582  1.00  0.00     0.135 A 
ENDBRANCH   2  16
TORSDOF 4
