REMARK  6 active torsions:
REMARK  status: ('A' for Active; 'I' for Inactive)
REMARK    1  A    between atoms: C3_3  and  C4_4 
REMARK    2  A    between atoms: C4_4  and  C5_5 
REMARK    3  A    between atoms: C14_17  and  C15_18 
REMARK    4  A    between atoms: C15_18  and  C16_19 
REMARK    5  A    between atoms: C16_19  and  C17_20 
REMARK    6  A    between atoms: C17_20  and  O2_22 
ROOT
HETATM    1  C1  UNL     1       6.869   2.159  -1.692  1.00  0.00     0.096 C 
HETATM    2  C2  UNL     1       5.646   1.832  -2.064  1.00  0.00    -0.155 C 
HETATM    3  C3  UNL     1       4.414   1.616  -2.484  1.00  0.00     0.052 C 
ENDROOT
BRANCH   3   4
HETATM    4  C4  UNL     1       3.434   1.758  -1.443  1.00  0.00     0.033 C 
BRANCH   4   5
HETATM    5  C5  UNL     1       2.954   0.925  -0.565  1.00  0.00     0.013 A 
HETATM    6  C6  UNL     1       1.941   1.267   0.430  1.00  0.00     0.082 A 
HETATM    7  C7  UNL     1       1.714   0.041   1.190  1.00  0.00    -0.072 A 
HETATM    8  C8  UNL     1       2.498  -0.941   0.712  1.00  0.00     0.063 A 
HETATM    9  B1  UNL     1       0.722  -0.109   2.380  1.00  0.00     0.313 B 
HETATM   10  N1  UNL     1       3.265  -0.422  -0.363  1.00  0.00    -0.354 N 
HETATM   11  S1  UNL     1       2.452  -2.590   1.449  1.00  0.00    -0.093 SA
HETATM   12  H7  UNL     1       3.971  -0.977  -0.928  1.00  0.00     0.166 HD
HETATM   13  C9  UNL     1       0.803  -3.314   1.223  1.00  0.00     0.200 C 
HETATM   14  N2  UNL     1       0.549  -3.609  -0.184  1.00  0.00    -0.390 N 
HETATM   15  C10 UNL     1      -0.853  -4.010  -0.085  1.00  0.00     0.083 C 
HETATM   16  H10 UNL     1       0.364  -3.819  -1.183  1.00  0.00     0.159 HD
HETATM   17  C11 UNL     1      -1.828  -3.103   0.149  1.00  0.00     0.016 C 
HETATM   18  C12 UNL     1      -2.982  -2.208   0.401  1.00  0.00    -0.000 C 
HETATM   19  C13 UNL     1      -3.521  -1.016   0.622  1.00  0.00     0.005 C 
HETATM   20  C14 UNL     1      -2.708   0.222   0.690  1.00  0.00     0.154 C 
HETATM   21  O3  UNL     1      -1.411  -0.104   1.071  1.00  0.00    -0.322 OA
HETATM   22  C18 UNL     1      -0.737   0.418   2.154  1.00  0.00     0.202 C 
HETATM   23  O4  UNL     1      -1.407   1.266   2.824  1.00  0.00    -0.281 OA
HETATM   24  H21 UNL     1       1.201   0.288   3.413  1.00  0.00    -0.010 HD
BRANCH  20  25
HETATM   25  C15 UNL     1      -2.692   0.938  -0.651  1.00  0.00     0.047 C 
BRANCH  25  26
HETATM   26  C16 UNL     1      -4.062   1.342  -1.121  1.00  0.00     0.112 C 
BRANCH  26  27
HETATM   27  C17 UNL     1      -4.729   2.265  -0.171  1.00  0.00     0.139 C 
HETATM   28  O1  UNL     1      -5.272   1.957   0.903  1.00  0.00    -0.650 OA
BRANCH  27  29
HETATM   29  O2  UNL     1      -4.794   3.644  -0.447  1.00  0.00    -0.776 OA
HETATM   30  H20 UNL     1      -4.855   4.327   0.291  1.00  0.00     0.167 HD
ENDBRANCH  27  29
ENDBRANCH  26  27
ENDBRANCH  25  26
ENDBRANCH  20  25
ENDBRANCH   4   5
ENDBRANCH   3   4
TORSDOF 6
