REMARK  10 active torsions:
REMARK  status: ('A' for Active; 'I' for Inactive)
REMARK    1  A    between atoms: O1_2  and  C2_3 
REMARK    2  A    between atoms: C2_3  and  C3_5 
REMARK    3  A    between atoms: C3_5  and  C4_6 
REMARK    4  A    between atoms: C4_6  and  C5_7 
REMARK    5  A    between atoms: C6_8  and  S1_9 
REMARK    6  A    between atoms: S1_9  and  C7_10 
REMARK    7  A    between atoms: C7_10  and  C8_11 
REMARK    8  A    between atoms: C8_11  and  C10_13 
REMARK    9  A    between atoms: C10_13  and  C11_14 
REMARK   10  A    between atoms: C11_14  and  O4_16 
ROOT
HETATM    1  C5  UNL     1      -2.403  -0.647  -1.381  1.00  0.00    -0.030 A 
HETATM    2  C6  UNL     1      -1.117  -0.404  -1.128  1.00  0.00     0.002 A 
HETATM    3  C13 UNL     1      -0.875  -1.813  -0.908  1.00  0.00    -0.009 A 
HETATM    4  C14 UNL     1       0.087  -2.751  -0.586  1.00  0.00     0.013 A 
HETATM    5  C15 UNL     1      -0.356  -4.063  -0.527  1.00  0.00     0.001 A 
HETATM    6  C16 UNL     1      -1.689  -4.385  -0.781  1.00  0.00     0.001 A 
HETATM    7  C17 UNL     1      -2.605  -3.392  -1.099  1.00  0.00     0.013 A 
HETATM    8  C18 UNL     1      -2.205  -2.071  -1.169  1.00  0.00    -0.017 A 
ENDROOT
BRANCH   2   9
HETATM    9  S1  UNL     1      -0.346   1.197  -1.154  1.00  0.00    -0.203 SA
BRANCH   9  10
HETATM   10  C7  UNL     1       1.393   1.006  -0.792  1.00  0.00     0.177 C 
BRANCH  10  11
HETATM   11  C8  UNL     1       2.722   1.005  -0.756  1.00  0.00    -0.012 C 
HETATM   12  C9  UNL     1       3.845   1.539  -1.612  1.00  0.00     0.018 C 
BRANCH  11  13
HETATM   13  C10 UNL     1       3.398   0.328   0.382  1.00  0.00     0.122 C 
BRANCH  13  14
HETATM   14  C11 UNL     1       4.259   1.258   1.175  1.00  0.00     0.259 C 
HETATM   15  O3  UNL     1       3.751   2.045   2.021  1.00  0.00    -0.265 OA
BRANCH  14  16
HETATM   16  O4  UNL     1       5.656   1.325   1.042  1.00  0.00    -0.326 OA
HETATM   17  C12 UNL     1       6.450   2.202   1.792  1.00  0.00     0.213 C 
ENDBRANCH  14  16
ENDBRANCH  13  14
ENDBRANCH  11  13
ENDBRANCH  10  11
ENDBRANCH   9  10
ENDBRANCH   2   9
BRANCH   1  18
HETATM   18  C4  UNL     1      -3.612   0.104  -1.738  1.00  0.00     0.050 C 
BRANCH  18  19
HETATM   19  C3  UNL     1      -4.694  -0.089  -0.695  1.00  0.00     0.116 C 
BRANCH  19  20
HETATM   20  C2  UNL     1      -4.257   0.373   0.640  1.00  0.00     0.258 C 
HETATM   21  O2  UNL     1      -3.428  -0.374   1.232  1.00  0.00    -0.265 OA
BRANCH  20  22
HETATM   22  O1  UNL     1      -4.785   1.562   1.118  1.00  0.00    -0.326 OA
HETATM   23  C1  UNL     1      -4.391   2.023   2.378  1.00  0.00     0.213 C 
ENDBRANCH  20  22
ENDBRANCH  19  20
ENDBRANCH  18  19
ENDBRANCH   1  18
TORSDOF 10
