REMARK  2 active torsions:
REMARK  status: ('A' for Active; 'I' for Inactive)
REMARK       I    between atoms: N1_1  and  C1_2 
REMARK    1  A    between atoms: C1_2  and  C2_4 
REMARK    2  A    between atoms: C8_13  and  N3_14 
ROOT
HETATM    1  C2  UNL     1       2.592  -0.486  -0.450  1.00  0.00     0.009 C 
HETATM    2  C3  UNL     1       2.335   0.805  -0.314  1.00  0.00     0.014 C 
HETATM    3  C4  UNL     1       1.187   1.461   0.303  1.00  0.00     0.027 C 
HETATM    4  C5  UNL     1       0.130   0.961   0.926  1.00  0.00     0.031 C 
HETATM    5  N2  UNL     1      -0.806   1.878   1.410  1.00  0.00    -0.288 N 
HETATM    6  C6  UNL     1      -0.908   2.527   2.481  1.00  0.00     0.172 A 
HETATM    7  S1  UNL     1      -2.296   2.894   1.372  1.00  0.00    -0.009 SA
HETATM    8  S2  UNL     1      -3.768   1.333   1.434  1.00  0.00    -0.015 SA
HETATM    9  C7  UNL     1      -3.294   0.063   0.218  1.00  0.00     0.144 C 
HETATM   10  C8  UNL     1      -3.584  -0.046  -1.069  1.00  0.00     0.067 C 
HETATM   11  C9  UNL     1      -2.360  -0.444  -1.810  1.00  0.00     0.031 C 
HETATM   12  C10 UNL     1      -1.210  -0.625  -1.129  1.00  0.00     0.008 C 
HETATM   13  C11 UNL     1      -1.150  -1.103   0.267  1.00  0.00     0.162 C 
HETATM   14  O2  UNL     1      -2.475  -0.930   0.841  1.00  0.00    -0.331 OA
HETATM   15  C12 UNL     1      -0.116  -0.493   1.134  1.00  0.00     0.070 C 
HETATM   16  C13 UNL     1       1.140  -1.304   1.261  1.00  0.00     0.018 C 
HETATM   17  C14 UNL     1       1.800  -1.684  -0.018  1.00  0.00     0.045 C 
ENDROOT
BRANCH   1  18
HETATM   18  C1  UNL     1       3.835  -0.850  -1.120  1.00  0.00     0.245 C 
HETATM   19  N1  UNL     1       4.697   0.209  -1.587  1.00  0.00    -0.366 N 
HETATM   20  H1  UNL     1       5.139   0.598  -2.430  1.00  0.00     0.159 HD
HETATM   21  H2  UNL     1       5.085   0.915  -0.904  1.00  0.00     0.159 HD
HETATM   22  O1  UNL     1       4.211  -2.038  -1.320  1.00  0.00    -0.268 OA
ENDBRANCH   1  18
BRANCH  10  23
HETATM   23  N3  UNL     1      -4.920   0.263  -1.310  1.00  0.00    -0.396 N 
HETATM   24  H6  UNL     1      -5.341   1.210  -1.434  1.00  0.00     0.156 HD
HETATM   25  H7  UNL     1      -5.765  -0.366  -1.416  1.00  0.00     0.156 HD
ENDBRANCH  10  23
TORSDOF 2
