REMARK  7 active torsions:
REMARK  status: ('A' for Active; 'I' for Inactive)
REMARK    1  A    between atoms: C2_2  and  C3_4 
REMARK    2  A    between atoms: C4_6  and  C5_7 
REMARK    3  A    between atoms: C5_7  and  N1_8 
REMARK    4  A    between atoms: N1_8  and  C6_9 
REMARK    5  A    between atoms: C11_16  and  O1_17 
REMARK    6  A    between atoms: C13_19  and  O2_20 
REMARK    7  A    between atoms: O2_20  and  C14_21 
ROOT
HETATM    1  C6  UNL     1       2.153  -1.498  -0.162  1.00  0.00     0.165 A 
HETATM    2  N2  UNL     1       3.483  -1.645  -0.060  1.00  0.00    -0.222 NA
HETATM    3  C7  UNL     1       4.003  -2.591   0.775  1.00  0.00     0.236 A 
HETATM    4  N3  UNL     1       3.157  -3.347   1.471  1.00  0.00    -0.241 NA
HETATM    5  C8  UNL     1       1.820  -3.231   1.397  1.00  0.00     0.075 A 
HETATM    6  C9  UNL     1       0.923  -4.002   2.103  1.00  0.00     0.035 A 
HETATM    7  C10 UNL     1      -0.448  -3.783   1.934  1.00  0.00     0.042 A 
HETATM    8  C11 UNL     1      -0.920  -2.796   1.061  1.00  0.00     0.102 A 
HETATM    9  C13 UNL     1      -0.034  -1.990   0.325  1.00  0.00     0.119 A 
HETATM   10  C20 UNL     1       1.287  -2.282   0.560  1.00  0.00     0.077 A 
ENDROOT
BRANCH   1  11
HETATM   11  N1  UNL     1       1.774  -0.478  -1.072  1.00  0.00    -0.244 NA
BRANCH  11  12
HETATM   12  C5  UNL     1       2.402   0.677  -1.072  1.00  0.00     0.104 C 
BRANCH  12  13
HETATM   13  C4  UNL     1       3.273   1.804  -0.821  1.00  0.00     0.105 C 
HETATM   14  C3  UNL     1       4.222   2.475  -0.251  1.00  0.00     0.121 C 
HETATM   15  F1  UNL     1       5.198   2.559   0.659  1.00  0.00    -0.208 F 
BRANCH  14  16
HETATM   16  C2  UNL     1       4.047   3.668  -1.058  1.00  0.00     0.044 A 
HETATM   17  C1  UNL     1       4.633   4.844  -1.112  1.00  0.00     0.155 A 
HETATM   18 CL1  UNL     1       3.359   4.692  -2.275  1.00  0.00    -0.179 Cl
ENDBRANCH  14  16
ENDBRANCH  12  13
ENDBRANCH  11  12
ENDBRANCH   1  11
BRANCH   9  19
HETATM   19  O2  UNL     1      -0.666  -1.086  -0.468  1.00  0.00    -0.342 OA
BRANCH  19  20
HETATM   20  C14 UNL     1      -1.044   0.222  -0.229  1.00  0.00     0.132 C 
HETATM   21  C15 UNL     1      -1.022   1.113  -1.417  1.00  0.00     0.062 C 
HETATM   22  C16 UNL     1      -2.414   1.391  -1.978  1.00  0.00     0.274 C 
HETATM   23  N4  UNL     1      -3.144   2.186  -1.017  1.00  0.00     0.084 N 
HETATM   24  C17 UNL     1      -4.580   2.065  -1.202  1.00  0.00     0.309 C 
HETATM   25  C18 UNL     1      -2.768   1.836   0.330  1.00  0.00     0.274 C 
HETATM   26  C19 UNL     1      -2.457   0.331   0.352  1.00  0.00     0.062 C 
ENDBRANCH  19  20
ENDBRANCH   9  19
BRANCH   8  27
HETATM   27  O1  UNL     1      -2.298  -2.681   0.980  1.00  0.00    -0.353 OA
HETATM   28  C12 UNL     1      -3.097  -3.539   1.759  1.00  0.00     0.210 C 
ENDBRANCH   8  27
TORSDOF 7
