REMARK  4 active torsions:
REMARK  status: ('A' for Active; 'I' for Inactive)
REMARK    1  A    between atoms: C2_3  and  C3_4 
REMARK    2  A    between atoms: S1_9  and  S2_10 
REMARK    3  A    between atoms: S2_10  and  C8_11 
REMARK    4  A    between atoms: C9_12  and  C10_13 
ROOT
HETATM    1  N1  UNL     1      -4.143  -4.340   0.131  1.00  0.00    -0.197 NA
HETATM    2  C1  UNL     1      -4.442  -3.350  -0.404  1.00  0.00     0.063 C 
HETATM    3  C2  UNL     1      -4.839  -2.126  -1.073  1.00  0.00     0.159 C 
ENDROOT
BRANCH   3   4
HETATM    4  C3  UNL     1      -3.888  -1.014  -0.993  1.00  0.00    -0.039 C 
HETATM    5  C4  UNL     1      -4.294   0.133  -0.387  1.00  0.00     0.005 C 
HETATM    6  C5  UNL     1      -3.676   1.458  -0.076  1.00  0.00     0.001 C 
HETATM    7  C6  UNL     1      -2.564   2.212  -0.143  1.00  0.00     0.007 C 
HETATM    8  C7  UNL     1      -1.162   2.068  -0.629  1.00  0.00     0.047 C 
HETATM    9  S1  UNL     1      -0.681   0.604  -1.043  1.00  0.00    -0.102 SA
HETATM   10  C18 UNL     1      -1.412  -0.785   0.019  1.00  0.00     0.349 C 
HETATM   11  N3  UNL     1      -1.613  -1.904  -0.971  1.00  0.00     0.096 N 
HETATM   12  C19 UNL     1      -2.633  -1.178  -1.829  1.00  0.00     0.305 C 
HETATM   13  H15 UNL     1      -2.149  -2.596  -0.466  1.00  0.00     0.317 HD
BRANCH   9  14
HETATM   14  S2  UNL     1       1.271   0.306  -1.810  1.00  0.00    -0.061 SA
BRANCH  14  15
HETATM   15  C8  UNL     1       2.412   0.530  -0.467  1.00  0.00     0.030 A 
HETATM   16  C9  UNL     1       2.477   0.810   0.822  1.00  0.00    -0.016 A 
HETATM   17  C12 UNL     1       3.929   0.743   0.930  1.00  0.00    -0.016 A 
HETATM   18  C13 UNL     1       5.173   0.800   1.546  1.00  0.00     0.013 A 
HETATM   19  C17 UNL     1       3.886   0.446  -0.432  1.00  0.00    -0.007 A 
HETATM   20  C14 UNL     1       6.372   0.583   0.900  1.00  0.00     0.001 A 
HETATM   21  C15 UNL     1       6.314   0.288  -0.457  1.00  0.00     0.001 A 
HETATM   22  C16 UNL     1       5.088   0.227  -1.086  1.00  0.00     0.013 A 
BRANCH  16  23
HETATM   23  C10 UNL     1       1.554   1.119   1.960  1.00  0.00     0.164 C 
HETATM   24  C11 UNL     1       1.718   0.120   3.020  1.00  0.00     0.063 C 
HETATM   25  N2  UNL     1       1.848  -0.669   3.833  1.00  0.00    -0.197 NA
ENDBRANCH  16  23
ENDBRANCH  14  15
ENDBRANCH   9  14
ENDBRANCH   3   4
TORSDOF 4
