REMARK  5 active torsions:
REMARK  status: ('A' for Active; 'I' for Inactive)
REMARK    1  A    between atoms: B1_3  and  C2_4 
REMARK    2  A    between atoms: C3_5  and  S1_6 
REMARK    3  A    between atoms: S1_6  and  S2_7 
REMARK    4  A    between atoms: S2_7  and  C4_8 
REMARK    5  A    between atoms: C4_8  and  N2_9 
ROOT
HETATM    1  N1  UNL     1      -5.246  -3.796  -1.057  1.00  0.00    -0.214 NA
HETATM    2  C1  UNL     1      -4.264  -3.458  -0.531  1.00  0.00    -0.009 C 
HETATM    3  B1  UNL     1      -2.957  -2.998   0.151  1.00  0.00     0.322 B 
HETATM    4  H1  UNL     1      -2.444  -3.763   0.917  1.00  0.00    -0.003 HD
ENDROOT
BRANCH   3   5
HETATM    5  C2  UNL     1      -2.683  -1.453   0.287  1.00  0.00    -0.054 A 
HETATM    6  C3  UNL     1      -1.670  -0.735   0.744  1.00  0.00     0.020 A 
HETATM    7  C10 UNL     1      -2.354   0.519   0.454  1.00  0.00    -0.009 A 
HETATM    8  C11 UNL     1      -2.501   1.889   0.403  1.00  0.00     0.013 A 
HETATM    9  C15 UNL     1      -3.428  -0.235  -0.030  1.00  0.00    -0.027 A 
HETATM   10  C12 UNL     1      -3.619   2.539  -0.086  1.00  0.00     0.001 A 
HETATM   11  C13 UNL     1      -4.667   1.781  -0.559  1.00  0.00     0.001 A 
HETATM   12  C14 UNL     1      -4.552   0.407  -0.522  1.00  0.00     0.012 A 
BRANCH   6  13
HETATM   13  S1  UNL     1      -0.041  -1.020   1.466  1.00  0.00    -0.056 SA
BRANCH  13  14
HETATM   14  S2  UNL     1       0.849   0.847   1.934  1.00  0.00    -0.072 SA
BRANCH  14  15
HETATM   15  C4  UNL     1       1.790   1.427   0.526  1.00  0.00     0.209 C 
BRANCH  15  16
HETATM   16  N2  UNL     1       2.918   0.546   0.325  1.00  0.00    -0.377 N 
HETATM   17  C5  UNL     1       2.787  -0.821  -0.039  1.00  0.00     0.086 A 
HETATM   18  C6  UNL     1       3.759  -1.686  -0.227  1.00  0.00     0.017 A 
HETATM   19  C7  UNL     1       5.131  -1.243  -0.058  1.00  0.00    -0.001 A 
HETATM   20  C8  UNL     1       5.252   0.016   0.275  1.00  0.00    -0.007 A 
HETATM   21  C9  UNL     1       4.259   1.083   0.513  1.00  0.00     0.150 A 
ENDBRANCH  15  16
ENDBRANCH  14  15
ENDBRANCH  13  14
ENDBRANCH   6  13
ENDBRANCH   3   5
TORSDOF 5
