REMARK  9 active torsions:
REMARK  status: ('A' for Active; 'I' for Inactive)
REMARK    1  A    between atoms: O1_2  and  C2_3 
REMARK    2  A    between atoms: C2_3  and  C3_5 
REMARK    3  A    between atoms: C3_5  and  C12_16 
REMARK    4  A    between atoms: C4_6  and  S1_7 
REMARK    5  A    between atoms: S1_7  and  C5_8 
REMARK    6  A    between atoms: C12_16  and  C13_17 
REMARK    7  A    between atoms: C13_17  and  C14_18 
REMARK       I    between atoms: C14_18  and  N2_20 
REMARK    8  A    between atoms: N2_20  and  C15_21 
REMARK    9  A    between atoms: C15_21  and  C16_22 
ROOT
HETATM    1  C3  UNL     1       1.104  -0.769   0.336  1.00  0.00     0.024 C 
HETATM    2  C4  UNL     1       1.809  -0.928  -0.769  1.00  0.00     0.060 C 
ENDROOT
BRANCH   1   3
HETATM    3  C2  UNL     1       1.225  -1.629   1.504  1.00  0.00     0.289 C 
HETATM    4  O2  UNL     1       0.748  -1.754   2.631  1.00  0.00    -0.260 OA
BRANCH   3   5
HETATM    5  O1  UNL     1       2.147  -2.664   1.404  1.00  0.00    -0.323 OA
HETATM    6  C1  UNL     1       2.337  -3.554   2.482  1.00  0.00     0.213 C 
ENDBRANCH   3   5
ENDBRANCH   1   3
BRANCH   1   7
HETATM    7  C12 UNL     1       0.104   0.351   0.423  1.00  0.00     0.054 C 
BRANCH   7   8
HETATM    8  C13 UNL     1      -1.244  -0.285   0.681  1.00  0.00     0.107 C 
BRANCH   8   9
HETATM    9  C14 UNL     1      -2.349   0.703   0.779  1.00  0.00     0.218 C 
HETATM   10  O3  UNL     1      -2.266   1.933   0.629  1.00  0.00    -0.274 OA
HETATM   11  N2  UNL     1      -3.583   0.039   1.084  1.00  0.00    -0.357 N 
HETATM   12  H15 UNL     1      -3.712  -0.997   1.224  1.00  0.00     0.162 HD
BRANCH  11  13
HETATM   13  C15 UNL     1      -4.825   0.801   1.228  1.00  0.00     0.161 C 
BRANCH  13  14
HETATM   14  C16 UNL     1      -5.408   1.193  -0.060  1.00  0.00    -0.041 A 
HETATM   15  C17 UNL     1      -5.237   2.328  -0.821  1.00  0.00     0.009 A 
HETATM   16  C18 UNL     1      -5.883   2.494  -2.023  1.00  0.00     0.001 A 
HETATM   17  C19 UNL     1      -6.743   1.526  -2.534  1.00  0.00     0.000 A 
HETATM   18  C20 UNL     1      -6.938   0.371  -1.793  1.00  0.00     0.001 A 
HETATM   19  C21 UNL     1      -6.275   0.245  -0.601  1.00  0.00     0.009 A 
ENDBRANCH  13  14
ENDBRANCH  11  13
ENDBRANCH   8   9
ENDBRANCH   7   8
ENDBRANCH   1   7
BRANCH   2  20
HETATM   20  S1  UNL     1       3.015  -2.193  -1.043  1.00  0.00    -0.111 SA
BRANCH  20  21
HETATM   21  C5  UNL     1       4.698  -1.735  -0.688  1.00  0.00     0.184 A 
HETATM   22  N1  UNL     1       5.050  -1.458   0.675  1.00  0.00    -0.372 N 
HETATM   23  C6  UNL     1       5.419  -0.113   0.406  1.00  0.00     0.038 A 
HETATM   24  H6  UNL     1       5.013  -2.095   1.508  1.00  0.00     0.161 HD
HETATM   25  C7  UNL     1       5.888   1.096   0.878  1.00  0.00     0.030 A 
HETATM   26  C11 UNL     1       5.094  -0.332  -0.919  1.00  0.00     0.001 A 
HETATM   27  C8  UNL     1       6.032   2.131  -0.049  1.00  0.00     0.002 A 
HETATM   28  C9  UNL     1       5.711   1.929  -1.382  1.00  0.00     0.001 A 
HETATM   29  C10 UNL     1       5.248   0.709  -1.808  1.00  0.00     0.012 A 
ENDBRANCH  20  21
ENDBRANCH   2  20
TORSDOF 9
