REMARK  1 active torsions:
REMARK  status: ('A' for Active; 'I' for Inactive)
REMARK       I    between atoms: N1_1  and  C1_2 
REMARK    1  A    between atoms: C1_2  and  C2_4 
ROOT
HETATM    1  C2  UNL     1       3.288  -0.057   0.065  1.00  0.00     0.013 C 
HETATM    2  C3  UNL     1       3.030   1.256   0.274  1.00  0.00     0.013 C 
HETATM    3  C4  UNL     1       1.785   2.056   0.436  1.00  0.00    -0.001 C 
HETATM    4  C5  UNL     1       0.468   1.917   0.281  1.00  0.00     0.009 C 
HETATM    5  C6  UNL     1      -0.362   0.851  -0.034  1.00  0.00     0.078 C 
HETATM    6  C7  UNL     1       0.338   0.166  -1.188  1.00  0.00     0.077 C 
HETATM    7  C8  UNL     1       1.097  -0.788  -0.362  1.00  0.00    -0.038 C 
HETATM    8  C9  UNL     1       0.197  -1.202   0.493  1.00  0.00     0.080 C 
HETATM    9  N2  UNL     1      -0.268  -0.007   1.192  1.00  0.00    -0.367 N 
HETATM   10  S1  UNL     1      -0.554  -2.781   0.899  1.00  0.00    -0.038 SA
HETATM   11  S2  UNL     1      -2.427  -2.475   1.877  1.00  0.00    -0.071 SA
HETATM   12  C10 UNL     1      -3.842  -2.231   0.699  1.00  0.00     0.209 C 
HETATM   13  N3  UNL     1      -3.638  -0.900   0.020  1.00  0.00    -0.376 N 
HETATM   14  C11 UNL     1      -4.585   0.046  -0.454  1.00  0.00     0.086 C 
HETATM   15  C12 UNL     1      -4.113   1.235  -0.787  1.00  0.00     0.017 C 
HETATM   16  C13 UNL     1      -2.687   1.611  -0.724  1.00  0.00     0.008 C 
HETATM   17  C14 UNL     1      -1.752   0.774  -0.323  1.00  0.00    -0.030 C 
HETATM   18  C15 UNL     1      -2.286  -0.632  -0.116  1.00  0.00     0.160 C 
HETATM   19  C16 UNL     1       2.423  -1.284  -0.272  1.00  0.00     0.081 C 
HETATM   20  H8  UNL     1      -0.505   0.351   2.110  1.00  0.00     0.161 HD
ENDROOT
BRANCH   1  21
HETATM   21  C1  UNL     1       4.678  -0.424   0.184  1.00  0.00     0.245 C 
HETATM   22  N1  UNL     1       5.607   0.599   0.499  1.00  0.00    -0.366 N 
HETATM   23  H1  UNL     1       6.176   0.695  -0.395  1.00  0.00     0.159 HD
HETATM   24  H2  UNL     1       5.862   1.229   1.303  1.00  0.00     0.159 HD
HETATM   25  O1  UNL     1       5.048  -1.611   0.013  1.00  0.00    -0.268 OA
ENDBRANCH   1  21
TORSDOF 1
