REMARK  7 active torsions:
REMARK  status: ('A' for Active; 'I' for Inactive)
REMARK    1  A    between atoms: C1_2  and  C2_3 
REMARK       I    between atoms: C1_2  and  N2_14 
REMARK    2  A    between atoms: C2_3  and  C3_4 
REMARK       I    between atoms: C3_4  and  N1_6 
REMARK    3  A    between atoms: N1_6  and  C4_7 
REMARK    4  A    between atoms: C4_7  and  C5_8 
REMARK    5  A    between atoms: N2_14  and  C11_15 
REMARK    6  A    between atoms: C12_16  and  N3_17 
REMARK    7  A    between atoms: N3_17  and  C13_18 
ROOT
HETATM    1  O1  UNL     1       0.309  -0.433  -0.730  1.00  0.00    -0.273 OA
HETATM    2  C1  UNL     1       0.122  -1.382   0.074  1.00  0.00     0.230 C 
HETATM    3  N2  UNL     1      -1.088  -1.550   0.798  1.00  0.00    -0.335 N 
HETATM    4  H11 UNL     1      -1.188  -2.373   1.467  1.00  0.00     0.168 HD
ENDROOT
BRANCH   2   5
HETATM    5  C2  UNL     1       1.187  -2.364   0.285  1.00  0.00     0.205 C 
BRANCH   5   6
HETATM    6  C3  UNL     1       2.456  -1.799   0.803  1.00  0.00     0.226 C 
HETATM    7  O2  UNL     1       2.459  -1.194   1.906  1.00  0.00    -0.273 OA
HETATM    8  N1  UNL     1       3.671  -1.925   0.083  1.00  0.00    -0.356 N 
HETATM    9  H3  UNL     1       3.606  -2.444  -0.837  1.00  0.00     0.162 HD
BRANCH   8  10
HETATM   10  C4  UNL     1       4.989  -1.442   0.433  1.00  0.00     0.161 C 
BRANCH  10  11
HETATM   11  C5  UNL     1       5.043   0.006   0.167  1.00  0.00    -0.041 A 
HETATM   12  C6  UNL     1       5.441   0.362  -1.113  1.00  0.00     0.009 A 
HETATM   13  C7  UNL     1       5.547   1.662  -1.519  1.00  0.00     0.001 A 
HETATM   14  C8  UNL     1       5.239   2.654  -0.598  1.00  0.00     0.000 A 
HETATM   15  C9  UNL     1       4.843   2.316   0.677  1.00  0.00     0.001 A 
HETATM   16  C10 UNL     1       4.734   1.001   1.094  1.00  0.00     0.009 A 
ENDBRANCH  10  11
ENDBRANCH   8  10
ENDBRANCH   5   6
ENDBRANCH   2   5
BRANCH   3  17
HETATM   17  C11 UNL     1      -2.331  -0.861   0.896  1.00  0.00     0.108 C 
HETATM   18  C12 UNL     1      -3.482  -1.480   0.582  1.00  0.00     0.105 C 
BRANCH  18  19
HETATM   19  N3  UNL     1      -4.734  -0.813   0.673  1.00  0.00    -0.365 N 
HETATM   20  H14 UNL     1      -5.229  -1.318   1.442  1.00  0.00     0.165 HD
BRANCH  19  21
HETATM   21  C13 UNL     1      -5.278   0.271  -0.044  1.00  0.00     0.031 A 
HETATM   22  C14 UNL     1      -4.538   0.869  -1.039  1.00  0.00     0.029 A 
HETATM   23  C15 UNL     1      -5.067   1.945  -1.756  1.00  0.00     0.002 A 
HETATM   24  C16 UNL     1      -6.355   2.386  -1.431  1.00  0.00     0.000 A 
HETATM   25  C17 UNL     1      -7.055   1.750  -0.423  1.00  0.00     0.002 A 
HETATM   26  C18 UNL     1      -6.538   0.675   0.299  1.00  0.00     0.029 A 
ENDBRANCH  19  21
ENDBRANCH  18  19
ENDBRANCH   3  17
TORSDOF 7
