REMARK  7 active torsions:
REMARK  status: ('A' for Active; 'I' for Inactive)
REMARK    1  A    between atoms: C2_2  and  C3_3 
REMARK    2  A    between atoms: C4_4  and  C5_5 
REMARK    3  A    between atoms: C5_5  and  C6_6 
REMARK    4  A    between atoms: C5_5  and  C17_20 
REMARK    5  A    between atoms: C6_6  and  N1_7 
REMARK       I    between atoms: N1_7  and  C7_8 
REMARK    6  A    between atoms: C7_8  and  C8_10 
REMARK    7  A    between atoms: C8_10  and  C9_11 
ROOT
HETATM    1  N1  UNL     1      -1.053  -0.607   0.126  1.00  0.00    -0.360 N 
HETATM    2  C7  UNL     1       0.326  -0.263   0.110  1.00  0.00     0.223 C 
HETATM    3  O1  UNL     1       0.693   0.777   0.724  1.00  0.00    -0.273 OA
HETATM    4  H9  UNL     1      -1.332  -1.456  -0.379  1.00  0.00     0.162 HD
ENDROOT
BRANCH   2   5
HETATM    5  C8  UNL     1       1.291  -1.148  -0.635  1.00  0.00     0.157 C 
BRANCH   5   6
HETATM    6  C9  UNL     1       2.664  -0.591  -0.512  1.00  0.00     0.026 A 
HETATM    7  N2  UNL     1       2.988   0.482   0.131  1.00  0.00    -0.257 NA
HETATM    8  C10 UNL     1       4.380   0.741   0.057  1.00  0.00     0.063 A 
HETATM    9  C11 UNL     1       5.059   1.798   0.628  1.00  0.00     0.032 A 
HETATM   10  C15 UNL     1       4.942  -0.267  -0.698  1.00  0.00    -0.024 A 
HETATM   11  C12 UNL     1       6.423   1.867   0.435  1.00  0.00     0.002 A 
HETATM   12  C13 UNL     1       7.062   0.889  -0.315  1.00  0.00     0.001 A 
HETATM   13  C14 UNL     1       6.314  -0.140  -0.855  1.00  0.00     0.010 A 
HETATM   14  C16 UNL     1       3.880  -1.198  -1.120  1.00  0.00     0.096 A 
ENDBRANCH   5   6
ENDBRANCH   2   5
BRANCH   1  15
HETATM   15  C6  UNL     1      -1.872   0.302   0.861  1.00  0.00     0.138 C 
BRANCH  15  16
HETATM   16  C5  UNL     1      -3.342  -0.062   0.881  1.00  0.00     0.095 C 
BRANCH  16  17
HETATM   17  C4  UNL     1      -3.944  -0.114  -0.459  1.00  0.00    -0.013 C 
HETATM   18  C3  UNL     1      -4.836   0.670  -1.037  1.00  0.00    -0.004 C 
BRANCH  18  19
HETATM   19  C2  UNL     1      -5.417   1.822  -0.366  1.00  0.00    -0.011 C 
HETATM   20  C1  UNL     1      -6.311   2.570  -1.006  1.00  0.00     0.011 C 
ENDBRANCH  18  19
ENDBRANCH  16  17
BRANCH  16  21
HETATM   21  C17 UNL     1      -3.607  -1.283   1.686  1.00  0.00     0.132 C 
HETATM   22  C18 UNL     1      -3.151  -2.613   1.207  1.00  0.00     0.091 C 
HETATM   23  O2  UNL     1      -4.205  -1.280   2.772  1.00  0.00    -0.298 OA
ENDBRANCH  16  21
ENDBRANCH  15  16
ENDBRANCH   1  15
TORSDOF 7
