REMARK  7 active torsions:
REMARK  status: ('A' for Active; 'I' for Inactive)
REMARK       I    between atoms: C1_2  and  N1_3 
REMARK    1  A    between atoms: C1_2  and  C9_11 
REMARK    2  A    between atoms: N1_3  and  C2_4 
REMARK    3  A    between atoms: C2_4  and  C3_5 
REMARK    4  A    between atoms: C9_11  and  C10_12 
REMARK    5  A    between atoms: C9_11  and  N2_14 
REMARK    6  A    between atoms: C10_12  and  S1_13 
REMARK       I    between atoms: N2_14  and  C11_15 
REMARK    7  A    between atoms: C11_15  and  C12_17 
ROOT
HETATM    1  C9  UNL     1      -1.118  -0.037  -1.933  1.00  0.00     0.185 C 
ENDROOT
BRANCH   1   2
HETATM    2  C1  UNL     1       0.233   0.073  -1.347  1.00  0.00     0.241 C 
HETATM    3  O1  UNL     1       1.034  -0.765  -1.854  1.00  0.00    -0.271 OA
HETATM    4  N1  UNL     1       0.690   0.963  -0.343  1.00  0.00    -0.355 N 
HETATM    5  H1  UNL     1      -0.086   1.597  -0.019  1.00  0.00     0.162 HD
BRANCH   4   6
HETATM    6  C2  UNL     1       2.018   1.015   0.179  1.00  0.00     0.161 C 
BRANCH   6   7
HETATM    7  C3  UNL     1       2.367  -0.055   1.127  1.00  0.00    -0.041 A 
HETATM    8  C4  UNL     1       2.916  -1.276   0.835  1.00  0.00     0.009 A 
HETATM    9  C5  UNL     1       3.222  -2.240   1.761  1.00  0.00     0.001 A 
HETATM   10  C6  UNL     1       2.964  -1.981   3.107  1.00  0.00     0.000 A 
HETATM   11  C7  UNL     1       2.412  -0.769   3.461  1.00  0.00     0.001 A 
HETATM   12  C8  UNL     1       2.131   0.149   2.479  1.00  0.00     0.009 A 
ENDBRANCH   6   7
ENDBRANCH   4   6
ENDBRANCH   1   2
BRANCH   1  13
HETATM   13  C10 UNL     1      -0.945   0.063  -3.428  1.00  0.00     0.105 C 
BRANCH  13  14
HETATM   14  S1  UNL     1      -2.516  -0.054  -4.325  1.00  0.00    -0.180 SA
HETATM   15  H12 UNL     1      -3.150  -1.237  -3.905  1.00  0.00     0.101 HD
ENDBRANCH  13  14
ENDBRANCH   1  13
BRANCH   1  16
HETATM   16  N2  UNL     1      -2.086   0.879  -1.403  1.00  0.00    -0.340 N 
HETATM   17  C11 UNL     1      -3.294   0.498  -0.763  1.00  0.00     0.326 C 
HETATM   18  O2  UNL     1      -3.531  -0.732  -0.654  1.00  0.00    -0.263 OA
HETATM   19  H13 UNL     1      -1.884   1.921  -1.496  1.00  0.00     0.163 HD
BRANCH  17  20
HETATM   20  C12 UNL     1      -4.259   1.475  -0.234  1.00  0.00     0.472 C 
HETATM   21  F1  UNL     1      -4.755   2.330  -1.213  1.00  0.00    -0.162 F 
HETATM   22  F2  UNL     1      -3.742   2.282   0.768  1.00  0.00    -0.162 F 
HETATM   23  F3  UNL     1      -5.351   0.811   0.329  1.00  0.00    -0.162 F 
ENDBRANCH  17  20
ENDBRANCH   1  16
TORSDOF 7
