REMARK  1 active torsions:
REMARK  status: ('A' for Active; 'I' for Inactive)
REMARK    1  A    between atoms: C2_2  and  C3_3 
ROOT
HETATM    1  C3  UNL     1       3.448  -0.161   0.146  1.00  0.00     0.044 C 
HETATM    2  C4  UNL     1       2.260  -0.574   0.519  1.00  0.00     0.101 C 
HETATM    3  N1  UNL     1       1.721  -1.801   0.086  1.00  0.00    -0.338 N 
HETATM    4  C5  UNL     1       1.251  -3.091  -0.222  1.00  0.00     0.204 C 
HETATM    5  N2  UNL     1       0.165  -3.294   0.312  1.00  0.00    -0.259 NA
HETATM    6  C6  UNL     1      -0.833  -4.255   0.454  1.00  0.00     0.317 C 
HETATM    7  O1  UNL     1      -1.865  -3.995  -0.529  1.00  0.00    -0.370 OA
HETATM    8  C7  UNL     1      -2.131  -2.640  -0.275  1.00  0.00     0.170 C 
HETATM    9  C8  UNL     1      -3.180  -2.003  -1.118  1.00  0.00     0.026 C 
HETATM   10  C9  UNL     1      -3.064  -0.500  -0.838  1.00  0.00     0.004 C 
HETATM   11  C10 UNL     1      -3.300  -0.114   0.588  1.00  0.00     0.027 C 
HETATM   12  C11 UNL     1      -2.850   1.368   0.721  1.00  0.00     0.175 C 
HETATM   13  O2  UNL     1      -1.487   1.427   0.395  1.00  0.00    -0.351 OA
HETATM   14  C12 UNL     1      -0.621   2.463   0.339  1.00  0.00     0.076 A 
HETATM   15  C13 UNL     1      -1.074   3.490  -0.457  1.00  0.00     0.037 A 
HETATM   16  C14 UNL     1      -0.402   4.670  -0.702  1.00  0.00     0.003 A 
HETATM   17  C15 UNL     1       0.847   4.834  -0.088  1.00  0.00     0.001 A 
HETATM   18  C16 UNL     1       1.286   3.792   0.708  1.00  0.00     0.011 A 
HETATM   19  C17 UNL     1       0.600   2.587   0.960  1.00  0.00    -0.007 A 
HETATM   20  C18 UNL     1       1.313   1.667   1.869  1.00  0.00     0.162 C 
HETATM   21  N3  UNL     1       1.684   0.390   1.371  1.00  0.00    -0.372 N 
HETATM   22  H5  UNL     1       2.240  -2.139   0.967  1.00  0.00     0.168 HD
HETATM   23  H25 UNL     1       1.369  -0.353   2.032  1.00  0.00     0.161 HD
ENDROOT
BRANCH   1  24
HETATM   24  C2  UNL     1       3.887  -1.252  -0.711  1.00  0.00    -0.023 C 
HETATM   25  C1  UNL     1       5.114  -1.097  -1.255  1.00  0.00     0.031 C 
ENDBRANCH   1  24
TORSDOF 1
