REMARK  9 active torsions:
REMARK  status: ('A' for Active; 'I' for Inactive)
REMARK    1  A    between atoms: C1_2  and  C2_3 
REMARK       I    between atoms: C1_2  and  N2_15 
REMARK    2  A    between atoms: C2_3  and  C3_4 
REMARK    3  A    between atoms: C3_4  and  C4_5 
REMARK    4  A    between atoms: C9_10  and  N1_11 
REMARK    5  A    between atoms: N1_11  and  C10_12 
REMARK    6  A    between atoms: C10_12  and  C11_13 
REMARK    7  A    between atoms: C11_13  and  S1_14 
REMARK    8  A    between atoms: N2_15  and  C12_16 
REMARK    9  A    between atoms: C12_16  and  C13_17 
ROOT
HETATM    1  C3  UNL     1       1.679   0.600   2.191  1.00  0.00     0.050 C 
ENDROOT
BRANCH   1   2
HETATM    2  C2  UNL     1       0.289   1.125   2.259  1.00  0.00     0.107 C 
BRANCH   2   3
HETATM    3  C1  UNL     1      -0.385   1.467   1.007  1.00  0.00     0.218 C 
HETATM    4  O1  UNL     1      -0.480   1.586  -0.239  1.00  0.00    -0.274 OA
HETATM    5  N2  UNL     1      -1.702   1.954   1.307  1.00  0.00    -0.357 N 
HETATM    6  H15 UNL     1      -2.112   2.044   2.292  1.00  0.00     0.162 HD
BRANCH   5   7
HETATM    7  C12 UNL     1      -2.706   2.403   0.355  1.00  0.00     0.161 C 
BRANCH   7   8
HETATM    8  C13 UNL     1      -3.337   1.212  -0.246  1.00  0.00    -0.041 A 
HETATM    9  C14 UNL     1      -3.093   0.554  -1.419  1.00  0.00     0.009 A 
HETATM   10  C15 UNL     1      -3.765  -0.571  -1.833  1.00  0.00     0.001 A 
HETATM   11  C16 UNL     1      -4.751  -1.079  -1.021  1.00  0.00     0.000 A 
HETATM   12  C17 UNL     1      -5.051  -0.470   0.174  1.00  0.00     0.001 A 
HETATM   13  C18 UNL     1      -4.344   0.660   0.543  1.00  0.00     0.009 A 
ENDBRANCH   7   8
ENDBRANCH   5   7
ENDBRANCH   2   3
ENDBRANCH   1   2
BRANCH   1  14
HETATM   14  C4  UNL     1       1.906  -0.628   1.453  1.00  0.00    -0.031 A 
HETATM   15  C5  UNL     1       1.822  -1.754   2.283  1.00  0.00     0.009 A 
HETATM   16  C6  UNL     1       1.943  -3.047   1.819  1.00  0.00     0.001 A 
HETATM   17  C7  UNL     1       2.161  -3.259   0.455  1.00  0.00     0.002 A 
HETATM   18  C8  UNL     1       2.246  -2.143  -0.374  1.00  0.00     0.029 A 
HETATM   19  C9  UNL     1       2.122  -0.863   0.122  1.00  0.00     0.034 A 
BRANCH  19  20
HETATM   20  N1  UNL     1       2.249   0.281  -0.700  1.00  0.00    -0.389 N 
HETATM   21  H9  UNL     1       2.190   1.249  -0.304  1.00  0.00     0.159 HD
BRANCH  20  22
HETATM   22  C10 UNL     1       2.486   0.371  -2.124  1.00  0.00     0.130 C 
BRANCH  22  23
HETATM   23  C11 UNL     1       3.899  -0.043  -2.478  1.00  0.00     0.090 C 
BRANCH  23  24
HETATM   24  S1  UNL     1       4.140   0.085  -4.278  1.00  0.00    -0.181 SA
HETATM   25  H14 UNL     1       4.445   1.436  -4.587  1.00  0.00     0.101 HD
ENDBRANCH  23  24
ENDBRANCH  22  23
ENDBRANCH  20  22
ENDBRANCH  19  20
ENDBRANCH   1  14
TORSDOF 9
