REMARK  1 active torsions:
REMARK  status: ('A' for Active; 'I' for Inactive)
REMARK    1  A    between atoms: C3_4  and  C4_5 
ROOT
HETATM    1  C1  UNL     1      -1.166  -2.561  -0.728  1.00  0.00     0.033 C 
HETATM    2  C2  UNL     1      -0.979  -1.313   0.074  1.00  0.00     0.086 C 
HETATM    3  N1  UNL     1       0.257  -0.604  -0.112  1.00  0.00    -0.387 N 
HETATM    4  C3  UNL     1       1.344   0.305  -0.008  1.00  0.00     0.024 C 
HETATM    5  C10 UNL     1       0.430   1.243   0.107  1.00  0.00     0.072 C 
HETATM    6  C11 UNL     1       0.171   2.692   0.269  1.00  0.00    -0.015 C 
HETATM    7  C12 UNL     1      -1.118   2.948   0.347  1.00  0.00    -0.003 C 
HETATM    8  C13 UNL     1      -2.485   2.505   0.369  1.00  0.00     0.008 C 
HETATM    9  C14 UNL     1      -3.323   1.478   0.357  1.00  0.00    -0.041 C 
HETATM   10  C15 UNL     1      -4.214   0.257   0.342  1.00  0.00     0.040 C 
HETATM   11  C16 UNL     1      -3.437  -0.819  -0.447  1.00  0.00     0.017 C 
HETATM   12  C17 UNL     1      -2.044  -0.287  -0.270  1.00  0.00     0.053 C 
HETATM   13  C18 UNL     1      -2.325   0.539   0.930  1.00  0.00     0.021 C 
HETATM   14  S1  UNL     1      -1.822   0.522   2.505  1.00  0.00    -0.084 SA
HETATM   15  H5  UNL     1       0.647  -1.104  -0.952  1.00  0.00     0.159 HD
ENDROOT
BRANCH   4  16
HETATM   16  C4  UNL     1       2.736  -0.140  -0.060  1.00  0.00    -0.013 A 
HETATM   17  C5  UNL     1       3.653   0.871   0.034  1.00  0.00     0.013 A 
HETATM   18  C6  UNL     1       4.998   0.486  -0.003  1.00  0.00     0.001 A 
HETATM   19  C7  UNL     1       5.291  -0.856  -0.129  1.00  0.00     0.000 A 
HETATM   20  C8  UNL     1       4.285  -1.804  -0.216  1.00  0.00     0.001 A 
HETATM   21  C9  UNL     1       2.950  -1.470  -0.184  1.00  0.00     0.013 A 
ENDBRANCH   4  16
TORSDOF 1
