REMARK  4 active torsions:
REMARK  status: ('A' for Active; 'I' for Inactive)
REMARK    1  A    between atoms: C1_2  and  C2_3 
REMARK       I    between atoms: C1_2  and  N2_14 
REMARK    2  A    between atoms: C2_3  and  C3_4 
REMARK    3  A    between atoms: N2_14  and  C10_15 
REMARK    4  A    between atoms: C10_15  and  C11_16 
ROOT
HETATM    1  C2  UNL     1      -1.057   0.308  -0.399  1.00  0.00     0.119 C 
ENDROOT
BRANCH   1   2
HETATM    2  C1  UNL     1       0.405   0.294  -0.442  1.00  0.00     0.218 C 
HETATM    3  O1  UNL     1       1.352   0.111   0.366  1.00  0.00    -0.274 OA
HETATM    4  N2  UNL     1       0.936   0.554  -1.730  1.00  0.00    -0.357 N 
HETATM    5  H8  UNL     1       0.357   0.744  -2.602  1.00  0.00     0.162 HD
BRANCH   4   6
HETATM    6  C10 UNL     1       2.316   0.607  -2.089  1.00  0.00     0.161 C 
BRANCH   6   7
HETATM    7  C11 UNL     1       3.257   0.360  -0.965  1.00  0.00    -0.041 A 
HETATM    8  C12 UNL     1       3.677   1.476  -0.233  1.00  0.00     0.009 A 
HETATM    9  C13 UNL     1       4.550   1.268   0.814  1.00  0.00     0.001 A 
HETATM   10  C14 UNL     1       5.035   0.024   1.184  1.00  0.00     0.000 A 
HETATM   11  C15 UNL     1       4.603  -1.071   0.441  1.00  0.00     0.001 A 
HETATM   12  C16 UNL     1       3.723  -0.903  -0.621  1.00  0.00     0.009 A 
ENDBRANCH   6   7
ENDBRANCH   4   6
ENDBRANCH   1   2
BRANCH   1  13
HETATM   13  C3  UNL     1      -1.650   0.038   0.935  1.00  0.00     0.091 A 
HETATM   14  C4  UNL     1      -1.306  -1.275   1.521  1.00  0.00     0.087 A 
HETATM   15  S1  UNL     1       0.133  -1.857   2.019  1.00  0.00    -0.065 SA
HETATM   16  N1  UNL     1      -2.467  -2.116   1.641  1.00  0.00    -0.348 N 
HETATM   17  C5  UNL     1      -3.575  -1.344   1.130  1.00  0.00     0.053 A 
HETATM   18  H4  UNL     1      -2.576  -3.081   2.004  1.00  0.00     0.166 HD
HETATM   19  P1  UNL     1      -5.273  -1.753   0.980  1.00  0.00    -0.003 P 
HETATM   20  C9  UNL     1      -3.137  -0.085   0.711  1.00  0.00    -0.019 A 
HETATM   21  C6  UNL     1      -6.197  -0.428   0.284  1.00  0.00     0.018 A 
HETATM   22  C7  UNL     1      -5.374   0.671  -0.001  1.00  0.00     0.002 A 
HETATM   23  C8  UNL     1      -4.030   0.825   0.185  1.00  0.00     0.010 A 
ENDBRANCH   1  13
TORSDOF 4
