REMARK  4 active torsions:
REMARK  status: ('A' for Active; 'I' for Inactive)
REMARK    1  A    between atoms: C1_2  and  C2_3 
REMARK       I    between atoms: C1_2  and  N2_14 
REMARK    2  A    between atoms: C2_3  and  C3_4 
REMARK    3  A    between atoms: N2_14  and  C10_15 
REMARK    4  A    between atoms: C10_15  and  C11_16 
ROOT
HETATM    1  C3  UNL     1       1.708  -1.420  -0.117  1.00  0.00     0.091 A 
HETATM    2  C4  UNL     1       1.392  -1.147  -1.537  1.00  0.00     0.087 A 
HETATM    3  S1  UNL     1       0.127  -1.632  -2.491  1.00  0.00    -0.065 SA
HETATM    4  N1  UNL     1       2.336  -0.337  -2.197  1.00  0.00    -0.350 N 
HETATM    5  C5  UNL     1       3.349  -0.042  -1.225  1.00  0.00     0.036 A 
HETATM    6  C6  UNL     1       4.458   0.643  -1.235  1.00  0.00     0.008 A 
HETATM    7  C7  UNL     1       5.551   1.015  -0.347  1.00  0.00     0.065 A 
HETATM    8  P1  UNL     1       5.258   0.248   1.319  1.00  0.00    -0.102 P 
HETATM    9  C8  UNL     1       3.675  -0.649   1.132  1.00  0.00     0.014 A 
HETATM   10  C9  UNL     1       3.011  -0.674   0.015  1.00  0.00    -0.020 A 
HETATM   11  H4  UNL     1       2.433   0.052  -3.159  1.00  0.00     0.166 HD
HETATM   12  H8  UNL     1       5.184   1.268   2.341  1.00  0.00     0.062 HD
ENDROOT
BRANCH   1  13
HETATM   13  C2  UNL     1       0.750  -0.763   0.804  1.00  0.00     0.119 C 
BRANCH  13  14
HETATM   14  C1  UNL     1      -0.658  -1.154   0.674  1.00  0.00     0.218 C 
HETATM   15  O1  UNL     1      -1.231  -1.969  -0.061  1.00  0.00    -0.274 OA
HETATM   16  N2  UNL     1      -1.569  -0.483   1.548  1.00  0.00    -0.357 N 
HETATM   17  H10 UNL     1      -1.197   0.237   2.225  1.00  0.00     0.162 HD
BRANCH  16  18
HETATM   18  C10 UNL     1      -2.990  -0.704   1.590  1.00  0.00     0.161 C 
BRANCH  18  19
HETATM   19  C11 UNL     1      -3.685  -0.027   0.459  1.00  0.00    -0.041 A 
HETATM   20  C12 UNL     1      -4.037   1.296   0.719  1.00  0.00     0.009 A 
HETATM   21  C13 UNL     1      -4.681   2.083  -0.182  1.00  0.00     0.001 A 
HETATM   22  C14 UNL     1      -5.023   1.583  -1.432  1.00  0.00     0.000 A 
HETATM   23  C15 UNL     1      -4.677   0.274  -1.693  1.00  0.00     0.001 A 
HETATM   24  C16 UNL     1      -4.025  -0.511  -0.771  1.00  0.00     0.009 A 
ENDBRANCH  18  19
ENDBRANCH  16  18
ENDBRANCH  13  14
ENDBRANCH   1  13
TORSDOF 4
