REMARK  6 active torsions:
REMARK  status: ('A' for Active; 'I' for Inactive)
REMARK    1  A    between atoms: C3_3  and  C4_4 
REMARK    2  A    between atoms: C5_5  and  C6_6 
REMARK    3  A    between atoms: C6_6  and  N1_7 
REMARK    4  A    between atoms: N1_7  and  C7_8 
REMARK    5  A    between atoms: C7_8  and  C9_10 
REMARK    6  A    between atoms: C15_18  and  O1_19 
ROOT
HETATM    1  C9  UNL     1      -2.308  -0.159  -1.128  1.00  0.00     0.118 A 
HETATM    2  C10 UNL     1      -2.920   1.171  -1.429  1.00  0.00     0.088 A 
HETATM    3  S1  UNL     1      -2.921   1.833  -2.923  1.00  0.00    -0.065 SA
HETATM    4  N2  UNL     1      -3.449   1.661  -0.190  1.00  0.00    -0.349 N 
HETATM    5  C11 UNL     1      -3.190   0.702   0.837  1.00  0.00     0.042 A 
HETATM    6  C12 UNL     1      -3.535   0.791   2.172  1.00  0.00     0.030 A 
HETATM    7  C13 UNL     1      -3.192  -0.247   3.012  1.00  0.00     0.005 A 
HETATM    8  C14 UNL     1      -2.510  -1.336   2.456  1.00  0.00     0.037 A 
HETATM    9  C15 UNL     1      -2.165  -1.428   1.129  1.00  0.00     0.075 A 
HETATM   10  C16 UNL     1      -2.516  -0.381   0.308  1.00  0.00     0.015 A 
HETATM   11  H16 UNL     1      -3.926   2.590  -0.185  1.00  0.00     0.166 HD
ENDROOT
BRANCH   1  12
HETATM   12  C7  UNL     1      -0.893  -0.258  -1.592  1.00  0.00     0.232 C 
HETATM   13  C8  UNL     1      -0.849  -0.207  -3.081  1.00  0.00     0.043 C 
BRANCH  12  14
HETATM   14  N1  UNL     1      -0.040   0.736  -0.966  1.00  0.00     0.092 N 
HETATM   15  H10 UNL     1      -0.369   1.694  -1.132  1.00  0.00     0.316 HD
BRANCH  14  16
HETATM   16  C6  UNL     1       1.335   0.530  -1.371  1.00  0.00     0.297 C 
BRANCH  16  17
HETATM   17  C5  UNL     1       2.219   1.537  -0.742  1.00  0.00     0.003 C 
HETATM   18  C4  UNL     1       3.244   1.370   0.068  1.00  0.00    -0.003 C 
BRANCH  18  19
HETATM   19  C3  UNL     1       3.692   0.073   0.496  1.00  0.00    -0.005 C 
HETATM   20  C2  UNL     1       4.734  -0.021   1.314  1.00  0.00    -0.031 C 
HETATM   21  C1  UNL     1       5.265  -1.322   1.806  1.00  0.00     0.036 C 
ENDBRANCH  18  19
ENDBRANCH  16  17
ENDBRANCH  14  16
ENDBRANCH  12  14
ENDBRANCH   1  12
BRANCH   9  22
HETATM   22  O1  UNL     1      -1.490  -2.539   0.658  1.00  0.00    -0.360 OA
HETATM   23  H20 UNL     1      -2.020  -3.414   0.698  1.00  0.00     0.217 HD
ENDBRANCH   9  22
TORSDOF 6
