REMARK  5 active torsions:
REMARK  status: ('A' for Active; 'I' for Inactive)
REMARK    1  A    between atoms: C1_2  and  C2_3 
REMARK       I    between atoms: C1_2  and  N2_14 
REMARK    2  A    between atoms: C2_3  and  C3_4 
REMARK    3  A    between atoms: C3_4  and  C4_5 
REMARK    4  A    between atoms: N2_14  and  C11_15 
REMARK    5  A    between atoms: C11_15  and  C12_16 
ROOT
HETATM    1  O1  UNL     1      -0.872   0.050  -0.975  1.00  0.00    -0.274 OA
HETATM    2  C1  UNL     1      -0.765  -0.438   0.178  1.00  0.00     0.217 C 
HETATM    3  N2  UNL     1      -1.665  -1.422   0.635  1.00  0.00    -0.357 N 
HETATM    4  H11 UNL     1      -1.544  -1.812   1.615  1.00  0.00     0.162 HD
ENDROOT
BRANCH   2   5
HETATM    5  C2  UNL     1       0.306  -0.001   1.096  1.00  0.00     0.104 C 
BRANCH   5   6
HETATM    6  C3  UNL     1       1.220   1.028   0.528  1.00  0.00     0.027 C 
BRANCH   6   7
HETATM    7  C4  UNL     1       1.966   0.615  -0.704  1.00  0.00     0.098 A 
HETATM    8  C5  UNL     1       2.839   1.726  -1.166  1.00  0.00     0.090 A 
HETATM    9  S1  UNL     1       2.192   3.044  -1.828  1.00  0.00    -0.064 SA
HETATM   10  N1  UNL     1       4.049   1.088  -0.784  1.00  0.00    -0.340 N 
HETATM   11  C6  UNL     1       5.480   1.268  -0.765  1.00  0.00     0.157 A 
HETATM   12  C10 UNL     1       3.263  -0.009  -0.334  1.00  0.00     0.023 A 
HETATM   13  C7  UNL     1       6.085   0.049  -0.172  1.00  0.00    -0.007 A 
HETATM   14  C8  UNL     1       5.427  -1.007   0.263  1.00  0.00    -0.000 A 
HETATM   15  C9  UNL     1       3.972  -1.012   0.168  1.00  0.00     0.026 A 
ENDBRANCH   6   7
ENDBRANCH   5   6
ENDBRANCH   2   5
BRANCH   3  16
HETATM   16  C11 UNL     1      -2.770  -1.967  -0.121  1.00  0.00     0.161 C 
BRANCH  16  17
HETATM   17  C12 UNL     1      -3.868  -0.968  -0.109  1.00  0.00    -0.041 A 
HETATM   18  C13 UNL     1      -4.117   0.020  -1.015  1.00  0.00     0.009 A 
HETATM   19  C14 UNL     1      -5.142   0.911  -0.944  1.00  0.00     0.001 A 
HETATM   20  C15 UNL     1      -6.029   0.840   0.126  1.00  0.00     0.000 A 
HETATM   21  C16 UNL     1      -5.824  -0.134   1.066  1.00  0.00     0.001 A 
HETATM   22  C17 UNL     1      -4.770  -1.022   0.958  1.00  0.00     0.009 A 
ENDBRANCH  16  17
ENDBRANCH   3  16
TORSDOF 5
