REMARK  5 active torsions:
REMARK  status: ('A' for Active; 'I' for Inactive)
REMARK    1  A    between atoms: C2_2  and  C3_3 
REMARK    2  A    between atoms: C2_2  and  N2_14 
REMARK    3  A    between atoms: C3_3  and  C4_4 
REMARK    4  A    between atoms: N2_14  and  C12_15 
REMARK    5  A    between atoms: C13_16  and  O1_17 
ROOT
HETATM    1  C1  UNL     1       0.372  -2.123  -1.342  1.00  0.00     0.032 C 
HETATM    2  C2  UNL     1       0.366  -0.617  -1.440  1.00  0.00     0.078 C 
ENDROOT
BRANCH   2   3
HETATM    3  C3  UNL     1      -0.573   0.014  -0.466  1.00  0.00     0.041 C 
BRANCH   3   4
HETATM    4  C4  UNL     1      -1.979  -0.435  -0.683  1.00  0.00     0.084 A 
HETATM    5  C5  UNL     1      -2.525  -0.119  -2.026  1.00  0.00     0.086 A 
HETATM    6  S1  UNL     1      -2.215  -0.571  -3.579  1.00  0.00    -0.065 SA
HETATM    7  N1  UNL     1      -3.605   0.829  -1.897  1.00  0.00    -0.350 N 
HETATM    8  C6  UNL     1      -3.796   1.150  -0.507  1.00  0.00     0.040 A 
HETATM    9  H8  UNL     1      -4.257   1.319  -2.555  1.00  0.00     0.166 HD
HETATM   10  C7  UNL     1      -4.625   1.950   0.251  1.00  0.00     0.030 A 
HETATM   11  C11 UNL     1      -2.856   0.414   0.185  1.00  0.00    -0.021 A 
HETATM   12  C8  UNL     1      -4.526   2.016   1.625  1.00  0.00     0.002 A 
HETATM   13  C9  UNL     1      -3.577   1.269   2.291  1.00  0.00     0.001 A 
HETATM   14  C10 UNL     1      -2.732   0.459   1.561  1.00  0.00     0.010 A 
ENDBRANCH   3   4
ENDBRANCH   2   3
BRANCH   2  15
HETATM   15  N2  UNL     1       1.725  -0.160  -1.299  1.00  0.00    -0.387 N 
HETATM   16  H13 UNL     1       2.246   0.395  -2.035  1.00  0.00     0.159 HD
BRANCH  15  17
HETATM   17  C12 UNL     1       2.705  -0.269  -0.286  1.00  0.00     0.039 A 
HETATM   18  C13 UNL     1       3.505  -1.316  -0.173  1.00  0.00     0.087 A 
HETATM   19  C14 UNL     1       4.492  -1.367   0.891  1.00  0.00     0.034 A 
HETATM   20  C15 UNL     1       4.505  -0.320   1.687  1.00  0.00    -0.024 A 
HETATM   21  C16 UNL     1       3.677   0.925   1.689  1.00  0.00     0.033 A 
HETATM   22  C17 UNL     1       2.669   0.955   0.586  1.00  0.00     0.063 A 
BRANCH  18  23
HETATM   23  O1  UNL     1       3.418  -2.377  -1.063  1.00  0.00    -0.359 OA
HETATM   24  H14 UNL     1       3.095  -3.248  -0.647  1.00  0.00     0.217 HD
ENDBRANCH  18  23
ENDBRANCH  15  17
ENDBRANCH   2  15
TORSDOF 5
