REMARK  5 active torsions:
REMARK  status: ('A' for Active; 'I' for Inactive)
REMARK    1  A    between atoms: C1_2  and  C2_3 
REMARK       I    between atoms: C1_2  and  N2_15 
REMARK    2  A    between atoms: C2_3  and  C3_4 
REMARK    3  A    between atoms: C3_4  and  C4_5 
REMARK    4  A    between atoms: N2_15  and  C12_16 
REMARK    5  A    between atoms: C12_16  and  C13_17 
ROOT
HETATM    1  C2  UNL     1       0.639   1.138  -0.069  1.00  0.00     0.103 C 
ENDROOT
BRANCH   1   2
HETATM    2  C1  UNL     1      -0.796   1.292  -0.422  1.00  0.00     0.217 C 
HETATM    3  O1  UNL     1      -0.778   1.138  -1.668  1.00  0.00    -0.274 OA
HETATM    4  N2  UNL     1      -1.759   1.545   0.576  1.00  0.00    -0.357 N 
HETATM    5  H12 UNL     1      -1.414   1.620   1.540  1.00  0.00     0.162 HD
BRANCH   4   6
HETATM    6  C12 UNL     1      -3.120   1.663   0.075  1.00  0.00     0.161 C 
BRANCH   6   7
HETATM    7  C13 UNL     1      -3.726   0.341  -0.228  1.00  0.00    -0.041 A 
HETATM    8  C14 UNL     1      -4.343  -0.185   0.898  1.00  0.00     0.009 A 
HETATM    9  C15 UNL     1      -4.984  -1.424   0.857  1.00  0.00     0.001 A 
HETATM   10  C16 UNL     1      -5.000  -2.136  -0.336  1.00  0.00     0.000 A 
HETATM   11  C17 UNL     1      -4.377  -1.591  -1.454  1.00  0.00     0.001 A 
HETATM   12  C18 UNL     1      -3.739  -0.359  -1.414  1.00  0.00     0.009 A 
ENDBRANCH   6   7
ENDBRANCH   4   6
ENDBRANCH   1   2
BRANCH   1  13
HETATM   13  C3  UNL     1       1.450   0.916  -1.318  1.00  0.00     0.021 C 
BRANCH  13  14
HETATM   14  C4  UNL     1       2.910   0.734  -1.048  1.00  0.00     0.054 C 
HETATM   15  C5  UNL     1       3.162  -0.451  -0.167  1.00  0.00    -0.025 A 
HETATM   16  C6  UNL     1       3.241  -1.762  -0.595  1.00  0.00     0.010 A 
HETATM   17  C10 UNL     1       3.301  -0.033   1.142  1.00  0.00     0.035 A 
HETATM   18  C7  UNL     1       3.479  -2.704   0.387  1.00  0.00     0.001 A 
HETATM   19  C8  UNL     1       3.629  -2.349   1.730  1.00  0.00     0.002 A 
HETATM   20  C9  UNL     1       3.539  -1.009   2.105  1.00  0.00     0.029 A 
HETATM   21  N1  UNL     1       3.144   1.402   1.118  1.00  0.00    -0.375 N 
HETATM   22  C11 UNL     1       3.513   1.840  -0.235  1.00  0.00     0.162 C 
HETATM   23  H10 UNL     1       2.822   1.927   1.965  1.00  0.00     0.161 HD
HETATM   24 BR1  UNL     1       2.814   3.581  -0.639  1.00  0.00    -0.068 Br
ENDBRANCH  13  14
ENDBRANCH   1  13
TORSDOF 5
