REMARK  6 active torsions:
REMARK  status: ('A' for Active; 'I' for Inactive)
REMARK    1  A    between atoms: O1_2  and  C2_3 
REMARK    2  A    between atoms: C6_7  and  C7_8 
REMARK    3  A    between atoms: C7_8  and  C9_12 
REMARK    4  A    between atoms: N1_9  and  C8_10 
REMARK    5  A    between atoms: C16_21  and  O2_22 
REMARK    6  A    between atoms: O2_22  and  C17_23 
ROOT
HETATM    1  C2  UNL     1       0.555   2.416  -0.783  1.00  0.00     0.102 A 
HETATM    2  C3  UNL     1      -0.123   3.530  -1.304  1.00  0.00     0.040 A 
HETATM    3  C4  UNL     1      -1.449   3.385  -1.722  1.00  0.00     0.004 A 
HETATM    4  C5  UNL     1      -1.933   2.148  -1.574  1.00  0.00     0.017 A 
HETATM    5  C6  UNL     1      -1.392   0.999  -1.094  1.00  0.00     0.030 A 
HETATM    6  C16 UNL     1      -0.063   1.154  -0.669  1.00  0.00     0.115 A 
ENDROOT
BRANCH   5   7
HETATM    7  C7  UNL     1      -2.154  -0.131  -0.773  1.00  0.00     0.082 C 
HETATM    8  N1  UNL     1      -3.360  -0.029  -0.787  1.00  0.00    -0.241 NA
BRANCH   8   9
HETATM    9  C8  UNL     1      -4.358   0.855  -1.018  1.00  0.00     0.224 C 
HETATM   10  N2  UNL     1      -4.870   1.739  -0.189  1.00  0.00    -0.293 NA
HETATM   11  H8  UNL     1      -4.524   1.840   0.787  1.00  0.00     0.187 HD
ENDBRANCH   8   9
BRANCH   7  12
HETATM   12  C9  UNL     1      -1.922  -1.529  -0.528  1.00  0.00     0.001 A 
HETATM   13  C10 UNL     1      -0.725  -2.197  -0.518  1.00  0.00     0.041 A 
HETATM   14  C11 UNL     1      -0.294  -3.447  -0.185  1.00  0.00     0.073 A 
HETATM   15 CL1  UNL     1       1.344  -4.028  -0.274  1.00  0.00    -0.081 Cl
HETATM   16  C12 UNL     1      -1.325  -4.236   0.245  1.00  0.00     0.138 A 
HETATM   17  F1  UNL     1      -1.099  -5.514   0.625  1.00  0.00    -0.204 F 
HETATM   18  C13 UNL     1      -2.586  -3.735   0.296  1.00  0.00     0.051 A 
HETATM   19  C14 UNL     1      -2.906  -2.422  -0.074  1.00  0.00    -0.046 A 
HETATM   20  C15 UNL     1      -4.325  -2.068   0.062  1.00  0.00     0.049 C 
ENDBRANCH   7  12
ENDBRANCH   5   7
BRANCH   6  21
HETATM   21  O2  UNL     1       0.871   0.476  -0.142  1.00  0.00    -0.340 OA
BRANCH  21  22
HETATM   22  C17 UNL     1       1.840  -0.228   0.394  1.00  0.00     0.159 C 
HETATM   23  C18 UNL     1       1.585  -0.936   1.739  1.00  0.00     0.064 C 
HETATM   24  C19 UNL     1       3.016  -1.443   1.954  1.00  0.00     0.274 C 
HETATM   25  N3  UNL     1       3.815  -0.294   1.695  1.00  0.00     0.086 N 
HETATM   26  C20 UNL     1       5.080  -0.598   1.057  1.00  0.00     0.310 C 
HETATM   27  C21 UNL     1       3.053   0.611   0.875  1.00  0.00     0.304 C 
ENDBRANCH  21  22
ENDBRANCH   6  21
BRANCH   1  28
HETATM   28  O1  UNL     1       1.821   2.836  -0.460  1.00  0.00    -0.353 OA
HETATM   29  C1  UNL     1       2.377   4.091  -0.593  1.00  0.00     0.210 C 
ENDBRANCH   1  28
TORSDOF 6
