REMARK  0 active torsions:
REMARK  status: ('A' for Active; 'I' for Inactive)
ROOT
HETATM    1  C1  UNL     1       3.990  -2.937   0.036  1.00  0.00     0.050 C 
HETATM    2  C2  UNL     1       3.002  -1.842   0.075  1.00  0.00    -0.038 C 
HETATM    3  C3  UNL     1       3.775  -0.750  -0.078  1.00  0.00     0.041 C 
HETATM    4  C4  UNL     1       5.220  -0.427  -0.257  1.00  0.00     0.332 C 
HETATM    5  N1  UNL     1       5.501   0.435   0.911  1.00  0.00     0.121 N 
HETATM    6  C5  UNL     1       5.992  -0.379   1.976  1.00  0.00     0.314 C 
HETATM    7  C6  UNL     1       4.219   0.988   1.193  1.00  0.00     0.369 C 
HETATM    8  N2  UNL     1       3.518   0.678  -0.093  1.00  0.00    -0.355 N 
HETATM    9  S1  UNL     1       3.335  -0.043   2.428  1.00  0.00    -0.183 SA
HETATM   10  C7  UNL     1       1.852   0.881   2.907  1.00  0.00     0.195 C 
HETATM   11  C8  UNL     1       0.559   1.250   2.700  1.00  0.00     0.064 C 
HETATM   12  C9  UNL     1      -0.456   0.970   1.743  1.00  0.00     0.247 C 
HETATM   13  O1  UNL     1      -1.361   1.759   2.059  1.00  0.00    -0.268 OA
HETATM   14  N3  UNL     1      -1.145   0.377   0.689  1.00  0.00    -0.283 N 
HETATM   15  C10 UNL     1      -1.916   1.319  -0.128  1.00  0.00     0.051 A 
HETATM   16  C11 UNL     1      -1.336   2.576   0.045  1.00  0.00     0.031 A 
HETATM   17  C12 UNL     1      -1.869   3.641  -0.717  1.00  0.00     0.002 A 
HETATM   18  C13 UNL     1      -2.932   3.439  -1.611  1.00  0.00     0.001 A 
HETATM   19  C14 UNL     1      -3.506   2.191  -1.787  1.00  0.00     0.014 A 
HETATM   20  C15 UNL     1      -2.972   1.175  -1.027  1.00  0.00     0.004 A 
HETATM   21  C16 UNL     1      -3.589  -0.124  -1.217  1.00  0.00     0.016 A 
HETATM   22  C17 UNL     1      -4.940   0.150  -1.481  1.00  0.00    -0.048 A 
HETATM   23  C18 UNL     1      -5.669   1.406  -1.292  1.00  0.00     0.049 C 
HETATM   24  C19 UNL     1      -5.686  -0.993  -1.859  1.00  0.00     0.008 A 
HETATM   25  C20 UNL     1      -5.061  -2.246  -1.936  1.00  0.00     0.003 A 
HETATM   26  C21 UNL     1      -3.733  -2.428  -1.654  1.00  0.00     0.038 A 
HETATM   27  C22 UNL     1      -2.948  -1.353  -1.276  1.00  0.00     0.083 A 
HETATM   28  O2  UNL     1      -1.576  -1.373  -0.935  1.00  0.00    -0.321 OA
HETATM   29  C23 UNL     1      -0.985  -1.011   0.340  1.00  0.00     0.262 C 
HETATM   30  C24 UNL     1       0.310  -1.661   0.291  1.00  0.00     0.028 C 
HETATM   31  C25 UNL     1       1.594  -1.992   0.211  1.00  0.00     0.009 C 
HETATM   32  H10 UNL     1       2.989   1.182  -0.848  1.00  0.00     0.162 HD
ENDROOT
TORSDOF 0
