REMARK  3 active torsions:
REMARK  status: ('A' for Active; 'I' for Inactive)
REMARK    1  A    between atoms: C5_6  and  N1_7 
REMARK    2  A    between atoms: N1_7  and  N2_8 
REMARK    3  A    between atoms: N2_8  and  C6_9 
ROOT
HETATM    1  C6  UNL     1      -0.593   0.032  -0.396  1.00  0.00     0.134 C 
HETATM    2  C7  UNL     1       0.264  -0.073  -1.425  1.00  0.00     0.054 C 
HETATM    3  C8  UNL     1       1.615   0.489  -1.295  1.00  0.00     0.300 C 
HETATM    4  N3  UNL     1       1.976   1.463  -2.301  1.00  0.00     0.087 N 
HETATM    5  C9  UNL     1       3.176   2.140  -1.899  1.00  0.00     0.273 C 
HETATM    6  C10 UNL     1       4.407   1.316  -1.788  1.00  0.00     0.056 C 
HETATM    7  C11 UNL     1       4.385   0.343  -0.687  1.00  0.00    -0.029 C 
HETATM    8  C12 UNL     1       4.373  -0.584   0.244  1.00  0.00    -0.026 C 
HETATM    9  C13 UNL     1       4.273  -0.864   1.695  1.00  0.00     0.073 C 
HETATM   10  C14 UNL     1       3.061  -1.722   1.974  1.00  0.00     0.094 C 
HETATM   11  N4  UNL     1       2.049  -0.992   1.745  1.00  0.00    -0.256 NA
HETATM   12  C15 UNL     1       0.692  -1.314   1.853  1.00  0.00     0.254 C 
HETATM   13  N5  UNL     1       0.714  -0.178   1.310  1.00  0.00    -0.166 NA
HETATM   14  N6  UNL     1      -0.327   0.626   0.888  1.00  0.00    -0.261 N 
HETATM   15  H9  UNL     1       1.225   2.139  -2.515  1.00  0.00     0.316 HD
HETATM   16  H20 UNL     1      -0.943   1.432   1.125  1.00  0.00     0.191 HD
ENDROOT
BRANCH   1  17
HETATM   17  N2  UNL     1      -1.882  -0.517  -0.559  1.00  0.00    -0.284 N 
HETATM   18  H5  UNL     1      -2.183   0.406  -0.994  1.00  0.00     0.188 HD
BRANCH  17  19
HETATM   19  N1  UNL     1      -3.122  -1.063  -0.709  1.00  0.00    -0.299 N 
HETATM   20  H4  UNL     1      -3.074  -1.781  -1.464  1.00  0.00     0.187 HD
BRANCH  19  21
HETATM   21  C5  UNL     1      -4.265  -0.699   0.047  1.00  0.00     0.049 A 
HETATM   22  C4  UNL     1      -5.398  -1.397  -0.297  1.00  0.00     0.031 A 
HETATM   23  C3  UNL     1      -6.576  -1.097   0.397  1.00  0.00     0.004 A 
HETATM   24  C2  UNL     1      -6.540  -0.121   1.387  1.00  0.00     0.024 A 
HETATM   25  C1  UNL     1      -5.356   0.526   1.664  1.00  0.00     0.036 A 
HETATM   26 CL1  UNL     1      -5.437   1.740   2.938  1.00  0.00    -0.084 Cl
HETATM   27  C16 UNL     1      -4.172   0.273   1.015  1.00  0.00     0.054 A 
ENDBRANCH  19  21
ENDBRANCH  17  19
ENDBRANCH   1  17
TORSDOF 3
