REMARK  1 active torsions:
REMARK  status: ('A' for Active; 'I' for Inactive)
REMARK    1  A    between atoms: C9_12  and  C10_13 
ROOT
HETATM    1  O1  UNL     1      -0.496  -1.528   1.544  1.00  0.00    -0.267 OA
HETATM    2  C1  UNL     1       0.353  -1.609   0.600  1.00  0.00     0.257 A 
HETATM    3  N1  UNL     1       0.975  -2.716  -0.041  1.00  0.00    -0.322 N 
HETATM    4  C2  UNL     1       1.850  -2.212  -1.042  1.00  0.00     0.046 A 
HETATM    5  C3  UNL     1       2.651  -2.907  -1.927  1.00  0.00     0.032 A 
HETATM    6  C4  UNL     1       3.426  -2.241  -2.850  1.00  0.00     0.021 A 
HETATM    7  C5  UNL     1       3.362  -0.855  -2.844  1.00  0.00     0.011 A 
HETATM    8 BR1  UNL     1       4.432   0.084  -4.129  1.00  0.00    -0.051 Br
HETATM    9  C6  UNL     1       2.556  -0.214  -1.951  1.00  0.00     0.033 A 
HETATM   10  C7  UNL     1       1.764  -0.837  -1.010  1.00  0.00     0.008 A 
HETATM   11  C8  UNL     1       0.834  -0.374   0.008  1.00  0.00     0.047 A 
HETATM   12  C9  UNL     1       0.621   0.924   0.074  1.00  0.00     0.058 C 
HETATM   13  H1  UNL     1       0.730  -3.681   0.278  1.00  0.00     0.169 HD
ENDROOT
BRANCH  12  14
HETATM   14  C10 UNL     1      -0.418   1.283   1.018  1.00  0.00     0.176 A 
HETATM   15  C11 UNL     1      -1.062   1.263   2.238  1.00  0.00     0.087 A 
HETATM   16  C12 UNL     1      -2.079   1.919   1.517  1.00  0.00     0.384 A 
HETATM   17  C13 UNL     1      -2.637   2.534   0.190  1.00  0.00     0.540 A 
HETATM   18  C15 UNL     1      -3.519   1.917   2.100  1.00  0.00     0.118 C 
HETATM   19  N2  UNL     1      -1.653   1.950   0.666  1.00  0.00     0.202 N 
HETATM   20  N3  UNL     1      -3.162   2.030   0.420  1.00  0.00     0.183 N 
HETATM   21  C14 UNL     1      -4.031   1.126   0.853  1.00  0.00     0.268 C 
ENDBRANCH  12  14
TORSDOF 1
