REMARK  2 active torsions:
REMARK  status: ('A' for Active; 'I' for Inactive)
REMARK    1  A    between atoms: C1_2  and  C2_3 
REMARK       I    between atoms: C1_2  and  N2_13 
REMARK    2  A    between atoms: N2_13  and  C10_14 
ROOT
HETATM    1  O1  UNL     1      -0.038   1.143  -0.189  1.00  0.00    -0.269 OA
HETATM    2  C1  UNL     1      -0.010  -0.108  -0.238  1.00  0.00     0.243 C 
HETATM    3  N2  UNL     1       1.187  -0.837  -0.329  1.00  0.00    -0.346 N 
HETATM    4  H8  UNL     1       1.310  -1.875  -0.375  1.00  0.00     0.163 HD
ENDROOT
BRANCH   2   5
HETATM    5  C2  UNL     1      -1.242  -0.855  -0.199  1.00  0.00     0.100 C 
HETATM    6  C3  UNL     1      -2.124   0.099  -0.116  1.00  0.00     0.027 C 
HETATM    7  C4  UNL     1      -2.706   1.475  -0.033  1.00  0.00     0.099 C 
HETATM    8  N1  UNL     1      -3.572  -0.219  -0.047  1.00  0.00    -0.358 N 
HETATM    9  C5  UNL     1      -3.534   0.777  -1.169  1.00  0.00     0.144 C 
HETATM   10  C9  UNL     1      -3.630   1.854   1.067  1.00  0.00     0.023 C 
HETATM   11  C8  UNL     1      -4.809   1.454   1.655  1.00  0.00     0.021 C 
HETATM   12 CL1  UNL     1      -3.179   3.300   2.007  1.00  0.00    -0.088 Cl
HETATM   13  C7  UNL     1      -5.363   0.068   1.368  1.00  0.00     0.019 C 
HETATM   14  C6  UNL     1      -4.651  -0.908   0.668  1.00  0.00     0.091 C 
ENDBRANCH   2   5
BRANCH   3  15
HETATM   15  C10 UNL     1       2.484  -0.200  -0.376  1.00  0.00     0.131 C 
HETATM   16  C11 UNL     1       3.331  -0.582   0.768  1.00  0.00     0.002 C 
HETATM   17  C12 UNL     1       4.596  -0.786   1.084  1.00  0.00    -0.002 C 
HETATM   18  C13 UNL     1       5.694  -0.635   0.107  1.00  0.00    -0.000 C 
HETATM   19  C14 UNL     1       5.628  -0.566  -1.233  1.00  0.00    -0.000 C 
HETATM   20  C15 UNL     1       4.424  -0.623  -2.090  1.00  0.00    -0.002 C 
HETATM   21  C16 UNL     1       3.201  -0.460  -1.629  1.00  0.00     0.002 C 
ENDBRANCH   3  15
TORSDOF 2
