REMARK  1 active torsions:
REMARK  status: ('A' for Active; 'I' for Inactive)
REMARK    1  A    between atoms: C3_3  and  C4_4 
ROOT
HETATM    1  C4  UNL     1       2.026  -0.246  -0.425  1.00  0.00     0.009 C 
HETATM    2  C5  UNL     1       0.742  -0.457  -0.518  1.00  0.00    -0.027 C 
HETATM    3  C6  UNL     1      -0.209   0.602  -0.212  1.00  0.00    -0.051 A 
HETATM    4  C7  UNL     1      -0.710   1.609   0.539  1.00  0.00     0.001 A 
HETATM    5  C8  UNL     1      -1.320   1.909   1.876  1.00  0.00     0.044 C 
HETATM    6  C9  UNL     1      -2.792   1.690   1.337  1.00  0.00    -0.000 C 
HETATM    7  C10 UNL     1      -2.550   1.058   0.120  1.00  0.00     0.010 C 
HETATM    8  N1  UNL     1      -3.564   0.049  -0.204  1.00  0.00    -0.389 N 
HETATM    9  C11 UNL     1      -3.026  -1.211  -0.744  1.00  0.00     0.147 C 
HETATM   10  C12 UNL     1      -2.265  -1.842   0.365  1.00  0.00     0.008 C 
HETATM   11  C13 UNL     1      -0.953  -2.045   0.249  1.00  0.00     0.035 C 
HETATM   12  C14 UNL     1       0.308  -2.551   0.846  1.00  0.00     0.250 C 
HETATM   13  O1  UNL     1       0.657  -2.506   2.088  1.00  0.00    -0.268 OA
HETATM   14  N2  UNL     1       0.630  -2.939  -0.511  1.00  0.00    -0.344 N 
HETATM   15  C15 UNL     1      -0.041  -1.678  -0.874  1.00  0.00     0.157 C 
HETATM   16  C16 UNL     1      -1.486   1.111  -0.971  1.00  0.00     0.066 A 
HETATM   17  C17 UNL     1      -0.573   2.346  -0.776  1.00  0.00     0.031 A 
HETATM   18  H10 UNL     1      -4.574   0.257  -0.047  1.00  0.00     0.159 HD
HETATM   19  H14 UNL     1       1.140  -3.876  -0.499  1.00  0.00     0.163 HD
ENDROOT
BRANCH   1  20
HETATM   20  C3  UNL     1       2.706   0.951  -0.040  1.00  0.00    -0.004 C 
HETATM   21  C2  UNL     1       4.005   0.978  -0.005  1.00  0.00    -0.031 C 
HETATM   22  C1  UNL     1       4.982  -0.075  -0.316  1.00  0.00     0.036 C 
ENDBRANCH   1  20
TORSDOF 1
