REMARK  0 active torsions:
REMARK  status: ('A' for Active; 'I' for Inactive)
ROOT
HETATM    1 BR1  UNL     1       4.462  -1.295   0.267  1.00  0.00    -0.115 Br
HETATM    2  C1  UNL     1       3.129   0.063   0.154  1.00  0.00    -0.001 A 
HETATM    3  C2  UNL     1       2.160  -0.795  -0.092  1.00  0.00     0.012 A 
HETATM    4  C3  UNL     1       2.556  -2.187  -0.141  1.00  0.00     0.117 A 
HETATM    5  C4  UNL     1       1.595  -3.058  -0.399  1.00  0.00     0.128 C 
HETATM    6  N1  UNL     1       0.240  -2.767  -0.630  1.00  0.00    -0.078 NA
HETATM    7  C5  UNL     1      -0.684  -2.425   0.168  1.00  0.00     0.721 C 
HETATM    8  N2  UNL     1      -1.487  -2.413  -1.049  1.00  0.00    -0.079 NA
HETATM    9  C6  UNL     1      -2.140  -1.486  -1.726  1.00  0.00     0.114 C 
HETATM   10  C7  UNL     1      -2.613  -0.076  -1.702  1.00  0.00     0.085 C 
HETATM   11  C8  UNL     1      -2.272   0.640  -0.431  1.00  0.00    -0.056 C 
HETATM   12  C9  UNL     1      -2.131  -0.058   0.722  1.00  0.00     0.001 C 
HETATM   13  C10 UNL     1      -1.802  -0.839   1.973  1.00  0.00     0.166 C 
HETATM   14  N3  UNL     1      -1.200  -2.100   1.491  1.00  0.00    -0.219 N 
HETATM   15  C11 UNL     1      -2.067   2.065  -0.282  1.00  0.00     0.007 C 
HETATM   16  C12 UNL     1      -1.241   3.063  -0.089  1.00  0.00     0.001 C 
HETATM   17  C13 UNL     1       0.160   2.722   0.064  1.00  0.00     0.000 C 
HETATM   18  C14 UNL     1       1.416   3.051   0.262  1.00  0.00     0.000 C 
HETATM   19  C15 UNL     1       2.794   2.666   0.406  1.00  0.00     0.001 C 
HETATM   20  C16 UNL     1       3.343   1.474   0.346  1.00  0.00     0.018 C 
HETATM   21  H10 UNL     1      -1.103  -2.904   2.143  1.00  0.00     0.178 HD
ENDROOT
TORSDOF 0
