REMARK  5 active torsions:
REMARK  status: ('A' for Active; 'I' for Inactive)
REMARK    1  A    between atoms: C2_2  and  S1_4 
REMARK    2  A    between atoms: S1_4  and  C3_5 
REMARK    3  A    between atoms: C4_6  and  C5_7 
REMARK       I    between atoms: C5_7  and  N1_9 
REMARK    4  A    between atoms: N1_9  and  C6_10 
REMARK    5  A    between atoms: C14_18  and  C15_19 
ROOT
HETATM    1  C3  UNL     1      -1.540  -0.382   0.124  1.00  0.00     0.091 A 
HETATM    2  C4  UNL     1      -0.207  -0.534   0.225  1.00  0.00     0.050 A 
HETATM    3  C12 UNL     1       0.053  -1.970   0.534  1.00  0.00     0.104 A 
HETATM    4  C13 UNL     1      -1.254  -2.625   0.630  1.00  0.00     0.013 A 
HETATM    5  C14 UNL     1      -1.518  -3.876   0.914  1.00  0.00     0.009 C 
HETATM    6  N2  UNL     1      -2.187  -1.605   0.360  1.00  0.00    -0.348 N 
HETATM    7  C16 UNL     1      -3.627  -1.700   0.310  1.00  0.00     0.156 C 
ENDROOT
BRANCH   2   8
HETATM    8  C5  UNL     1       1.061   0.217   0.127  1.00  0.00     0.255 C 
HETATM    9  O2  UNL     1       2.274  -0.177   0.272  1.00  0.00    -0.268 OA
HETATM   10  N1  UNL     1       1.164   1.600  -0.163  1.00  0.00    -0.323 N 
HETATM   11  H4  UNL     1       0.309   2.171  -0.328  1.00  0.00     0.169 HD
BRANCH  10  12
HETATM   12  C6  UNL     1       2.551   1.969  -0.173  1.00  0.00     0.035 A 
HETATM   13  C7  UNL     1       3.196   2.403   0.963  1.00  0.00     0.029 A 
HETATM   14  C8  UNL     1       4.536   2.761   0.961  1.00  0.00     0.002 A 
HETATM   15  C9  UNL     1       5.273   2.691  -0.203  1.00  0.00     0.000 A 
HETATM   16  C10 UNL     1       4.644   2.258  -1.355  1.00  0.00     0.002 A 
HETATM   17  C11 UNL     1       3.319   1.911  -1.324  1.00  0.00     0.029 A 
ENDBRANCH  10  12
ENDBRANCH   2   8
BRANCH   1  18
HETATM   18  S1  UNL     1      -1.985   1.286  -0.260  1.00  0.00    -0.034 SA
BRANCH  18  19
HETATM   19  C2  UNL     1      -3.727   1.578  -0.432  1.00  0.00     0.188 C 
HETATM   20  C1  UNL     1      -3.791   3.040  -0.744  1.00  0.00     0.104 C 
HETATM   21  O1  UNL     1      -4.835   1.068  -0.395  1.00  0.00    -0.286 OA
ENDBRANCH  18  19
ENDBRANCH   1  18
BRANCH   5  22
HETATM   22  C15 UNL     1      -0.626  -4.984   1.214  1.00  0.00     0.114 C 
HETATM   23 BR1  UNL     1       1.251  -4.535   1.197  1.00  0.00    -0.092 Br
ENDBRANCH   5  22
TORSDOF 5
