REMARK  2 active torsions:
REMARK  status: ('A' for Active; 'I' for Inactive)
REMARK    1  A    between atoms: C8_10  and  C9_11 
REMARK    2  A    between atoms: C9_11  and  C10_12 
ROOT
HETATM    1  O1  UNL     1      -1.197  -3.170   1.006  1.00  0.00    -0.267 OA
HETATM    2  C1  UNL     1      -1.889  -2.165   0.725  1.00  0.00     0.256 A 
HETATM    3  N1  UNL     1      -3.289  -2.399   0.767  1.00  0.00    -0.322 N 
HETATM    4  C2  UNL     1      -3.937  -1.187   0.430  1.00  0.00     0.046 A 
HETATM    5  C3  UNL     1      -5.277  -0.804   0.307  1.00  0.00     0.030 A 
HETATM    6  C4  UNL     1      -5.732   0.447  -0.036  1.00  0.00     0.002 A 
HETATM    7  C5  UNL     1      -4.796   1.425  -0.286  1.00  0.00     0.001 A 
HETATM    8  C6  UNL     1      -3.463   1.108  -0.181  1.00  0.00     0.014 A 
HETATM    9  C7  UNL     1      -3.068  -0.165   0.168  1.00  0.00     0.006 A 
HETATM   10  C8  UNL     1      -1.753  -0.767   0.350  1.00  0.00     0.043 A 
HETATM   11  H1  UNL     1      -3.866  -3.242   0.985  1.00  0.00     0.169 HD
ENDROOT
BRANCH  10  12
HETATM   12  C9  UNL     1      -0.591  -0.235   0.226  1.00  0.00     0.024 C 
BRANCH  12  13
HETATM   13  C10 UNL     1       0.799  -0.043   0.199  1.00  0.00     0.071 A 
HETATM   14  C11 UNL     1       0.814  -1.372   0.557  1.00  0.00     0.052 A 
HETATM   15  C12 UNL     1       2.141  -1.050   0.490  1.00  0.00     0.068 A 
HETATM   16  C13 UNL     1       3.267  -0.757   0.421  1.00  0.00    -0.168 C 
HETATM   17  C14 UNL     1       4.663  -0.369   0.323  1.00  0.00     0.081 C 
HETATM   18  C15 UNL     1       4.646   1.164   0.127  1.00  0.00     0.013 C 
HETATM   19  C16 UNL     1       3.872   1.500  -1.155  1.00  0.00     0.020 C 
HETATM   20  C17 UNL     1       2.550   0.790  -1.213  1.00  0.00     0.115 C 
HETATM   21  N2  UNL     1       1.765   1.004  -0.046  1.00  0.00    -0.407 N 
HETATM   22  H16 UNL     1       1.470   1.510   0.783  1.00  0.00     0.154 HD
ENDBRANCH  12  13
ENDBRANCH  10  12
TORSDOF 2
