REMARK  5 active torsions:
REMARK  status: ('A' for Active; 'I' for Inactive)
REMARK    1  A    between atoms: C4_4  and  C5_5 
REMARK    2  A    between atoms: C5_5  and  C14_16 
REMARK    3  A    between atoms: C6_6  and  C7_7 
REMARK    4  A    between atoms: C7_7  and  N1_8 
REMARK    5  A    between atoms: N1_8  and  C8_9 
REMARK       I    between atoms: C14_16  and  N2_17 
ROOT
HETATM    1  C5  UNL     1      -1.501   0.399  -0.343  1.00  0.00     0.039 C 
HETATM    2  C6  UNL     1      -0.334  -0.181  -0.482  1.00  0.00     0.010 C 
ENDROOT
BRANCH   1   3
HETATM    3  C4  UNL     1      -2.741  -0.345  -0.206  1.00  0.00    -0.024 A 
HETATM    4  C3  UNL     1      -3.952   0.445  -0.059  1.00  0.00     0.019 A 
HETATM    5  C2  UNL     1      -5.162   0.004   0.077  1.00  0.00    -0.058 A 
HETATM    6  C1  UNL     1      -6.397   0.791   0.227  1.00  0.00     0.049 C 
HETATM    7  P1  UNL     1      -5.575  -1.777   0.110  1.00  0.00    -0.096 P 
HETATM    8  C16 UNL     1      -3.917  -2.619  -0.088  1.00  0.00     0.064 A 
HETATM    9  H22 UNL     1      -6.164  -2.141   1.382  1.00  0.00     0.062 HD
HETATM   10  C15 UNL     1      -2.854  -1.636  -0.203  1.00  0.00    -0.010 A 
ENDBRANCH   1   3
BRANCH   1  11
HETATM   11  C14 UNL     1      -1.467   1.834  -0.336  1.00  0.00     0.249 C 
HETATM   12  N2  UNL     1      -2.240   3.005  -0.238  1.00  0.00    -0.366 N 
HETATM   13  H17 UNL     1      -2.711   3.580  -0.992  1.00  0.00     0.159 HD
HETATM   14  H18 UNL     1      -2.533   3.574   0.586  1.00  0.00     0.159 HD
HETATM   15  O1  UNL     1      -0.449   2.543  -0.450  1.00  0.00    -0.268 OA
ENDBRANCH   1  11
BRANCH   2  16
HETATM   16  C7  UNL     1       1.087   0.082  -0.644  1.00  0.00     0.148 C 
BRANCH  16  17
HETATM   17  N1  UNL     1       1.886  -0.502   0.447  1.00  0.00    -0.389 N 
HETATM   18  H8  UNL     1       1.823  -1.051   1.321  1.00  0.00     0.159 HD
BRANCH  17  19
HETATM   19  C8  UNL     1       3.287  -0.225   0.258  1.00  0.00     0.018 C 
HETATM   20  C9  UNL     1       3.793   0.951   0.582  1.00  0.00     0.011 C 
HETATM   21 BR1  UNL     1       2.699   2.354   1.320  1.00  0.00    -0.054 Br
HETATM   22  C10 UNL     1       5.232   1.205   0.377  1.00  0.00     0.048 C 
HETATM   23  C11 UNL     1       6.107   0.004   0.398  1.00  0.00     0.006 C 
HETATM   24  C12 UNL     1       5.414  -1.316   0.467  1.00  0.00     0.006 C 
HETATM   25  C13 UNL     1       4.117  -1.320  -0.313  1.00  0.00     0.058 C 
ENDBRANCH  17  19
ENDBRANCH  16  17
ENDBRANCH   2  16
TORSDOF 5
