REMARK  5 active torsions:
REMARK  status: ('A' for Active; 'I' for Inactive)
REMARK    1  A    between atoms: C6_7  and  C7_8 
REMARK    2  A    between atoms: C6_7  and  N3_20 
REMARK    3  A    between atoms: C7_8  and  C8_9 
REMARK    4  A    between atoms: C9_10  and  O2_11 
REMARK    5  A    between atoms: C14_17  and  O3_18 
ROOT
HETATM    1  C8  UNL     1      -1.475  -0.271   0.024  1.00  0.00     0.006 A 
HETATM    2  C9  UNL     1      -1.863  -1.565  -0.240  1.00  0.00     0.074 A 
HETATM    3  C10 UNL     1      -2.521  -1.873  -1.419  1.00  0.00     0.039 A 
HETATM    4  C11 UNL     1      -2.766  -0.849  -2.299  1.00  0.00     0.034 A 
HETATM    5  C12 UNL     1      -2.352   0.424  -1.977  1.00  0.00     0.058 A 
HETATM    6  C13 UNL     1      -1.698   0.782  -0.828  1.00  0.00     0.067 A 
HETATM    7  N1  UNL     1      -1.380   2.161  -0.758  1.00  0.00    -0.345 N 
HETATM    8  C14 UNL     1      -2.193   2.757  -1.821  1.00  0.00     0.327 C 
HETATM    9  N2  UNL     1      -2.487   1.651  -2.720  1.00  0.00    -0.345 N 
HETATM   10  H11 UNL     1      -0.731   2.616  -0.109  1.00  0.00     0.164 HD
HETATM   11  H14 UNL     1      -2.750   1.736  -3.726  1.00  0.00     0.164 HD
ENDROOT
BRANCH   1  12
HETATM   12  C7  UNL     1      -0.706   0.075   1.277  1.00  0.00     0.074 C 
BRANCH  12  13
HETATM   13  C6  UNL     1       0.699  -0.129   0.970  1.00  0.00     0.051 A 
HETATM   14  C5  UNL     1       1.436   1.020   1.202  1.00  0.00    -0.010 A 
HETATM   15  C4  UNL     1       2.461  -0.088   1.026  1.00  0.00     0.050 A 
HETATM   16  C3  UNL     1       4.150   0.055   1.077  1.00  0.00     0.025 A 
HETATM   17  C15 UNL     1       2.156  -1.699   0.714  1.00  0.00     0.129 A 
HETATM   18  C1  UNL     1       2.543  -1.481   0.774  1.00  0.00     0.141 A 
HETATM   19  C2  UNL     1       4.252  -1.481   0.703  1.00  0.00     0.058 A 
HETATM   20  N3  UNL     1       0.958  -1.481   0.715  1.00  0.00    -0.259 NA
HETATM   21  O1  UNL     1       2.587  -1.465   2.418  1.00  0.00    -0.213 OA
ENDBRANCH  12  13
ENDBRANCH   1  12
BRANCH   2  22
HETATM   22  O2  UNL     1      -1.612  -2.593   0.652  1.00  0.00    -0.360 OA
HETATM   23  H8  UNL     1      -2.320  -2.824   1.358  1.00  0.00     0.217 HD
ENDBRANCH   2  22
BRANCH   8  24
HETATM   24  O3  UNL     1      -1.470   3.745  -2.447  1.00  0.00    -0.360 OA
HETATM   25  H13 UNL     1      -2.068   4.517  -2.598  1.00  0.00     0.214 HD
ENDBRANCH   8  24
TORSDOF 5
