REMARK  5 active torsions:
REMARK  status: ('A' for Active; 'I' for Inactive)
REMARK    1  A    between atoms: C3_3  and  N1_4 
REMARK    2  A    between atoms: N1_4  and  C4_5 
REMARK    3  A    between atoms: C4_5  and  C5_6 
REMARK    4  A    between atoms: C11_14  and  C12_15 
REMARK    5  A    between atoms: C12_15  and  O3_17 
ROOT
HETATM    1  C5  UNL     1       0.268  -0.824  -0.338  1.00  0.00     0.010 C 
HETATM    2  C6  UNL     1       1.344  -0.655  -1.091  1.00  0.00     0.042 A 
HETATM    3  C7  UNL     1       1.417  -0.692  -2.571  1.00  0.00     0.256 A 
HETATM    4  O1  UNL     1       0.450  -0.891  -3.344  1.00  0.00    -0.267 OA
HETATM    5  N2  UNL     1       2.792  -0.456  -2.798  1.00  0.00    -0.322 N 
HETATM    6  C8  UNL     1       3.576  -0.277  -1.641  1.00  0.00     0.046 A 
HETATM    7  C9  UNL     1       4.917  -0.035  -1.553  1.00  0.00     0.031 A 
HETATM    8  C10 UNL     1       5.472   0.107  -0.298  1.00  0.00     0.020 A 
HETATM    9  C11 UNL     1       4.643  -0.003   0.797  1.00  0.00     0.038 A 
HETATM   10  C13 UNL     1       3.299  -0.248   0.650  1.00  0.00     0.033 A 
HETATM   11  C14 UNL     1       2.700  -0.397  -0.584  1.00  0.00     0.007 A 
HETATM   12  H8  UNL     1       3.085  -0.440  -3.821  1.00  0.00     0.169 HD
ENDROOT
BRANCH   1  13
HETATM   13  C4  UNL     1      -0.336  -0.888   0.991  1.00  0.00     0.148 C 
BRANCH  13  14
HETATM   14  N1  UNL     1      -1.398   0.104   1.205  1.00  0.00    -0.389 N 
HETATM   15  H4  UNL     1      -1.276   0.910   1.881  1.00  0.00     0.159 HD
BRANCH  14  16
HETATM   16  C3  UNL     1      -2.659   0.142   0.596  1.00  0.00     0.007 C 
HETATM   17  C2  UNL     1      -3.262   1.262   0.227  1.00  0.00    -0.061 C 
HETATM   18  C1  UNL     1      -2.610   2.581   0.447  1.00  0.00     0.045 C 
HETATM   19  C18 UNL     1      -4.607   1.184  -0.413  1.00  0.00     0.036 C 
HETATM   20  C17 UNL     1      -4.548   0.029  -1.373  1.00  0.00     0.005 C 
HETATM   21  C16 UNL     1      -4.378  -1.246  -0.576  1.00  0.00     0.006 C 
HETATM   22  C15 UNL     1      -3.246  -1.191   0.409  1.00  0.00     0.057 C 
ENDBRANCH  14  16
ENDBRANCH  13  14
ENDBRANCH   1  13
BRANCH   9  23
HETATM   23  C12 UNL     1       5.199   0.145   2.132  1.00  0.00     0.176 C 
HETATM   24  O2  UNL     1       4.510   0.058   3.203  1.00  0.00    -0.646 OA
BRANCH  23  25
HETATM   25  O3  UNL     1       6.545   0.398   2.355  1.00  0.00    -0.773 OA
HETATM   26  H11 UNL     1       7.054  -0.022   3.146  1.00  0.00     0.167 HD
ENDBRANCH  23  25
ENDBRANCH   9  23
TORSDOF 5
