REMARK  5 active torsions:
REMARK  status: ('A' for Active; 'I' for Inactive)
REMARK    1  A    between atoms: C3_4  and  N1_5 
REMARK    2  A    between atoms: N1_5  and  C4_6 
REMARK    3  A    between atoms: C4_6  and  C5_7 
REMARK    4  A    between atoms: C11_15  and  S1_16 
REMARK    5  A    between atoms: S1_16  and  N3_17 
ROOT
HETATM    1  B1  UNL     1       3.373   0.986  -3.538  1.00  0.00     0.196 B 
HETATM    2  C1  UNL     1       3.847   0.502  -1.806  1.00  0.00    -0.227 C 
HETATM    3  C2  UNL     1       4.208   0.111  -0.474  1.00  0.00    -0.011 C 
HETATM    4  C3  UNL     1       3.251  -0.079   0.395  1.00  0.00     0.018 C 
HETATM    5  C14 UNL     1       3.746  -0.478   1.743  1.00  0.00     0.058 C 
HETATM    6  C15 UNL     1       4.946  -1.361   1.626  1.00  0.00     0.006 C 
HETATM    7  C16 UNL     1       6.078  -0.593   0.994  1.00  0.00     0.006 C 
HETATM    8  C17 UNL     1       5.665  -0.005  -0.328  1.00  0.00     0.048 C 
ENDROOT
BRANCH   4   9
HETATM    9  N1  UNL     1       1.860   0.070   0.135  1.00  0.00    -0.389 N 
HETATM   10  H1  UNL     1       1.244  -0.246   0.919  1.00  0.00     0.159 HD
BRANCH   9  11
HETATM   11  C4  UNL     1       1.108   0.557  -0.964  1.00  0.00     0.148 C 
BRANCH  11  12
HETATM   12  C5  UNL     1      -0.359   0.557  -0.741  1.00  0.00     0.010 C 
HETATM   13  C6  UNL     1      -1.352  -0.029  -1.356  1.00  0.00     0.042 A 
HETATM   14  C7  UNL     1      -1.291  -0.908  -2.512  1.00  0.00     0.256 A 
HETATM   15  C13 UNL     1      -2.731   0.150  -0.928  1.00  0.00     0.008 A 
HETATM   16  O1  UNL     1      -0.292  -1.290  -3.152  1.00  0.00    -0.267 OA
HETATM   17  N2  UNL     1      -2.633  -1.265  -2.792  1.00  0.00    -0.322 N 
HETATM   18  C8  UNL     1      -3.458  -0.624  -1.840  1.00  0.00     0.046 A 
HETATM   19  H5  UNL     1      -2.943  -1.890  -3.567  1.00  0.00     0.169 HD
HETATM   20  C9  UNL     1      -4.846  -0.689  -1.735  1.00  0.00     0.032 A 
HETATM   21  C10 UNL     1      -5.503   0.005  -0.741  1.00  0.00     0.027 A 
HETATM   22  C11 UNL     1      -4.760   0.772   0.159  1.00  0.00     0.075 A 
HETATM   23  C12 UNL     1      -3.385   0.845   0.068  1.00  0.00     0.039 A 
BRANCH  22  24
HETATM   24  S1  UNL     1      -5.645   1.639   1.405  1.00  0.00     0.239 S 
HETATM   25  O2  UNL     1      -4.886   2.872   1.825  1.00  0.00    -0.206 OA
HETATM   26  O3  UNL     1      -7.025   2.008   0.899  1.00  0.00    -0.206 OA
BRANCH  24  27
HETATM   27  N3  UNL     1      -5.859   0.679   2.825  1.00  0.00    -0.225 NA
HETATM   28  H8  UNL     1      -5.410  -0.250   2.642  1.00  0.00     0.136 HD
HETATM   29  H9  UNL     1      -6.882   0.459   2.992  1.00  0.00     0.136 HD
ENDBRANCH  24  27
ENDBRANCH  22  24
ENDBRANCH  11  12
ENDBRANCH   9  11
ENDBRANCH   4   9
TORSDOF 5
