REMARK  4 active torsions:
REMARK  status: ('A' for Active; 'I' for Inactive)
REMARK    1  A    between atoms: C3_4  and  C4_5 
REMARK    2  A    between atoms: C5_6  and  S1_7 
REMARK    3  A    between atoms: S1_7  and  N2_8 
REMARK    4  A    between atoms: N3_22  and  O3_23 
ROOT
HETATM    1  C1  UNL     1       0.016   0.744  -3.288  1.00  0.00     0.043 C 
HETATM    2  C2  UNL     1       0.708   0.146  -2.346  1.00  0.00     0.032 C 
HETATM    3  N1  UNL     1       2.046  -0.331  -2.581  1.00  0.00    -0.378 N 
HETATM    4  C3  UNL     1       2.637  -0.302  -1.238  1.00  0.00     0.139 C 
HETATM    5  C6  UNL     1       1.496  -0.813  -0.454  1.00  0.00    -0.026 C 
HETATM    6  C7  UNL     1       1.552  -1.690   0.509  1.00  0.00     0.022 C 
HETATM    7  C8  UNL     1       0.312  -0.147  -0.976  1.00  0.00     0.026 C 
HETATM    8  C9  UNL     1      -0.829   0.124  -0.377  1.00  0.00     0.071 A 
HETATM    9  C10 UNL     1      -1.985   0.792  -0.958  1.00  0.00     0.037 A 
HETATM   10  C11 UNL     1      -2.975   0.912  -0.072  1.00  0.00    -0.053 A 
HETATM   11  C12 UNL     1      -4.343   1.487  -0.100  1.00  0.00     0.036 C 
HETATM   12  C13 UNL     1      -4.986   1.205   1.240  1.00  0.00     0.004 C 
HETATM   13  C14 UNL     1      -4.930  -0.282   1.576  1.00  0.00     0.003 C 
HETATM   14  C15 UNL     1      -3.532  -0.803   1.547  1.00  0.00     0.032 C 
HETATM   15  C16 UNL     1      -2.584   0.317   1.233  1.00  0.00     0.143 A 
HETATM   16  N3  UNL     1      -1.250  -0.136   0.952  1.00  0.00    -0.251 N 
HETATM   17  H3  UNL     1       2.500  -0.627  -3.473  1.00  0.00     0.160 HD
ENDROOT
BRANCH   4  18
HETATM   18  C4  UNL     1       3.836  -1.132  -1.161  1.00  0.00     0.016 C 
HETATM   19  C5  UNL     1       4.984  -0.831  -0.571  1.00  0.00     0.124 C 
BRANCH  19  20
HETATM   20  S1  UNL     1       5.511   0.571   0.295  1.00  0.00     0.229 S 
HETATM   21  O1  UNL     1       6.841   1.111  -0.213  1.00  0.00    -0.207 OA
HETATM   22  O2  UNL     1       4.563   1.718   0.251  1.00  0.00    -0.207 OA
BRANCH  20  23
HETATM   23  N2  UNL     1       5.730   0.107   1.957  1.00  0.00    -0.226 NA
HETATM   24  H7  UNL     1       6.016  -0.886   2.068  1.00  0.00     0.136 HD
HETATM   25  H8  UNL     1       6.367   0.766   2.463  1.00  0.00     0.136 HD
ENDBRANCH  20  23
ENDBRANCH  19  20
ENDBRANCH   4  18
BRANCH  16  26
HETATM   26  O3  UNL     1      -0.572  -0.727   1.930  1.00  0.00    -0.286 OA
HETATM   27  H21 UNL     1      -1.007  -1.512   2.335  1.00  0.00     0.244 HD
ENDBRANCH  16  26
TORSDOF 4
