REMARK  7 active torsions:
REMARK  status: ('A' for Active; 'I' for Inactive)
REMARK    1  A    between atoms: O1_2  and  C2_3 
REMARK    2  A    between atoms: C7_10  and  N3_11 
REMARK    3  A    between atoms: N3_11  and  C8_12 
REMARK    4  A    between atoms: C8_12  and  C12_17 
REMARK    5  A    between atoms: C9_13  and  C10_14 
REMARK    6  A    between atoms: C14_20  and  O2_21 
REMARK    7  A    between atoms: O2_21  and  C15_22 
ROOT
HETATM    1  C2  UNL     1      -0.759   2.641  -0.827  1.00  0.00     0.102 A 
HETATM    2  C3  UNL     1      -0.602   3.915  -0.323  1.00  0.00     0.042 A 
HETATM    3  C4  UNL     1       0.335   4.184   0.652  1.00  0.00     0.035 A 
HETATM    4  C5  UNL     1       1.110   3.137   1.102  1.00  0.00     0.075 A 
HETATM    5  N1  UNL     1       2.055   3.302   2.010  1.00  0.00    -0.241 NA
HETATM    6  C6  UNL     1       2.831   2.311   2.427  1.00  0.00     0.236 A 
HETATM    7  N2  UNL     1       2.665   1.057   1.906  1.00  0.00    -0.223 NA
HETATM    8  C7  UNL     1       1.715   0.851   0.983  1.00  0.00     0.144 A 
HETATM    9  C13 UNL     1       0.922   1.889   0.574  1.00  0.00     0.075 A 
HETATM   10  C14 UNL     1       0.010   1.559  -0.387  1.00  0.00     0.118 A 
ENDROOT
BRANCH   8  11
HETATM   11  N3  UNL     1       1.688  -0.445   0.429  1.00  0.00    -0.343 N 
HETATM   12  H7  UNL     1       1.403  -1.237  -0.158  1.00  0.00     0.167 HD
BRANCH  11  13
HETATM   13  C8  UNL     1       2.686  -1.375   0.924  1.00  0.00     0.024 C 
HETATM   14  C9  UNL     1       3.920  -1.135   0.429  1.00  0.00     0.028 C 
BRANCH  14  15
HETATM   15  C10 UNL     1       5.316  -1.559   0.423  1.00  0.00     0.031 C 
HETATM   16  C11 UNL     1       6.494  -1.227  -0.132  1.00  0.00     0.188 C 
HETATM   17  F1  UNL     1       6.285  -0.154  -0.937  1.00  0.00    -0.219 F 
ENDBRANCH  14  15
BRANCH  13  18
HETATM   18  C12 UNL     1       2.485  -2.501   1.894  1.00  0.00     0.171 C 
HETATM   19 CL1  UNL     1       1.348  -3.652   1.207  1.00  0.00    -0.124 Cl
ENDBRANCH  13  18
ENDBRANCH  11  13
ENDBRANCH   8  11
BRANCH  10  20
HETATM   20  O2  UNL     1      -0.324   0.360  -1.026  1.00  0.00    -0.342 OA
BRANCH  20  21
HETATM   21  C15 UNL     1      -1.481  -0.357  -0.610  1.00  0.00     0.132 C 
HETATM   22  C16 UNL     1      -2.436  -0.436  -1.779  1.00  0.00     0.062 C 
HETATM   23  C17 UNL     1      -2.853  -1.843  -2.128  1.00  0.00     0.274 C 
HETATM   24  N4  UNL     1      -3.331  -2.592  -1.013  1.00  0.00     0.084 N 
HETATM   25  C18 UNL     1      -4.764  -2.630  -0.877  1.00  0.00     0.309 C 
HETATM   26  C19 UNL     1      -2.645  -2.328   0.211  1.00  0.00     0.274 C 
HETATM   27  C20 UNL     1      -1.271  -1.706  -0.041  1.00  0.00     0.062 C 
ENDBRANCH  20  21
ENDBRANCH  10  20
BRANCH   1  28
HETATM   28  O1  UNL     1      -1.735   2.529  -1.797  1.00  0.00    -0.353 OA
HETATM   29  C1  UNL     1      -2.495   3.643  -2.219  1.00  0.00     0.210 C 
ENDBRANCH   1  28
TORSDOF 7
