REMARK  4 active torsions:
REMARK  status: ('A' for Active; 'I' for Inactive)
REMARK    1  A    between atoms: N1_1  and  S1_2 
REMARK    2  A    between atoms: S1_2  and  C1_5 
REMARK    3  A    between atoms: C7_12  and  C8_13 
REMARK    4  A    between atoms: C8_13  and  N2_14 
ROOT
HETATM    1  C1  UNL     1      -4.061  -0.012   0.854  1.00  0.00     0.076 A 
HETATM    2  C2  UNL     1      -4.063  -1.330   1.080  1.00  0.00     0.037 A 
HETATM    3  C3  UNL     1      -2.807  -1.878   0.566  1.00  0.00    -0.020 A 
HETATM    4  C4  UNL     1      -2.114  -2.991   0.421  1.00  0.00     0.068 A 
HETATM    5  C5  UNL     1      -0.852  -2.688  -0.241  1.00  0.00     0.183 A 
HETATM    6  O3  UNL     1       0.033  -3.533  -0.525  1.00  0.00    -0.288 OA
HETATM    7  C6  UNL     1      -0.798  -1.257  -0.512  1.00  0.00     0.023 A 
HETATM    8  C7  UNL     1       0.145  -0.533  -1.092  1.00  0.00     0.009 C 
HETATM    9  C15 UNL     1      -2.061  -0.755   0.014  1.00  0.00    -0.010 A 
HETATM   10  C16 UNL     1      -2.802   0.349   0.184  1.00  0.00     0.038 A 
ENDROOT
BRANCH   8  11
HETATM   11  C8  UNL     1       1.422  -0.996  -1.631  1.00  0.00     0.152 C 
BRANCH  11  12
HETATM   12  N2  UNL     1       2.597  -0.436  -1.041  1.00  0.00    -0.369 N 
HETATM   13  C9  UNL     1       3.660  -0.122  -0.728  1.00  0.00     0.066 A 
HETATM   14  C10 UNL     1       4.571   0.167  -0.444  1.00  0.00    -0.130 C 
HETATM   15  C14 UNL     1       2.601   0.579   0.148  1.00  0.00     0.166 A 
HETATM   16  C11 UNL     1       5.835   0.597  -0.028  1.00  0.00     0.087 C 
HETATM   17  C12 UNL     1       4.825   1.779   0.609  1.00  0.00     0.013 C 
HETATM   18  C13 UNL     1       3.434   1.822   0.092  1.00  0.00     0.025 C 
ENDBRANCH  11  12
ENDBRANCH   8  11
BRANCH   1  19
HETATM   19  S1  UNL     1      -5.383   1.044   1.313  1.00  0.00     0.239 S 
HETATM   20  O1  UNL     1      -4.900   2.437   1.612  1.00  0.00    -0.206 OA
HETATM   21  O2  UNL     1      -6.031   0.545   2.578  1.00  0.00    -0.206 OA
BRANCH  19  22
HETATM   22  N1  UNL     1      -6.543   1.164   0.032  1.00  0.00    -0.225 NA
HETATM   23  H1  UNL     1      -6.540   0.284  -0.528  1.00  0.00     0.136 HD
HETATM   24  H2  UNL     1      -6.304   1.957  -0.620  1.00  0.00     0.136 HD
ENDBRANCH  19  22
ENDBRANCH   1  19
TORSDOF 4
