REMARK  2 active torsions:
REMARK  status: ('A' for Active; 'I' for Inactive)
REMARK    1  A    between atoms: C4_5  and  C5_6 
REMARK    2  A    between atoms: C5_6  and  O2_8 
ROOT
HETATM    1  C1  UNL     1       4.151   0.572  -1.793  1.00  0.00     0.039 C 
HETATM    2  C2  UNL     1       2.871   0.439  -1.450  1.00  0.00     0.009 C 
HETATM    3  N1  UNL     1       1.686   1.130  -1.919  1.00  0.00    -0.359 N 
HETATM    4  C3  UNL     1       0.842   1.176  -0.733  1.00  0.00     0.046 C 
HETATM    5  C4  UNL     1       1.450   0.597   0.318  1.00  0.00     0.052 C 
HETATM    6  C6  UNL     1       2.188  -0.464  -0.469  1.00  0.00     0.077 C 
HETATM    7  C7  UNL     1       1.129  -1.238  -1.255  1.00  0.00     0.016 C 
HETATM    8  C8  UNL     1       0.537  -2.333  -0.462  1.00  0.00     0.005 C 
HETATM    9  C9  UNL     1      -0.048  -1.996   0.862  1.00  0.00     0.035 C 
HETATM   10  C10 UNL     1      -1.221  -1.125   0.867  1.00  0.00    -0.065 A 
HETATM   11  C11 UNL     1      -1.835  -1.205   2.095  1.00  0.00     0.006 A 
HETATM   12  C12 UNL     1      -3.016  -0.368   2.197  1.00  0.00     0.026 A 
HETATM   13  C13 UNL     1      -3.087   0.206   1.012  1.00  0.00     0.025 A 
HETATM   14  N2  UNL     1      -3.848   1.134   0.207  1.00  0.00    -0.326 N 
HETATM   15  C14 UNL     1      -2.855   1.612  -0.735  1.00  0.00     0.253 C 
HETATM   16  O3  UNL     1      -3.347   2.481  -1.566  1.00  0.00    -0.268 OA
HETATM   17  C15 UNL     1      -1.499   0.993  -0.528  1.00  0.00     0.026 C 
HETATM   18  C16 UNL     1      -0.492   1.795  -0.931  1.00  0.00     0.044 C 
HETATM   19  C17 UNL     1      -2.002  -0.229   0.039  1.00  0.00     0.103 A 
HETATM   20  H3  UNL     1       1.625   1.471  -2.920  1.00  0.00     0.166 HD
HETATM   21  H14 UNL     1      -4.857   1.337   0.352  1.00  0.00     0.169 HD
ENDROOT
BRANCH   5  22
HETATM   22  C5  UNL     1       1.033   1.328   1.522  1.00  0.00     0.175 C 
HETATM   23  O1  UNL     1       0.251   2.257   1.223  1.00  0.00    -0.646 OA
BRANCH  22  24
HETATM   24  O2  UNL     1       1.423   1.065   2.827  1.00  0.00    -0.773 OA
HETATM   25  H4  UNL     1       1.485   1.869   3.461  1.00  0.00     0.167 HD
ENDBRANCH  22  24
ENDBRANCH   5  22
TORSDOF 2
