REMARK  1 active torsions:
REMARK  status: ('A' for Active; 'I' for Inactive)
REMARK    1  A    between atoms: C7_7  and  C8_8 
ROOT
HETATM    1  C1  UNL     1      -1.737   3.838   0.777  1.00  0.00     0.017 C 
HETATM    2  C2  UNL     1      -1.222   2.449   0.638  1.00  0.00    -0.018 C 
HETATM    3  C3  UNL     1      -0.112   2.294  -0.042  1.00  0.00     0.042 A 
HETATM    4  C4  UNL     1       1.114   1.861  -0.756  1.00  0.00    -0.033 A 
HETATM    5  C5  UNL     1       2.208   1.538  -1.422  1.00  0.00     0.007 C 
HETATM    6  C6  UNL     1       2.981   0.270  -1.428  1.00  0.00     0.015 C 
HETATM    7  C7  UNL     1       2.960  -0.483  -0.313  1.00  0.00     0.003 C 
HETATM    8  C9  UNL     1       2.273  -0.286   0.995  1.00  0.00     0.013 C 
HETATM    9  C10 UNL     1       1.073   0.346   1.094  1.00  0.00     0.011 C 
HETATM   10  C11 UNL     1       0.308   0.903  -0.034  1.00  0.00     0.085 A 
HETATM   11  N1  UNL     1      -0.782   0.127  -0.537  1.00  0.00    -0.391 N 
HETATM   12  C12 UNL     1      -0.524  -1.102  -1.127  1.00  0.00     0.119 C 
HETATM   13  C13 UNL     1      -1.667  -2.071  -1.212  1.00  0.00     0.020 C 
HETATM   14  C14 UNL     1      -2.343  -2.273   0.122  1.00  0.00     0.004 C 
HETATM   15  C15 UNL     1      -2.024  -1.131   1.062  1.00  0.00     0.025 C 
HETATM   16  C16 UNL     1      -1.952   0.172   0.253  1.00  0.00     0.081 C 
HETATM   17  C17 UNL     1      -1.970   1.326   1.242  1.00  0.00     0.036 C 
ENDROOT
BRANCH   7  18
HETATM   18  C8  UNL     1       3.763  -1.698  -0.455  1.00  0.00     0.154 A 
HETATM   19  O1  UNL     1       4.338  -1.849  -1.577  1.00  0.00    -0.188 OA
HETATM   20  O2  UNL     1       4.507  -2.839  -0.566  1.00  0.00     0.000 OA
HETATM   21  H6  UNL     1       4.600  -3.454   0.259  1.00  0.00     0.000 HD
ENDBRANCH   7  18
TORSDOF 1
