REMARK  3 active torsions:
REMARK  status: ('A' for Active; 'I' for Inactive)
REMARK    1  A    between atoms: C1_2  and  N1_3 
REMARK    2  A    between atoms: C5_7  and  C6_8 
REMARK    3  A    between atoms: C7_11  and  C8_12 
ROOT
HETATM    1  N1  UNL     1       2.645  -1.096   0.597  1.00  0.00    -0.323 N 
HETATM    2  C2  UNL     1       3.325  -1.955   1.491  1.00  0.00     0.094 A 
HETATM    3  C3  UNL     1       3.866  -1.294   2.500  1.00  0.00     0.018 A 
HETATM    4  C4  UNL     1       3.823   0.138   2.742  1.00  0.00     0.014 A 
HETATM    5  C5  UNL     1       3.168   0.880   1.871  1.00  0.00     0.008 A 
HETATM    6  C7  UNL     1       2.422   0.334   0.683  1.00  0.00     0.150 A 
ENDROOT
BRANCH   6   7
HETATM    7  C8  UNL     1       1.011   0.692   0.652  1.00  0.00     0.006 C 
HETATM    8  C9  UNL     1      -0.182   0.087   0.829  1.00  0.00    -0.087 C 
HETATM    9  C10 UNL     1      -1.373   0.978   0.674  1.00  0.00    -0.036 C 
HETATM   10  C16 UNL     1      -1.028  -1.169   0.978  1.00  0.00     0.033 C 
HETATM   11  B1  UNL     1      -2.784   1.936   0.220  1.00  0.00     0.148 B 
HETATM   12  C11 UNL     1      -3.445   1.847  -1.416  1.00  0.00    -0.057 C 
HETATM   13  C12 UNL     1      -3.978   0.506  -1.785  1.00  0.00    -0.010 C 
HETATM   14  C13 UNL     1      -3.150  -0.621  -2.199  1.00  0.00    -0.001 C 
HETATM   15  C14 UNL     1      -1.940  -1.037  -1.425  1.00  0.00     0.000 C 
HETATM   16  C15 UNL     1      -2.185  -1.192   0.004  1.00  0.00     0.004 C 
ENDBRANCH   6   7
BRANCH   1  17
HETATM   17  C1  UNL     1       2.101  -1.689  -0.584  1.00  0.00     0.356 C 
HETATM   18  O1  UNL     1       1.492  -1.679  -1.663  1.00  0.00    -0.283 OA
ENDBRANCH   1  17
BRANCH   5  19
HETATM   19  C6  UNL     1       3.016   2.312   1.928  1.00  0.00     0.152 A 
HETATM   20  O2  UNL     1       2.466   3.217   1.253  1.00  0.00    -0.188 OA
HETATM   21  O3  UNL     1       3.178   3.578   2.434  1.00  0.00     0.000 OA
HETATM   22  H5  UNL     1       3.823   3.831   3.183  1.00  0.00     0.000 HD
ENDBRANCH   5  19
TORSDOF 3
