REMARK  5 active torsions:
REMARK  status: ('A' for Active; 'I' for Inactive)
REMARK    1  A    between atoms: O1_2  and  C2_3 
REMARK    2  A    between atoms: C10_13  and  C11_14 
REMARK    3  A    between atoms: C12_15  and  C13_16 
REMARK    4  A    between atoms: C13_16  and  C14_17 
REMARK    5  A    between atoms: C15_18  and  N2_19 
ROOT
HETATM    1  C2  UNL     1       5.590  -0.997   0.562  1.00  0.00     0.070 A 
HETATM    2  C3  UNL     1       4.500  -1.002   1.404  1.00  0.00     0.038 A 
HETATM    3  C4  UNL     1       3.323  -0.461   0.962  1.00  0.00     0.017 A 
HETATM    4  C5  UNL     1       3.142   0.100  -0.282  1.00  0.00     0.006 A 
HETATM    5  C6  UNL     1       4.258   0.080  -1.080  1.00  0.00     0.049 A 
HETATM    6  C7  UNL     1       5.452  -0.452  -0.676  1.00  0.00     0.067 A 
HETATM    7  N1  UNL     1       3.820   0.699  -2.274  1.00  0.00    -0.322 N 
HETATM    8  C8  UNL     1       2.463   1.098  -2.227  1.00  0.00     0.257 A 
HETATM    9  O2  UNL     1       1.836   1.678  -3.180  1.00  0.00    -0.267 OA
HETATM   10  C9  UNL     1       1.971   0.708  -0.892  1.00  0.00     0.044 A 
HETATM   11  C10 UNL     1       0.754   0.918  -0.486  1.00  0.00     0.018 C 
HETATM   12  H7  UNL     1       4.421   0.860  -3.128  1.00  0.00     0.169 HD
ENDROOT
BRANCH  11  13
HETATM   13  C11 UNL     1       0.023   0.649   0.733  1.00  0.00    -0.003 C 
HETATM   14  C12 UNL     1      -1.273   0.987   0.882  1.00  0.00    -0.022 C 
BRANCH  14  15
HETATM   15  C13 UNL     1      -2.327   1.647   0.056  1.00  0.00     0.063 C 
BRANCH  15  16
HETATM   16  C14 UNL     1      -3.505   0.769  -0.177  1.00  0.00    -0.054 C 
HETATM   17  C15 UNL     1      -4.707   1.140   0.236  1.00  0.00     0.005 C 
HETATM   18  C16 UNL     1      -5.829   0.195  -0.042  1.00  0.00     0.057 C 
HETATM   19  C17 UNL     1      -5.412  -1.157   0.429  1.00  0.00     0.006 C 
HETATM   20  C18 UNL     1      -4.047  -1.569  -0.014  1.00  0.00     0.005 C 
HETATM   21  C19 UNL     1      -3.344  -0.532  -0.875  1.00  0.00     0.036 C 
BRANCH  17  22
HETATM   22  N2  UNL     1      -4.951   2.371   0.913  1.00  0.00    -0.402 N 
HETATM   23  H13 UNL     1      -5.412   3.007   0.197  1.00  0.00     0.156 HD
HETATM   24  H14 UNL     1      -4.905   2.969   1.768  1.00  0.00     0.156 HD
ENDBRANCH  17  22
ENDBRANCH  15  16
ENDBRANCH  14  15
ENDBRANCH  11  13
BRANCH   1  25
HETATM   25  O1  UNL     1       6.786  -1.547   1.011  1.00  0.00    -0.356 OA
HETATM   26  C1  UNL     1       6.897  -2.099   2.287  1.00  0.00     0.210 C 
ENDBRANCH   1  25
TORSDOF 5
