REMARK  4 active torsions:
REMARK  status: ('A' for Active; 'I' for Inactive)
REMARK    1  A    between atoms: O1_2  and  C2_3 
REMARK    2  A    between atoms: C6_8  and  C7_9 
REMARK    3  A    between atoms: C8_10  and  C9_11 
REMARK    4  A    between atoms: C9_11  and  N2_12 
ROOT
HETATM    1  C2  UNL     1      -1.383   2.007   0.448  1.00  0.00     0.090 C 
HETATM    2  C3  UNL     1      -0.703   3.140   0.452  1.00  0.00     0.012 C 
HETATM    3  C4  UNL     1       0.684   2.879  -0.029  1.00  0.00     0.049 C 
HETATM    4  C5  UNL     1       1.024   1.553   0.630  1.00  0.00     0.124 C 
HETATM    5  N1  UNL     1       0.405   0.538  -0.215  1.00  0.00    -0.374 N 
HETATM    6  C6  UNL     1       1.320  -0.304  -0.758  1.00  0.00     0.105 C 
HETATM    7  C10 UNL     1       1.785  -1.531   0.034  1.00  0.00     0.029 C 
HETATM    8  C11 UNL     1       0.675  -2.401   0.540  1.00  0.00     0.006 C 
HETATM    9  C12 UNL     1      -0.240  -3.055  -0.405  1.00  0.00     0.027 C 
HETATM   10  C13 UNL     1      -1.625  -3.303   0.196  1.00  0.00    -0.022 C 
HETATM   11  C14 UNL     1      -2.348  -2.189  -0.238  1.00  0.00    -0.064 C 
HETATM   12  C15 UNL     1      -3.773  -1.987   0.114  1.00  0.00     0.045 C 
HETATM   13  C16 UNL     1      -1.996  -1.071  -1.131  1.00  0.00     0.204 C 
HETATM   14  O2  UNL     1      -1.949   0.237  -0.865  1.00  0.00    -0.357 OA
HETATM   15  C17 UNL     1      -0.928   0.649   0.048  1.00  0.00     0.277 C 
ENDROOT
BRANCH   6  16
HETATM   16  C7  UNL     1       2.614   0.432  -0.934  1.00  0.00    -0.001 C 
HETATM   17  C8  UNL     1       3.801   0.110  -0.467  1.00  0.00     0.016 C 
BRANCH  17  18
HETATM   18  C9  UNL     1       4.876   1.028  -0.807  1.00  0.00     0.107 C 
BRANCH  18  19
HETATM   19  N2  UNL     1       5.920   1.710  -1.004  1.00  0.00    -0.312 NA
HETATM   20  H13 UNL     1       6.854   1.421  -0.615  1.00  0.00     0.186 HD
ENDBRANCH  18  19
ENDBRANCH  17  18
ENDBRANCH   6  16
BRANCH   1  21
HETATM   21  O1  UNL     1      -2.686   2.093   0.869  1.00  0.00    -0.356 OA
HETATM   22  C1  UNL     1      -3.747   2.436  -0.024  1.00  0.00     0.209 C 
ENDBRANCH   1  21
TORSDOF 4
