REMARK  3 active torsions:
REMARK  status: ('A' for Active; 'I' for Inactive)
REMARK    1  A    between atoms: C5_7  and  C6_8 
REMARK    2  A    between atoms: C7_9  and  C8_10 
REMARK    3  A    between atoms: N2_14  and  C12_15 
ROOT
HETATM    1  C8  UNL     1       0.002  -0.433   0.303  1.00  0.00     0.040 A 
HETATM    2  C9  UNL     1       0.003  -1.783   0.029  1.00  0.00     0.039 A 
HETATM    3  C10 UNL     1      -1.333  -2.128  -0.026  1.00  0.00    -0.033 A 
HETATM    4  C11 UNL     1      -2.073  -1.008   0.211  1.00  0.00     0.024 A 
HETATM    5  N2  UNL     1      -1.251   0.041   0.414  1.00  0.00    -0.315 N 
HETATM    6  C18 UNL     1      -3.542  -0.997   0.231  1.00  0.00     0.058 C 
HETATM    7  C19 UNL     1      -4.154  -2.310  -0.127  1.00  0.00     0.006 C 
HETATM    8  C20 UNL     1      -3.265  -3.063  -1.094  1.00  0.00     0.005 C 
HETATM    9  C21 UNL     1      -2.020  -3.442  -0.285  1.00  0.00     0.040 C 
ENDROOT
BRANCH   1  10
HETATM   10  C7  UNL     1       1.234   0.335   0.445  1.00  0.00     0.027 C 
HETATM   11  C6  UNL     1       2.404  -0.269   0.308  1.00  0.00    -0.007 C 
BRANCH  11  12
HETATM   12  C5  UNL     1       3.682   0.467   0.443  1.00  0.00     0.124 C 
HETATM   13  C1  UNL     1       4.477   0.379  -0.822  1.00  0.00     0.233 C 
HETATM   14  O1  UNL     1       3.961   0.025  -1.917  1.00  0.00    -0.272 OA
HETATM   15  N1  UNL     1       5.871   0.715  -0.760  1.00  0.00    -0.336 N 
HETATM   16  C2  UNL     1       6.471   0.573   0.530  1.00  0.00     0.103 C 
HETATM   17  H1  UNL     1       6.380   1.031  -1.590  1.00  0.00     0.168 HD
HETATM   18  C3  UNL     1       5.813   0.079   1.541  1.00  0.00    -0.012 C 
HETATM   19  C4  UNL     1       4.534  -0.142   1.511  1.00  0.00     0.005 C 
ENDBRANCH  11  12
ENDBRANCH   1  10
BRANCH   5  20
HETATM   20  C12 UNL     1      -1.524   1.428   0.700  1.00  0.00     0.039 A 
HETATM   21  C13 UNL     1      -1.556   2.178  -0.481  1.00  0.00     0.030 A 
HETATM   22  C14 UNL     1      -1.804   3.538  -0.442  1.00  0.00     0.002 A 
HETATM   23  C15 UNL     1      -2.019   4.142   0.796  1.00  0.00     0.000 A 
HETATM   24  C16 UNL     1      -1.983   3.383   1.944  1.00  0.00     0.002 A 
HETATM   25  C17 UNL     1      -1.737   2.027   1.922  1.00  0.00     0.030 A 
ENDBRANCH   5  20
TORSDOF 3
