REMARK  2 active torsions:
REMARK  status: ('A' for Active; 'I' for Inactive)
REMARK    1  A    between atoms: C3_5  and  C4_6 
REMARK    2  A    between atoms: C14_16  and  C15_17 
ROOT
HETATM    1  O1  UNL     1       1.903   0.488  -3.023  1.00  0.00    -0.268 OA
HETATM    2  C1  UNL     1       1.269   0.507  -1.925  1.00  0.00     0.253 C 
HETATM    3  N1  UNL     1      -0.120   0.724  -1.544  1.00  0.00    -0.344 N 
HETATM    4  C2  UNL     1      -0.167   0.083  -0.308  1.00  0.00     0.153 C 
HETATM    5  C3  UNL     1      -1.355   0.023   0.507  1.00  0.00    -0.021 C 
HETATM    6  C10 UNL     1      -1.337   0.020   1.829  1.00  0.00     0.010 C 
HETATM    7  C11 UNL     1      -0.075   0.104   2.524  1.00  0.00     0.001 C 
HETATM    8  C12 UNL     1       1.003   0.223   1.778  1.00  0.00     0.011 C 
HETATM    9  C13 UNL     1       1.142   0.308   0.352  1.00  0.00    -0.015 C 
HETATM   10  C14 UNL     1       1.995   0.270  -0.656  1.00  0.00     0.046 C 
HETATM   11  H1  UNL     1      -0.556   1.287  -2.346  1.00  0.00     0.163 HD
ENDROOT
BRANCH   5  12
HETATM   12  C4  UNL     1      -2.669  -0.037  -0.098  1.00  0.00    -0.028 A 
HETATM   13  C5  UNL     1      -3.825   0.058   0.644  1.00  0.00     0.012 A 
HETATM   14  C6  UNL     1      -5.098  -0.027   0.129  1.00  0.00     0.001 A 
HETATM   15  C7  UNL     1      -5.285  -0.222  -1.226  1.00  0.00     0.000 A 
HETATM   16  C8  UNL     1      -4.165  -0.324  -2.016  1.00  0.00     0.001 A 
HETATM   17  C9  UNL     1      -2.932  -0.231  -1.437  1.00  0.00     0.012 A 
ENDBRANCH   5  12
BRANCH  10  18
HETATM   18  C15 UNL     1       3.434   0.022  -0.399  1.00  0.00    -0.045 A 
HETATM   19  C16 UNL     1       4.203  -0.191   0.597  1.00  0.00    -0.018 A 
HETATM   20  C17 UNL     1       5.406  -0.302  -0.203  1.00  0.00     0.032 A 
HETATM   21  C18 UNL     1       4.517  -0.054  -1.372  1.00  0.00     0.043 A 
ENDBRANCH  10  18
TORSDOF 2
