REMARK  4 active torsions:
REMARK  status: ('A' for Active; 'I' for Inactive)
REMARK    1  A    between atoms: C2_2  and  C3_3 
REMARK    2  A    between atoms: C2_2  and  N2_16 
REMARK    3  A    between atoms: C8_10  and  O2_11 
REMARK    4  A    between atoms: N2_16  and  C13_17 
ROOT
HETATM    1  C3  UNL     1       0.411   1.167  -1.416  1.00  0.00     0.046 C 
HETATM    2  C4  UNL     1       0.976   0.563  -0.395  1.00  0.00     0.046 A 
HETATM    3  C5  UNL     1       0.445  -0.136   0.766  1.00  0.00     0.257 A 
HETATM    4  O1  UNL     1      -0.763  -0.303   1.052  1.00  0.00    -0.267 OA
HETATM    5  N1  UNL     1       1.459  -0.652   1.619  1.00  0.00    -0.322 N 
HETATM    6  C6  UNL     1       2.654  -0.259   0.963  1.00  0.00     0.049 A 
HETATM    7  C7  UNL     1       3.973  -0.475   1.313  1.00  0.00     0.067 A 
HETATM    8  C8  UNL     1       5.048  -0.040   0.583  1.00  0.00     0.070 A 
HETATM    9  C10 UNL     1       4.810   0.675  -0.601  1.00  0.00     0.038 A 
HETATM   10  C11 UNL     1       3.504   0.887  -0.944  1.00  0.00     0.017 A 
HETATM   11  C12 UNL     1       2.422   0.439  -0.194  1.00  0.00     0.007 A 
HETATM   12  H4  UNL     1       1.364  -1.185   2.502  1.00  0.00     0.169 HD
ENDROOT
BRANCH   1  13
HETATM   13  C2  UNL     1      -0.946   1.409  -1.844  1.00  0.00     0.023 C 
HETATM   14  C1  UNL     1      -1.035   2.103  -3.010  1.00  0.00     0.043 C 
BRANCH  13  15
HETATM   15  N2  UNL     1      -2.273   1.147  -1.424  1.00  0.00    -0.360 N 
HETATM   16  H11 UNL     1      -3.068   1.771  -1.690  1.00  0.00     0.166 HD
BRANCH  15  17
HETATM   17  C13 UNL     1      -3.257   0.374  -0.713  1.00  0.00     0.005 C 
HETATM   18  C14 UNL     1      -3.705  -0.735  -1.330  1.00  0.00    -0.002 C 
HETATM   19  C15 UNL     1      -4.723  -1.733  -0.841  1.00  0.00     0.029 C 
HETATM   20  C16 UNL     1      -5.285  -1.252   0.486  1.00  0.00     0.004 C 
HETATM   21  C17 UNL     1      -4.197  -0.583   1.298  1.00  0.00     0.006 C 
HETATM   22  C18 UNL     1      -3.800   0.720   0.650  1.00  0.00     0.057 C 
ENDBRANCH  15  17
ENDBRANCH  13  15
ENDBRANCH   1  13
BRANCH   8  23
HETATM   23  O2  UNL     1       6.386  -0.219   0.868  1.00  0.00    -0.356 OA
HETATM   24  C9  UNL     1       6.864  -0.910   2.004  1.00  0.00     0.210 C 
ENDBRANCH   8  23
TORSDOF 4
