REMARK  8 active torsions:
REMARK  status: ('A' for Active; 'I' for Inactive)
REMARK    1  A    between atoms: C2_2  and  C3_3 
REMARK    2  A    between atoms: C3_3  and  C4_4 
REMARK    3  A    between atoms: C4_4  and  O1_5 
REMARK    4  A    between atoms: O1_5  and  C5_6 
REMARK    5  A    between atoms: C6_7  and  N1_8 
REMARK    6  A    between atoms: C7_9  and  C8_10 
REMARK    7  A    between atoms: C8_10  and  C9_11 
REMARK    8  A    between atoms: C13_16  and  C14_17 
ROOT
HETATM    1  C9  UNL     1       2.051  -0.061   2.265  1.00  0.00    -0.027 C 
HETATM    2  C10 UNL     1       3.426   0.270   2.834  1.00  0.00     0.159 C 
HETATM    3  N2  UNL     1       4.227  -0.130   1.652  1.00  0.00    -0.385 N 
HETATM    4  C11 UNL     1       3.518   0.581   0.611  1.00  0.00     0.040 A 
HETATM    5  C12 UNL     1       3.978   1.158  -0.584  1.00  0.00     0.042 A 
HETATM    6  C13 UNL     1       3.103   1.811  -1.458  1.00  0.00    -0.024 A 
HETATM    7  C20 UNL     1       1.778   1.865  -1.099  1.00  0.00     0.013 A 
HETATM    8  C21 UNL     1       1.326   1.300   0.073  1.00  0.00     0.015 A 
HETATM    9  C22 UNL     1       2.168   0.641   0.966  1.00  0.00    -0.002 A 
HETATM   10  H15 UNL     1       5.067  -0.724   1.432  1.00  0.00     0.160 HD
ENDROOT
BRANCH   1  11
HETATM   11  C8  UNL     1       0.980  -0.711   2.632  1.00  0.00     0.023 C 
BRANCH  11  12
HETATM   12  C7  UNL     1      -0.323  -1.340   2.741  1.00  0.00    -0.010 A 
HETATM   13  C6  UNL     1      -1.164  -1.233   1.560  1.00  0.00     0.065 A 
HETATM   14  C5  UNL     1      -2.263  -1.880   1.817  1.00  0.00     0.076 A 
HETATM   15  C24 UNL     1      -2.224  -2.456   3.183  1.00  0.00     0.095 A 
HETATM   16  C23 UNL     1      -0.914  -2.043   3.691  1.00  0.00    -0.006 A 
BRANCH  13  17
HETATM   17  N1  UNL     1      -1.304  -0.739   0.260  1.00  0.00    -0.396 N 
HETATM   18  H10 UNL     1      -1.882   0.073  -0.043  1.00  0.00     0.156 HD
HETATM   19  H11 UNL     1      -0.719  -1.324  -0.406  1.00  0.00     0.156 HD
ENDBRANCH  13  17
BRANCH  14  20
HETATM   20  O1  UNL     1      -3.380  -2.077   1.017  1.00  0.00    -0.353 OA
BRANCH  20  21
HETATM   21  C4  UNL     1      -4.691  -2.153   1.518  1.00  0.00     0.175 C 
BRANCH  21  22
HETATM   22  C3  UNL     1      -5.585  -2.398   0.295  1.00  0.00     0.026 C 
BRANCH  22  23
HETATM   23  C2  UNL     1      -5.449  -1.263  -0.691  1.00  0.00    -0.002 C 
HETATM   24  C1  UNL     1      -6.325  -1.514  -1.891  1.00  0.00     0.005 C 
ENDBRANCH  22  23
ENDBRANCH  21  22
ENDBRANCH  20  21
ENDBRANCH  14  20
ENDBRANCH  11  12
ENDBRANCH   1  11
BRANCH   6  25
HETATM   25  C14 UNL     1       3.626   2.393  -2.684  1.00  0.00    -0.026 A 
HETATM   26  C15 UNL     1       4.932   2.884  -2.639  1.00  0.00     0.012 A 
HETATM   27  C16 UNL     1       5.472   3.446  -3.777  1.00  0.00     0.001 A 
HETATM   28  C17 UNL     1       4.736   3.523  -4.946  1.00  0.00     0.000 A 
HETATM   29  C18 UNL     1       3.449   3.048  -5.020  1.00  0.00     0.001 A 
HETATM   30  C19 UNL     1       2.922   2.487  -3.865  1.00  0.00     0.012 A 
ENDBRANCH   6  25
TORSDOF 8
