REMARK  3 active torsions:
REMARK  status: ('A' for Active; 'I' for Inactive)
REMARK    1  A    between atoms: C2_3  and  N1_4 
REMARK    2  A    between atoms: N1_4  and  C3_5 
REMARK    3  A    between atoms: C7_11  and  C8_12 
ROOT
HETATM    1  C3  UNL     1       1.725  -1.124  -0.278  1.00  0.00     0.137 A 
HETATM    2  N2  UNL     1       2.577  -1.638  -1.088  1.00  0.00    -0.224 NA
HETATM    3  C4  UNL     1       2.229  -2.008  -2.400  1.00  0.00     0.229 A 
HETATM    4  N3  UNL     1       1.042  -1.847  -2.827  1.00  0.00    -0.278 NA
HETATM    5  C5  UNL     1      -0.068  -1.295  -2.076  1.00  0.00     0.192 A 
HETATM    6  C6  UNL     1       0.350  -0.862  -0.703  1.00  0.00     0.004 A 
HETATM    7  C7  UNL     1      -0.497  -0.246   0.107  1.00  0.00    -0.008 C 
ENDROOT
BRANCH   1   8
HETATM    8  N1  UNL     1       2.163  -0.784   1.034  1.00  0.00    -0.338 N 
HETATM    9  H1  UNL     1       1.444  -0.929   1.799  1.00  0.00     0.167 HD
BRANCH   8  10
HETATM   10  C2  UNL     1       3.503  -0.286   1.235  1.00  0.00     0.076 A 
HETATM   11  C1  UNL     1       4.699  -0.640   0.805  1.00  0.00     0.164 A 
HETATM   12  F1  UNL     1       5.092  -1.637  -0.008  1.00  0.00    -0.202 F 
HETATM   13  C14 UNL     1       5.230   0.483   1.592  1.00  0.00     0.077 A 
HETATM   14  C13 UNL     1       4.008   0.828   2.018  1.00  0.00     0.059 A 
HETATM   15 CL1  UNL     1       6.858   1.071   1.823  1.00  0.00    -0.081 Cl
ENDBRANCH   8  10
ENDBRANCH   1   8
BRANCH   7  16
HETATM   16  C8  UNL     1      -1.840   0.264   0.293  1.00  0.00     0.027 C 
HETATM   17  C9  UNL     1      -1.949   1.715   0.686  1.00  0.00     0.036 C 
HETATM   18  C10 UNL     1      -3.389   1.886   1.129  1.00  0.00     0.168 C 
HETATM   19  O1  UNL     1      -4.289   1.549   0.131  1.00  0.00    -0.390 OA
HETATM   20  C11 UNL     1      -4.195   0.228  -0.266  1.00  0.00     0.183 C 
HETATM   21  C12 UNL     1      -2.785   0.094  -0.874  1.00  0.00     0.089 C 
HETATM   22 BR1  UNL     1      -2.649   1.636  -2.072  1.00  0.00    -0.088 Br
ENDBRANCH   7  16
TORSDOF 3
