REMARK  3 active torsions:
REMARK  status: ('A' for Active; 'I' for Inactive)
REMARK    1  A    between atoms: O1_2  and  C2_3 
REMARK    2  A    between atoms: C6_7  and  C7_8 
REMARK    3  A    between atoms: C14_17  and  C15_18 
ROOT
HETATM    1  C7  UNL     1       2.694   0.985   0.195  1.00  0.00    -0.024 A 
HETATM    2  C8  UNL     1       1.710   1.443   1.048  1.00  0.00     0.013 A 
HETATM    3  C9  UNL     1       0.400   1.581   0.623  1.00  0.00     0.011 A 
HETATM    4  C10 UNL     1       0.093   1.244  -0.698  1.00  0.00    -0.012 A 
HETATM    5  C11 UNL     1       1.071   0.784  -1.560  1.00  0.00     0.043 A 
HETATM    6  C12 UNL     1       2.373   0.651  -1.124  1.00  0.00     0.042 A 
HETATM    7  N1  UNL     1       0.390   0.549  -2.797  1.00  0.00    -0.326 N 
HETATM    8  C13 UNL     1      -0.991   0.865  -2.681  1.00  0.00     0.236 A 
HETATM    9  O2  UNL     1      -1.910   0.798  -3.525  1.00  0.00    -0.272 OA
HETATM   10  C14 UNL     1      -1.241   1.335  -1.294  1.00  0.00     0.162 A 
HETATM   11  H10 UNL     1       0.829   0.193  -3.678  1.00  0.00     0.169 HD
ENDROOT
BRANCH  10  12
HETATM   12  C15 UNL     1      -2.298   0.598  -0.597  1.00  0.00     0.019 C 
HETATM   13  C16 UNL     1      -3.328   1.278  -0.121  1.00  0.00    -0.001 C 
HETATM   14  C17 UNL     1      -4.576   1.031   0.610  1.00  0.00     0.033 C 
HETATM   15  C18 UNL     1      -5.060  -0.372   0.621  1.00  0.00    -0.013 C 
HETATM   16  C19 UNL     1      -6.581  -0.343   0.414  1.00  0.00     0.010 C 
HETATM   17  C20 UNL     1      -4.537  -1.236  -0.505  1.00  0.00     0.029 C 
HETATM   18  C21 UNL     1      -3.200  -1.809  -0.162  1.00  0.00     0.077 C 
HETATM   19  C22 UNL     1      -3.145  -2.308   1.254  1.00  0.00     0.032 C 
HETATM   20  N2  UNL     1      -2.188  -0.813  -0.454  1.00  0.00    -0.388 N 
HETATM   21  H25 UNL     1      -1.198  -1.179  -0.586  1.00  0.00     0.159 HD
ENDBRANCH  10  12
BRANCH   1  22
HETATM   22  C6  UNL     1       4.079   0.834   0.626  1.00  0.00    -0.023 A 
HETATM   23  C5  UNL     1       4.588   1.710   1.590  1.00  0.00     0.012 A 
HETATM   24  C4  UNL     1       5.903   1.534   1.971  1.00  0.00     0.004 A 
HETATM   25  C3  UNL     1       6.701   0.537   1.432  1.00  0.00     0.037 A 
HETATM   26  C2  UNL     1       6.170  -0.311   0.482  1.00  0.00     0.069 A 
HETATM   27  C23 UNL     1       4.867  -0.159   0.087  1.00  0.00     0.049 A 
BRANCH  26  28
HETATM   28  O1  UNL     1       7.074  -1.277   0.013  1.00  0.00    -0.356 OA
HETATM   29  C1  UNL     1       6.699  -2.229  -0.963  1.00  0.00     0.210 C 
ENDBRANCH  26  28
ENDBRANCH   1  22
TORSDOF 3
