REMARK  2 active torsions:
REMARK  status: ('A' for Active; 'I' for Inactive)
REMARK    1  A    between atoms: O1_2  and  C2_3 
REMARK    2  A    between atoms: C6_7  and  C7_8 
ROOT
HETATM    1  C7  UNL     1       1.746  -0.635  -1.532  1.00  0.00    -0.038 C 
HETATM    2  C8  UNL     1       0.540  -0.204  -1.865  1.00  0.00     0.055 C 
HETATM    3  C9  UNL     1      -0.617   0.577  -2.209  1.00  0.00    -0.005 C 
HETATM    4  C10 UNL     1      -1.208   1.276  -1.219  1.00  0.00    -0.033 C 
HETATM    5  C11 UNL     1      -0.279   1.544  -0.286  1.00  0.00    -0.010 C 
HETATM    6  C12 UNL     1      -0.651   0.341   0.440  1.00  0.00     0.064 C 
HETATM    7  C13 UNL     1      -1.897   0.562   1.233  1.00  0.00    -0.054 C 
HETATM    8  C14 UNL     1      -3.004  -0.104   1.395  1.00  0.00     0.007 C 
HETATM    9  C15 UNL     1      -4.024   0.478   2.297  1.00  0.00     0.057 C 
HETATM   10  C16 UNL     1      -3.418   0.710   3.687  1.00  0.00     0.006 C 
HETATM   11  C17 UNL     1      -2.169   1.507   3.477  1.00  0.00     0.005 C 
HETATM   12  C18 UNL     1      -1.923   1.817   2.013  1.00  0.00     0.036 C 
HETATM   13  N1  UNL     1      -3.370  -1.340   0.802  1.00  0.00    -0.392 N 
HETATM   14  C19 UNL     1      -3.731  -2.663   0.393  1.00  0.00     0.129 C 
HETATM   15  C20 UNL     1      -3.828  -2.752  -1.145  1.00  0.00     0.122 C 
HETATM   16  C21 UNL     1      -2.448  -2.561  -1.698  1.00  0.00     0.223 C 
HETATM   17  O2  UNL     1      -1.823  -2.905  -0.669  1.00  0.00    -0.273 OA
HETATM   18  N2  UNL     1      -1.237  -2.332  -2.362  1.00  0.00    -0.337 N 
HETATM   19  C22 UNL     1       0.107  -2.491  -1.962  1.00  0.00     0.091 C 
HETATM   20  C23 UNL     1       1.268  -2.005  -1.636  1.00  0.00     0.025 C 
HETATM   21  H20 UNL     1      -3.416  -0.727  -0.074  1.00  0.00     0.159 HD
HETATM   22  H25 UNL     1      -1.680  -2.014  -3.237  1.00  0.00     0.168 HD
ENDROOT
BRANCH   1  23
HETATM   23  C6  UNL     1       3.092  -0.178  -1.218  1.00  0.00    -0.026 A 
HETATM   24  C5  UNL     1       4.038  -1.117  -0.936  1.00  0.00     0.012 A 
HETATM   25  C4  UNL     1       5.270  -0.614  -0.636  1.00  0.00     0.004 A 
HETATM   26  C3  UNL     1       5.574   0.746  -0.610  1.00  0.00     0.037 A 
HETATM   27  C2  UNL     1       4.553   1.613  -0.910  1.00  0.00     0.069 A 
HETATM   28  C24 UNL     1       3.299   1.166  -1.218  1.00  0.00     0.048 A 
BRANCH  27  29
HETATM   29  O1  UNL     1       4.884   2.949  -0.874  1.00  0.00    -0.356 OA
HETATM   30  C1  UNL     1       6.169   3.435  -0.552  1.00  0.00     0.210 C 
ENDBRANCH  27  29
ENDBRANCH   1  23
TORSDOF 2
