REMARK  1 active torsions:
REMARK  status: ('A' for Active; 'I' for Inactive)
REMARK    1  A    between atoms: C12_15  and  C13_16 
ROOT
HETATM    1  O1  UNL     1      -5.845   1.939  -1.778  1.00  0.00    -0.291 OA
HETATM    2  C1  UNL     1      -5.493   0.791  -1.404  1.00  0.00     0.176 C 
HETATM    3  C2  UNL     1      -6.511  -0.288  -1.346  1.00  0.00     0.086 C 
HETATM    4  C3  UNL     1      -5.847  -1.565  -0.815  1.00  0.00     0.012 C 
HETATM    5  C4  UNL     1      -5.003  -1.138   0.373  1.00  0.00     0.037 C 
HETATM    6  C5  UNL     1      -3.838  -0.399  -0.154  1.00  0.00    -0.044 A 
HETATM    7  C6  UNL     1      -4.104   0.562  -1.041  1.00  0.00     0.081 A 
HETATM    8  N1  UNL     1      -2.861   1.176  -1.441  1.00  0.00    -0.356 N 
HETATM    9  C7  UNL     1      -1.796   0.516  -0.726  1.00  0.00     0.022 A 
HETATM   10  C8  UNL     1      -0.542   0.889  -0.895  1.00  0.00    -0.005 C 
HETATM   11  C9  UNL     1      -0.082   1.975  -1.792  1.00  0.00     0.161 C 
HETATM   12  N2  UNL     1       1.210   2.305  -1.236  1.00  0.00    -0.385 N 
HETATM   13  C10 UNL     1       1.744   1.223  -0.484  1.00  0.00     0.040 A 
HETATM   14  C11 UNL     1       2.996   0.926   0.013  1.00  0.00     0.042 A 
HETATM   15  C12 UNL     1       3.241  -0.222   0.727  1.00  0.00    -0.024 A 
HETATM   16  C19 UNL     1       2.176  -1.074   0.929  1.00  0.00     0.013 A 
HETATM   17  C20 UNL     1       0.921  -0.780   0.433  1.00  0.00     0.015 A 
HETATM   18  C21 UNL     1       0.677   0.371  -0.282  1.00  0.00     0.000 A 
HETATM   19  C22 UNL     1      -2.369  -0.548   0.137  1.00  0.00     0.094 A 
HETATM   20  H7  UNL     1      -2.842   1.967  -2.142  1.00  0.00     0.166 HD
HETATM   21  H10 UNL     1       1.651   3.235  -1.397  1.00  0.00     0.160 HD
ENDROOT
BRANCH  15  22
HETATM   22  C13 UNL     1       4.605  -0.422   1.199  1.00  0.00    -0.026 A 
HETATM   23  C14 UNL     1       5.675   0.054   0.471  1.00  0.00     0.012 A 
HETATM   24  C15 UNL     1       6.973  -0.123   0.898  1.00  0.00     0.001 A 
HETATM   25  C16 UNL     1       7.196  -0.800   2.092  1.00  0.00     0.000 A 
HETATM   26  C17 UNL     1       6.161  -1.308   2.878  1.00  0.00     0.001 A 
HETATM   27  C18 UNL     1       4.899  -1.082   2.371  1.00  0.00     0.012 A 
ENDBRANCH  15  22
TORSDOF 1
