REMARK  6 active torsions:
REMARK  status: ('A' for Active; 'I' for Inactive)
REMARK    1  A    between atoms: O1_2  and  C2_3 
REMARK    2  A    between atoms: C2_3  and  C3_4 
REMARK    3  A    between atoms: C3_4  and  O2_5 
REMARK    4  A    between atoms: O2_5  and  C4_6 
REMARK    5  A    between atoms: C15_20  and  N3_21 
REMARK    6  A    between atoms: N3_21  and  C16_22 
ROOT
HETATM    1  C4  UNL     1       2.463  -1.053  -0.116  1.00  0.00     0.067 C 
HETATM    2  C5  UNL     1       1.652  -0.193   0.457  1.00  0.00     0.019 C 
HETATM    3  C6  UNL     1       0.888   0.856   1.104  1.00  0.00     0.045 C 
HETATM    4  C7  UNL     1       1.405   2.282   0.853  1.00  0.00     0.039 C 
HETATM    5  C8  UNL     1       0.800   3.085   1.992  1.00  0.00     0.169 C 
HETATM    6  O3  UNL     1      -0.578   2.892   2.048  1.00  0.00    -0.387 OA
HETATM    7  C9  UNL     1      -1.074   2.176   0.995  1.00  0.00     0.203 C 
HETATM    8  C10 UNL     1      -0.523   0.816   0.800  1.00  0.00    -0.031 C 
HETATM    9  C11 UNL     1      -1.380  -0.104   0.405  1.00  0.00     0.063 A 
HETATM   10  C12 UNL     1      -1.134  -1.499   0.122  1.00  0.00     0.165 A 
HETATM   11  N1  UNL     1      -0.661  -2.648  -0.168  1.00  0.00    -0.240 NA
HETATM   12  C13 UNL     1       0.719  -2.726  -0.486  1.00  0.00     0.122 C 
HETATM   13  C14 UNL     1       1.995  -2.335  -0.583  1.00  0.00     0.055 C 
HETATM   14  N2  UNL     1      -2.520  -1.690  -0.080  1.00  0.00    -0.210 NA
HETATM   15  C15 UNL     1      -2.803  -0.455   0.158  1.00  0.00     0.145 A 
ENDROOT
BRANCH  15  16
HETATM   16  N3  UNL     1      -4.065   0.187   0.136  1.00  0.00    -0.340 N 
HETATM   17  H18 UNL     1      -4.201   1.031   0.741  1.00  0.00     0.167 HD
BRANCH  16  18
HETATM   18  C16 UNL     1      -5.190  -0.214  -0.637  1.00  0.00     0.035 A 
HETATM   19  C17 UNL     1      -5.200  -1.356  -1.410  1.00  0.00     0.032 A 
HETATM   20  C18 UNL     1      -6.336  -1.691  -2.166  1.00  0.00     0.046 A 
HETATM   21  C19 UNL     1      -7.440  -0.896  -2.148  1.00  0.00     0.138 A 
HETATM   22  F1  UNL     1      -8.567  -1.175  -2.863  1.00  0.00    -0.204 F 
HETATM   23  C20 UNL     1      -7.455   0.260  -1.380  1.00  0.00     0.074 A 
HETATM   24 CL1  UNL     1      -8.861   1.336  -1.316  1.00  0.00    -0.081 Cl
HETATM   25  C21 UNL     1      -6.340   0.540  -0.669  1.00  0.00     0.056 A 
ENDBRANCH  16  18
ENDBRANCH  15  16
BRANCH   1  26
HETATM   26  O2  UNL     1       3.736  -1.377  -0.561  1.00  0.00    -0.349 OA
BRANCH  26  27
HETATM   27  C3  UNL     1       4.786  -0.469  -0.174  1.00  0.00     0.201 C 
BRANCH  27  28
HETATM   28  C2  UNL     1       6.039  -0.749  -0.939  1.00  0.00     0.193 C 
BRANCH  28  29
HETATM   29  O1  UNL     1       7.027   0.130  -0.558  1.00  0.00    -0.394 OA
HETATM   30  C1  UNL     1       7.321  -0.011   0.782  1.00  0.00     0.201 C 
ENDBRANCH  28  29
ENDBRANCH  27  28
ENDBRANCH  26  27
ENDBRANCH   1  26
TORSDOF 6
