REMARK  6 active torsions:
REMARK  status: ('A' for Active; 'I' for Inactive)
REMARK    1  A    between atoms: O1_2  and  C2_3 
REMARK    2  A    between atoms: C2_3  and  C3_4 
REMARK    3  A    between atoms: C3_4  and  O2_5 
REMARK    4  A    between atoms: O2_5  and  C4_6 
REMARK    5  A    between atoms: C9_13  and  O3_14 
REMARK    6  A    between atoms: O3_14  and  C10_15 
ROOT
HETATM    1  C4  UNL     1       1.034   0.205  -0.225  1.00  0.00     0.079 C 
HETATM    2  C5  UNL     1       0.183   0.985   0.555  1.00  0.00     0.056 C 
HETATM    3  C6  UNL     1      -1.032   0.468   0.176  1.00  0.00     0.120 C 
HETATM    4  N1  UNL     1      -1.513   0.378  -1.058  1.00  0.00    -0.261 NA
HETATM    5  C7  UNL     1      -1.953  -0.495  -1.994  1.00  0.00     0.181 C 
HETATM    6  N2  UNL     1      -2.704  -0.872  -1.000  1.00  0.00    -0.223 NA
HETATM    7  C8  UNL     1      -1.743  -1.513  -0.034  1.00  0.00     0.144 A 
HETATM    8  C9  UNL     1      -0.476  -1.365  -0.820  1.00  0.00     0.086 C 
HETATM    9  C11 UNL     1       0.160  -0.124  -1.320  1.00  0.00     0.010 C 
HETATM   10  C12 UNL     1       0.439   1.019  -2.191  1.00  0.00     0.074 C 
HETATM   11  C13 UNL     1      -0.265   2.398  -2.005  1.00  0.00     0.022 C 
HETATM   12  C14 UNL     1      -1.257   3.250  -1.496  1.00  0.00     0.134 C 
HETATM   13  F1  UNL     1      -1.000   4.543  -1.948  1.00  0.00    -0.205 F 
HETATM   14  C15 UNL     1      -2.576   3.195  -0.766  1.00  0.00     0.070 C 
HETATM   15 CL1  UNL     1      -2.981   4.910  -0.419  1.00  0.00    -0.081 Cl
HETATM   16  C16 UNL     1      -3.659   2.439  -0.182  1.00  0.00     0.030 C 
HETATM   17  C17 UNL     1      -3.799   0.966  -0.164  1.00  0.00     0.301 C 
HETATM   18  N3  UNL     1      -3.664  -0.045   0.871  1.00  0.00     0.107 NA
HETATM   19  C18 UNL     1      -3.134  -1.401   0.284  1.00  0.00     0.334 A 
HETATM   20  H19 UNL     1      -4.465  -0.304   1.414  1.00  0.00     0.318 HD
ENDROOT
BRANCH   1  21
HETATM   21  O2  UNL     1       2.278  -0.339  -0.366  1.00  0.00    -0.348 OA
BRANCH  21  22
HETATM   22  C3  UNL     1       3.345  -0.187   0.545  1.00  0.00     0.201 C 
BRANCH  22  23
HETATM   23  C2  UNL     1       2.951  -0.734   1.894  1.00  0.00     0.193 C 
BRANCH  23  24
HETATM   24  O1  UNL     1       3.975  -0.595   2.807  1.00  0.00    -0.394 OA
HETATM   25  C1  UNL     1       5.145  -1.256   2.445  1.00  0.00     0.201 C 
ENDBRANCH  23  24
ENDBRANCH  22  23
ENDBRANCH  21  22
ENDBRANCH   1  21
BRANCH   8  26
HETATM   26  O3  UNL     1       0.048  -2.593  -1.037  1.00  0.00    -0.342 OA
BRANCH  26  27
HETATM   27  C10 UNL     1       0.915  -3.387  -0.328  1.00  0.00     0.260 C 
HETATM   28 BR1  UNL     1       1.179  -5.047  -1.298  1.00  0.00    -0.067 Br
ENDBRANCH  26  27
ENDBRANCH   8  26
TORSDOF 6
