REMARK  5 active torsions:
REMARK  status: ('A' for Active; 'I' for Inactive)
REMARK    1  A    between atoms: C2_2  and  C3_3 
REMARK    2  A    between atoms: C2_2  and  C21_23 
REMARK    3  A    between atoms: C4_4  and  C5_5 
REMARK    4  A    between atoms: C5_5  and  N1_6 
REMARK    5  A    between atoms: C21_23  and  O1_24 
ROOT
HETATM    1  N1  UNL     1      -0.552   0.266  -0.438  1.00  0.00    -0.290 N 
HETATM    2  C6  UNL     1      -1.119  -0.994  -0.774  1.00  0.00     0.031 A 
HETATM    3  C7  UNL     1      -2.374  -1.331  -0.510  1.00  0.00    -0.054 A 
HETATM    4  C8  UNL     1      -3.018  -2.628  -0.837  1.00  0.00     0.036 C 
HETATM    5  C9  UNL     1      -2.093  -3.649  -1.417  1.00  0.00     0.005 C 
HETATM    6  C10 UNL     1      -0.699  -3.375  -0.928  1.00  0.00     0.006 C 
HETATM    7  C11 UNL     1      -0.292  -2.002  -1.475  1.00  0.00     0.059 C 
HETATM    8  C12 UNL     1      -3.398  -0.471   0.159  1.00  0.00     0.064 A 
HETATM    9  C13 UNL     1      -2.881   0.833   0.628  1.00  0.00     0.117 A 
HETATM   10  C14 UNL     1      -3.532   2.037  -0.077  1.00  0.00     0.068 C 
HETATM   11  C15 UNL     1      -2.616   3.127   0.447  1.00  0.00    -0.028 A 
HETATM   12  C16 UNL     1      -2.739   4.463   0.760  1.00  0.00     0.009 A 
HETATM   13  C17 UNL     1      -1.635   5.149   1.263  1.00  0.00     0.001 A 
HETATM   14  C18 UNL     1      -0.400   4.553   1.469  1.00  0.00     0.002 A 
HETATM   15  C19 UNL     1      -0.281   3.193   1.148  1.00  0.00     0.031 A 
HETATM   16  C20 UNL     1      -1.380   2.482   0.638  1.00  0.00     0.058 A 
HETATM   17  N2  UNL     1      -1.494   1.108   0.210  1.00  0.00    -0.284 N 
ENDROOT
BRANCH   1  18
HETATM   18  C5  UNL     1       0.780   0.693  -0.684  1.00  0.00     0.176 C 
BRANCH  18  19
HETATM   19  C4  UNL     1       1.833   0.102   0.141  1.00  0.00    -0.009 C 
HETATM   20  C3  UNL     1       2.938  -0.607  -0.022  1.00  0.00    -0.023 C 
BRANCH  20  21
HETATM   21  C2  UNL     1       4.130  -1.315   0.458  1.00  0.00     0.027 C 
HETATM   22  C1  UNL     1       4.291  -1.171   1.956  1.00  0.00     0.016 C 
BRANCH  21  23
HETATM   23  C21 UNL     1       5.380  -0.683  -0.150  1.00  0.00     0.172 C 
BRANCH  23  24
HETATM   24  O1  UNL     1       5.246  -0.810  -1.542  1.00  0.00    -0.400 OA
HETATM   25  H28 UNL     1       5.688  -1.601  -1.890  1.00  0.00     0.209 HD
ENDBRANCH  23  24
ENDBRANCH  21  23
ENDBRANCH  20  21
ENDBRANCH  18  19
ENDBRANCH   1  18
TORSDOF 5
