REMARK  4 active torsions:
REMARK  status: ('A' for Active; 'I' for Inactive)
REMARK    1  A    between atoms: C7_7  and  C8_8 
REMARK    2  A    between atoms: C8_8  and  C9_9 
REMARK    3  A    between atoms: C9_9  and  C10_10 
REMARK    4  A    between atoms: C12_14  and  C13_15 
ROOT
HETATM    1  C10 UNL     1      -0.425  -0.555  -0.589  1.00  0.00     0.208 A 
HETATM    2  N1  UNL     1      -1.292  -1.049   0.470  1.00  0.00     0.135 N 
HETATM    3  C11 UNL     1      -2.167  -0.324   1.429  1.00  0.00     0.212 A 
HETATM    4  O1  UNL     1      -1.468  -0.826   0.655  1.00  0.00     0.000 OA
HETATM    5  C12 UNL     1      -3.006   0.368   2.332  1.00  0.00    -0.005 C 
HETATM    6  C14 UNL     1      -4.086   1.033   1.994  1.00  0.00     0.010 C 
HETATM    7  C15 UNL     1      -4.882   1.381   0.825  1.00  0.00    -0.003 C 
HETATM    8  C16 UNL     1      -4.746   1.069  -0.470  1.00  0.00    -0.027 C 
HETATM    9  C17 UNL     1      -3.779   0.260  -1.235  1.00  0.00     0.027 C 
HETATM   10  C18 UNL     1      -2.911   0.966  -2.177  1.00  0.00     0.004 C 
HETATM   11  C19 UNL     1      -1.643   0.326  -2.643  1.00  0.00     0.007 C 
HETATM   12  C20 UNL     1      -0.486   0.310  -1.739  1.00  0.00     0.024 C 
HETATM   13  C21 UNL     1       0.824   0.479  -2.502  1.00  0.00     0.012 C 
HETATM   14  H11 UNL     1      -1.246  -2.211   0.481  1.00  0.00     0.324 HD
ENDROOT
BRANCH   1  15
HETATM   15  C9  UNL     1       0.852  -1.052  -0.386  1.00  0.00     0.039 C 
BRANCH  15  16
HETATM   16  C8  UNL     1       2.296  -1.304  -0.606  1.00  0.00     0.046 C 
BRANCH  16  17
HETATM   17  C7  UNL     1       3.124  -0.741   0.460  1.00  0.00    -0.052 A 
HETATM   18  C2  UNL     1       4.432  -0.442   0.078  1.00  0.00    -0.056 A 
HETATM   19  C1  UNL     1       4.927  -0.721  -1.303  1.00  0.00     0.049 C 
HETATM   20  C3  UNL     1       5.330   0.115   0.970  1.00  0.00     0.007 A 
HETATM   21  C4  UNL     1       4.845   0.346   2.231  1.00  0.00     0.001 A 
HETATM   22  C5  UNL     1       3.568   0.088   2.717  1.00  0.00     0.001 A 
HETATM   23  C6  UNL     1       2.734  -0.471   1.751  1.00  0.00     0.007 A 
ENDBRANCH  16  17
ENDBRANCH  15  16
ENDBRANCH   1  15
BRANCH   5  24
HETATM   24  C13 UNL     1      -2.216   0.048   3.501  1.00  0.00     0.155 C 
HETATM   25 CL1  UNL     1      -2.148  -1.712   3.748  1.00  0.00    -0.126 Cl
ENDBRANCH   5  24
TORSDOF 4
