REMARK  5 active torsions:
REMARK  status: ('A' for Active; 'I' for Inactive)
REMARK    1  A    between atoms: C7_7  and  C8_8 
REMARK    2  A    between atoms: N1_11  and  O1_12 
REMARK    3  A    between atoms: C20_23  and  C21_24 
REMARK    4  A    between atoms: C21_24  and  C22_25 
REMARK    5  A    between atoms: C22_25  and  O2_26 
ROOT
HETATM    1  C8  UNL     1      -1.789   0.859   0.911  1.00  0.00     0.078 C 
HETATM    2  C9  UNL     1      -1.986   0.740   2.329  1.00  0.00     0.007 C 
HETATM    3  C10 UNL     1      -1.207   0.014   3.073  1.00  0.00     0.120 C 
HETATM    4  N1  UNL     1      -0.154  -0.634   2.429  1.00  0.00    -0.234 N 
HETATM    5  C11 UNL     1       0.243  -0.613   1.075  1.00  0.00     0.092 C 
HETATM    6  C12 UNL     1       1.208  -1.304   0.524  1.00  0.00     0.047 C 
HETATM    7  C13 UNL     1       1.929  -1.597  -0.712  1.00  0.00     0.060 C 
HETATM    8  C14 UNL     1       3.402  -1.204  -0.678  1.00  0.00     0.006 C 
HETATM    9  C15 UNL     1       3.657   0.243  -0.467  1.00  0.00     0.001 C 
HETATM   10  C16 UNL     1       5.045   0.500   0.139  1.00  0.00     0.012 C 
HETATM   11  C17 UNL     1       4.885   0.153   1.666  1.00  0.00     0.096 C 
HETATM   12  C18 UNL     1       3.734  -0.703   1.664  1.00  0.00    -0.084 C 
HETATM   13  C19 UNL     1       2.845  -1.356   1.642  1.00  0.00     0.010 C 
HETATM   14  N2  UNL     1       1.763  -2.142   1.591  1.00  0.00    -0.317 N 
HETATM   15  C20 UNL     1      -0.598   0.258   0.279  1.00  0.00    -0.017 C 
HETATM   16  H22 UNL     1       1.402  -2.973   2.017  1.00  0.00     0.176 HD
ENDROOT
BRANCH   4  17
HETATM   17  O1  UNL     1       0.585  -1.374   3.324  1.00  0.00    -0.283 OA
HETATM   18  H11 UNL     1      -0.080  -2.046   3.658  1.00  0.00     0.245 HD
ENDBRANCH   4  17
BRANCH  15  19
HETATM   19  C21 UNL     1      -0.544   0.732  -0.939  1.00  0.00     0.009 C 
BRANCH  19  20
HETATM   20  C22 UNL     1      -0.244   1.115  -2.357  1.00  0.00     0.192 C 
BRANCH  20  21
HETATM   21  O2  UNL     1       0.856   0.575  -2.948  1.00  0.00    -0.397 OA
HETATM   22  H26 UNL     1       0.634  -0.189  -3.551  1.00  0.00     0.209 HD
ENDBRANCH  20  21
ENDBRANCH  19  20
ENDBRANCH  15  19
BRANCH   1  23
HETATM   23  C7  UNL     1      -3.024   0.825   0.102  1.00  0.00    -0.040 A 
HETATM   24  C2  UNL     1      -3.464  -0.032  -0.883  1.00  0.00    -0.055 A 
HETATM   25  C1  UNL     1      -2.716  -1.267  -1.143  1.00  0.00     0.049 C 
HETATM   26  C3  UNL     1      -4.626   0.114  -1.641  1.00  0.00     0.007 A 
HETATM   27  C4  UNL     1      -5.397   1.226  -1.367  1.00  0.00     0.001 A 
HETATM   28  C5  UNL     1      -5.087   2.155  -0.423  1.00  0.00     0.001 A 
HETATM   29  C6  UNL     1      -3.911   1.910   0.271  1.00  0.00     0.009 A 
ENDBRANCH   1  23
TORSDOF 5
