REMARK  1 active torsions:
REMARK  status: ('A' for Active; 'I' for Inactive)
REMARK    1  A    between atoms: O1_2  and  C2_3 
ROOT
HETATM    1  C2  UNL     1      -3.574   1.981   0.058  1.00  0.00     0.046 C 
HETATM    2  C3  UNL     1      -2.361   2.437   0.437  1.00  0.00     0.030 C 
HETATM    3  C4  UNL     1      -0.912   2.209   0.570  1.00  0.00     0.003 C 
HETATM    4  C5  UNL     1       0.320   1.783   0.581  1.00  0.00     0.138 C 
HETATM    5  N1  UNL     1       1.093   0.661   0.201  1.00  0.00    -0.343 N 
HETATM    6  P1  UNL     1       2.265   1.833  -0.507  1.00  0.00     0.005 P 
HETATM    7  C6  UNL     1       3.198   0.521  -1.396  1.00  0.00    -0.027 C 
HETATM    8  C7  UNL     1       2.761  -0.573  -0.946  1.00  0.00    -0.023 C 
HETATM    9  C8  UNL     1       3.644  -1.500  -1.753  1.00  0.00     0.041 C 
HETATM   10  C9  UNL     1       5.088  -1.226  -1.503  1.00  0.00     0.005 C 
HETATM   11  C10 UNL     1       5.513   0.163  -1.903  1.00  0.00     0.005 C 
HETATM   12  C11 UNL     1       4.228   0.836  -2.416  1.00  0.00     0.041 C 
HETATM   13  C12 UNL     1       1.631  -0.601  -0.058  1.00  0.00     0.041 C 
HETATM   14  C13 UNL     1       1.363  -1.784   0.408  1.00  0.00     0.031 C 
HETATM   15  C14 UNL     1       0.720  -2.793   1.184  1.00  0.00     0.019 C 
HETATM   16  C15 UNL     1      -0.235  -2.970   2.059  1.00  0.00     0.027 A 
HETATM   17  C16 UNL     1      -1.330  -3.081   3.038  1.00  0.00     0.190 A 
HETATM   18  O2  UNL     1      -0.721  -3.899   3.849  1.00  0.00    -0.171 OA
HETATM   19  N2  UNL     1      -2.585  -2.459   3.012  1.00  0.00    -0.337 N 
HETATM   20  C17 UNL     1      -2.502  -1.742   1.839  1.00  0.00     0.025 A 
HETATM   21  C18 UNL     1      -3.323  -0.924   1.124  1.00  0.00     0.061 A 
HETATM   22  C19 UNL     1      -3.000  -0.354  -0.102  1.00  0.00     0.001 A 
HETATM   23  C20 UNL     1      -1.784  -0.631  -0.654  1.00  0.00    -0.031 A 
HETATM   24  C21 UNL     1      -1.874  -1.276   0.543  1.00  0.00     0.053 A 
HETATM   25  C22 UNL     1      -1.211  -2.079   1.391  1.00  0.00    -0.012 A 
HETATM   26  C23 UNL     1      -4.058   0.647  -0.533  1.00  0.00     0.079 C 
HETATM   27  H7  UNL     1       3.211   2.212   0.583  1.00  0.00     0.085 HD
HETATM   28  H18 UNL     1      -3.287  -2.587   3.733  1.00  0.00     0.168 HD
ENDROOT
BRANCH   1  29
HETATM   29  O1  UNL     1      -4.674   2.778   0.199  1.00  0.00    -0.360 OA
HETATM   30  C1  UNL     1      -4.829   4.000  -0.480  1.00  0.00     0.209 C 
ENDBRANCH   1  29
TORSDOF 1
