REMARK  1 active torsions:
REMARK  status: ('A' for Active; 'I' for Inactive)
REMARK    1  A    between atoms: O1_2  and  C2_3 
ROOT
HETATM    1  C2  UNL     1       3.111  -0.172   0.229  1.00  0.00     0.080 A 
HETATM    2  C3  UNL     1       4.061   0.799   0.400  1.00  0.00     0.037 A 
HETATM    3  C4  UNL     1       3.787   2.134   0.384  1.00  0.00     0.004 A 
HETATM    4  C5  UNL     1       2.505   2.572   0.190  1.00  0.00     0.013 A 
HETATM    5  C6  UNL     1       1.529   1.619   0.016  1.00  0.00    -0.016 A 
HETATM    6  C7  UNL     1       1.814   0.218   0.033  1.00  0.00     0.018 A 
HETATM    7  C8  UNL     1       0.800  -0.872  -0.139  1.00  0.00     0.011 C 
HETATM    8  C9  UNL     1       0.964  -1.694   0.876  1.00  0.00    -0.003 C 
HETATM    9  C10 UNL     1      -0.115  -2.742   0.755  1.00  0.00     0.070 C 
HETATM   10  C11 UNL     1       0.007  -3.241  -0.663  1.00  0.00     0.292 C 
HETATM   11  N1  UNL     1      -0.825  -2.256  -1.381  1.00  0.00     0.160 NA
HETATM   12  C12 UNL     1      -2.022  -2.392  -0.535  1.00  0.00     0.488 C 
HETATM   13  N2  UNL     1      -3.033  -1.431  -0.723  1.00  0.00     0.130 N 
HETATM   14  C13 UNL     1      -3.367  -0.826   0.567  1.00  0.00     0.246 C 
HETATM   15  C14 UNL     1      -2.294  -1.319   1.454  1.00  0.00     0.016 C 
HETATM   16  C15 UNL     1      -1.410  -2.069   0.811  1.00  0.00    -0.009 C 
HETATM   17  C16 UNL     1      -3.423   0.686   0.435  1.00  0.00     0.040 C 
HETATM   18  C17 UNL     1      -2.214   1.372   0.946  1.00  0.00     0.003 C 
HETATM   19  C18 UNL     1      -2.093   2.832   0.479  1.00  0.00     0.005 C 
HETATM   20  C19 UNL     1      -0.625   3.235   0.658  1.00  0.00     0.039 C 
HETATM   21  C20 UNL     1       0.205   2.297  -0.215  1.00  0.00    -0.049 C 
HETATM   22  C21 UNL     1      -0.295   1.941  -1.449  1.00  0.00     0.007 C 
HETATM   23  C22 UNL     1      -0.493   0.937  -2.538  1.00  0.00     0.199 C 
HETATM   24  O2  UNL     1       0.159  -0.280  -2.359  1.00  0.00    -0.350 OA
HETATM   25  C23 UNL     1      -0.217  -0.980  -1.231  1.00  0.00     0.397 C 
HETATM   26  H12 UNL     1      -2.969  -0.778  -1.500  1.00  0.00     0.320 HD
ENDROOT
BRANCH   1  27
HETATM   27  O1  UNL     1       3.249  -1.548   0.218  1.00  0.00    -0.355 OA
HETATM   28  C1  UNL     1       4.533  -2.101   0.408  1.00  0.00     0.210 C 
ENDBRANCH   1  27
TORSDOF 1
