REMARK  3 active torsions:
REMARK  status: ('A' for Active; 'I' for Inactive)
REMARK    1  A    between atoms: C4_4  and  C5_5 
REMARK    2  A    between atoms: C10_12  and  N2_13 
REMARK    3  A    between atoms: N2_13  and  C11_14 
ROOT
HETATM    1  C1  UNL     1       2.077   1.380   4.423  1.00  0.00     0.017 C 
HETATM    2  C2  UNL     1       1.867   0.515   3.626  1.00  0.00    -0.090 C 
HETATM    3  C3  UNL     1       1.628  -0.542   2.680  1.00  0.00     0.060 C 
HETATM    4  C4  UNL     1       2.355  -1.610   2.455  1.00  0.00    -0.004 C 
ENDROOT
BRANCH   4   5
HETATM    5  C5  UNL     1       1.956  -2.611   1.431  1.00  0.00     0.025 A 
HETATM    6  C6  UNL     1       0.907  -2.604   0.646  1.00  0.00     0.043 A 
HETATM    7  C7  UNL     1       1.627  -3.873   0.287  1.00  0.00     0.062 A 
HETATM    8  C10 UNL     1      -0.225  -2.724  -0.273  1.00  0.00     0.188 A 
HETATM    9  C8  UNL     1       2.685  -3.819   1.123  1.00  0.00     0.039 A 
HETATM   10  N1  UNL     1       1.078  -4.746  -0.689  1.00  0.00    -0.348 N 
HETATM   11  C9  UNL     1      -0.074  -3.990  -0.984  1.00  0.00     0.242 A 
HETATM   12  H5  UNL     1       1.257  -5.626  -1.162  1.00  0.00     0.163 HD
HETATM   13  O1  UNL     1      -1.045  -4.222  -1.790  1.00  0.00    -0.271 OA
BRANCH   8  14
HETATM   14  N2  UNL     1      -0.221  -1.641  -1.265  1.00  0.00    -0.362 N 
HETATM   15  H7  UNL     1      -0.030  -1.901  -2.283  1.00  0.00     0.162 HD
BRANCH  14  16
HETATM   16  C11 UNL     1      -0.464  -0.252  -0.946  1.00  0.00     0.098 C 
HETATM   17  C12 UNL     1      -1.189   0.104   0.100  1.00  0.00     0.032 C 
HETATM   18  C13 UNL     1      -1.202   1.545   0.123  1.00  0.00     0.062 C 
HETATM   19  C14 UNL     1      -2.467   2.302   0.269  1.00  0.00     0.019 C 
HETATM   20  C18 UNL     1      -0.736   1.934  -1.238  1.00  0.00     0.020 C 
HETATM   21  C15 UNL     1      -1.903   3.698  -0.165  1.00  0.00     0.037 C 
HETATM   22  C16 UNL     1      -1.157   3.210  -1.383  1.00  0.00    -0.060 C 
HETATM   23  C17 UNL     1      -0.890   4.000  -2.633  1.00  0.00     0.045 C 
HETATM   24  N3  UNL     1      -0.111   0.810  -1.838  1.00  0.00    -0.346 N 
HETATM   25  H17 UNL     1       0.450   0.818  -2.709  1.00  0.00     0.167 HD
ENDBRANCH  14  16
ENDBRANCH   8  14
ENDBRANCH   4   5
TORSDOF 3
