REMARK  5 active torsions:
REMARK  status: ('A' for Active; 'I' for Inactive)
REMARK    1  A    between atoms: C5_6  and  C6_7 
REMARK    2  A    between atoms: C6_7  and  C7_8 
REMARK    3  A    between atoms: C9_11  and  O1_12 
REMARK    4  A    between atoms: C16_19  and  C17_20 
REMARK    5  A    between atoms: C17_20  and  N2_21 
ROOT
HETATM    1  C1  UNL     1      -1.476  -1.629  -1.802  1.00  0.00     0.037 C 
HETATM    2  C2  UNL     1      -0.861  -0.248  -1.750  1.00  0.00     0.111 C 
HETATM    3  N1  UNL     1       0.552  -0.426  -2.099  1.00  0.00    -0.381 N 
HETATM    4  C3  UNL     1       1.304  -0.740  -0.932  1.00  0.00     0.040 A 
HETATM    5  C4  UNL     1       2.578  -1.267  -0.866  1.00  0.00     0.037 A 
HETATM    6  C5  UNL     1       3.107  -1.490   0.395  1.00  0.00    -0.054 A 
HETATM    7  C12 UNL     1       2.375  -1.190   1.537  1.00  0.00     0.008 A 
HETATM    8  C13 UNL     1       1.095  -0.660   1.431  1.00  0.00     0.015 A 
HETATM    9  C14 UNL     1       0.541  -0.428   0.175  1.00  0.00    -0.002 A 
HETATM   10  C15 UNL     1      -0.727   0.098  -0.313  1.00  0.00    -0.026 C 
HETATM   11  C16 UNL     1      -1.584   0.766   0.438  1.00  0.00    -0.002 C 
HETATM   12  H5  UNL     1       0.894  -0.321  -3.093  1.00  0.00     0.160 HD
ENDROOT
BRANCH   6  13
HETATM   13  C6  UNL     1       4.496  -2.064   0.475  1.00  0.00     0.061 C 
BRANCH  13  14
HETATM   14  C7  UNL     1       5.409  -0.878   0.509  1.00  0.00     0.037 A 
HETATM   15  S1  UNL     1       4.879   0.688   0.464  1.00  0.00    -0.126 SA
HETATM   16  C8  UNL     1       6.080   1.795   0.515  1.00  0.00     0.082 A 
HETATM   17  C9  UNL     1       7.449   1.310   0.592  1.00  0.00     0.068 A 
HETATM   18  C10 UNL     1       7.715  -0.001   0.620  1.00  0.00     0.012 A 
HETATM   19  C11 UNL     1       6.860  -1.192   0.587  1.00  0.00     0.052 A 
BRANCH  17  20
HETATM   20  O1  UNL     1       8.564   2.166   0.641  1.00  0.00    -0.361 OA
HETATM   21  H10 UNL     1       8.351   3.155   0.654  1.00  0.00     0.217 HD
ENDBRANCH  17  20
ENDBRANCH  13  14
ENDBRANCH   6  13
BRANCH  11  22
HETATM   22  C17 UNL     1      -2.888   1.294  -0.106  1.00  0.00     0.124 C 
BRANCH  22  23
HETATM   23  N2  UNL     1      -3.979   0.731   0.602  1.00  0.00    -0.272 N 
HETATM   24  C18 UNL     1      -4.962   1.205   0.076  1.00  0.00     0.042 A 
HETATM   25  C19 UNL     1      -5.798   1.588  -0.353  1.00  0.00    -0.135 C 
HETATM   26  C23 UNL     1      -5.310   0.261   1.207  1.00  0.00     0.138 A 
HETATM   27  C20 UNL     1      -6.944   2.084  -0.915  1.00  0.00     0.086 C 
HETATM   28  C21 UNL     1      -7.702   0.915   0.145  1.00  0.00     0.013 C 
HETATM   29  C22 UNL     1      -6.504  -0.023   0.435  1.00  0.00     0.020 C 
ENDBRANCH  22  23
ENDBRANCH  11  22
TORSDOF 5
