REMARK  3 active torsions:
REMARK  status: ('A' for Active; 'I' for Inactive)
REMARK    1  A    between atoms: O1_2  and  C2_3 
REMARK    2  A    between atoms: C5_6  and  C6_7 
REMARK    3  A    between atoms: C14_16  and  C15_17 
ROOT
HETATM    1  C6  UNL     1       0.021   0.192  -0.084  1.00  0.00    -0.024 A 
HETATM    2  C7  UNL     1      -0.784   1.045   0.642  1.00  0.00     0.013 A 
HETATM    3  C8  UNL     1      -2.157   1.016   0.506  1.00  0.00     0.015 A 
HETATM    4  C9  UNL     1      -2.683   0.103  -0.380  1.00  0.00    -0.002 A 
HETATM    5  C10 UNL     1      -1.935  -0.776  -1.135  1.00  0.00     0.040 A 
HETATM    6  C11 UNL     1      -0.548  -0.721  -0.974  1.00  0.00     0.042 A 
HETATM    7  N1  UNL     1      -2.799  -1.589  -1.954  1.00  0.00    -0.385 N 
HETATM    8  C12 UNL     1      -4.088  -0.904  -1.980  1.00  0.00     0.159 C 
HETATM    9  C13 UNL     1      -4.074  -0.143  -0.719  1.00  0.00    -0.026 C 
HETATM   10  C14 UNL     1      -5.192   0.190  -0.110  1.00  0.00     0.036 C 
HETATM   11  H9  UNL     1      -2.474  -2.483  -2.402  1.00  0.00     0.160 HD
ENDROOT
BRANCH   1  12
HETATM   12  C5  UNL     1       1.472   0.099  -0.053  1.00  0.00    -0.026 A 
HETATM   13  C4  UNL     1       2.272  -0.259  -1.117  1.00  0.00     0.015 A 
HETATM   14  C3  UNL     1       3.631  -0.310  -0.948  1.00  0.00     0.037 A 
HETATM   15  C2  UNL     1       4.214  -0.007   0.275  1.00  0.00     0.068 A 
HETATM   16  C17 UNL     1       3.413   0.358   1.362  1.00  0.00     0.037 A 
HETATM   17  C16 UNL     1       2.036   0.409   1.191  1.00  0.00     0.015 A 
BRANCH  15  18
HETATM   18  O1  UNL     1       5.589  -0.110   0.264  1.00  0.00    -0.356 OA
HETATM   19  C1  UNL     1       6.418   0.146   1.385  1.00  0.00     0.210 C 
ENDBRANCH  15  18
ENDBRANCH   1  12
BRANCH  10  20
HETATM   20  C15 UNL     1      -5.100   0.939   1.130  1.00  0.00     0.378 C 
HETATM   21  O2  UNL     1      -5.267   1.576   2.196  1.00  0.00    -0.406 OA
ENDBRANCH  10  20
TORSDOF 3
