REMARK  4 active torsions:
REMARK  status: ('A' for Active; 'I' for Inactive)
REMARK    1  A    between atoms: C3_3  and  C4_4 
REMARK    2  A    between atoms: C4_4  and  C5_5 
REMARK    3  A    between atoms: C5_5  and  C6_6 
REMARK    4  A    between atoms: C6_6  and  O2_8 
ROOT
HETATM    1  C1  UNL     1       0.924  -1.664  -1.920  1.00  0.00     0.015 C 
HETATM    2  C2  UNL     1       0.118  -1.142  -0.780  1.00  0.00     0.021 C 
HETATM    3  C3  UNL     1       0.726   0.231  -0.406  1.00  0.00    -0.092 C 
HETATM    4  C7  UNL     1       0.009   1.420  -0.371  1.00  0.00     0.014 A 
HETATM    5  C8  UNL     1      -0.672   2.878  -0.282  1.00  0.00     0.025 A 
HETATM    6  C9  UNL     1      -1.260   2.554   1.117  1.00  0.00    -0.009 A 
HETATM    7  C10 UNL     1      -1.309   1.614   0.048  1.00  0.00     0.006 A 
HETATM    8  C11 UNL     1      -1.115   1.127  -1.355  1.00  0.00     0.004 C 
HETATM    9  C12 UNL     1      -1.098   0.167  -2.278  1.00  0.00     0.011 C 
HETATM   10  C13 UNL     1      -1.378  -0.922  -1.326  1.00  0.00     0.069 C 
HETATM   11  S1  UNL     1      -2.680  -1.454  -0.377  1.00  0.00    -0.064 SA
HETATM   12  C14 UNL     1      -3.018  -0.682   1.261  1.00  0.00     0.280 C 
HETATM   13  O3  UNL     1      -3.661  -0.904   2.274  1.00  0.00    -0.260 OA
HETATM   14  N1  UNL     1      -2.509   0.555   1.762  1.00  0.00    -0.351 N 
HETATM   15  C15 UNL     1      -1.975   1.854   2.291  1.00  0.00     0.134 C 
HETATM   16  H17 UNL     1      -1.808   0.277   1.123  1.00  0.00     0.163 HD
ENDROOT
BRANCH   3  17
HETATM   17  C4  UNL     1       2.178   0.079  -0.161  1.00  0.00     0.041 C 
BRANCH  17  18
HETATM   18  C5  UNL     1       2.641  -0.714   0.982  1.00  0.00     0.114 C 
BRANCH  18  19
HETATM   19  C6  UNL     1       2.399  -2.139   1.102  1.00  0.00     0.139 C 
HETATM   20  O1  UNL     1       1.962  -3.279   0.704  1.00  0.00    -0.650 OA
BRANCH  19  21
HETATM   21  O2  UNL     1       2.895  -2.606   2.309  1.00  0.00    -0.776 OA
HETATM   22  H9  UNL     1       3.165  -3.502   2.611  1.00  0.00     0.167 HD
ENDBRANCH  19  21
ENDBRANCH  18  19
ENDBRANCH  17  18
ENDBRANCH   3  17
TORSDOF 4
