REMARK  5 active torsions:
REMARK  status: ('A' for Active; 'I' for Inactive)
REMARK    1  A    between atoms: C4_4  and  C5_5 
REMARK    2  A    between atoms: C13_15  and  C14_16 
REMARK    3  A    between atoms: C14_16  and  C15_17 
REMARK    4  A    between atoms: C15_17  and  C16_18 
REMARK    5  A    between atoms: C16_18  and  O3_20 
ROOT
HETATM    1  C1  UNL     1      -1.543  -1.831   3.156  1.00  0.00     0.049 C 
HETATM    2  C2  UNL     1      -0.943  -1.215   1.951  1.00  0.00    -0.054 A 
HETATM    3  C3  UNL     1       0.315  -1.205   1.515  1.00  0.00     0.020 A 
HETATM    4  C4  UNL     1      -0.023  -0.416   0.337  1.00  0.00    -0.016 A 
HETATM    5  C13 UNL     1      -1.268  -0.426   0.769  1.00  0.00    -0.041 A 
ENDROOT
BRANCH   4   6
HETATM    6  C5  UNL     1       0.689   0.136  -0.801  1.00  0.00     0.007 A 
HETATM    7  C6  UNL     1       0.217   0.849  -1.807  1.00  0.00     0.089 A 
HETATM    8  C7  UNL     1       1.232   1.236  -2.776  1.00  0.00     0.253 A 
HETATM    9  O1  UNL     1       1.118   1.906  -3.832  1.00  0.00    -0.268 OA
HETATM   10  N1  UNL     1       2.455   0.693  -2.299  1.00  0.00    -0.289 N 
HETATM   11  C8  UNL     1       3.766   0.756  -2.838  1.00  0.00     0.097 A 
HETATM   12  C12 UNL     1       2.117   0.012  -1.075  1.00  0.00     0.050 A 
HETATM   13  C9  UNL     1       4.763   0.155  -2.189  1.00  0.00    -0.005 A 
HETATM   14  C10 UNL     1       4.565  -0.584  -0.916  1.00  0.00     0.058 A 
HETATM   15  C11 UNL     1       3.144  -0.555  -0.491  1.00  0.00     0.008 A 
ENDBRANCH   4   6
BRANCH   5  16
HETATM   16  C14 UNL     1      -2.602   0.058   0.417  1.00  0.00     0.050 C 
BRANCH  16  17
HETATM   17  C15 UNL     1      -3.179   0.994   1.453  1.00  0.00     0.114 C 
BRANCH  17  18
HETATM   18  C16 UNL     1      -4.530   1.450   1.047  1.00  0.00     0.139 C 
HETATM   19  O2  UNL     1      -4.425   0.751   0.005  1.00  0.00    -0.650 OA
BRANCH  18  20
HETATM   20  O3  UNL     1      -5.785   1.837   0.611  1.00  0.00    -0.776 OA
HETATM   21  H15 UNL     1      -6.635   1.345   0.932  1.00  0.00     0.167 HD
ENDBRANCH  18  20
ENDBRANCH  17  18
ENDBRANCH  16  17
ENDBRANCH   5  16
TORSDOF 5
