REMARK  7 active torsions:
REMARK  status: ('A' for Active; 'I' for Inactive)
REMARK    1  A    between atoms: B1_1  and  C1_2 
REMARK    2  A    between atoms: C1_2  and  C2_3 
REMARK    3  A    between atoms: C3_4  and  C4_5 
REMARK    4  A    between atoms: C7_8  and  C8_9 
REMARK    5  A    between atoms: C9_10  and  C10_11 
REMARK    6  A    between atoms: C10_11  and  C11_12 
REMARK    7  A    between atoms: C11_12  and  C12_13 
ROOT
HETATM    1  C4  UNL     1       3.390  -0.719  -0.860  1.00  0.00     0.029 C 
HETATM    2  C5  UNL     1       2.314  -0.718  -0.101  1.00  0.00     0.036 A 
HETATM    3  C6  UNL     1       1.062  -0.105  -0.498  1.00  0.00     0.049 A 
HETATM    4  C7  UNL     1       0.118  -0.229   0.423  1.00  0.00     0.061 A 
HETATM    5  C15 UNL     1       0.717  -0.955   1.509  1.00  0.00     0.258 A 
HETATM    6  O3  UNL     1       0.407  -1.397   2.643  1.00  0.00    -0.267 OA
HETATM    7  N2  UNL     1       2.091  -1.265   1.192  1.00  0.00    -0.323 N 
HETATM    8  H19 UNL     1       2.884  -1.757   1.659  1.00  0.00     0.169 HD
ENDROOT
BRANCH   4   9
HETATM    9  C8  UNL     1      -1.271   0.203   0.499  1.00  0.00     0.049 A 
HETATM   10  C9  UNL     1      -2.447   0.311   1.100  1.00  0.00    -0.030 A 
HETATM   11  C13 UNL     1      -3.155   1.060   0.035  1.00  0.00     0.109 A 
HETATM   12  C14 UNL     1      -3.479   2.502   0.394  1.00  0.00     0.037 C 
HETATM   13  N1  UNL     1      -1.883   0.949  -0.580  1.00  0.00    -0.381 N 
HETATM   14  H18 UNL     1      -1.710   1.376  -1.537  1.00  0.00     0.160 HD
BRANCH  10  15
HETATM   15  C10 UNL     1      -2.793  -0.202   2.422  1.00  0.00     0.045 C 
BRANCH  15  16
HETATM   16  C11 UNL     1      -3.874  -1.250   2.380  1.00  0.00     0.075 C 
BRANCH  16  17
HETATM   17  C12 UNL     1      -5.130  -0.651   1.876  1.00  0.00     0.117 A 
HETATM   18  O1  UNL     1      -5.669   0.449   1.506  1.00  0.00    -0.194 OA
HETATM   19  O2  UNL     1      -6.444  -0.684   1.470  1.00  0.00     0.000 OA
HETATM   20  H13 UNL     1      -7.019  -1.521   1.544  1.00  0.00     0.000 HD
ENDBRANCH  16  17
ENDBRANCH  15  16
ENDBRANCH  10  15
ENDBRANCH   4   9
BRANCH   1  21
HETATM   21  C3  UNL     1       3.412  -0.105  -2.159  1.00  0.00    -0.003 C 
HETATM   22  C2  UNL     1       4.507  -0.126  -2.888  1.00  0.00    -0.037 C 
BRANCH  22  23
HETATM   23  C1  UNL     1       5.844  -0.693  -2.643  1.00  0.00    -0.033 C 
BRANCH  23  24
HETATM   24  B1  UNL     1       6.947   0.450  -2.691  1.00  0.00     0.138 B 
HETATM   25  H1  UNL     1       7.800   0.532  -1.896  1.00  0.00    -0.032 HD
HETATM   26  H2  UNL     1       6.766   1.358  -3.426  1.00  0.00    -0.032 HD
ENDBRANCH  23  24
ENDBRANCH  22  23
ENDBRANCH   1  21
TORSDOF 7
