REMARK  5 active torsions:
REMARK  status: ('A' for Active; 'I' for Inactive)
REMARK    1  A    between atoms: C8_8  and  C9_9 
REMARK    2  A    between atoms: C10_10  and  C11_11 
REMARK    3  A    between atoms: C11_11  and  C12_12 
REMARK    4  A    between atoms: C12_12  and  O2_14 
REMARK    5  A    between atoms: C16_20  and  N2_21 
ROOT
HETATM    1  C1  UNL     1       3.665   0.509  -1.675  1.00  0.00     0.049 C 
HETATM    2  C2  UNL     1       3.107   0.627  -0.296  1.00  0.00    -0.051 A 
HETATM    3  C3  UNL     1       3.503   1.334   0.747  1.00  0.00     0.008 A 
HETATM    4  C4  UNL     1       2.532   1.016   1.811  1.00  0.00     0.011 A 
HETATM    5  C5  UNL     1       1.637   0.156   1.343  1.00  0.00    -0.014 A 
HETATM    6  C6  UNL     1       1.905  -0.188  -0.071  1.00  0.00    -0.025 A 
HETATM    7  C7  UNL     1       0.919  -1.055  -0.218  1.00  0.00    -0.001 C 
HETATM    8  C8  UNL     1      -0.150  -1.255   0.825  1.00  0.00     0.098 C 
HETATM    9  C16 UNL     1       0.518  -0.614   1.907  1.00  0.00     0.265 C 
ENDROOT
BRANCH   8  10
HETATM   10  C9  UNL     1      -1.265  -0.730   0.031  1.00  0.00     0.035 A 
HETATM   11  C10 UNL     1      -1.907   0.397   0.043  1.00  0.00     0.016 A 
HETATM   12  S1  UNL     1      -3.274   0.898  -1.036  1.00  0.00    -0.103 SA
HETATM   13  C13 UNL     1      -3.501  -0.510  -2.106  1.00  0.00     0.067 A 
HETATM   14  C14 UNL     1      -2.711  -1.534  -1.913  1.00  0.00     0.097 A 
HETATM   15  N1  UNL     1      -1.672  -1.719  -0.968  1.00  0.00    -0.362 N 
HETATM   16  C15 UNL     1      -1.180  -3.051  -1.273  1.00  0.00     0.155 C 
BRANCH  11  17
HETATM   17  C11 UNL     1      -1.745   1.562   0.855  1.00  0.00     0.158 C 
BRANCH  17  18
HETATM   18  C12 UNL     1      -1.541   2.822   0.009  1.00  0.00     0.144 C 
HETATM   19  O1  UNL     1      -1.412   3.853   0.723  1.00  0.00    -0.650 OA
BRANCH  18  20
HETATM   20  O2  UNL     1      -1.394   3.657  -1.057  1.00  0.00    -0.776 OA
HETATM   21  H10 UNL     1      -2.206   3.925  -1.618  1.00  0.00     0.167 HD
ENDBRANCH  18  20
ENDBRANCH  17  18
ENDBRANCH  11  17
ENDBRANCH   8  10
BRANCH   9  22
HETATM   22  N2  UNL     1      -0.029  -0.188   3.125  1.00  0.00     0.088 NA
HETATM   23  H17 UNL     1      -0.389  -0.927   3.755  1.00  0.00     0.313 HD
HETATM   24  H18 UNL     1       0.640   0.456   3.598  1.00  0.00     0.313 HD
ENDBRANCH   9  22
TORSDOF 5
