REMARK  8 active torsions:
REMARK  status: ('A' for Active; 'I' for Inactive)
REMARK    1  A    between atoms: N1_1  and  C1_2 
REMARK    2  A    between atoms: C2_3  and  C3_4 
REMARK    3  A    between atoms: C3_4  and  C4_5 
REMARK    4  A    between atoms: C4_5  and  C5_6 
REMARK    5  A    between atoms: C5_6  and  O2_8 
REMARK    6  A    between atoms: C8_11  and  C9_12 
REMARK    7  A    between atoms: C14_17  and  N2_18 
REMARK    8  A    between atoms: N2_18  and  C15_19 
ROOT
HETATM    1  C1  UNL     1       1.940   0.911   1.112  1.00  0.00     0.040 A 
HETATM    2  C2  UNL     1       3.055   0.224   0.869  1.00  0.00    -0.023 A 
HETATM    3  C6  UNL     1       2.256  -1.026   0.929  1.00  0.00    -0.031 A 
HETATM    4  C7  UNL     1       1.179  -0.338   1.167  1.00  0.00    -0.015 A 
HETATM    5  C8  UNL     1      -0.217  -0.764   1.387  1.00  0.00     0.053 C 
HETATM    6  C17 UNL     1      -0.416  -2.239   1.270  1.00  0.00     0.087 C 
HETATM    7  S1  UNL     1       1.022  -3.174   1.855  1.00  0.00    -0.164 SA
HETATM    8  C18 UNL     1       2.364  -2.505   0.810  1.00  0.00     0.113 C 
ENDROOT
BRANCH   5   9
HETATM    9  C9  UNL     1      -1.202   0.028   0.611  1.00  0.00    -0.013 C 
HETATM   10  C10 UNL     1      -2.252  -0.120  -0.202  1.00  0.00    -0.077 C 
HETATM   11  C11 UNL     1      -2.829  -1.398  -0.632  1.00  0.00     0.038 C 
HETATM   12  C16 UNL     1      -2.911   1.134  -0.727  1.00  0.00     0.090 C 
HETATM   13  C12 UNL     1      -4.152  -1.157  -1.318  1.00  0.00     0.033 C 
HETATM   14  C13 UNL     1      -4.856  -0.032  -0.667  1.00  0.00    -0.001 C 
HETATM   15  C14 UNL     1      -4.338   1.127  -0.342  1.00  0.00     0.011 C 
BRANCH  15  16
HETATM   16  N2  UNL     1      -4.925   2.249   0.277  1.00  0.00    -0.338 N 
HETATM   17  H15 UNL     1      -4.328   3.092   0.447  1.00  0.00     0.168 HD
BRANCH  16  18
HETATM   18  C15 UNL     1      -6.251   2.446   0.730  1.00  0.00     0.353 C 
HETATM   19  O3  UNL     1      -7.083   1.521   0.587  1.00  0.00    -0.283 OA
ENDBRANCH  16  18
ENDBRANCH  15  16
ENDBRANCH   5   9
BRANCH   1  20
HETATM   20  N1  UNL     1       1.798   2.340   1.226  1.00  0.00    -0.398 N 
HETATM   21  H1  UNL     1       1.257   2.966   0.584  1.00  0.00     0.156 HD
HETATM   22  H2  UNL     1       2.273   2.849   2.024  1.00  0.00     0.156 HD
ENDBRANCH   1  20
BRANCH   2  23
HETATM   23  C3  UNL     1       4.506   0.508   0.622  1.00  0.00     0.052 C 
BRANCH  23  24
HETATM   24  C4  UNL     1       4.973  -0.017  -0.718  1.00  0.00     0.115 C 
BRANCH  24  25
HETATM   25  C5  UNL     1       6.419   0.319  -0.854  1.00  0.00     0.139 C 
HETATM   26  O1  UNL     1       6.622   1.585  -0.775  1.00  0.00    -0.650 OA
BRANCH  25  27
HETATM   27  O2  UNL     1       7.644  -0.339  -1.046  1.00  0.00    -0.776 OA
HETATM   28  H7  UNL     1       8.447  -0.129  -0.453  1.00  0.00     0.167 HD
ENDBRANCH  25  27
ENDBRANCH  24  25
ENDBRANCH  23  24
ENDBRANCH   2  23
TORSDOF 8
