REMARK  3 active torsions:
REMARK  status: ('A' for Active; 'I' for Inactive)
REMARK    1  A    between atoms: C1_2  and  C2_4 
REMARK    2  A    between atoms: C2_4  and  C3_5 
REMARK    3  A    between atoms: C3_5  and  C4_6 
ROOT
HETATM    1  C4  UNL     1       0.728  -0.338   0.483  1.00  0.00    -0.025 A 
HETATM    2  C5  UNL     1       1.104  -1.685   0.485  1.00  0.00    -0.026 A 
HETATM    3  C6  UNL     1      -0.056  -2.423   0.494  1.00  0.00     0.028 A 
HETATM    4  N1  UNL     1      -1.100  -1.561   0.498  1.00  0.00    -0.270 N 
HETATM    5  C7  UNL     1      -0.648  -0.273   0.491  1.00  0.00     0.042 A 
HETATM    6  C8  UNL     1      -1.503   0.919   0.494  1.00  0.00     0.110 A 
HETATM    7  C9  UNL     1      -1.349   1.798  -0.687  1.00  0.00    -0.010 C 
HETATM    8  C10 UNL     1      -2.359   2.616  -1.021  1.00  0.00    -0.002 C 
HETATM    9  C11 UNL     1      -3.595   2.624  -0.210  1.00  0.00     0.014 C 
HETATM   10  C12 UNL     1      -3.820   1.545   0.526  1.00  0.00    -0.000 C 
HETATM   11  C13 UNL     1      -2.961   0.548   0.513  1.00  0.00     0.038 A 
HETATM   12  N2  UNL     1      -3.479  -0.778   0.519  1.00  0.00    -0.310 N 
HETATM   13  C14 UNL     1      -2.517  -1.823   0.512  1.00  0.00     0.331 A 
HETATM   14  O3  UNL     1      -2.997  -2.993   0.518  1.00  0.00    -0.246 OA
HETATM   15  C15 UNL     1       0.622  -3.741   0.494  1.00  0.00     0.063 A 
HETATM   16  C16 UNL     1       1.882  -2.949   0.486  1.00  0.00     0.047 A 
HETATM   17  H10 UNL     1      -4.511  -0.927   0.527  1.00  0.00     0.170 HD
ENDROOT
BRANCH   1  18
HETATM   18  C3  UNL     1       1.806   0.688   0.473  1.00  0.00     0.048 C 
BRANCH  18  19
HETATM   19  C2  UNL     1       2.411   0.771  -0.915  1.00  0.00     0.075 C 
BRANCH  19  20
HETATM   20  C1  UNL     1       3.480   1.759  -0.998  1.00  0.00     0.117 A 
HETATM   21  O1  UNL     1       4.454   1.620  -0.177  1.00  0.00    -0.194 OA
HETATM   22  O2  UNL     1       4.465   2.727  -1.124  1.00  0.00     0.000 OA
HETATM   23  H1  UNL     1       4.238   3.673  -1.497  1.00  0.00     0.000 HD
ENDBRANCH  19  20
ENDBRANCH  18  19
ENDBRANCH   1  18
TORSDOF 3
