REMARK  3 active torsions:
REMARK  status: ('A' for Active; 'I' for Inactive)
REMARK       I    between atoms: C1_2  and  N1_3 
REMARK    1  A    between atoms: C1_2  and  C8_14 
REMARK    2  A    between atoms: N1_3  and  S1_4 
REMARK    3  A    between atoms: S1_4  and  C2_7 
ROOT
HETATM    1  O1  UNL     1       0.024   0.672  -0.456  1.00  0.00    -0.267 OA
HETATM    2  C1  UNL     1      -0.925   0.037   0.079  1.00  0.00     0.266 C 
HETATM    3  N1  UNL     1      -0.574  -1.222   0.573  1.00  0.00    -0.246 N 
HETATM    4  H1  UNL     1      -1.279  -1.836   1.037  1.00  0.00     0.182 HD
ENDROOT
BRANCH   3   5
HETATM    5  S1  UNL     1       0.949  -1.986   0.539  1.00  0.00     0.265 S 
HETATM    6  O2  UNL     1       0.763  -3.310  -0.188  1.00  0.00    -0.200 OA
HETATM    7  O3  UNL     1       1.310  -2.343   1.965  1.00  0.00    -0.200 OA
BRANCH   5   8
HETATM    8  C2  UNL     1       2.199  -1.042  -0.216  1.00  0.00     0.080 A 
HETATM    9  C3  UNL     1       2.895  -0.212   0.660  1.00  0.00     0.027 A 
HETATM   10  C4  UNL     1       3.913   0.584   0.163  1.00  0.00     0.020 A 
HETATM   11  C5  UNL     1       4.217   0.542  -1.177  1.00  0.00     0.011 A 
HETATM   12 BR1  UNL     1       5.616   1.629  -1.891  1.00  0.00    -0.051 Br
HETATM   13  C6  UNL     1       3.505  -0.289  -1.995  1.00  0.00     0.020 A 
HETATM   14  C7  UNL     1       2.482  -1.105  -1.565  1.00  0.00     0.027 A 
ENDBRANCH   5   8
ENDBRANCH   3   5
BRANCH   2  15
HETATM   15  C8  UNL     1      -2.255   0.587   0.163  1.00  0.00     0.050 A 
HETATM   16  C9  UNL     1      -3.301  -0.101   0.747  1.00  0.00     0.022 A 
HETATM   17  C10 UNL     1      -4.523   0.539   0.762  1.00  0.00     0.045 A 
HETATM   18  C11 UNL     1      -4.810   1.787   0.257  1.00  0.00     0.125 A 
HETATM   19 CL1  UNL     1      -6.428   2.448   0.362  1.00  0.00    -0.062 Cl
HETATM   20  N2  UNL     1      -3.746   2.427  -0.310  1.00  0.00    -0.248 NA
HETATM   21  C12 UNL     1      -2.534   1.839  -0.345  1.00  0.00     0.135 A 
ENDBRANCH   2  15
TORSDOF 3
