REMARK  2 active torsions:
REMARK  status: ('A' for Active; 'I' for Inactive)
REMARK       I    between atoms: C1_2  and  N1_3 
REMARK       I    between atoms: C1_2  and  N2_11 
REMARK    1  A    between atoms: N1_3  and  C2_4 
REMARK    2  A    between atoms: N2_11  and  C8_12 
ROOT
HETATM    1  C8  UNL     1       0.368   1.211   0.855  1.00  0.00     0.037 A 
HETATM    2  C9  UNL     1       0.127   2.437   0.310  1.00  0.00     0.032 A 
HETATM    3  C10 UNL     1      -1.168   2.698  -0.095  1.00  0.00     0.033 A 
HETATM    4  C11 UNL     1      -2.189   1.780   0.033  1.00  0.00     0.044 A 
HETATM    5  C12 UNL     1      -1.757   0.580   0.611  1.00  0.00     0.003 A 
HETATM    6  C13 UNL     1      -0.539   0.191   1.051  1.00  0.00     0.044 A 
HETATM    7  C14 UNL     1      -2.852  -0.379   0.714  1.00  0.00    -0.021 A 
HETATM    8  C15 UNL     1      -3.088  -0.801   1.990  1.00  0.00     0.012 A 
HETATM    9  C16 UNL     1      -4.238  -1.602   2.041  1.00  0.00     0.003 A 
HETATM   10  C17 UNL     1      -4.990  -1.892   0.936  1.00  0.00     0.031 A 
HETATM   11  C18 UNL     1      -4.618  -1.389  -0.280  1.00  0.00     0.059 A 
HETATM   12  C19 UNL     1      -3.508  -0.597  -0.462  1.00  0.00     0.044 A 
HETATM   13  N3  UNL     1      -5.214  -1.392  -1.606  1.00  0.00    -0.242 NA
HETATM   14  C20 UNL     1      -5.459  -0.170  -2.113  1.00  0.00     0.234 C 
HETATM   15  N4  UNL     1      -5.389   1.223  -1.913  1.00  0.00    -0.237 NA
HETATM   16  C21 UNL     1      -4.581   1.925  -1.229  1.00  0.00     0.208 C 
HETATM   17  N5  UNL     1      -3.477   2.114  -0.374  1.00  0.00    -0.350 N 
HETATM   18  H16 UNL     1      -3.713   2.884   0.311  1.00  0.00     0.166 HD
ENDROOT
BRANCH   1  19
HETATM   19  N2  UNL     1       1.700   0.906   1.286  1.00  0.00    -0.309 N 
HETATM   20  C1  UNL     1       2.606   0.306   0.386  1.00  0.00     0.325 C 
HETATM   21  O1  UNL     1       2.172   0.079  -0.750  1.00  0.00    -0.247 OA
HETATM   22  N1  UNL     1       3.927  -0.039   0.691  1.00  0.00    -0.309 N 
HETATM   23  H1  UNL     1       4.172   0.208   1.695  1.00  0.00     0.170 HD
HETATM   24  H6  UNL     1       2.015   1.124   2.265  1.00  0.00     0.170 HD
BRANCH  22  25
HETATM   25  C2  UNL     1       4.928  -0.641  -0.111  1.00  0.00     0.039 A 
HETATM   26  C3  UNL     1       6.168  -0.883   0.427  1.00  0.00     0.030 A 
HETATM   27  C4  UNL     1       7.184  -1.461  -0.283  1.00  0.00     0.005 A 
HETATM   28  C5  UNL     1       7.018  -1.829  -1.579  1.00  0.00     0.042 A 
HETATM   29  C6  UNL     1       5.789  -1.607  -2.169  1.00  0.00     0.118 A 
HETATM   30  F1  UNL     1       5.598  -1.967  -3.460  1.00  0.00    -0.206 F 
HETATM   31  C7  UNL     1       4.795  -1.021  -1.407  1.00  0.00     0.071 A 
ENDBRANCH  22  25
ENDBRANCH   1  19
TORSDOF 2
