REMARK  5 active torsions:
REMARK  status: ('A' for Active; 'I' for Inactive)
REMARK    1  A    between atoms: C1_2  and  O2_3 
REMARK    2  A    between atoms: C1_2  and  C2_4 
REMARK    3  A    between atoms: C2_4  and  C3_5 
REMARK    4  A    between atoms: C3_5  and  C4_6 
REMARK    5  A    between atoms: C9_12  and  C10_13 
ROOT
HETATM    1  C4  UNL     1       1.674   0.121   0.576  1.00  0.00    -0.001 C 
HETATM    2  C5  UNL     1       1.389  -0.930  -0.174  1.00  0.00     0.009 C 
HETATM    3  N1  UNL     1       2.061  -2.141   0.041  1.00  0.00    -0.393 N 
HETATM    4  C6  UNL     1       1.810  -3.225  -0.858  1.00  0.00     0.119 C 
HETATM    5  C7  UNL     1       0.341  -3.131  -1.279  1.00  0.00     0.021 C 
HETATM    6  C8  UNL     1       0.240  -1.862  -2.096  1.00  0.00     0.016 C 
HETATM    7  C9  UNL     1       0.345  -0.675  -1.192  1.00  0.00     0.058 C 
HETATM    8  H7  UNL     1       2.738  -2.331   0.807  1.00  0.00     0.159 HD
ENDROOT
BRANCH   7   9
HETATM    9  C10 UNL     1      -0.938  -0.380  -0.518  1.00  0.00     0.002 C 
HETATM   10  C11 UNL     1      -1.712   0.690  -0.560  1.00  0.00     0.041 A 
HETATM   11  C12 UNL     1      -1.466   1.900  -1.326  1.00  0.00     0.256 A 
HETATM   12  C18 UNL     1      -2.953   0.763   0.199  1.00  0.00     0.006 A 
HETATM   13  O3  UNL     1      -0.509   2.193  -2.087  1.00  0.00    -0.267 OA
HETATM   14  N2  UNL     1      -2.596   2.726  -1.017  1.00  0.00    -0.322 N 
HETATM   15  C13 UNL     1      -3.453   2.032  -0.118  1.00  0.00     0.046 A 
HETATM   16  H16 UNL     1      -2.766   3.686  -1.390  1.00  0.00     0.169 HD
HETATM   17  C14 UNL     1      -4.647   2.444   0.441  1.00  0.00     0.030 A 
HETATM   18  C15 UNL     1      -5.307   1.575   1.301  1.00  0.00     0.002 A 
HETATM   19  C16 UNL     1      -4.848   0.318   1.638  1.00  0.00     0.001 A 
HETATM   20  C17 UNL     1      -3.636  -0.074   1.058  1.00  0.00     0.014 A 
ENDBRANCH   7   9
BRANCH   1  21
HETATM   21  C3  UNL     1       2.630   0.325   1.691  1.00  0.00     0.039 C 
BRANCH  21  22
HETATM   22  C2  UNL     1       3.637   1.413   1.372  1.00  0.00     0.113 C 
BRANCH  22  23
HETATM   23  C1  UNL     1       4.404   1.041   0.166  1.00  0.00     0.139 C 
HETATM   24  O1  UNL     1       4.304   0.012  -0.541  1.00  0.00    -0.650 OA
BRANCH  23  25
HETATM   25  O2  UNL     1       5.383   1.929  -0.281  1.00  0.00    -0.776 OA
HETATM   26  H1  UNL     1       5.715   1.932  -1.241  1.00  0.00     0.167 HD
ENDBRANCH  23  25
ENDBRANCH  22  23
ENDBRANCH  21  22
ENDBRANCH   1  21
TORSDOF 5
