REMARK  3 active torsions:
REMARK  status: ('A' for Active; 'I' for Inactive)
REMARK    1  A    between atoms: C16_18  and  C17_19 
REMARK    2  A    between atoms: C17_19  and  C18_20 
REMARK    3  A    between atoms: C18_20  and  O2_22 
ROOT
HETATM    1  C1  UNL     1      -4.055  -1.789   0.003  1.00  0.00     0.016 C 
HETATM    2  C2  UNL     1      -3.235  -0.635  -0.455  1.00  0.00     0.032 C 
HETATM    3  C3  UNL     1      -3.577   0.684   0.210  1.00  0.00     0.011 C 
HETATM    4  C4  UNL     1      -3.042   0.839   1.587  1.00  0.00     0.005 C 
HETATM    5  C5  UNL     1      -2.201  -0.384   1.946  1.00  0.00     0.041 C 
HETATM    6  C6  UNL     1      -1.234  -0.706   0.880  1.00  0.00    -0.027 C 
HETATM    7  C7  UNL     1      -1.769  -0.830  -0.329  1.00  0.00     0.016 C 
HETATM    8  N1  UNL     1      -1.077  -1.136  -1.556  1.00  0.00    -0.382 N 
HETATM    9  C8  UNL     1       0.149  -0.462  -1.838  1.00  0.00     0.132 C 
HETATM   10  C9  UNL     1       1.421  -0.096  -1.839  1.00  0.00     0.014 C 
HETATM   11  C10 UNL     1       2.749  -0.405  -1.232  1.00  0.00    -0.009 A 
HETATM   12  C11 UNL     1       3.806  -0.291  -2.092  1.00  0.00     0.013 A 
HETATM   13  C12 UNL     1       5.024  -0.573  -1.471  1.00  0.00     0.001 A 
HETATM   14  C13 UNL     1       5.101  -0.922  -0.135  1.00  0.00     0.002 A 
HETATM   15  C14 UNL     1       3.985  -1.013   0.654  1.00  0.00     0.032 A 
HETATM   16  C15 UNL     1       2.733  -0.754   0.135  1.00  0.00     0.067 A 
HETATM   17  N2  UNL     1       1.454  -0.795   0.729  1.00  0.00    -0.250 N 
HETATM   18  C16 UNL     1       0.900   0.279   1.152  1.00  0.00     0.070 A 
HETATM   19  O3  UNL     1       0.078  -0.819   1.362  1.00  0.00     0.000 OA
HETATM   20  H11 UNL     1      -1.479  -1.844  -2.241  1.00  0.00     0.160 HD
ENDROOT
BRANCH  18  21
HETATM   21  C17 UNL     1       1.523   1.603   1.068  1.00  0.00     0.171 C 
BRANCH  21  22
HETATM   22  C18 UNL     1       0.739   2.555   0.272  1.00  0.00     0.145 C 
HETATM   23  O1  UNL     1      -0.372   2.376  -0.329  1.00  0.00    -0.650 OA
BRANCH  22  24
HETATM   24  O2  UNL     1       1.223   3.850   0.115  1.00  0.00    -0.776 OA
HETATM   25  H20 UNL     1       0.600   4.630  -0.040  1.00  0.00     0.167 HD
ENDBRANCH  22  24
ENDBRANCH  21  22
ENDBRANCH  18  21
TORSDOF 3
