REMARK  9 active torsions:
REMARK  status: ('A' for Active; 'I' for Inactive)
REMARK    1  A    between atoms: O1_2  and  C2_3 
REMARK    2  A    between atoms: C5_6  and  C6_7 
REMARK       I    between atoms: C6_7  and  N1_9 
REMARK    3  A    between atoms: N1_9  and  C7_10 
REMARK    4  A    between atoms: C7_10  and  C8_11 
REMARK    5  A    between atoms: C8_11  and  N2_12 
REMARK    6  A    between atoms: C8_11  and  C9_13 
REMARK    7  A    between atoms: C9_13  and  O3_14 
REMARK    8  A    between atoms: C11_16  and  C12_17 
REMARK    9  A    between atoms: C13_18  and  C14_19 
ROOT
HETATM    1  C2  UNL     1       1.684  -0.131   1.117  1.00  0.00     0.078 A 
HETATM    2  C3  UNL     1       2.002  -1.363   0.651  1.00  0.00     0.038 A 
HETATM    3  C4  UNL     1       1.198  -1.748  -0.383  1.00  0.00     0.019 A 
HETATM    4  C5  UNL     1       0.153  -1.001  -0.942  1.00  0.00     0.027 A 
HETATM    5  C10 UNL     1      -0.050   0.240  -0.355  1.00  0.00     0.030 A 
HETATM    6  C11 UNL     1       0.696   0.721   0.686  1.00  0.00    -0.002 A 
ENDROOT
BRANCH   4   7
HETATM    7  C6  UNL     1      -0.746  -1.262  -2.033  1.00  0.00     0.231 C 
HETATM    8  O2  UNL     1      -1.634  -0.421  -2.400  1.00  0.00    -0.274 OA
HETATM    9  N1  UNL     1      -0.436  -2.563  -2.564  1.00  0.00    -0.257 NA
HETATM   10  H6  UNL     1      -1.131  -2.383  -3.238  1.00  0.00     0.130 HD
BRANCH   9  11
HETATM   11  C7  UNL     1      -0.496  -3.713  -3.389  1.00  0.00     0.133 C 
BRANCH  11  12
HETATM   12  C8  UNL     1      -1.795  -4.479  -3.437  1.00  0.00     0.254 C 
BRANCH  12  13
HETATM   13  N2  UNL     1      -2.202  -4.989  -2.151  1.00  0.00     0.086 N 
HETATM   14  H10 UNL     1      -3.232  -4.897  -2.018  1.00  0.00     0.313 HD
HETATM   15  H11 UNL     1      -1.935  -5.982  -2.082  1.00  0.00     0.313 HD
ENDBRANCH  12  13
BRANCH  12  16
HETATM   16  C9  UNL     1      -2.912  -3.712  -4.117  1.00  0.00     0.200 C 
BRANCH  16  17
HETATM   17  O3  UNL     1      -3.411  -2.646  -3.429  1.00  0.00    -0.399 OA
HETATM   18  H14 UNL     1      -3.905  -2.060  -4.013  1.00  0.00     0.209 HD
ENDBRANCH  16  17
ENDBRANCH  12  16
ENDBRANCH  11  12
ENDBRANCH   9  11
ENDBRANCH   4   7
BRANCH   6  19
HETATM   19  C12 UNL     1       0.445   2.045   1.277  1.00  0.00     0.015 C 
HETATM   20  C13 UNL     1       1.183   2.478   2.243  1.00  0.00     0.012 C 
BRANCH  20  21
HETATM   21  C14 UNL     1       0.770   3.825   2.695  1.00  0.00    -0.036 A 
HETATM   22  C15 UNL     1       1.385   4.685   3.631  1.00  0.00     0.013 A 
HETATM   23  C16 UNL     1       1.009   5.909   4.106  1.00  0.00     0.024 A 
HETATM   24  C17 UNL     1      -0.160   6.377   3.585  1.00  0.00     0.034 A 
HETATM   25 CL1  UNL     1      -0.721   7.950   4.148  1.00  0.00    -0.084 Cl
HETATM   26  C18 UNL     1      -0.913   5.693   2.660  1.00  0.00     0.024 A 
HETATM   27  C19 UNL     1      -0.387   4.457   2.278  1.00  0.00     0.013 A 
ENDBRANCH  20  21
ENDBRANCH   6  19
BRANCH   1  28
HETATM   28  O1  UNL     1       2.446   0.347   2.167  1.00  0.00    -0.355 OA
HETATM   29  C1  UNL     1       3.494  -0.421   2.699  1.00  0.00     0.210 C 
ENDBRANCH   1  28
TORSDOF 9
