REMARK  6 active torsions:
REMARK  status: ('A' for Active; 'I' for Inactive)
REMARK       I    between atoms: C1_2  and  N1_3 
REMARK    1  A    between atoms: C1_2  and  C5_9 
REMARK    2  A    between atoms: N1_3  and  C2_4 
REMARK    3  A    between atoms: C2_4  and  C3_5 
REMARK    4  A    between atoms: C3_5  and  O2_6 
REMARK    5  A    between atoms: C3_5  and  C4_7 
REMARK    6  A    between atoms: C4_7  and  O3_8 
ROOT
HETATM    1  C5  UNL     1       0.628  -0.292  -0.191  1.00  0.00     0.032 C 
HETATM    2  C6  UNL     1       0.349   0.087   1.020  1.00  0.00     0.014 C 
HETATM    3  C7  UNL     1      -0.734   0.005   1.989  1.00  0.00    -0.002 C 
HETATM    4  C8  UNL     1      -2.031  -0.216   1.847  1.00  0.00    -0.017 C 
HETATM    5  C9  UNL     1      -2.956  -0.791   0.887  1.00  0.00     0.046 C 
HETATM    6  C10 UNL     1      -2.286  -1.539  -0.239  1.00  0.00     0.049 C 
HETATM    7  C11 UNL     1      -1.610  -0.529  -1.101  1.00  0.00    -0.055 C 
HETATM    8  C12 UNL     1      -2.319   0.398  -1.724  1.00  0.00     0.016 C 
HETATM    9  C13 UNL     1      -3.535   0.830  -1.002  1.00  0.00    -0.029 A 
HETATM   10  C14 UNL     1      -4.292   1.775  -1.616  1.00  0.00     0.012 A 
HETATM   11  C15 UNL     1      -5.443   2.205  -0.980  1.00  0.00     0.001 A 
HETATM   12  C16 UNL     1      -5.797   1.665   0.261  1.00  0.00     0.001 A 
HETATM   13  C17 UNL     1      -4.986   0.713   0.825  1.00  0.00     0.009 A 
HETATM   14  C18 UNL     1      -3.828   0.249   0.237  1.00  0.00    -0.040 A 
HETATM   15  C19 UNL     1      -0.186  -0.314  -1.435  1.00  0.00     0.149 C 
HETATM   16 CL1  UNL     1       0.014   1.126  -2.432  1.00  0.00    -0.115 Cl
ENDROOT
BRANCH   1  17
HETATM   17  C1  UNL     1       1.982  -0.795  -0.371  1.00  0.00     0.249 C 
HETATM   18  O1  UNL     1       2.263  -1.166  -1.564  1.00  0.00    -0.268 OA
HETATM   19  N1  UNL     1       3.022  -0.940   0.545  1.00  0.00    -0.355 N 
HETATM   20  H1  UNL     1       2.704  -0.623   1.512  1.00  0.00     0.162 HD
BRANCH  19  21
HETATM   21  C2  UNL     1       4.372  -1.423   0.413  1.00  0.00     0.156 C 
BRANCH  21  22
HETATM   22  C3  UNL     1       5.257  -0.671  -0.509  1.00  0.00     0.159 C 
BRANCH  22  23
HETATM   23  O2  UNL     1       4.762  -0.680  -1.799  1.00  0.00    -0.392 OA
HETATM   24  H5  UNL     1       5.064  -1.465  -2.299  1.00  0.00     0.210 HD
ENDBRANCH  22  23
BRANCH  22  25
HETATM   25  C4  UNL     1       5.506   0.756  -0.052  1.00  0.00     0.197 C 
BRANCH  25  26
HETATM   26  O3  UNL     1       5.999   0.705   1.240  1.00  0.00    -0.398 OA
HETATM   27  H8  UNL     1       5.693   1.498   1.749  1.00  0.00     0.209 HD
ENDBRANCH  25  26
ENDBRANCH  22  25
ENDBRANCH  21  22
ENDBRANCH  19  21
ENDBRANCH   1  17
TORSDOF 6
