REMARK  8 active torsions:
REMARK  status: ('A' for Active; 'I' for Inactive)
REMARK    1  A    between atoms: O1_2  and  C2_3 
REMARK    2  A    between atoms: C2_3  and  C3_4 
REMARK    3  A    between atoms: C3_4  and  O2_5 
REMARK    4  A    between atoms: O2_5  and  C4_6 
REMARK    5  A    between atoms: C6_8  and  O3_9 
REMARK    6  A    between atoms: O3_9  and  C7_10 
REMARK    7  A    between atoms: C13_17  and  N1_18 
REMARK    8  A    between atoms: N1_18  and  C14_19 
ROOT
HETATM    1  C4  UNL     1       2.442   0.075   1.720  1.00  0.00     0.073 A 
HETATM    2  C5  UNL     1       1.555  -0.355   0.759  1.00  0.00     0.074 A 
HETATM    3  C6  UNL     1       0.199  -0.319   0.951  1.00  0.00     0.088 A 
HETATM    4  C12 UNL     1      -0.217   0.184   2.189  1.00  0.00     0.072 A 
HETATM    5  C13 UNL     1      -1.547   0.285   2.539  1.00  0.00     0.144 A 
HETATM    6  N2  UNL     1      -1.953   0.766   3.728  1.00  0.00    -0.223 NA
HETATM    7  C20 UNL     1      -1.046   1.175   4.636  1.00  0.00     0.236 A 
HETATM    8  N3  UNL     1       0.266   1.099   4.345  1.00  0.00    -0.241 NA
HETATM    9  C21 UNL     1       0.670   0.615   3.152  1.00  0.00     0.077 A 
HETATM   10  C22 UNL     1       2.030   0.571   2.939  1.00  0.00     0.069 A 
ENDROOT
BRANCH   5  11
HETATM   11  N1  UNL     1      -2.569  -0.122   1.637  1.00  0.00    -0.340 N 
HETATM   12  H18 UNL     1      -3.003  -1.048   1.503  1.00  0.00     0.167 HD
BRANCH  11  13
HETATM   13  C14 UNL     1      -3.027   0.945   0.820  1.00  0.00     0.035 A 
HETATM   14  C15 UNL     1      -2.529   2.228   0.876  1.00  0.00     0.029 A 
HETATM   15  C16 UNL     1      -2.996   3.249   0.069  1.00  0.00     0.004 A 
HETATM   16  C17 UNL     1      -4.001   3.018  -0.844  1.00  0.00     0.024 A 
HETATM   17  C18 UNL     1      -4.537   1.758  -0.945  1.00  0.00     0.036 A 
HETATM   18 CL1  UNL     1      -5.815   1.415  -2.089  1.00  0.00    -0.084 Cl
HETATM   19  C19 UNL     1      -4.031   0.780  -0.114  1.00  0.00     0.053 A 
ENDBRANCH  11  13
ENDBRANCH   5  11
BRANCH   3  20
HETATM   20  O3  UNL     1      -0.838  -0.697   0.127  1.00  0.00    -0.345 OA
BRANCH  20  21
HETATM   21  C7  UNL     1      -0.708  -1.243  -1.166  1.00  0.00     0.133 C 
HETATM   22  C8  UNL     1      -1.281  -0.287  -2.167  1.00  0.00     0.058 C 
HETATM   23  C9  UNL     1      -2.447  -0.785  -2.946  1.00  0.00     0.170 C 
HETATM   24  O4  UNL     1      -2.110  -2.067  -3.431  1.00  0.00    -0.391 OA
HETATM   25  C10 UNL     1      -2.242  -2.897  -2.321  1.00  0.00     0.170 C 
HETATM   26  C11 UNL     1      -1.249  -2.641  -1.256  1.00  0.00     0.058 C 
ENDBRANCH  20  21
ENDBRANCH   3  20
BRANCH   1  27
HETATM   27  O2  UNL     1       3.804   0.015   1.471  1.00  0.00    -0.349 OA
BRANCH  27  28
HETATM   28  C3  UNL     1       4.363  -0.471   0.266  1.00  0.00     0.201 C 
BRANCH  28  29
HETATM   29  C2  UNL     1       5.863  -0.353   0.430  1.00  0.00     0.193 C 
BRANCH  29  30
HETATM   30  O1  UNL     1       6.580  -0.791  -0.670  1.00  0.00    -0.394 OA
HETATM   31  C1  UNL     1       6.281  -0.086  -1.833  1.00  0.00     0.201 C 
ENDBRANCH  29  30
ENDBRANCH  28  29
ENDBRANCH  27  28
ENDBRANCH   1  27
TORSDOF 8
