REMARK  3 active torsions:
REMARK  status: ('A' for Active; 'I' for Inactive)
REMARK    1  A    between atoms: O1_2  and  C2_3 
REMARK    2  A    between atoms: C9_10  and  C10_11 
REMARK    3  A    between atoms: C11_12  and  C12_13 
ROOT
HETATM    1  C2  UNL     1      -0.456   3.068   0.089  1.00  0.00     0.074 A 
HETATM    2  C3  UNL     1      -1.781   3.445   0.069  1.00  0.00     0.038 A 
HETATM    3  C4  UNL     1      -2.782   2.596  -0.354  1.00  0.00     0.020 A 
HETATM    4  C5  UNL     1      -2.233   1.413  -0.717  1.00  0.00     0.032 A 
HETATM    5  C6  UNL     1      -0.957   0.898  -0.759  1.00  0.00     0.027 A 
HETATM    6  C7  UNL     1      -0.041   1.818  -0.315  1.00  0.00    -0.019 A 
HETATM    7  C8  UNL     1       1.312   1.224  -0.315  1.00  0.00     0.082 C 
HETATM    8  C9  UNL     1       1.324  -0.212   0.103  1.00  0.00    -0.032 C 
HETATM    9  C14 UNL     1       0.682  -1.299   0.486  1.00  0.00     0.141 C 
HETATM   10  O2  UNL     1      -0.565  -1.751   0.745  1.00  0.00    -0.362 OA
HETATM   11  C15 UNL     1      -1.141  -2.977   0.513  1.00  0.00     0.176 C 
HETATM   12  C16 UNL     1      -2.628  -3.056   0.616  1.00  0.00     0.046 C 
HETATM   13  C17 UNL     1      -3.456  -2.410  -0.438  1.00  0.00     0.125 C 
HETATM   14  N1  UNL     1      -3.116  -1.038  -0.610  1.00  0.00    -0.357 N 
HETATM   15  C18 UNL     1      -3.100   0.301  -1.062  1.00  0.00     0.251 C 
HETATM   16  O3  UNL     1      -4.019   0.338  -1.854  1.00  0.00    -0.268 OA
HETATM   17  H20 UNL     1      -2.363  -0.797   0.039  1.00  0.00     0.162 HD
ENDROOT
BRANCH   8  18
HETATM   18  C10 UNL     1       2.783  -0.480   0.044  1.00  0.00     0.009 C 
HETATM   19  C11 UNL     1       3.804  -1.288   0.186  1.00  0.00     0.001 C 
BRANCH  19  20
HETATM   20  C12 UNL     1       5.171  -1.757   0.195  1.00  0.00     0.012 C 
HETATM   21  C13 UNL     1       5.500  -2.987   0.529  1.00  0.00     0.084 C 
HETATM   22 CL1  UNL     1       7.228  -2.887   0.335  1.00  0.00    -0.097 Cl
ENDBRANCH  19  20
ENDBRANCH   8  18
BRANCH   1  23
HETATM   23  O1  UNL     1       0.564   3.915   0.515  1.00  0.00    -0.355 OA
HETATM   24  C1  UNL     1       0.188   5.209   0.940  1.00  0.00     0.210 C 
ENDBRANCH   1  23
TORSDOF 3
