REMARK  2 active torsions:
REMARK  status: ('A' for Active; 'I' for Inactive)
REMARK    1  A    between atoms: C5_6  and  N1_7 
REMARK    2  A    between atoms: N1_7  and  C6_8 
ROOT
HETATM    1  C6  UNL     1       0.810   0.270  -0.077  1.00  0.00     0.118 C 
HETATM    2  C7  UNL     1      -0.173  -0.355  -0.719  1.00  0.00     0.028 C 
HETATM    3  C8  UNL     1      -1.323   0.109  -1.529  1.00  0.00     0.072 C 
HETATM    4  C9  UNL     1      -2.563  -0.350  -0.902  1.00  0.00    -0.024 A 
HETATM    5  C10 UNL     1      -2.732  -1.680  -0.662  1.00  0.00     0.010 A 
HETATM    6  C11 UNL     1      -3.849  -2.264  -0.076  1.00  0.00     0.001 A 
HETATM    7  C12 UNL     1      -4.856  -1.399   0.282  1.00  0.00     0.002 A 
HETATM    8  C13 UNL     1      -4.721  -0.026   0.053  1.00  0.00     0.034 A 
HETATM    9  C14 UNL     1      -3.588   0.498  -0.533  1.00  0.00     0.085 A 
HETATM   10  N2  UNL     1      -3.657   1.892  -0.671  1.00  0.00    -0.149 NA
HETATM   11  N3  UNL     1      -3.290   2.764   0.142  1.00  0.00    -0.148 NA
HETATM   12  C15 UNL     1      -2.724   2.350   1.379  1.00  0.00     0.232 C 
HETATM   13  N4  UNL     1      -1.572   2.686   0.853  1.00  0.00    -0.123 NA
HETATM   14  C16 UNL     1      -0.430   2.497   1.681  1.00  0.00     0.223 A 
HETATM   15  N5  UNL     1      -0.177   2.166   0.461  1.00  0.00    -0.203 N 
HETATM   16  N6  UNL     1       1.034   1.691   0.006  1.00  0.00    -0.267 N 
HETATM   17  H14 UNL     1       1.934   2.159  -0.242  1.00  0.00     0.190 HD
ENDROOT
BRANCH   1  18
HETATM   18  N1  UNL     1       1.874  -0.298   0.679  1.00  0.00    -0.342 N 
HETATM   19  H4  UNL     1       1.525  -0.508   1.628  1.00  0.00     0.167 HD
BRANCH  18  20
HETATM   20  C5  UNL     1       3.195  -0.534   0.205  1.00  0.00     0.035 A 
HETATM   21  C4  UNL     1       3.484  -0.190  -1.092  1.00  0.00     0.029 A 
HETATM   22  C3  UNL     1       4.791  -0.452  -1.476  1.00  0.00     0.004 A 
HETATM   23  C2  UNL     1       5.725  -1.014  -0.617  1.00  0.00     0.024 A 
HETATM   24  C1  UNL     1       5.357  -1.338   0.690  1.00  0.00     0.036 A 
HETATM   25 CL1  UNL     1       6.484  -2.048   1.821  1.00  0.00    -0.084 Cl
HETATM   26  C17 UNL     1       4.059  -1.095   1.123  1.00  0.00     0.053 A 
ENDBRANCH  18  20
ENDBRANCH   1  18
TORSDOF 2
