REMARK  7 active torsions:
REMARK  status: ('A' for Active; 'I' for Inactive)
REMARK    1  A    between atoms: C2_2  and  N1_3 
REMARK       I    between atoms: N1_3  and  C3_4 
REMARK    2  A    between atoms: C3_4  and  C4_6 
REMARK    3  A    between atoms: C7_9  and  O2_10 
REMARK    4  A    between atoms: C9_12  and  C10_13 
REMARK    5  A    between atoms: C11_14  and  C12_15 
REMARK    6  A    between atoms: C12_15  and  C13_16 
REMARK    7  A    between atoms: C14_17  and  C15_18 
ROOT
HETATM    1  C4  UNL     1      -2.691  -0.003   0.604  1.00  0.00     0.033 A 
HETATM    2  C5  UNL     1      -2.856  -0.984  -0.346  1.00  0.00     0.020 A 
HETATM    3  C6  UNL     1      -1.781  -1.581  -0.965  1.00  0.00     0.038 A 
HETATM    4  C7  UNL     1      -0.542  -1.140  -0.577  1.00  0.00     0.078 A 
HETATM    5  C9  UNL     1      -0.267  -0.170   0.360  1.00  0.00    -0.002 A 
HETATM    6  C16 UNL     1      -1.412   0.357   0.912  1.00  0.00     0.031 A 
ENDROOT
BRANCH   5   7
HETATM    7  C10 UNL     1       1.033   0.316   0.784  1.00  0.00     0.010 C 
HETATM    8  C11 UNL     1       2.270   0.073   0.484  1.00  0.00    -0.022 C 
BRANCH   8   9
HETATM    9  C12 UNL     1       3.393  -0.564  -0.204  1.00  0.00     0.054 C 
BRANCH   9  10
HETATM   10  C13 UNL     1       4.252   0.418  -0.958  1.00  0.00    -0.026 C 
HETATM   11  C14 UNL     1       5.546   0.666  -0.777  1.00  0.00    -0.016 C 
BRANCH  11  12
HETATM   12  C15 UNL     1       6.595   1.556  -1.367  1.00  0.00     0.141 C 
HETATM   13 CL1  UNL     1       5.939   2.571  -2.675  1.00  0.00    -0.126 Cl
ENDBRANCH  11  12
ENDBRANCH   9  10
ENDBRANCH   8   9
ENDBRANCH   5   7
BRANCH   4  14
HETATM   14  O2  UNL     1       0.526  -1.743  -1.200  1.00  0.00    -0.355 OA
HETATM   15  C8  UNL     1       0.419  -2.751  -2.178  1.00  0.00     0.210 C 
ENDBRANCH   4  14
BRANCH   1  16
HETATM   16  C3  UNL     1      -3.793   0.661   1.288  1.00  0.00     0.255 C 
HETATM   17  N1  UNL     1      -5.150   0.343   1.023  1.00  0.00    -0.334 N 
HETATM   18  H4  UNL     1      -5.373  -0.388   0.317  1.00  0.00     0.168 HD
HETATM   19  O1  UNL     1      -3.589   1.555   2.153  1.00  0.00    -0.267 OA
BRANCH  17  20
HETATM   20  C2  UNL     1      -6.201   1.012   1.710  1.00  0.00     0.081 C 
HETATM   21  C1  UNL     1      -5.899   1.934   2.599  1.00  0.00     0.030 C 
ENDBRANCH  17  20
ENDBRANCH   1  16
TORSDOF 7
