REMARK  10 active torsions:
REMARK  status: ('A' for Active; 'I' for Inactive)
REMARK    1  A    between atoms: O1_2  and  O2_3 
REMARK    2  A    between atoms: O2_3  and  C2_4 
REMARK    3  A    between atoms: C2_4  and  C3_5 
REMARK    4  A    between atoms: C2_4  and  C4_7 
REMARK    5  A    between atoms: C3_5  and  O3_6 
REMARK    6  A    between atoms: C4_7  and  N1_8 
REMARK    7  A    between atoms: N1_8  and  C5_9 
REMARK    8  A    between atoms: C8_12  and  C9_13 
REMARK    9  A    between atoms: C9_13  and  C10_14 
REMARK   10  A    between atoms: C16_21  and  O4_22 
ROOT
HETATM    1  C5  UNL     1       0.853  -0.392   0.028  1.00  0.00     0.061 A 
HETATM    2  C6  UNL     1       1.769  -1.573   0.121  1.00  0.00     0.047 C 
HETATM    3  C7  UNL     1      -0.269  -0.736  -0.943  1.00  0.00     0.017 A 
HETATM    4  C8  UNL     1      -1.460  -0.888  -0.371  1.00  0.00    -0.022 A 
HETATM    5  C16 UNL     1      -1.254  -0.659   1.053  1.00  0.00     0.073 A 
HETATM    6  C18 UNL     1       0.033  -0.382   1.285  1.00  0.00     0.044 A 
ENDROOT
BRANCH   1   7
HETATM    7  N1  UNL     1       1.337   0.846  -0.360  1.00  0.00    -0.404 N 
HETATM    8  H10 UNL     1       0.878   1.295  -1.187  1.00  0.00     0.154 HD
BRANCH   7   9
HETATM    9  C4  UNL     1       2.318   1.564   0.289  1.00  0.00     0.152 C 
BRANCH   9  10
HETATM   10  C2  UNL     1       3.715   0.962   0.102  1.00  0.00     0.201 C 
BRANCH  10  11
HETATM   11  O2  UNL     1       4.063   0.971  -1.224  1.00  0.00    -0.232 OA
BRANCH  11  12
HETATM   12  O1  UNL     1       4.304  -0.106  -1.837  1.00  0.00    -0.246 OA
HETATM   13  C1  UNL     1       5.241  -0.892  -1.228  1.00  0.00     0.247 C 
ENDBRANCH  11  12
ENDBRANCH  10  11
BRANCH  10  14
HETATM   14  C3  UNL     1       4.726   1.827   0.854  1.00  0.00     0.200 C 
BRANCH  14  15
HETATM   15  O3  UNL     1       4.463   1.873   2.218  1.00  0.00    -0.398 OA
HETATM   16  H7  UNL     1       3.749   1.289   2.523  1.00  0.00     0.209 HD
ENDBRANCH  14  15
ENDBRANCH  10  14
ENDBRANCH   9  10
ENDBRANCH   7   9
ENDBRANCH   1   7
BRANCH   4  17
HETATM   17  C9  UNL     1      -2.703  -1.220  -1.086  1.00  0.00     0.079 C 
BRANCH  17  18
HETATM   18  C10 UNL     1      -3.764  -0.191  -0.947  1.00  0.00    -0.054 A 
HETATM   19  C11 UNL     1      -3.859   0.862  -1.832  1.00  0.00     0.009 A 
HETATM   20  C12 UNL     1      -4.829   1.811  -1.712  1.00  0.00     0.024 A 
HETATM   21  C13 UNL     1      -5.746   1.737  -0.693  1.00  0.00     0.034 A 
HETATM   22 CL1  UNL     1      -7.001   2.954  -0.528  1.00  0.00    -0.084 Cl
HETATM   23  C14 UNL     1      -5.633   0.677   0.182  1.00  0.00     0.024 A 
HETATM   24  C15 UNL     1      -4.660  -0.305   0.090  1.00  0.00     0.009 A 
ENDBRANCH  17  18
ENDBRANCH   4  17
BRANCH   5  25
HETATM   25  O4  UNL     1      -2.232  -0.715   2.040  1.00  0.00    -0.356 OA
HETATM   26  C17 UNL     1      -2.600  -1.918   2.680  1.00  0.00     0.210 C 
ENDBRANCH   5  25
TORSDOF 10
