REMARK  4 active torsions:
REMARK  status: ('A' for Active; 'I' for Inactive)
REMARK    1  A    between atoms: O1_2  and  C2_3 
REMARK    2  A    between atoms: C5_6  and  C6_7 
REMARK    3  A    between atoms: C8_11  and  C9_12 
REMARK    4  A    between atoms: C10_13  and  C11_14 
ROOT
HETATM    1  C2  UNL     1      -2.919   0.184  -0.814  1.00  0.00     0.078 A 
HETATM    2  C3  UNL     1      -4.109   0.329  -0.130  1.00  0.00     0.038 A 
HETATM    3  C4  UNL     1      -4.176   0.420   1.246  1.00  0.00     0.019 A 
HETATM    4  C5  UNL     1      -2.995   0.364   1.958  1.00  0.00     0.027 A 
HETATM    5  C7  UNL     1      -1.816   0.219   1.255  1.00  0.00     0.030 A 
HETATM    6  C8  UNL     1      -1.718   0.125  -0.117  1.00  0.00    -0.002 A 
ENDROOT
BRANCH   6   7
HETATM    7  C9  UNL     1      -0.435  -0.027  -0.794  1.00  0.00     0.014 C 
HETATM    8  C10 UNL     1       0.753  -0.093  -0.217  1.00  0.00     0.001 C 
BRANCH   8   9
HETATM    9  C11 UNL     1       1.969  -0.246  -1.003  1.00  0.00    -0.005 C 
HETATM   10  C12 UNL     1       3.161  -0.312  -0.437  1.00  0.00    -0.098 A 
HETATM   11  B1  UNL     1       3.373  -0.233   1.104  1.00  0.00     0.218 B 
HETATM   12  C16 UNL     1       4.352  -0.468  -1.280  1.00  0.00    -0.005 A 
HETATM   13  C13 UNL     1       4.870  -0.333   1.589  1.00  0.00    -0.077 A 
HETATM   14  H10 UNL     1       2.580   0.368   1.744  1.00  0.00    -0.016 HD
HETATM   15  C14 UNL     1       5.816  -0.472   0.668  1.00  0.00    -0.015 A 
HETATM   16  C15 UNL     1       5.560  -0.539  -0.747  1.00  0.00    -0.002 A 
ENDBRANCH   8   9
ENDBRANCH   6   7
BRANCH   1  17
HETATM   17  O1  UNL     1      -2.847   0.092  -2.185  1.00  0.00    -0.355 OA
HETATM   18  C1  UNL     1      -3.900   0.126  -3.092  1.00  0.00     0.210 C 
ENDBRANCH   1  17
BRANCH   4  19
HETATM   19  C6  UNL     1      -3.042   0.458   3.412  1.00  0.00     0.252 C 
HETATM   20  O2  UNL     1      -4.175   0.588   3.940  1.00  0.00    -0.274 OA
HETATM   21 CL1  UNL     1      -1.533   0.386   4.311  1.00  0.00    -0.038 Cl
ENDBRANCH   4  19
TORSDOF 4
