REMARK  2 active torsions:
REMARK  status: ('A' for Active; 'I' for Inactive)
REMARK    1  A    between atoms: C4_4  and  O1_5 
REMARK    2  A    between atoms: C6_7  and  C8_9 
ROOT
HETATM    1  C1  UNL     1      -4.785   0.557   1.154  1.00  0.00     0.062 C 
HETATM    2  C2  UNL     1      -3.681   0.182   0.471  1.00  0.00     0.007 C 
HETATM    3  C3  UNL     1      -2.576   1.039   0.826  1.00  0.00     0.058 C 
HETATM    4  C4  UNL     1      -1.317   1.167   0.506  1.00  0.00     0.061 C 
HETATM    5  C6  UNL     1      -0.644   0.257  -0.511  1.00  0.00     0.044 C 
HETATM    6  C7  UNL     1      -0.453   1.157  -1.714  1.00  0.00     0.029 C 
HETATM    7  C17 UNL     1      -1.580  -0.885  -0.768  1.00  0.00     0.187 C 
HETATM    8  O2  UNL     1      -1.700  -1.655   0.397  1.00  0.00    -0.388 OA
HETATM    9  C18 UNL     1      -2.691  -2.592   0.283  1.00  0.00     0.187 C 
HETATM   10  C19 UNL     1      -4.045  -2.034   0.562  1.00  0.00     0.145 C 
HETATM   11  N1  UNL     1      -4.404  -0.861  -0.146  1.00  0.00    -0.391 N 
HETATM   12  H29 UNL     1      -5.043  -0.713  -0.957  1.00  0.00     0.159 HD
ENDROOT
BRANCH   5  13
HETATM   13  C8  UNL     1       0.661  -0.204   0.028  1.00  0.00    -0.005 C 
HETATM   14  C9  UNL     1       1.753  -0.701  -0.537  1.00  0.00    -0.075 C 
HETATM   15  C10 UNL     1       1.981  -0.952  -1.992  1.00  0.00     0.061 C 
HETATM   16  C15 UNL     1       2.968  -1.082   0.239  1.00  0.00     0.018 C 
HETATM   17  C11 UNL     1       2.761   0.275  -2.419  1.00  0.00    -0.026 C 
HETATM   18  C12 UNL     1       3.770   0.472  -1.562  1.00  0.00    -0.025 C 
HETATM   19  C13 UNL     1       4.131  -0.323  -0.379  1.00  0.00     0.011 C 
HETATM   20  C14 UNL     1       4.843   0.541   0.640  1.00  0.00     0.015 C 
HETATM   21  C16 UNL     1       2.799  -0.792   1.689  1.00  0.00     0.015 C 
ENDBRANCH   5  13
BRANCH   4  22
HETATM   22  O1  UNL     1      -0.366   2.060   0.946  1.00  0.00    -0.359 OA
HETATM   23  C5  UNL     1      -0.524   3.441   0.784  1.00  0.00     0.209 C 
ENDBRANCH   4  22
TORSDOF 2
