REMARK  12 active torsions:
REMARK  status: ('A' for Active; 'I' for Inactive)
REMARK    1  A    between atoms: O1_2  and  C2_3 
REMARK    2  A    between atoms: C2_3  and  C3_4 
REMARK    3  A    between atoms: C3_4  and  O2_5 
REMARK    4  A    between atoms: O2_5  and  C4_6 
REMARK    5  A    between atoms: C4_6  and  C5_7 
REMARK    6  A    between atoms: C6_8  and  C7_9 
REMARK    7  A    between atoms: C7_9  and  C8_10 
REMARK    8  A    between atoms: C8_10  and  O3_11 
REMARK    9  A    between atoms: O3_11  and  C9_12 
REMARK   10  A    between atoms: C15_19  and  N1_20 
REMARK   11  A    between atoms: C17_23  and  N3_24 
REMARK   12  A    between atoms: N3_24  and  C18_25 
ROOT
HETATM    1  C7  UNL     1       0.293   1.101   0.895  1.00  0.00    -0.019 C 
HETATM    2  C14 UNL     1       0.347   2.400   0.692  1.00  0.00     0.041 A 
HETATM    3  C15 UNL     1       1.233   3.423   1.223  1.00  0.00     0.038 A 
HETATM    4  C16 UNL     1       0.981   4.595   0.715  1.00  0.00     0.143 A 
HETATM    5  N2  UNL     1      -0.094   4.403  -0.189  1.00  0.00    -0.241 NA
HETATM    6  C17 UNL     1      -0.478   3.159  -0.226  1.00  0.00     0.140 A 
ENDROOT
BRANCH   1   7
HETATM    7  C6  UNL     1       1.214   0.389   1.768  1.00  0.00     0.008 C 
HETATM    8  C5  UNL     1       1.385  -0.844   2.189  1.00  0.00    -0.000 C 
BRANCH   8   9
HETATM    9  C4  UNL     1       1.010  -2.266   2.237  1.00  0.00     0.195 C 
BRANCH   9  10
HETATM   10  O2  UNL     1       1.918  -3.115   1.813  1.00  0.00    -0.385 OA
BRANCH  10  11
HETATM   11  C3  UNL     1       3.140  -3.415   2.165  1.00  0.00     0.194 C 
BRANCH  11  12
HETATM   12  C2  UNL     1       4.285  -2.486   2.051  1.00  0.00     0.193 C 
BRANCH  12  13
HETATM   13  O1  UNL     1       5.461  -3.055   2.497  1.00  0.00    -0.394 OA
HETATM   14  C1  UNL     1       5.847  -4.153   1.799  1.00  0.00     0.201 C 
ENDBRANCH  12  13
ENDBRANCH  11  12
ENDBRANCH  10  11
ENDBRANCH   9  10
ENDBRANCH   8   9
ENDBRANCH   1   7
BRANCH   1  15
HETATM   15  C8  UNL     1      -0.762   0.208   0.360  1.00  0.00     0.207 C 
BRANCH  15  16
HETATM   16  O3  UNL     1      -0.313  -0.779  -0.481  1.00  0.00    -0.381 OA
BRANCH  16  17
HETATM   17  C9  UNL     1      -1.298  -1.551  -1.027  1.00  0.00     0.125 C 
HETATM   18  C10 UNL     1      -1.245  -3.015  -0.780  1.00  0.00     0.058 C 
HETATM   19  C11 UNL     1      -2.227  -3.665  -1.764  1.00  0.00     0.170 C 
HETATM   20  O4  UNL     1      -1.651  -3.705  -3.028  1.00  0.00    -0.391 OA
HETATM   21  C12 UNL     1      -0.955  -2.539  -3.327  1.00  0.00     0.170 C 
HETATM   22  C13 UNL     1      -1.438  -1.358  -2.524  1.00  0.00     0.058 C 
ENDBRANCH  16  17
ENDBRANCH  15  16
ENDBRANCH   1  15
BRANCH   3  23
HETATM   23  N1  UNL     1       2.268   3.278   2.174  1.00  0.00    -0.301 NA
HETATM   24  H23 UNL     1       3.281   3.242   1.868  1.00  0.00     0.124 HD
HETATM   25  H24 UNL     1       3.239   3.252   1.774  1.00  0.00     0.124 HD
ENDBRANCH   3  23
BRANCH   6  26
HETATM   26  N3  UNL     1      -1.521   2.711  -1.116  1.00  0.00    -0.340 N 
HETATM   27  H26 UNL     1      -1.160   1.869  -1.688  1.00  0.00     0.167 HD
BRANCH  26  28
HETATM   28  C18 UNL     1      -2.795   3.400  -1.132  1.00  0.00     0.035 A 
HETATM   29  C19 UNL     1      -3.919   3.142  -0.376  1.00  0.00     0.032 A 
HETATM   30  C20 UNL     1      -5.022   3.939  -0.567  1.00  0.00     0.046 A 
HETATM   31  C21 UNL     1      -5.023   4.970  -1.481  1.00  0.00     0.138 A 
HETATM   32  F1  UNL     1      -6.150   5.701  -1.602  1.00  0.00    -0.204 F 
HETATM   33  C22 UNL     1      -3.906   5.233  -2.238  1.00  0.00     0.074 A 
HETATM   34 CL1  UNL     1      -3.928   6.553  -3.398  1.00  0.00    -0.081 Cl
HETATM   35  C23 UNL     1      -2.788   4.445  -2.062  1.00  0.00     0.056 A 
ENDBRANCH  26  28
ENDBRANCH   6  26
TORSDOF 12
