REMARK  6 active torsions:
REMARK  status: ('A' for Active; 'I' for Inactive)
REMARK    1  A    between atoms: O1_2  and  C2_3 
REMARK    2  A    between atoms: C5_6  and  C6_7 
REMARK       I    between atoms: C6_7  and  N1_9 
REMARK    3  A    between atoms: N1_9  and  C7_10 
REMARK    4  A    between atoms: C7_10  and  C8_11 
REMARK    5  A    between atoms: C8_11  and  O3_13 
REMARK    6  A    between atoms: C12_17  and  C13_18 
ROOT
HETATM    1  C2  UNL     1       0.967  -2.039  -1.183  1.00  0.00     0.076 C 
HETATM    2  C3  UNL     1      -0.137  -2.533  -1.716  1.00  0.00     0.040 C 
HETATM    3  C4  UNL     1      -1.417  -1.961  -1.318  1.00  0.00     0.045 C 
HETATM    4  C5  UNL     1      -1.834  -1.279  -0.264  1.00  0.00     0.136 C 
HETATM    5  O4  UNL     1      -0.902  -1.002   0.736  1.00  0.00    -0.341 OA
HETATM    6  C10 UNL     1       0.373  -0.427   0.752  1.00  0.00     0.217 C 
HETATM    7  C11 UNL     1       1.333  -0.980  -0.216  1.00  0.00     0.000 C 
HETATM    8  C12 UNL     1       2.573  -0.565  -0.287  1.00  0.00     0.024 C 
ENDROOT
BRANCH   1   9
HETATM    9  O1  UNL     1       2.061  -2.740  -1.710  1.00  0.00    -0.355 OA
HETATM   10  C1  UNL     1       2.242  -4.064  -1.299  1.00  0.00     0.210 C 
ENDBRANCH   1   9
BRANCH   8  11
HETATM   11  C13 UNL     1       3.624   0.307   0.203  1.00  0.00    -0.029 C 
HETATM   12  C14 UNL     1       3.336   1.132   1.194  1.00  0.00     0.014 C 
HETATM   13  C15 UNL     1       4.105   2.143   1.944  1.00  0.00     0.024 C 
HETATM   14  C16 UNL     1       5.096   2.881   1.459  1.00  0.00     0.034 C 
HETATM   15 CL1  UNL     1       5.801   4.006   2.651  1.00  0.00    -0.084 Cl
HETATM   16  C17 UNL     1       5.727   2.961   0.147  1.00  0.00     0.025 C 
HETATM   17  C18 UNL     1       5.870   1.982  -0.727  1.00  0.00     0.010 C 
HETATM   18  P1  UNL     1       5.319   0.249  -0.542  1.00  0.00    -0.072 P 
HETATM   19  H21 UNL     1       6.172  -0.369   0.479  1.00  0.00     0.066 HD
ENDBRANCH   8  11
BRANCH   4  20
HETATM   20  C6  UNL     1      -3.234  -0.870  -0.230  1.00  0.00     0.274 C 
HETATM   21  O2  UNL     1      -3.915  -1.207  -1.212  1.00  0.00    -0.265 OA
HETATM   22  N1  UNL     1      -3.724  -0.137   0.879  1.00  0.00    -0.353 N 
HETATM   23  H6  UNL     1      -3.024   0.081   1.649  1.00  0.00     0.162 HD
BRANCH  22  24
HETATM   24  C7  UNL     1      -5.099   0.295   0.967  1.00  0.00     0.154 C 
BRANCH  24  25
HETATM   25  C8  UNL     1      -5.394   1.203  -0.208  1.00  0.00     0.132 C 
HETATM   26  C9  UNL     1      -6.827   1.705  -0.143  1.00  0.00     0.041 C 
BRANCH  25  27
HETATM   27  O3  UNL     1      -4.538   2.309  -0.162  1.00  0.00    -0.394 OA
HETATM   28  H13 UNL     1      -4.366   2.548   0.779  1.00  0.00     0.210 HD
ENDBRANCH  25  27
ENDBRANCH  24  25
ENDBRANCH  22  24
ENDBRANCH   4  20
TORSDOF 6
