REMARK  4 active torsions:
REMARK  status: ('A' for Active; 'I' for Inactive)
REMARK    1  A    between atoms: C4_6  and  C5_7 
REMARK    2  A    between atoms: C5_7  and  C6_8 
REMARK    3  A    between atoms: C16_19  and  C17_20 
REMARK    4  A    between atoms: C18_21  and  O2_22 
ROOT
HETATM    1  O1  UNL     1       2.372   1.418   1.981  1.00  0.00    -0.268 OA
HETATM    2  C1  UNL     1       2.444   0.605   1.025  1.00  0.00     0.251 A 
HETATM    3  N1  UNL     1       1.085   0.545   1.454  1.00  0.00    -0.357 N 
HETATM    4  C2  UNL     1      -0.245   0.578   1.979  1.00  0.00     0.127 A 
HETATM    5  C3  UNL     1      -1.312  -0.241   1.397  1.00  0.00     0.054 A 
HETATM    6  C4  UNL     1      -0.973  -1.130   0.273  1.00  0.00    -0.074 A 
HETATM    7  C12 UNL     1      -0.038  -1.602  -0.596  1.00  0.00     0.003 A 
HETATM    8  C13 UNL     1       1.368  -1.567  -1.061  1.00  0.00     0.001 A 
HETATM    9  C14 UNL     1       2.503  -0.971  -0.794  1.00  0.00     0.017 A 
HETATM   10  C15 UNL     1       3.265  -0.030  -0.002  1.00  0.00     0.032 A 
HETATM   11  C16 UNL     1       4.406   0.511   0.199  1.00  0.00     0.019 C 
HETATM   12  H1  UNL     1       0.905  -0.136   0.730  1.00  0.00     0.162 HD
ENDROOT
BRANCH   6  13
HETATM   13  C5  UNL     1      -2.306  -1.814   0.022  1.00  0.00     0.072 C 
BRANCH  13  14
HETATM   14  C6  UNL     1      -3.352  -0.809  -0.293  1.00  0.00    -0.054 A 
HETATM   15  C7  UNL     1      -3.256  -0.430  -1.627  1.00  0.00     0.009 A 
HETATM   16  C8  UNL     1      -4.142   0.497  -2.184  1.00  0.00     0.024 A 
HETATM   17  C9  UNL     1      -5.132   1.052  -1.408  1.00  0.00     0.034 A 
HETATM   18 CL1  UNL     1      -6.304   2.223  -1.983  1.00  0.00    -0.084 Cl
HETATM   19  C10 UNL     1      -5.223   0.674  -0.088  1.00  0.00     0.024 A 
HETATM   20  C11 UNL     1      -4.364  -0.232   0.470  1.00  0.00     0.009 A 
ENDBRANCH  13  14
ENDBRANCH   6  13
BRANCH  11  21
HETATM   21  C17 UNL     1       4.557   1.476   1.248  1.00  0.00     0.025 C 
HETATM   22  C18 UNL     1       5.840   1.862   1.223  1.00  0.00     0.131 C 
BRANCH  22  23
HETATM   23  O2  UNL     1       6.523   1.180   0.196  1.00  0.00    -0.373 OA
HETATM   24  H18 UNL     1       6.895   0.239   0.346  1.00  0.00     0.216 HD
ENDBRANCH  22  23
ENDBRANCH  11  21
TORSDOF 4
