REMARK  3 active torsions:
REMARK  status: ('A' for Active; 'I' for Inactive)
REMARK    1  A    between atoms: N1_1  and  C1_2 
REMARK    2  A    between atoms: C5_9  and  N4_10 
REMARK    3  A    between atoms: N4_10  and  P1_11 
ROOT
HETATM    1  C1  UNL     1      -3.129  -0.863  -0.521  1.00  0.00     0.007 A 
HETATM    2  C2  UNL     1      -3.944  -0.047  -1.121  1.00  0.00     0.031 A 
HETATM    3  C3  UNL     1      -3.688   1.414  -1.191  1.00  0.00     0.064 A 
HETATM    4  S1  UNL     1      -2.318   1.875  -0.459  1.00  0.00    -0.038 SA
HETATM    5  N2  UNL     1      -1.593   3.485  -0.277  1.00  0.00    -0.212 NA
HETATM    6  C4  UNL     1      -0.454   3.385   0.405  1.00  0.00     0.244 A 
HETATM    7  N3  UNL     1       0.174   2.266   0.941  1.00  0.00    -0.221 NA
HETATM    8  C5  UNL     1      -0.095   1.038   0.969  1.00  0.00     0.168 A 
HETATM    9  C11 UNL     1      -1.340   0.573   0.310  1.00  0.00     0.065 A 
HETATM   10  C12 UNL     1      -1.868  -0.659   0.187  1.00  0.00     0.047 A 
ENDROOT
BRANCH   8  11
HETATM   11  N4  UNL     1       0.635  -0.062   1.562  1.00  0.00    -0.233 NA
BRANCH  11  12
HETATM   12  P1  UNL     1       1.801  -0.603   0.633  1.00  0.00     0.060 P 
HETATM   13  C6  UNL     1       2.605   0.460  -0.291  1.00  0.00     0.037 A 
HETATM   14  C7  UNL     1       4.033   0.187  -0.572  1.00  0.00     0.047 A 
HETATM   15  C8  UNL     1       4.665  -0.898  -0.089  1.00  0.00     0.138 A 
HETATM   16  F1  UNL     1       5.992  -1.009  -0.439  1.00  0.00    -0.204 F 
HETATM   17  C9  UNL     1       4.117  -1.943   0.743  1.00  0.00     0.075 A 
HETATM   18 CL1  UNL     1       5.125  -3.279   1.265  1.00  0.00    -0.081 Cl
HETATM   19  C10 UNL     1       2.849  -1.975   1.165  1.00  0.00     0.061 A 
ENDBRANCH  11  12
ENDBRANCH   8  11
BRANCH   1  20
HETATM   20  N1  UNL     1      -3.519  -2.245  -0.541  1.00  0.00    -0.303 NA
HETATM   21  H1  UNL     1      -4.346  -2.823  -0.320  1.00  0.00     0.124 HD
HETATM   22  H2  UNL     1      -4.492  -2.541  -0.238  1.00  0.00     0.124 HD
ENDBRANCH   1  20
TORSDOF 3
