REMARK  4 active torsions:
REMARK  status: ('A' for Active; 'I' for Inactive)
REMARK    1  A    between atoms: O1_2  and  C2_3 
REMARK    2  A    between atoms: C5_6  and  N1_7 
REMARK    3  A    between atoms: N1_7  and  C6_8 
REMARK    4  A    between atoms: C14_18  and  O2_19 
ROOT
HETATM    1  C2  UNL     1       1.958   1.079   0.579  1.00  0.00     0.104 C 
HETATM    2  C3  UNL     1       0.586   0.921   0.681  1.00  0.00     0.049 C 
HETATM    3  C4  UNL     1       0.016   0.278  -0.504  1.00  0.00    -0.025 C 
HETATM    4  C5  UNL     1      -0.611  -0.851  -0.769  1.00  0.00     0.034 C 
HETATM    5  C12 UNL     1      -0.118  -1.569  -2.036  1.00  0.00     0.177 C 
HETATM    6  N2  UNL     1       1.366  -1.257  -2.065  1.00  0.00    -0.385 N 
HETATM    7  C13 UNL     1       1.726   0.010  -1.499  1.00  0.00     0.046 C 
HETATM    8  C14 UNL     1       2.636   0.542  -0.684  1.00  0.00     0.124 C 
HETATM    9  C16 UNL     1       0.511   0.994  -1.800  1.00  0.00     0.100 C 
HETATM   10  H12 UNL     1       2.356  -1.598  -2.322  1.00  0.00     0.159 HD
ENDROOT
BRANCH   4  11
HETATM   11  N1  UNL     1      -1.516  -0.948   0.356  1.00  0.00    -0.356 N 
HETATM   12  H5  UNL     1      -1.006  -1.387   1.129  1.00  0.00     0.166 HD
BRANCH  11  13
HETATM   13  C6  UNL     1      -2.859  -0.547   0.444  1.00  0.00     0.054 A 
HETATM   14  C7  UNL     1      -3.464  -0.783   1.664  1.00  0.00     0.031 A 
HETATM   15  C8  UNL     1      -4.777  -0.432   1.865  1.00  0.00     0.002 A 
HETATM   16  C9  UNL     1      -5.544   0.161   0.884  1.00  0.00     0.002 A 
HETATM   17  C10 UNL     1      -4.965   0.403  -0.327  1.00  0.00     0.026 A 
HETATM   18  C11 UNL     1      -3.659   0.044  -0.501  1.00  0.00     0.060 A 
HETATM   19 CL1  UNL     1      -2.928   0.355  -2.058  1.00  0.00    -0.082 Cl
ENDBRANCH  11  13
ENDBRANCH   4  11
BRANCH   1  20
HETATM   20  O1  UNL     1       2.803   1.656   1.463  1.00  0.00    -0.353 OA
HETATM   21  C1  UNL     1       3.238   0.915   2.602  1.00  0.00     0.210 C 
ENDBRANCH   1  20
BRANCH   8  22
HETATM   22  O2  UNL     1       3.804   0.359  -1.345  1.00  0.00    -0.351 OA
HETATM   23  C15 UNL     1       4.967   0.095  -0.582  1.00  0.00     0.210 C 
ENDBRANCH   8  22
TORSDOF 4
