REMARK  3 active torsions:
REMARK  status: ('A' for Active; 'I' for Inactive)
REMARK    1  A    between atoms: N1_1  and  C1_2 
REMARK    2  A    between atoms: C7_8  and  N2_9 
REMARK    3  A    between atoms: N2_9  and  C8_10 
ROOT
HETATM    1  C1  UNL     1      -3.337   1.163   0.704  1.00  0.00     0.026 A 
HETATM    2  C2  UNL     1      -4.146   0.379  -0.096  1.00  0.00     0.029 A 
HETATM    3  C3  UNL     1      -3.645  -0.707  -0.811  1.00  0.00     0.010 A 
HETATM    4  C4  UNL     1      -2.293  -0.978  -0.692  1.00  0.00    -0.042 A 
HETATM    5  C5  UNL     1      -1.502  -0.183   0.112  1.00  0.00     0.018 A 
HETATM    6  C6  UNL     1      -1.974   0.879   0.816  1.00  0.00     0.044 A 
HETATM    7  C7  UNL     1      -0.096  -0.542   0.176  1.00  0.00     0.134 A 
HETATM    8  N3  UNL     1       0.343  -1.534  -0.482  1.00  0.00    -0.272 NA
HETATM    9  C14 UNL     1      -0.374  -2.419  -1.338  1.00  0.00     0.155 A 
HETATM   10  C15 UNL     1      -1.836  -2.148  -1.483  1.00  0.00     0.061 A 
ENDROOT
BRANCH   7  11
HETATM   11  N2  UNL     1       0.796   0.234   0.991  1.00  0.00    -0.341 N 
HETATM   12  H6  UNL     1       0.422   0.698   1.839  1.00  0.00     0.167 HD
BRANCH  11  13
HETATM   13  C8  UNL     1       2.182   0.341   0.602  1.00  0.00     0.035 C 
HETATM   14  C9  UNL     1       2.530   1.534   0.154  1.00  0.00     0.031 C 
HETATM   15  C10 UNL     1       3.765   2.088  -0.331  1.00  0.00     0.028 C 
HETATM   16  C11 UNL     1       4.978   1.636  -0.136  1.00  0.00     0.048 C 
HETATM   17  I1  UNL     1       6.501   2.780  -1.044  1.00  0.00    -0.036 I 
HETATM   18  S1  UNL     1       5.629   0.229   0.753  1.00  0.00    -0.071 SA
HETATM   19  C12 UNL     1       4.322  -0.995   0.810  1.00  0.00     0.077 C 
HETATM   20 CL1  UNL     1       4.862  -2.651   0.980  1.00  0.00    -0.076 Cl
HETATM   21  C13 UNL     1       3.010  -0.827   0.741  1.00  0.00     0.060 C 
ENDBRANCH  11  13
ENDBRANCH   7  11
BRANCH   1  22
HETATM   22  N1  UNL     1      -3.923   2.258   1.406  1.00  0.00    -0.399 N 
HETATM   23  H1  UNL     1      -3.430   3.109   1.720  1.00  0.00     0.156 HD
HETATM   24  H2  UNL     1      -4.940   2.233   1.643  1.00  0.00     0.156 HD
ENDBRANCH   1  22
TORSDOF 3
