REMARK  5 active torsions:
REMARK  status: ('A' for Active; 'I' for Inactive)
REMARK    1  A    between atoms: O1_2  and  C2_3 
REMARK    2  A    between atoms: C4_5  and  O2_6 
REMARK    3  A    between atoms: O2_6  and  C5_7 
REMARK    4  A    between atoms: C11_14  and  N2_15 
REMARK    5  A    between atoms: N2_15  and  C12_16 
ROOT
HETATM    1  C2  UNL     1      -0.645   3.602   1.227  1.00  0.00     0.073 A 
HETATM    2  C3  UNL     1      -1.178   2.326   0.996  1.00  0.00     0.074 A 
HETATM    3  C4  UNL     1      -0.432   1.290   0.477  1.00  0.00     0.088 A 
HETATM    4  C10 UNL     1       0.883   1.555   0.185  1.00  0.00     0.072 A 
HETATM    5  C11 UNL     1       1.680   0.567  -0.335  1.00  0.00     0.144 A 
HETATM    6  N3  UNL     1       2.947   0.890  -0.595  1.00  0.00    -0.223 NA
HETATM    7  C18 UNL     1       3.474   2.098  -0.383  1.00  0.00     0.236 A 
HETATM    8  N4  UNL     1       2.692   3.065   0.126  1.00  0.00    -0.241 NA
HETATM    9  C19 UNL     1       1.404   2.810   0.413  1.00  0.00     0.077 A 
HETATM   10  C20 UNL     1       0.685   3.866   0.930  1.00  0.00     0.069 A 
ENDROOT
BRANCH   5  11
HETATM   11  N2  UNL     1       1.248  -0.747  -0.631  1.00  0.00    -0.340 N 
HETATM   12  H15 UNL     1       0.374  -1.299  -0.628  1.00  0.00     0.167 HD
BRANCH  11  13
HETATM   13  C12 UNL     1       2.162  -1.755  -1.088  1.00  0.00     0.035 A 
HETATM   14  C13 UNL     1       1.947  -2.766  -1.995  1.00  0.00     0.032 A 
HETATM   15  C14 UNL     1       2.893  -3.697  -2.347  1.00  0.00     0.046 A 
HETATM   16  C15 UNL     1       4.147  -3.652  -1.781  1.00  0.00     0.138 A 
HETATM   17  F1  UNL     1       5.020  -4.598  -2.178  1.00  0.00    -0.204 F 
HETATM   18  C16 UNL     1       4.394  -2.653  -0.869  1.00  0.00     0.074 A 
HETATM   19 CL1  UNL     1       6.040  -2.710  -0.219  1.00  0.00    -0.081 Cl
HETATM   20  C17 UNL     1       3.437  -1.717  -0.517  1.00  0.00     0.056 A 
ENDBRANCH  11  13
ENDBRANCH   5  11
BRANCH   3  21
HETATM   21  O2  UNL     1      -1.000   0.083   0.277  1.00  0.00    -0.345 OA
BRANCH  21  22
HETATM   22  C5  UNL     1      -2.286  -0.371   0.505  1.00  0.00     0.132 C 
HETATM   23  C6  UNL     1      -2.956  -0.776  -0.797  1.00  0.00     0.062 C 
HETATM   24  C7  UNL     1      -4.155  -1.637  -0.489  1.00  0.00     0.272 C 
HETATM   25  N1  UNL     1      -3.878  -2.810   0.271  1.00  0.00     0.083 N 
HETATM   26  C8  UNL     1      -2.494  -2.852   0.675  1.00  0.00     0.272 C 
HETATM   27  H10 UNL     1      -4.052  -3.653  -0.348  1.00  0.00     0.315 HD
HETATM   28  C9  UNL     1      -2.205  -1.568   1.447  1.00  0.00     0.062 C 
ENDBRANCH  21  22
ENDBRANCH   3  21
BRANCH   1  29
HETATM   29  O1  UNL     1      -1.424   4.645   1.757  1.00  0.00    -0.356 OA
HETATM   30  C1  UNL     1      -0.858   5.923   1.978  1.00  0.00     0.210 C 
ENDBRANCH   1  29
TORSDOF 5
