REMARK  9 active torsions:
REMARK  status: ('A' for Active; 'I' for Inactive)
REMARK    1  A    between atoms: C2_2  and  C3_3 
REMARK    2  A    between atoms: C3_3  and  O1_4 
REMARK    3  A    between atoms: C3_3  and  C4_5 
REMARK    4  A    between atoms: C4_5  and  C16_22 
REMARK    5  A    between atoms: C5_6  and  C6_7 
REMARK    6  A    between atoms: C8_9  and  N1_10 
REMARK    7  A    between atoms: N1_10  and  C9_11 
REMARK    8  A    between atoms: C13_16  and  C14_17 
REMARK    9  A    between atoms: C14_17  and  O3_19 
ROOT
HETATM    1  C6  UNL     1      -0.341  -1.096   0.602  1.00  0.00     0.059 A 
HETATM    2  C7  UNL     1       0.399  -0.169  -0.059  1.00  0.00     0.062 A 
HETATM    3  C8  UNL     1       1.796  -0.225  -0.012  1.00  0.00     0.053 A 
HETATM    4  C13 UNL     1       2.276  -1.271   0.739  1.00  0.00     0.082 A 
HETATM    5  C15 UNL     1       1.543  -2.220   1.415  1.00  0.00     0.137 A 
HETATM    6  N2  UNL     1       0.212  -2.092   1.317  1.00  0.00    -0.260 NA
ENDROOT
BRANCH   1   7
HETATM    7  C5  UNL     1      -1.789  -0.982   0.545  1.00  0.00     0.037 C 
HETATM    8  C4  UNL     1      -2.600   0.077   0.659  1.00  0.00    -0.046 C 
BRANCH   8   9
HETATM    9  C3  UNL     1      -4.056  -0.119   0.555  1.00  0.00     0.169 C 
BRANCH   9  10
HETATM   10  C2  UNL     1      -4.367  -1.566   0.310  1.00  0.00    -0.001 C 
HETATM   11  C1  UNL     1      -4.697  -2.329  -0.726  1.00  0.00     0.010 C 
ENDBRANCH   9  10
BRANCH   9  12
HETATM   12  O1  UNL     1      -4.664   0.616  -0.450  1.00  0.00    -0.387 OA
HETATM   13  H5  UNL     1      -5.652   0.451  -0.320  1.00  0.00     0.210 HD
ENDBRANCH   9  12
ENDBRANCH   8   9
BRANCH   8  14
HETATM   14  C16 UNL     1      -2.388   1.505   0.900  1.00  0.00     0.033 C 
HETATM   15  C17 UNL     1      -2.879   2.410  -0.207  1.00  0.00     0.010 C 
ENDBRANCH   8  14
ENDBRANCH   1   7
BRANCH   3  16
HETATM   16  N1  UNL     1       2.536   0.756  -0.705  1.00  0.00    -0.355 N 
HETATM   17  H8  UNL     1       1.979   1.444  -1.295  1.00  0.00     0.166 HD
BRANCH  16  18
HETATM   18  C9  UNL     1       3.882   1.095  -0.851  1.00  0.00     0.035 A 
HETATM   19  C10 UNL     1       4.420   1.821   0.140  1.00  0.00     0.053 A 
HETATM   20  C11 UNL     1       5.706   1.853  -0.516  1.00  0.00     0.038 A 
HETATM   21 CL1  UNL     1       7.381   2.333  -0.591  1.00  0.00    -0.084 Cl
HETATM   22  C12 UNL     1       5.176   1.126  -1.514  1.00  0.00     0.053 A 
ENDBRANCH  16  18
ENDBRANCH   3  16
BRANCH   4  23
HETATM   23  C14 UNL     1       3.700  -1.418   0.821  1.00  0.00     0.179 C 
HETATM   24  O2  UNL     1       4.235  -2.350   1.514  1.00  0.00    -0.646 OA
BRANCH  23  25
HETATM   25  O3  UNL     1       5.039  -1.273   0.685  1.00  0.00    -0.773 OA
HETATM   26  H11 UNL     1       5.523  -1.390  -0.221  1.00  0.00     0.167 HD
ENDBRANCH  23  25
ENDBRANCH   4  23
TORSDOF 9
