REMARK  8 active torsions:
REMARK  status: ('A' for Active; 'I' for Inactive)
REMARK    1  A    between atoms: O1_2  and  C2_3 
REMARK    2  A    between atoms: C6_8  and  C7_9 
REMARK    3  A    between atoms: C7_9  and  O3_11 
REMARK    4  A    between atoms: C8_12  and  N2_13 
REMARK    5  A    between atoms: N2_13  and  C9_14 
REMARK    6  A    between atoms: C10_15  and  C11_16 
REMARK    7  A    between atoms: C12_17  and  C13_18 
REMARK    8  A    between atoms: C16_22  and  O4_23 
ROOT
HETATM    1  C2  UNL     1       3.808  -0.538   0.050  1.00  0.00     0.103 A 
HETATM    2  C3  UNL     1       3.647   0.826  -0.226  1.00  0.00     0.072 A 
HETATM    3  C4  UNL     1       2.376   1.407  -0.193  1.00  0.00     0.071 A 
HETATM    4  N1  UNL     1       2.255   2.725  -0.465  1.00  0.00    -0.259 NA
HETATM    5  C5  UNL     1       1.022   3.252  -0.424  1.00  0.00     0.138 A 
HETATM    6  C6  UNL     1      -0.073   2.477  -0.117  1.00  0.00     0.082 A 
HETATM    7  C8  UNL     1      -0.016   1.129   0.169  1.00  0.00     0.063 A 
HETATM    8  C14 UNL     1       1.290   0.625   0.114  1.00  0.00     0.023 A 
HETATM    9  C15 UNL     1       1.492  -0.698   0.376  1.00  0.00     0.055 A 
HETATM   10  C16 UNL     1       2.706  -1.347   0.365  1.00  0.00     0.102 A 
ENDROOT
BRANCH   7  11
HETATM   11  N2  UNL     1      -1.057   0.255   0.482  1.00  0.00    -0.364 N 
HETATM   12  H7  UNL     1      -1.270   0.321   1.503  1.00  0.00     0.165 HD
BRANCH  11  13
HETATM   13  C9  UNL     1      -1.806  -0.631  -0.310  1.00  0.00     0.088 C 
HETATM   14  C10 UNL     1      -3.102  -0.647  -0.211  1.00  0.00     0.017 C 
BRANCH  14  15
HETATM   15  C11 UNL     1      -4.297  -1.281  -0.720  1.00  0.00    -0.002 C 
HETATM   16  C12 UNL     1      -5.607  -1.259  -0.581  1.00  0.00    -0.012 C 
BRANCH  16  17
HETATM   17  C13 UNL     1      -6.281  -0.343   0.368  1.00  0.00     0.141 C 
HETATM   18 CL1  UNL     1      -7.210  -1.267   1.567  1.00  0.00    -0.126 Cl
ENDBRANCH  16  17
ENDBRANCH  14  15
ENDBRANCH  11  13
ENDBRANCH   7  11
BRANCH   6  19
HETATM   19  C7  UNL     1      -1.391   3.093  -0.071  1.00  0.00     0.179 C 
HETATM   20  O2  UNL     1      -2.460   2.497   0.207  1.00  0.00    -0.646 OA
BRANCH  19  21
HETATM   21  O3  UNL     1      -1.671   4.428  -0.324  1.00  0.00    -0.773 OA
HETATM   22  H6  UNL     1      -2.274   4.987   0.274  1.00  0.00     0.167 HD
ENDBRANCH  19  21
ENDBRANCH   6  19
BRANCH  10  23
HETATM   23  O4  UNL     1       3.027  -2.662   0.612  1.00  0.00    -0.353 OA
HETATM   24  C17 UNL     1       2.077  -3.636   0.945  1.00  0.00     0.210 C 
ENDBRANCH  10  23
BRANCH   1  25
HETATM   25  O1  UNL     1       5.081  -1.068   0.005  1.00  0.00    -0.353 OA
HETATM   26  C1  UNL     1       6.225  -0.310  -0.303  1.00  0.00     0.210 C 
ENDBRANCH   1  25
TORSDOF 8
