REMARK  4 active torsions:
REMARK  status: ('A' for Active; 'I' for Inactive)
REMARK    1  A    between atoms: O1_2  and  C2_3 
REMARK    2  A    between atoms: C5_6  and  N1_7 
REMARK       I    between atoms: N1_7  and  C6_8 
REMARK    3  A    between atoms: C8_11  and  C9_12 
REMARK    4  A    between atoms: C9_12  and  O3_13 
ROOT
HETATM    1  C2  UNL     1       2.523   0.446   0.845  1.00  0.00     0.090 A 
HETATM    2  C3  UNL     1       1.251   0.445   0.552  1.00  0.00     0.049 A 
HETATM    3  C4  UNL     1       0.363  -0.599   0.170  1.00  0.00    -0.015 A 
HETATM    4  C5  UNL     1      -0.890  -0.264  -0.074  1.00  0.00     0.052 C 
HETATM    5  C8  UNL     1      -1.899  -1.218  -0.513  1.00  0.00     0.010 C 
HETATM    6  C10 UNL     1      -1.631  -2.273  -1.320  1.00  0.00     0.127 C 
HETATM    7  N2  UNL     1      -0.344  -2.617  -1.863  1.00  0.00    -0.275 NA
HETATM    8  C11 UNL     1       0.792  -2.477  -1.270  1.00  0.00     0.102 C 
HETATM    9  C12 UNL     1       1.023  -1.929   0.103  1.00  0.00     0.086 A 
HETATM   10  C13 UNL     1       2.436  -1.886   0.433  1.00  0.00     0.015 A 
HETATM   11  C14 UNL     1       3.179  -0.853   0.777  1.00  0.00     0.064 A 
HETATM   12 CL1  UNL     1       4.872  -1.053   1.132  1.00  0.00    -0.082 Cl
ENDROOT
BRANCH   4  13
HETATM   13  N1  UNL     1      -1.295   1.064   0.044  1.00  0.00    -0.326 N 
HETATM   14  C6  UNL     1      -1.693   2.388   0.163  1.00  0.00     0.218 C 
HETATM   15  C7  UNL     1      -2.810   3.312   0.070  1.00  0.00     0.117 C 
HETATM   16  O2  UNL     1      -0.716   3.071   0.473  1.00  0.00    -0.274 OA
HETATM   17  H5  UNL     1      -2.325   1.012  -0.152  1.00  0.00     0.169 HD
ENDBRANCH   4  13
BRANCH   5  18
HETATM   18  C9  UNL     1      -3.310  -1.041  -0.045  1.00  0.00     0.206 C 
BRANCH  18  19
HETATM   19  O3  UNL     1      -4.105  -2.079  -0.572  1.00  0.00    -0.396 OA
HETATM   20  H11 UNL     1      -4.365  -1.815  -1.488  1.00  0.00     0.209 HD
ENDBRANCH  18  19
ENDBRANCH   5  18
BRANCH   1  21
HETATM   21  O1  UNL     1       3.158   1.604   1.188  1.00  0.00    -0.354 OA
HETATM   22  C1  UNL     1       4.496   1.723   1.602  1.00  0.00     0.210 C 
ENDBRANCH   1  21
TORSDOF 4
