REMARK  6 active torsions:
REMARK  status: ('A' for Active; 'I' for Inactive)
REMARK    1  A    between atoms: O1_2  and  C2_3 
REMARK    2  A    between atoms: C6_8  and  C7_9 
REMARK    3  A    between atoms: C7_9  and  O3_11 
REMARK    4  A    between atoms: C8_12  and  N2_13 
REMARK    5  A    between atoms: N2_13  and  C9_14 
REMARK    6  A    between atoms: C17_23  and  O4_24 
ROOT
HETATM    1  C2  UNL     1       3.172  -0.354  -0.668  1.00  0.00     0.103 A 
HETATM    2  C3  UNL     1       2.848   0.904  -1.174  1.00  0.00     0.072 A 
HETATM    3  C4  UNL     1       1.645   1.516  -0.851  1.00  0.00     0.071 A 
HETATM    4  N1  UNL     1       1.293   2.738  -1.323  1.00  0.00    -0.259 NA
HETATM    5  C5  UNL     1       0.107   3.290  -0.977  1.00  0.00     0.138 A 
HETATM    6  C6  UNL     1      -0.760   2.621  -0.142  1.00  0.00     0.082 A 
HETATM    7  C8  UNL     1      -0.457   1.380   0.367  1.00  0.00     0.064 A 
HETATM    8  C15 UNL     1       0.763   0.842  -0.005  1.00  0.00     0.023 A 
HETATM    9  C16 UNL     1       1.106  -0.403   0.484  1.00  0.00     0.055 A 
HETATM   10  C17 UNL     1       2.285  -1.026   0.181  1.00  0.00     0.102 A 
ENDROOT
BRANCH   7  11
HETATM   11  N2  UNL     1      -1.303   0.634   1.233  1.00  0.00    -0.355 N 
HETATM   12  H7  UNL     1      -1.184   0.785   2.263  1.00  0.00     0.166 HD
BRANCH  11  13
HETATM   13  C9  UNL     1      -2.270  -0.280   0.726  1.00  0.00     0.034 A 
HETATM   14  C10 UNL     1      -2.379  -0.435  -0.639  1.00  0.00     0.029 A 
HETATM   15  C11 UNL     1      -3.325  -1.329  -1.144  1.00  0.00     0.004 A 
HETATM   16  C12 UNL     1      -4.108  -2.015  -0.217  1.00  0.00     0.024 A 
HETATM   17  C13 UNL     1      -3.992  -1.853   1.147  1.00  0.00     0.036 A 
HETATM   18 CL1  UNL     1      -5.005  -2.744   2.255  1.00  0.00    -0.084 Cl
HETATM   19  C14 UNL     1      -3.057  -0.971   1.611  1.00  0.00     0.053 A 
ENDBRANCH  11  13
ENDBRANCH   7  11
BRANCH   6  20
HETATM   20  C7  UNL     1      -2.036   3.228   0.223  1.00  0.00     0.179 C 
HETATM   21  O2  UNL     1      -2.352   4.360  -0.220  1.00  0.00    -0.646 OA
BRANCH  20  22
HETATM   22  O3  UNL     1      -2.930   2.599   1.052  1.00  0.00    -0.773 OA
HETATM   23  H6  UNL     1      -3.923   2.845   0.940  1.00  0.00     0.167 HD
ENDBRANCH  20  22
ENDBRANCH   6  20
BRANCH  10  24
HETATM   24  O4  UNL     1       2.658  -2.275   0.656  1.00  0.00    -0.353 OA
HETATM   25  C18 UNL     1       1.789  -2.961   1.502  1.00  0.00     0.210 C 
ENDBRANCH  10  24
BRANCH   1  26
HETATM   26  O1  UNL     1       4.373  -0.973  -0.985  1.00  0.00    -0.353 OA
HETATM   27  C1  UNL     1       5.268  -0.290  -1.843  1.00  0.00     0.210 C 
ENDBRANCH   1  26
TORSDOF 6
