REMARK  8 active torsions:
REMARK  status: ('A' for Active; 'I' for Inactive)
REMARK    1  A    between atoms: O1_2  and  C2_3 
REMARK    2  A    between atoms: C4_5  and  C5_6 
REMARK    3  A    between atoms: C5_6  and  C6_7 
REMARK    4  A    between atoms: C5_6  and  N1_11 
REMARK    5  A    between atoms: C6_7  and  C7_8 
REMARK    6  A    between atoms: C7_8  and  O3_10 
REMARK    7  A    between atoms: N1_11  and  C8_12 
REMARK    8  A    between atoms: C16_21  and  O4_22 
ROOT
HETATM    1  C5  UNL     1       0.919  -0.647  -1.086  1.00  0.00     0.032 C 
ENDROOT
BRANCH   1   2
HETATM    2  C4  UNL     1      -0.385  -0.411  -0.865  1.00  0.00     0.019 A 
HETATM    3  C3  UNL     1      -0.868  -0.454   0.448  1.00  0.00     0.055 A 
HETATM    4  C2  UNL     1      -2.208  -0.195   0.623  1.00  0.00     0.103 A 
HETATM    5  C16 UNL     1      -3.074   0.098  -0.410  1.00  0.00     0.111 A 
HETATM    6  C15 UNL     1      -2.531   0.125  -1.698  1.00  0.00     0.027 A 
HETATM    7  C14 UNL     1      -1.231  -0.118  -1.935  1.00  0.00     0.074 A 
HETATM    8  C18 UNL     1      -2.746   0.326  -3.114  1.00  0.00     0.193 A 
HETATM    9  N2  UNL     1      -1.350   0.040  -3.183  1.00  0.00    -0.283 NA
BRANCH   4  10
HETATM   10  O1  UNL     1      -2.758  -0.222   1.895  1.00  0.00    -0.353 OA
HETATM   11  C1  UNL     1      -1.914  -0.524   2.985  1.00  0.00     0.210 C 
ENDBRANCH   4  10
BRANCH   5  12
HETATM   12  O4  UNL     1      -4.407   0.354  -0.219  1.00  0.00    -0.352 OA
HETATM   13  C17 UNL     1      -5.454  -0.571  -0.220  1.00  0.00     0.210 C 
ENDBRANCH   5  12
ENDBRANCH   1   2
BRANCH   1  14
HETATM   14  C6  UNL     1       1.657  -0.657  -2.375  1.00  0.00     0.167 C 
BRANCH  14  15
HETATM   15  C7  UNL     1       2.710   0.396  -2.445  1.00  0.00     0.145 C 
HETATM   16  O2  UNL     1       3.824   0.296  -1.836  1.00  0.00    -0.650 OA
BRANCH  15  17
HETATM   17  O3  UNL     1       2.489   1.551  -3.205  1.00  0.00    -0.776 OA
HETATM   18  H7  UNL     1       3.329   2.051  -3.504  1.00  0.00     0.167 HD
ENDBRANCH  15  17
ENDBRANCH  14  15
ENDBRANCH   1  14
BRANCH   1  19
HETATM   19  N1  UNL     1       1.756  -0.924   0.027  1.00  0.00    -0.358 N 
HETATM   20  H8  UNL     1       1.733  -1.966   0.012  1.00  0.00     0.166 HD
BRANCH  19  21
HETATM   21  C8  UNL     1       2.495  -0.193   0.992  1.00  0.00     0.034 A 
HETATM   22  C9  UNL     1       3.214  -0.905   1.928  1.00  0.00     0.029 A 
HETATM   23  C10 UNL     1       3.909  -0.168   2.844  1.00  0.00     0.004 A 
HETATM   24  C11 UNL     1       3.873   1.216   2.808  1.00  0.00     0.024 A 
HETATM   25  C12 UNL     1       3.167   1.935   1.890  1.00  0.00     0.036 A 
HETATM   26 CL1  UNL     1       3.088   3.671   1.803  1.00  0.00    -0.084 Cl
HETATM   27  C13 UNL     1       2.466   1.195   0.966  1.00  0.00     0.053 A 
ENDBRANCH  19  21
ENDBRANCH   1  19
TORSDOF 8
