REMARK  6 active torsions:
REMARK  status: ('A' for Active; 'I' for Inactive)
REMARK    1  A    between atoms: O1_2  and  C2_3 
REMARK    2  A    between atoms: C6_8  and  C7_9 
REMARK    3  A    between atoms: C7_9  and  O2_10 
REMARK    4  A    between atoms: O2_10  and  O3_11 
REMARK    5  A    between atoms: O3_11  and  O4_12 
REMARK    6  A    between atoms: C8_13  and  N2_14 
ROOT
HETATM    1  C2  UNL     1       3.269  -0.101   0.372  1.00  0.00     0.076 A 
HETATM    2  C3  UNL     1       2.880   0.704  -0.677  1.00  0.00     0.069 A 
HETATM    3  C4  UNL     1       1.553   0.813  -1.032  1.00  0.00     0.071 A 
HETATM    4  N1  UNL     1       1.196   1.614  -2.069  1.00  0.00    -0.260 NA
HETATM    5  C5  UNL     1      -0.107   1.701  -2.392  1.00  0.00     0.129 A 
HETATM    6  C6  UNL     1      -1.102   1.020  -1.727  1.00  0.00     0.014 A 
HETATM    7  C8  UNL     1      -0.801   0.192  -0.668  1.00  0.00     0.057 A 
HETATM    8  C14 UNL     1       0.560   0.118  -0.350  1.00  0.00     0.021 A 
HETATM    9  C15 UNL     1       0.968  -0.694   0.710  1.00  0.00     0.025 A 
HETATM   10  C16 UNL     1       2.304  -0.813   1.080  1.00  0.00    -0.028 A 
HETATM   11  C17 UNL     1       2.721  -1.689   2.221  1.00  0.00     0.051 C 
ENDROOT
BRANCH   7  12
HETATM   12  N2  UNL     1      -1.683  -0.580   0.125  1.00  0.00    -0.350 N 
HETATM   13  C9  UNL     1      -1.874  -1.883  -0.454  1.00  0.00     0.091 A 
HETATM   14  C10 UNL     1      -2.655  -2.786   0.080  1.00  0.00     0.019 A 
HETATM   15  C11 UNL     1      -3.387  -2.526   1.307  1.00  0.00     0.022 A 
HETATM   16  C12 UNL     1      -3.187  -1.320   1.813  1.00  0.00     0.030 A 
HETATM   17 CL1  UNL     1      -4.040  -0.915   3.309  1.00  0.00    -0.087 Cl
HETATM   18  C13 UNL     1      -2.338  -0.199   1.337  1.00  0.00     0.179 A 
ENDBRANCH   7  12
BRANCH   6  19
HETATM   19  C7  UNL     1      -2.517   1.136  -2.102  1.00  0.00     0.255 C 
BRANCH  19  20
HETATM   20  O2  UNL     1      -3.197   1.970  -1.212  1.00  0.00    -0.206 OA
BRANCH  20  21
HETATM   21  O3  UNL     1      -2.653   3.176  -1.228  1.00  0.00    -0.069 OA
BRANCH  21  22
HETATM   22  O4  UNL     1      -3.424   3.993  -0.576  1.00  0.00    -0.220 OA
HETATM   23  H8  UNL     1      -3.560   4.871  -0.967  1.00  0.00     0.256 HD
ENDBRANCH  21  22
ENDBRANCH  20  21
ENDBRANCH  19  20
ENDBRANCH   6  19
BRANCH   1  24
HETATM   24  O1  UNL     1       4.579  -0.252   0.777  1.00  0.00    -0.355 OA
HETATM   25  C1  UNL     1       5.570   0.470   0.062  1.00  0.00     0.210 C 
ENDBRANCH   1  24
TORSDOF 6
