REMARK  3 active torsions:
REMARK  status: ('A' for Active; 'I' for Inactive)
REMARK    1  A    between atoms: C6_7  and  C7_8 
REMARK    2  A    between atoms: C7_8  and  C8_9 
REMARK    3  A    between atoms: C8_9  and  O1_10 
ROOT
HETATM    1  C1  UNL     1      -2.465  -3.238  -0.308  1.00  0.00     0.049 C 
HETATM    2  C2  UNL     1      -1.294  -2.282  -0.291  1.00  0.00    -0.049 C 
HETATM    3  C3  UNL     1      -0.176  -2.942  -0.313  1.00  0.00     0.027 C 
HETATM    4  C4  UNL     1       1.224  -2.673  -0.311  1.00  0.00     0.116 C 
HETATM    5  N1  UNL     1       0.848  -1.470  -0.271  1.00  0.00    -0.273 NA
HETATM    6  C5  UNL     1       1.724  -0.356  -0.236  1.00  0.00     0.118 C 
HETATM    7  C6  UNL     1       2.017   0.800   0.308  1.00  0.00    -0.069 C 
HETATM    8  C9  UNL     1       1.044   1.167   1.352  1.00  0.00    -0.010 C 
HETATM    9  B1  UNL     1      -0.118   0.078   1.531  1.00  0.00     0.231 B 
HETATM   10  C10 UNL     1      -1.252   0.140   0.422  1.00  0.00     0.013 A 
HETATM   11  C11 UNL     1      -1.674  -0.886  -0.282  1.00  0.00    -0.013 A 
HETATM   12  C12 UNL     1      -2.720  -0.777  -1.299  1.00  0.00     0.015 A 
HETATM   13  C13 UNL     1      -3.399   0.274  -1.779  1.00  0.00     0.026 A 
HETATM   14  C14 UNL     1      -3.288   1.683  -1.413  1.00  0.00     0.056 A 
HETATM   15 CL1  UNL     1      -4.253   2.814  -2.302  1.00  0.00    -0.082 Cl
HETATM   16  C15 UNL     1      -2.490   2.118  -0.440  1.00  0.00     0.164 A 
HETATM   17  O2  UNL     1      -1.619   1.463   0.428  1.00  0.00    -0.337 OA
HETATM   18  H14 UNL     1      -0.603   0.073   2.637  1.00  0.00    -0.018 HD
ENDROOT
BRANCH   7  19
HETATM   19  C7  UNL     1       3.136   1.688  -0.012  1.00  0.00     0.060 C 
BRANCH  19  20
HETATM   20  C8  UNL     1       4.093   1.945   1.107  1.00  0.00     0.168 C 
BRANCH  20  21
HETATM   21  O1  UNL     1       3.510   2.541   2.219  1.00  0.00    -0.401 OA
HETATM   22  H11 UNL     1       2.901   3.248   1.953  1.00  0.00     0.209 HD
ENDBRANCH  20  21
ENDBRANCH  19  20
ENDBRANCH   7  19
TORSDOF 3
