REMARK  5 active torsions:
REMARK  status: ('A' for Active; 'I' for Inactive)
REMARK    1  A    between atoms: B1_1  and  C1_2 
REMARK    2  A    between atoms: C3_4  and  C4_5 
REMARK    3  A    between atoms: C8_11  and  O1_12 
REMARK    4  A    between atoms: C11_15  and  O2_16 
REMARK    5  A    between atoms: O2_16  and  C12_17 
ROOT
HETATM    1  C4  UNL     1      -2.629   0.010   0.615  1.00  0.00     0.083 A 
HETATM    2  N1  UNL     1      -3.963  -0.130   0.824  1.00  0.00    -0.240 NA
HETATM    3  C5  UNL     1      -4.791   0.810   0.343  1.00  0.00     0.234 A 
HETATM    4  N2  UNL     1      -4.325   1.890  -0.343  1.00  0.00    -0.241 NA
HETATM    5  C6  UNL     1      -3.003   2.024  -0.550  1.00  0.00     0.076 A 
HETATM    6  C7  UNL     1      -2.557   3.107  -1.263  1.00  0.00     0.069 A 
HETATM    7  C8  UNL     1      -1.202   3.224  -1.491  1.00  0.00     0.073 A 
HETATM    8  C10 UNL     1      -0.371   2.235  -0.984  1.00  0.00     0.074 A 
HETATM    9  C11 UNL     1      -0.767   1.131  -0.263  1.00  0.00     0.086 A 
HETATM   10  C18 UNL     1      -2.123   1.087  -0.076  1.00  0.00     0.056 A 
ENDROOT
BRANCH   1  11
HETATM   11  C3  UNL     1      -1.943  -1.115   1.223  1.00  0.00    -0.007 A 
HETATM   12  C2  UNL     1      -2.299  -2.392   0.763  1.00  0.00     0.011 A 
HETATM   13  C1  UNL     1      -1.826  -3.606   1.223  1.00  0.00    -0.070 A 
HETATM   14  C21 UNL     1      -0.904  -3.548   2.245  1.00  0.00     0.111 A 
HETATM   15  C20 UNL     1      -0.500  -2.336   2.755  1.00  0.00     0.042 A 
HETATM   16  F1  UNL     1      -0.388  -4.689   2.755  1.00  0.00    -0.207 F 
HETATM   17  C19 UNL     1      -1.019  -1.191   2.242  1.00  0.00     0.017 A 
BRANCH  13  18
HETATM   18  B1  UNL     1      -2.320  -4.947   0.607  1.00  0.00     0.178 B 
HETATM   19  H1  UNL     1      -1.667  -5.926   0.792  1.00  0.00    -0.026 HD
HETATM   20  H2  UNL     1      -2.836  -4.902  -0.455  1.00  0.00    -0.026 HD
ENDBRANCH  13  18
ENDBRANCH   1  11
BRANCH   9  21
HETATM   21  O2  UNL     1       0.070   0.175   0.216  1.00  0.00    -0.345 OA
BRANCH  21  22
HETATM   22  C12 UNL     1       1.451   0.109   0.053  1.00  0.00     0.132 C 
HETATM   23  C13 UNL     1       2.234   0.088   1.355  1.00  0.00     0.062 C 
HETATM   24  C14 UNL     1       3.594  -0.525   1.033  1.00  0.00     0.274 C 
HETATM   25  N3  UNL     1       3.889  -0.229  -0.334  1.00  0.00     0.084 N 
HETATM   26  C15 UNL     1       5.268  -0.037  -0.631  1.00  0.00     0.309 C 
HETATM   27  C16 UNL     1       3.211  -1.177  -1.174  1.00  0.00     0.274 C 
HETATM   28  C17 UNL     1       1.736  -1.164  -0.754  1.00  0.00     0.062 C 
ENDBRANCH  21  22
ENDBRANCH   9  21
BRANCH   7  29
HETATM   29  O1  UNL     1      -0.733   4.314  -2.211  1.00  0.00    -0.356 OA
HETATM   30  C9  UNL     1      -1.691   5.249  -2.670  1.00  0.00     0.210 C 
ENDBRANCH   7  29
TORSDOF 5
