REMARK  6 active torsions:
REMARK  status: ('A' for Active; 'I' for Inactive)
REMARK    1  A    between atoms: C2_2  and  C3_3 
REMARK    2  A    between atoms: C6_8  and  C7_9 
REMARK    3  A    between atoms: C7_9  and  C8_10 
REMARK    4  A    between atoms: C8_10  and  O2_12 
REMARK    5  A    between atoms: C11_15  and  O3_16 
REMARK    6  A    between atoms: C13_18  and  O4_19 
ROOT
HETATM    1  C3  UNL     1       2.028   1.277  -2.418  1.00  0.00     0.004 A 
HETATM    2  C4  UNL     1       0.909   1.947  -1.914  1.00  0.00    -0.026 A 
HETATM    3  C5  UNL     1       0.017   2.488  -1.490  1.00  0.00    -0.185 C 
HETATM    4  B1  UNL     1      -1.196   3.196  -0.896  1.00  0.00     0.350 B 
HETATM    5  N1  UNL     1      -1.932   2.107   0.087  1.00  0.00    -0.434 N 
HETATM    6  C6  UNL     1      -1.643   0.837   0.619  1.00  0.00     0.013 C 
HETATM    7  C9  UNL     1      -0.774  -0.079   0.418  1.00  0.00     0.013 A 
HETATM    8  C10 UNL     1      -1.024  -1.162   1.274  1.00  0.00     0.054 A 
HETATM    9  C11 UNL     1      -0.296  -2.343   1.310  1.00  0.00     0.099 A 
HETATM   10  C13 UNL     1       0.803  -2.510   0.425  1.00  0.00     0.090 A 
HETATM   11  C15 UNL     1       1.194  -1.356  -0.561  1.00  0.00     0.114 A 
HETATM   12  C16 UNL     1       0.233  -0.703  -0.099  1.00  0.00     0.053 A 
HETATM   13  N2  UNL     1       0.781   0.370  -0.438  1.00  0.00    -0.289 NA
HETATM   14  C17 UNL     1       1.771   1.091  -0.997  1.00  0.00     0.177 A 
HETATM   15  H5  UNL     1      -0.975   4.194  -0.257  1.00  0.00     0.015 HD
HETATM   16  H6  UNL     1      -2.803   2.619   0.199  1.00  0.00     0.139 HD
ENDROOT
BRANCH   6  17
HETATM   17  C7  UNL     1      -2.665   0.928   1.695  1.00  0.00     0.166 C 
BRANCH  17  18
HETATM   18  C8  UNL     1      -2.514   2.329   2.328  1.00  0.00     0.145 C 
HETATM   19  O1  UNL     1      -3.133   2.320   3.453  1.00  0.00    -0.650 OA
BRANCH  18  20
HETATM   20  O2  UNL     1      -2.121   3.612   2.436  1.00  0.00    -0.776 OA
HETATM   21  H9  UNL     1      -2.658   4.450   2.408  1.00  0.00     0.167 HD
ENDBRANCH  18  20
ENDBRANCH  17  18
ENDBRANCH   6  17
BRANCH   9  22
HETATM   22  O3  UNL     1      -0.654  -3.409   2.253  1.00  0.00    -0.353 OA
HETATM   23  C12 UNL     1      -1.761  -3.032   3.032  1.00  0.00     0.210 C 
ENDBRANCH   9  22
BRANCH  10  24
HETATM   24  O4  UNL     1       1.237  -3.791   0.740  1.00  0.00    -0.357 OA
HETATM   25  C14 UNL     1       2.262  -4.479   0.182  1.00  0.00     0.209 C 
ENDBRANCH  10  24
BRANCH   1  26
HETATM   26  C2  UNL     1       2.083   1.760  -3.593  1.00  0.00     0.041 C 
HETATM   27  C1  UNL     1       2.342   2.156  -4.940  1.00  0.00     0.011 C 
ENDBRANCH   1  26
TORSDOF 6
