REMARK  5 active torsions:
REMARK  status: ('A' for Active; 'I' for Inactive)
REMARK    1  A    between atoms: O1_2  and  C2_3 
REMARK    2  A    between atoms: C6_8  and  O3_9 
REMARK    3  A    between atoms: C9_14  and  C10_15 
REMARK    4  A    between atoms: C12_18  and  N2_19 
REMARK    5  A    between atoms: N2_19  and  C13_20 
ROOT
HETATM    1  C2  UNL     1       3.528   0.433  -1.066  1.00  0.00     0.123 A 
HETATM    2  C3  UNL     1       3.519  -0.848  -0.740  1.00  0.00     0.178 A 
HETATM    3  O2  UNL     1       2.406  -1.672  -0.705  1.00  0.00    -0.313 OA
HETATM    4  C4  UNL     1       1.142  -1.142  -1.039  1.00  0.00     0.246 A 
HETATM    5  C5  UNL     1       1.234   0.260  -1.384  1.00  0.00     0.088 A 
HETATM    6  C6  UNL     1       2.274   1.077  -1.429  1.00  0.00     0.105 A 
HETATM    7  O4  UNL     1       0.651  -1.951  -2.069  1.00  0.00    -0.231 OA
HETATM    8  N1  UNL     1       0.895  -3.234  -1.698  1.00  0.00    -0.273 N 
HETATM    9  C8  UNL     1       0.313  -3.766  -0.513  1.00  0.00     0.129 C 
HETATM   10  C9  UNL     1      -0.012  -2.835   0.371  1.00  0.00     0.032 C 
HETATM   11  C11 UNL     1       0.220  -1.414   0.120  1.00  0.00     0.040 C 
HETATM   12  C12 UNL     1      -0.382  -0.510   0.909  1.00  0.00     0.102 C 
HETATM   13  H9  UNL     1       1.531  -3.814  -2.321  1.00  0.00     0.193 HD
ENDROOT
BRANCH  10  14
HETATM   14  C10 UNL     1      -0.603  -3.310   1.584  1.00  0.00     0.272 C 
HETATM   15  O5  UNL     1      -0.800  -4.516   1.797  1.00  0.00    -0.301 OA
ENDBRANCH  10  14
BRANCH  12  16
HETATM   16  N2  UNL     1      -1.266  -0.368   2.032  1.00  0.00    -0.365 N 
HETATM   17  H13 UNL     1      -1.123  -0.773   2.993  1.00  0.00     0.165 HD
BRANCH  16  18
HETATM   18  C13 UNL     1      -2.459   0.382   1.876  1.00  0.00     0.035 A 
HETATM   19  C14 UNL     1      -3.633   0.009   1.437  1.00  0.00    -0.052 A 
HETATM   20  C15 UNL     1      -4.016  -1.353   0.976  1.00  0.00     0.046 C 
HETATM   21  C16 UNL     1      -4.547   1.203   1.477  1.00  0.00     0.082 A 
HETATM   22  C17 UNL     1      -3.657   2.273   2.012  1.00  0.00    -0.005 A 
HETATM   23 BR1  UNL     1      -4.360   4.047   2.262  1.00  0.00    -0.055 Br
HETATM   24  C18 UNL     1      -2.462   1.791   2.237  1.00  0.00     0.044 A 
ENDBRANCH  16  18
ENDBRANCH  12  16
BRANCH   6  25
HETATM   25  O3  UNL     1       2.208   2.416  -1.782  1.00  0.00    -0.353 OA
HETATM   26  C7  UNL     1       1.526   3.378  -1.011  1.00  0.00     0.210 C 
ENDBRANCH   6  25
BRANCH   1  27
HETATM   27  O1  UNL     1       4.722   1.101  -1.049  1.00  0.00    -0.351 OA
HETATM   28  C1  UNL     1       4.917   2.483  -0.984  1.00  0.00     0.210 C 
ENDBRANCH   1  27
TORSDOF 5
