REMARK  6 active torsions:
REMARK  status: ('A' for Active; 'I' for Inactive)
REMARK    1  A    between atoms: O1_2  and  C2_3 
REMARK    2  A    between atoms: C5_6  and  N1_7 
REMARK    3  A    between atoms: N1_7  and  C6_8 
REMARK    4  A    between atoms: C12_16  and  C13_17 
REMARK    5  A    between atoms: C13_17  and  O3_19 
REMARK    6  A    between atoms: C16_24  and  O4_25 
ROOT
HETATM    1  C2  UNL     1      -2.005   0.177   1.983  1.00  0.00     0.064 C 
HETATM    2  C3  UNL     1      -0.700   0.060   1.681  1.00  0.00     0.036 C 
HETATM    3  C4  UNL     1       0.551   0.224   0.878  1.00  0.00     0.033 C 
HETATM    4  C5  UNL     1       0.649   0.847  -0.243  1.00  0.00     0.048 C 
HETATM    5  C12 UNL     1       0.193   1.700  -1.291  1.00  0.00     0.069 C 
HETATM    6  C14 UNL     1      -1.025   2.275  -1.180  1.00  0.00     0.178 C 
HETATM    7  N2  UNL     1      -2.247   3.032  -1.376  1.00  0.00    -0.293 NA
HETATM    8  C15 UNL     1      -2.786   3.590  -0.341  1.00  0.00    -0.008 C 
HETATM    9  B1  UNL     1      -2.783   2.556   1.075  1.00  0.00     0.255 B 
HETATM   10  C16 UNL     1      -2.635   0.882   0.839  1.00  0.00     0.131 C 
ENDROOT
BRANCH   4  11
HETATM   11  N1  UNL     1       2.062   0.649  -0.518  1.00  0.00    -0.356 N 
HETATM   12  H6  UNL     1       2.824   1.319  -0.750  1.00  0.00     0.166 HD
BRANCH  11  13
HETATM   13  C6  UNL     1       2.821  -0.547  -0.529  1.00  0.00     0.034 A 
HETATM   14  C7  UNL     1       3.586  -0.900   0.570  1.00  0.00     0.032 A 
HETATM   15  C8  UNL     1       4.306  -2.090   0.521  1.00  0.00     0.046 A 
HETATM   16  C9  UNL     1       4.241  -2.879  -0.601  1.00  0.00     0.138 A 
HETATM   17  F1  UNL     1       4.957  -4.046  -0.621  1.00  0.00    -0.204 F 
HETATM   18  C10 UNL     1       3.476  -2.550  -1.728  1.00  0.00     0.074 A 
HETATM   19 CL1  UNL     1       3.397  -3.551  -3.140  1.00  0.00    -0.081 Cl
HETATM   20  C11 UNL     1       2.774  -1.365  -1.652  1.00  0.00     0.056 A 
ENDBRANCH  11  13
ENDBRANCH   4  11
BRANCH   5  21
HETATM   21  C13 UNL     1       0.994   1.984  -2.511  1.00  0.00     0.176 C 
HETATM   22  O2  UNL     1       2.126   1.607  -2.896  1.00  0.00    -0.646 OA
BRANCH  21  23
HETATM   23  O3  UNL     1       0.539   2.806  -3.513  1.00  0.00    -0.773 OA
HETATM   24  H10 UNL     1       1.105   3.525  -3.943  1.00  0.00     0.167 HD
ENDBRANCH  21  23
ENDBRANCH   5  21
BRANCH   1  25
HETATM   25  O1  UNL     1      -2.934  -0.146   2.979  1.00  0.00    -0.359 OA
HETATM   26  C1  UNL     1      -2.764  -1.235   3.856  1.00  0.00     0.209 C 
ENDBRANCH   1  25
BRANCH  10  27
HETATM   27  O4  UNL     1      -3.941   0.278   0.725  1.00  0.00    -0.394 OA
HETATM   28  C17 UNL     1      -4.074  -0.415  -0.456  1.00  0.00     0.201 C 
ENDBRANCH  10  27
TORSDOF 6
