REMARK  9 active torsions:
REMARK  status: ('A' for Active; 'I' for Inactive)
REMARK    1  A    between atoms: O1_2  and  C2_3 
REMARK    2  A    between atoms: C4_5  and  N1_6 
REMARK    3  A    between atoms: N1_6  and  C5_7 
REMARK    4  A    between atoms: C6_8  and  C7_9 
REMARK    5  A    between atoms: C7_9  and  O2_10 
REMARK    6  A    between atoms: C9_12  and  C10_13 
REMARK    7  A    between atoms: C12_15  and  N2_16 
REMARK    8  A    between atoms: C15_20  and  P1_21 
REMARK    9  A    between atoms: C16_22  and  O3_23 
ROOT
HETATM    1  C2  UNL     1      -0.174  -2.525   0.480  1.00  0.00     0.104 C 
HETATM    2  C3  UNL     1      -1.430  -2.006   0.724  1.00  0.00     0.072 C 
HETATM    3  C4  UNL     1      -1.917  -0.743   0.453  1.00  0.00     0.070 C 
HETATM    4  C8  UNL     1      -1.117   0.389   0.275  1.00  0.00     0.041 C 
HETATM    5  C9  UNL     1       0.264   0.539   0.054  1.00  0.00    -0.031 C 
HETATM    6  C15 UNL     1       1.082  -0.507  -0.317  1.00  0.00     0.007 C 
HETATM    7  C16 UNL     1       0.963  -1.856   0.011  1.00  0.00     0.112 C 
ENDROOT
BRANCH   5   8
HETATM    8  C10 UNL     1       0.811   1.867   0.241  1.00  0.00     0.069 A 
HETATM    9  C11 UNL     1       1.743   2.394  -0.737  1.00  0.00     0.017 A 
HETATM   10  C12 UNL     1       2.856   2.737  -0.055  1.00  0.00     0.044 A 
HETATM   11  C13 UNL     1       2.706   2.453   1.350  1.00  0.00     0.057 A 
HETATM   12 CL1  UNL     1       3.910   2.741   2.600  1.00  0.00    -0.082 Cl
HETATM   13  C14 UNL     1       1.515   1.938   1.572  1.00  0.00     0.013 A 
BRANCH  10  14
HETATM   14  N2  UNL     1       3.979   3.295  -0.735  1.00  0.00    -0.398 N 
HETATM   15  H11 UNL     1       4.115   4.214  -1.253  1.00  0.00     0.156 HD
HETATM   16  H12 UNL     1       4.941   2.936  -0.891  1.00  0.00     0.156 HD
ENDBRANCH  10  14
ENDBRANCH   5   8
BRANCH   6  17
HETATM   17  P1  UNL     1       2.478   0.009  -1.371  1.00  0.00    -0.103 P 
HETATM   18  H14 UNL     1       3.716  -0.638  -0.992  1.00  0.00     0.059 HD
HETATM   19  H15 UNL     1       2.192  -0.371  -2.746  1.00  0.00     0.059 HD
ENDBRANCH   6  17
BRANCH   3  20
HETATM   20  N1  UNL     1      -3.194  -0.586   0.354  1.00  0.00    -0.198 NA
BRANCH  20  21
HETATM   21  C5  UNL     1      -3.777   0.655   0.082  1.00  0.00     0.037 C 
HETATM   22  C6  UNL     1      -4.287   1.725  -0.137  1.00  0.00    -0.056 C 
BRANCH  22  23
HETATM   23  C7  UNL     1      -4.917   3.018  -0.422  1.00  0.00     0.259 C 
BRANCH  23  24
HETATM   24  O2  UNL     1      -5.805   2.837  -1.485  1.00  0.00    -0.389 OA
HETATM   25  H7  UNL     1      -6.356   2.022  -1.344  1.00  0.00     0.210 HD
ENDBRANCH  23  24
ENDBRANCH  22  23
ENDBRANCH  20  21
ENDBRANCH   3  20
BRANCH   7  26
HETATM   26  O3  UNL     1       2.148  -2.570  -0.169  1.00  0.00    -0.352 OA
HETATM   27  C17 UNL     1       2.386  -3.176  -1.445  1.00  0.00     0.210 C 
ENDBRANCH   7  26
BRANCH   1  28
HETATM   28  O1  UNL     1       0.027  -3.878   0.716  1.00  0.00    -0.353 OA
HETATM   29  C1  UNL     1      -1.072  -4.633   1.192  1.00  0.00     0.210 C 
ENDBRANCH   1  28
TORSDOF 9
