REMARK  8 active torsions:
REMARK  status: ('A' for Active; 'I' for Inactive)
REMARK    1  A    between atoms: O1_2  and  C2_3 
REMARK    2  A    between atoms: C3_4  and  C4_5 
REMARK    3  A    between atoms: C5_6  and  C6_7 
REMARK    4  A    between atoms: C6_7  and  O2_8 
REMARK    5  A    between atoms: C9_12  and  C10_13 
REMARK    6  A    between atoms: C10_13  and  O4_15 
REMARK    7  A    between atoms: C11_16  and  N2_17 
REMARK    8  A    between atoms: N2_17  and  C12_18 
ROOT
HETATM    1  C4  UNL     1      -1.291   0.219  -0.160  1.00  0.00     0.020 A 
HETATM    2  C5  UNL     1      -2.443  -0.379   0.292  1.00  0.00     0.070 A 
HETATM    3  N1  UNL     1      -2.937  -1.503  -0.259  1.00  0.00    -0.261 NA
HETATM    4  C8  UNL     1      -2.339  -2.117  -1.289  1.00  0.00     0.137 A 
HETATM    5  C9  UNL     1      -1.190  -1.500  -1.722  1.00  0.00     0.082 A 
HETATM    6  C11 UNL     1      -0.621  -0.353  -1.215  1.00  0.00     0.063 A 
ENDROOT
BRANCH   6   7
HETATM    7  N2  UNL     1       0.553   0.249  -1.684  1.00  0.00    -0.355 N 
HETATM    8  H13 UNL     1       0.514   0.974  -2.447  1.00  0.00     0.166 HD
BRANCH   7   9
HETATM    9  C12 UNL     1       1.830  -0.095  -1.150  1.00  0.00     0.034 A 
HETATM   10  C13 UNL     1       1.929  -1.040  -0.142  1.00  0.00     0.032 A 
HETATM   11  C14 UNL     1       3.141  -1.430   0.433  1.00  0.00     0.046 A 
HETATM   12  C15 UNL     1       4.279  -0.799  -0.078  1.00  0.00     0.138 A 
HETATM   13  F1  UNL     1       5.497  -1.124   0.428  1.00  0.00    -0.204 F 
HETATM   14  C16 UNL     1       4.224   0.145  -1.080  1.00  0.00     0.074 A 
HETATM   15 CL1  UNL     1       5.700   0.877  -1.652  1.00  0.00    -0.081 Cl
HETATM   16  C17 UNL     1       2.983   0.498  -1.619  1.00  0.00     0.056 A 
ENDBRANCH   7   9
ENDBRANCH   6   7
BRANCH   1  17
HETATM   17  C3  UNL     1      -0.711   1.422   0.411  1.00  0.00     0.040 C 
HETATM   18  C2  UNL     1      -1.103   2.158   1.421  1.00  0.00     0.135 C 
BRANCH  18  19
HETATM   19  O1  UNL     1      -0.609   3.291   2.005  1.00  0.00    -0.368 OA
HETATM   20  C1  UNL     1       0.364   4.135   1.413  1.00  0.00     0.208 C 
ENDBRANCH  18  19
ENDBRANCH   1  17
BRANCH   5  21
HETATM   21  C10 UNL     1      -0.520  -2.145  -2.835  1.00  0.00     0.179 C 
HETATM   22  O3  UNL     1      -0.946  -3.212  -3.401  1.00  0.00    -0.646 OA
BRANCH  21  23
HETATM   23  O4  UNL     1       0.397  -2.399  -3.815  1.00  0.00    -0.773 OA
HETATM   24  H12 UNL     1       1.382  -2.471  -3.592  1.00  0.00     0.167 HD
ENDBRANCH  21  23
ENDBRANCH   5  21
BRANCH   2  25
HETATM   25  C6  UNL     1      -3.201   0.217   1.419  1.00  0.00     0.227 C 
BRANCH  25  26
HETATM   26  O2  UNL     1      -2.518  -0.036   2.610  1.00  0.00    -0.390 OA
HETATM   27  C7  UNL     1      -2.383  -1.404   2.828  1.00  0.00     0.201 C 
ENDBRANCH  25  26
ENDBRANCH   2  25
TORSDOF 8
