REMARK  7 active torsions:
REMARK  status: ('A' for Active; 'I' for Inactive)
REMARK    1  A    between atoms: O1_2  and  C2_3 
REMARK    2  A    between atoms: C5_6  and  N1_7 
REMARK    3  A    between atoms: N1_7  and  C6_8 
REMARK    4  A    between atoms: N2_17  and  C13_18 
REMARK    5  A    between atoms: C14_19  and  C15_20 
REMARK    6  A    between atoms: C15_20  and  O3_22 
REMARK    7  A    between atoms: C17_24  and  O4_25 
ROOT
HETATM    1  C2  UNL     1      -2.361  -1.500   0.666  1.00  0.00     0.102 A 
HETATM    2  C3  UNL     1      -1.092  -1.697   0.987  1.00  0.00     0.054 A 
HETATM    3  C4  UNL     1      -0.144  -0.616   0.732  1.00  0.00     0.012 A 
HETATM    4  C5  UNL     1       1.130  -0.793   1.047  1.00  0.00     0.102 C 
HETATM    5  C12 UNL     1      -0.566   0.648   0.140  1.00  0.00     0.081 A 
HETATM    6  N2  UNL     1       0.239   1.628  -0.102  1.00  0.00    -0.197 NA
HETATM    7  C16 UNL     1      -2.006   0.715  -0.162  1.00  0.00     0.073 A 
HETATM    8  C17 UNL     1      -2.855  -0.269   0.074  1.00  0.00     0.103 A 
ENDROOT
BRANCH   4   9
HETATM    9  N1  UNL     1       2.246   0.049   0.919  1.00  0.00    -0.365 N 
HETATM   10  H6  UNL     1       2.075   1.005   1.278  1.00  0.00     0.165 HD
BRANCH   9  11
HETATM   11  C6  UNL     1       3.495  -0.348   0.357  1.00  0.00     0.033 A 
HETATM   12  C7  UNL     1       3.646  -1.628  -0.096  1.00  0.00     0.032 A 
HETATM   13  C8  UNL     1       4.869  -1.973  -0.633  1.00  0.00     0.046 A 
HETATM   14  C9  UNL     1       5.918  -1.091  -0.724  1.00  0.00     0.138 A 
HETATM   15  F1  UNL     1       7.139  -1.386  -1.244  1.00  0.00    -0.204 F 
HETATM   16  C10 UNL     1       5.726   0.204  -0.252  1.00  0.00     0.074 A 
HETATM   17 CL1  UNL     1       7.040   1.364  -0.349  1.00  0.00    -0.081 Cl
HETATM   18  C11 UNL     1       4.502   0.591   0.298  1.00  0.00     0.056 A 
ENDBRANCH   9  11
ENDBRANCH   4   9
BRANCH   1  19
HETATM   19  O1  UNL     1      -3.318  -2.480   0.879  1.00  0.00    -0.353 OA
HETATM   20  C1  UNL     1      -3.779  -2.833   2.170  1.00  0.00     0.210 C 
ENDBRANCH   1  19
BRANCH   6  21
HETATM   21  C13 UNL     1      -0.320   2.785  -0.677  1.00  0.00     0.047 C 
HETATM   22  C14 UNL     1      -0.804   3.786  -1.151  1.00  0.00     0.027 C 
BRANCH  22  23
HETATM   23  C15 UNL     1      -1.387   4.983  -1.722  1.00  0.00     0.227 C 
HETATM   24  O2  UNL     1      -1.797   4.973  -2.932  1.00  0.00    -0.639 OA
BRANCH  23  25
HETATM   25  O3  UNL     1      -1.519   6.167  -0.983  1.00  0.00    -0.767 OA
HETATM   26  H10 UNL     1      -1.684   7.023  -1.523  1.00  0.00     0.168 HD
ENDBRANCH  23  25
ENDBRANCH  22  23
ENDBRANCH   6  21
BRANCH   8  27
HETATM   27  O4  UNL     1      -4.187  -0.079  -0.258  1.00  0.00    -0.353 OA
HETATM   28  C18 UNL     1      -4.732  -0.803  -1.346  1.00  0.00     0.210 C 
ENDBRANCH   8  27
TORSDOF 7
