REMARK  5 active torsions:
REMARK  status: ('A' for Active; 'I' for Inactive)
REMARK    1  A    between atoms: O1_2  and  C2_3 
REMARK    2  A    between atoms: C3_4  and  C4_5 
REMARK    3  A    between atoms: C4_5  and  C5_6 
REMARK    4  A    between atoms: C7_10  and  C8_11 
REMARK    5  A    between atoms: C8_11  and  O3_13 
ROOT
HETATM    1  C5  UNL     1       1.555  -0.494  -1.133  1.00  0.00     0.007 C 
HETATM    2  N1  UNL     1       0.692   0.443  -0.997  1.00  0.00    -0.213 NA
HETATM    3  N2  UNL     1      -0.593   0.408  -0.520  1.00  0.00    -0.218 NA
HETATM    4  C6  UNL     1      -1.773   1.017  -1.147  1.00  0.00     0.092 C 
HETATM    5  C7  UNL     1      -2.739   1.309  -0.256  1.00  0.00     0.053 C 
HETATM    6  C9  UNL     1      -2.522   0.991   1.203  1.00  0.00     0.247 C 
HETATM    7  O4  UNL     1      -3.500   0.102   1.633  1.00  0.00    -0.276 OA
HETATM    8  N3  UNL     1      -3.047  -0.697   2.626  1.00  0.00    -0.278 N 
HETATM    9  C10 UNL     1      -2.187  -1.670   2.037  1.00  0.00     0.114 C 
HETATM   10  C11 UNL     1      -1.698  -2.861   1.672  1.00  0.00     0.022 C 
HETATM   11  C12 UNL     1      -0.843  -3.899   1.082  1.00  0.00     0.045 C 
HETATM   12  C13 UNL     1       0.256  -3.630   0.397  1.00  0.00     0.138 C 
HETATM   13  F1  UNL     1       0.403  -5.006   0.256  1.00  0.00    -0.204 F 
HETATM   14  C14 UNL     1       1.410  -3.155  -0.365  1.00  0.00     0.074 C 
HETATM   15 CL1  UNL     1       2.724  -4.342  -0.738  1.00  0.00    -0.081 Cl
HETATM   16  C15 UNL     1       1.616  -1.927  -0.794  1.00  0.00     0.047 C 
HETATM   17  H8  UNL     1      -0.275   0.895  -1.387  1.00  0.00     0.262 HD
HETATM   18  H13 UNL     1      -2.754  -1.257   3.473  1.00  0.00     0.193 HD
ENDROOT
BRANCH   1  19
HETATM   19  C4  UNL     1       2.756   0.220  -1.715  1.00  0.00     0.081 C 
BRANCH  19  20
HETATM   20  C3  UNL     1       2.524   1.626  -1.997  1.00  0.00     0.003 C 
HETATM   21  C2  UNL     1       3.200   2.568  -1.405  1.00  0.00     0.130 C 
BRANCH  21  22
HETATM   22  O1  UNL     1       4.150   2.135  -0.493  1.00  0.00    -0.368 OA
HETATM   23  C1  UNL     1       4.340   2.654   0.797  1.00  0.00     0.208 C 
ENDBRANCH  21  22
ENDBRANCH  19  20
ENDBRANCH   1  19
BRANCH   5  24
HETATM   24  C8  UNL     1      -4.033   1.916  -0.527  1.00  0.00     0.175 C 
HETATM   25  O2  UNL     1      -4.428   2.263  -1.684  1.00  0.00    -0.646 OA
BRANCH  24  26
HETATM   26  O3  UNL     1      -4.991   2.193   0.415  1.00  0.00    -0.773 OA
HETATM   27  H10 UNL     1      -5.998   2.140   0.197  1.00  0.00     0.167 HD
ENDBRANCH  24  26
ENDBRANCH   5  24
TORSDOF 5
