REMARK  8 active torsions:
REMARK  status: ('A' for Active; 'I' for Inactive)
REMARK    1  A    between atoms: O1_2  and  C2_3 
REMARK    2  A    between atoms: C5_6  and  O2_7 
REMARK    3  A    between atoms: O2_7  and  C6_8 
REMARK    4  A    between atoms: C6_8  and  N1_9 
REMARK    5  A    between atoms: C6_8  and  C13_18 
REMARK    6  A    between atoms: N1_9  and  C7_10 
REMARK    7  A    between atoms: C13_18  and  C15_21 
REMARK    8  A    between atoms: C15_21  and  O4_23 
ROOT
HETATM    1  C6  UNL     1      -0.793   0.113  -0.322  1.00  0.00     0.245 C 
ENDROOT
BRANCH   1   2
HETATM    2  O2  UNL     1       0.599   0.291  -0.163  1.00  0.00    -0.356 OA
BRANCH   2   3
HETATM    3  C5  UNL     1       1.316  -0.528  -1.029  1.00  0.00     0.150 A 
HETATM    4  C4  UNL     1       2.099   0.326  -1.972  1.00  0.00     0.066 A 
HETATM    5  C3  UNL     1       3.579   0.068  -1.906  1.00  0.00     0.013 A 
HETATM    6  C2  UNL     1       4.282  -0.772  -1.165  1.00  0.00     0.064 A 
HETATM    7  C17 UNL     1       3.490  -1.591  -0.256  1.00  0.00     0.035 A 
HETATM    8  C16 UNL     1       2.177  -1.455  -0.223  1.00  0.00     0.008 A 
BRANCH   6   9
HETATM    9  O1  UNL     1       5.664  -0.896  -1.219  1.00  0.00    -0.356 OA
HETATM   10  C1  UNL     1       6.554  -0.730  -0.165  1.00  0.00     0.210 C 
ENDBRANCH   6   9
ENDBRANCH   2   3
ENDBRANCH   1   2
BRANCH   1  11
HETATM   11  N1  UNL     1      -1.342  -0.234   0.974  1.00  0.00    -0.362 N 
HETATM   12  H9  UNL     1      -0.709  -0.273   1.823  1.00  0.00     0.162 HD
BRANCH  11  13
HETATM   13  C7  UNL     1      -2.699  -0.554   1.311  1.00  0.00     0.031 A 
HETATM   14  C8  UNL     1      -3.146  -0.867   2.591  1.00  0.00     0.032 A 
HETATM   15  C9  UNL     1      -4.479  -1.161   2.779  1.00  0.00     0.046 A 
HETATM   16  C10 UNL     1      -5.415  -1.167   1.769  1.00  0.00     0.138 A 
HETATM   17  F1  UNL     1      -6.699  -1.477   2.099  1.00  0.00    -0.204 F 
HETATM   18  C11 UNL     1      -4.986  -0.861   0.508  1.00  0.00     0.074 A 
HETATM   19 CL1  UNL     1      -6.182  -0.873  -0.762  1.00  0.00    -0.081 Cl
HETATM   20  C12 UNL     1      -3.647  -0.561   0.292  1.00  0.00     0.056 A 
ENDBRANCH  11  13
ENDBRANCH   1  11
BRANCH   1  21
HETATM   21  C13 UNL     1      -1.297   1.498  -0.650  1.00  0.00     0.145 C 
HETATM   22  C14 UNL     1      -1.893   1.849  -1.778  1.00  0.00     0.440 C 
HETATM   23  F2  UNL     1      -2.332   3.104  -2.036  1.00  0.00    -0.454 F 
BRANCH  21  24
HETATM   24  C15 UNL     1      -1.024   2.423   0.473  1.00  0.00     0.157 C 
HETATM   25  O3  UNL     1      -0.465   2.185   1.583  1.00  0.00    -0.649 OA
BRANCH  24  26
HETATM   26  O4  UNL     1      -1.359   3.765   0.478  1.00  0.00    -0.776 OA
HETATM   27  H14 UNL     1      -1.860   4.197   1.246  1.00  0.00     0.167 HD
ENDBRANCH  24  26
ENDBRANCH  21  24
ENDBRANCH   1  21
TORSDOF 8
