REMARK  7 active torsions:
REMARK  status: ('A' for Active; 'I' for Inactive)
REMARK    1  A    between atoms: C2_2  and  O1_3 
REMARK    2  A    between atoms: O1_3  and  C3_4 
REMARK    3  A    between atoms: C3_4  and  C4_5 
REMARK    4  A    between atoms: C4_5  and  C5_6 
REMARK    5  A    between atoms: C6_7  and  C7_8 
REMARK    6  A    between atoms: C7_8  and  N1_9 
REMARK    7  A    between atoms: N4_18  and  C14_19 
ROOT
HETATM    1  C5  UNL     1      -0.079  -0.193  -0.416  1.00  0.00     0.125 A 
HETATM    2  C6  UNL     1      -1.448  -0.694  -0.015  1.00  0.00    -0.017 A 
HETATM    3  C10 UNL     1      -2.230   0.236   0.563  1.00  0.00     0.014 A 
HETATM    4  C11 UNL     1      -3.605   0.138   1.087  1.00  0.00     0.193 A 
HETATM    5  N2  UNL     1      -3.960   1.449   1.641  1.00  0.00    -0.278 NA
HETATM    6  C12 UNL     1      -3.239   2.469   1.634  1.00  0.00     0.229 A 
HETATM    7  N3  UNL     1      -1.949   2.545   1.100  1.00  0.00    -0.224 NA
HETATM    8  C13 UNL     1      -1.414   1.475   0.560  1.00  0.00     0.140 A 
HETATM    9  N4  UNL     1      -0.121   1.218  -0.060  1.00  0.00    -0.322 N 
ENDROOT
BRANCH   9  10
HETATM   10  C14 UNL     1       0.715   2.369  -0.170  1.00  0.00     0.038 A 
HETATM   11  C15 UNL     1       1.681   2.937   0.629  1.00  0.00     0.033 A 
HETATM   12  C16 UNL     1       2.312   4.116   0.239  1.00  0.00     0.046 A 
HETATM   13  C17 UNL     1       1.940   4.688  -0.959  1.00  0.00     0.138 A 
HETATM   14  F1  UNL     1       2.605   5.842  -1.282  1.00  0.00    -0.204 F 
HETATM   15  C18 UNL     1       0.980   4.164  -1.796  1.00  0.00     0.074 A 
HETATM   16 CL1  UNL     1       0.606   5.013  -3.300  1.00  0.00    -0.081 Cl
HETATM   17  C19 UNL     1       0.371   2.990  -1.381  1.00  0.00     0.056 A 
ENDBRANCH   9  10
BRANCH   1  18
HETATM   18  C4  UNL     1       0.910  -0.996   0.370  1.00  0.00     0.056 C 
BRANCH  18  19
HETATM   19  C3  UNL     1       2.371  -0.665   0.090  1.00  0.00     0.170 C 
BRANCH  19  20
HETATM   20  O1  UNL     1       3.175  -1.471   0.883  1.00  0.00    -0.391 OA
BRANCH  20  21
HETATM   21  C2  UNL     1       4.521  -1.283   0.765  1.00  0.00     0.163 C 
HETATM   22  C1  UNL     1       5.117  -1.540  -0.591  1.00  0.00     0.033 C 
ENDBRANCH  20  21
ENDBRANCH  19  20
ENDBRANCH  18  19
ENDBRANCH   1  18
BRANCH   2  23
HETATM   23  C7  UNL     1      -1.619  -2.098  -0.368  1.00  0.00     0.308 C 
BRANCH  23  24
HETATM   24  N1  UNL     1      -2.943  -2.648  -0.115  1.00  0.00     0.083 N 
HETATM   25  C8  UNL     1      -2.868  -4.125  -0.147  1.00  0.00     0.309 C 
HETATM   26  C9  UNL     1      -3.855  -2.252  -1.212  1.00  0.00     0.309 C 
ENDBRANCH  23  24
ENDBRANCH   2  23
TORSDOF 7
