REMARK  5 active torsions:
REMARK  status: ('A' for Active; 'I' for Inactive)
REMARK    1  A    between atoms: C4_4  and  C5_5 
REMARK       I    between atoms: C5_5  and  N1_7 
REMARK    2  A    between atoms: N1_7  and  C6_8 
REMARK    3  A    between atoms: C11_15  and  N4_16 
REMARK    4  A    between atoms: N4_16  and  C12_17 
REMARK    5  A    between atoms: N5_30  and  O2_31 
ROOT
HETATM    1  C6  UNL     1       0.572  -2.128  -0.054  1.00  0.00     0.035 A 
HETATM    2  C7  UNL     1       0.601  -3.388  -0.617  1.00  0.00     0.032 A 
HETATM    3  C8  UNL     1       1.814  -3.864  -1.063  1.00  0.00     0.035 A 
HETATM    4  C9  UNL     1       2.943  -3.086  -0.938  1.00  0.00     0.072 A 
HETATM    5  N2  UNL     1       4.096  -3.626  -1.401  1.00  0.00    -0.241 NA
HETATM    6  C10 UNL     1       5.219  -2.929  -1.311  1.00  0.00     0.236 A 
HETATM    7  N3  UNL     1       5.168  -1.730  -0.770  1.00  0.00    -0.224 NA
HETATM    8  C11 UNL     1       4.108  -1.085  -0.279  1.00  0.00     0.142 A 
HETATM    9  C18 UNL     1       2.967  -1.824  -0.384  1.00  0.00     0.041 A 
HETATM   10  C19 UNL     1       1.725  -1.407   0.041  1.00  0.00     0.047 A 
ENDROOT
BRANCH   1  11
HETATM   11  N1  UNL     1      -0.697  -1.668   0.396  1.00  0.00    -0.327 N 
HETATM   12  C5  UNL     1      -1.415  -0.969  -0.610  1.00  0.00     0.226 C 
HETATM   13  O1  UNL     1      -1.070  -0.724  -1.796  1.00  0.00    -0.273 OA
HETATM   14  H8  UNL     1      -1.147  -1.779   1.343  1.00  0.00     0.169 HD
BRANCH  12  15
HETATM   15  C4  UNL     1      -2.761  -0.408  -0.342  1.00  0.00     0.082 C 
HETATM   16  C3  UNL     1      -3.277   0.277  -1.590  1.00  0.00     0.041 C 
HETATM   17  C2  UNL     1      -4.708   0.690  -1.354  1.00  0.00     0.106 C 
HETATM   18  C1  UNL     1      -5.600  -0.498  -1.654  1.00  0.00     0.034 C 
HETATM   19  N5  UNL     1      -4.975   1.335  -0.128  1.00  0.00    -0.283 N 
HETATM   20  C21 UNL     1      -4.222   0.974   1.014  1.00  0.00     0.048 C 
HETATM   21  C20 UNL     1      -2.757   0.656   0.740  1.00  0.00     0.046 C 
HETATM   22  C22 UNL     1      -4.176   2.203   1.935  1.00  0.00     0.040 C 
HETATM   23  C23 UNL     1      -4.841  -0.123   1.854  1.00  0.00     0.040 C 
BRANCH  19  24
HETATM   24  O2  UNL     1      -5.408   2.597  -0.188  1.00  0.00    -0.291 OA
HETATM   25  H26 UNL     1      -5.280   2.950  -1.115  1.00  0.00     0.244 HD
ENDBRANCH  19  24
ENDBRANCH  12  15
ENDBRANCH   1  11
BRANCH   8  26
HETATM   26  N4  UNL     1       4.063   0.201   0.298  1.00  0.00    -0.340 N 
HETATM   27  H12 UNL     1       3.178   0.604   0.654  1.00  0.00     0.167 HD
BRANCH  26  28
HETATM   28  C12 UNL     1       5.132   1.107   0.484  1.00  0.00     0.035 A 
HETATM   29  C13 UNL     1       6.415   0.842   0.075  1.00  0.00     0.029 A 
HETATM   30  C14 UNL     1       7.475   1.699   0.241  1.00  0.00     0.004 A 
HETATM   31  C15 UNL     1       7.298   2.914   0.850  1.00  0.00     0.024 A 
HETATM   32  C16 UNL     1       6.028   3.228   1.279  1.00  0.00     0.036 A 
HETATM   33 CL1  UNL     1       5.725   4.753   2.061  1.00  0.00    -0.084 Cl
HETATM   34  C17 UNL     1       5.012   2.338   1.088  1.00  0.00     0.053 A 
ENDBRANCH  26  28
ENDBRANCH   8  26
TORSDOF 5
