REMARK  5 active torsions:
REMARK  status: ('A' for Active; 'I' for Inactive)
REMARK    1  A    between atoms: C5_5  and  C6_6 
REMARK       I    between atoms: C6_6  and  N1_8 
REMARK    2  A    between atoms: N1_8  and  C7_9 
REMARK    3  A    between atoms: C10_14  and  N4_15 
REMARK    4  A    between atoms: N4_15  and  C11_16 
REMARK    5  A    between atoms: N5_28  and  O2_29 
ROOT
HETATM    1  C7  UNL     1       1.425  -0.093   0.684  1.00  0.00     0.123 A 
HETATM    2  C8  UNL     1       1.851  -0.957   1.870  1.00  0.00     0.146 A 
HETATM    3  N2  UNL     1       2.556  -0.366   2.949  1.00  0.00    -0.275 NA
HETATM    4  C9  UNL     1       3.764   0.043   2.820  1.00  0.00     0.229 A 
HETATM    5  N3  UNL     1       4.491  -0.059   1.602  1.00  0.00    -0.229 NA
HETATM    6  C10 UNL     1       3.884  -0.592   0.586  1.00  0.00     0.114 A 
HETATM    7  C17 UNL     1       2.513  -1.097   0.577  1.00  0.00     0.107 A 
ENDROOT
BRANCH   1   8
HETATM    8  N1  UNL     1       0.093  -0.328   0.223  1.00  0.00    -0.353 N 
HETATM    9  C6  UNL     1      -0.776   0.776  -0.039  1.00  0.00     0.222 C 
HETATM   10  O1  UNL     1      -0.336   1.940   0.147  1.00  0.00    -0.273 OA
HETATM   11  H10 UNL     1      -0.134  -1.352   0.114  1.00  0.00     0.163 HD
BRANCH   9  12
HETATM   12  C5  UNL     1      -2.143   0.415  -0.515  1.00  0.00     0.082 C 
HETATM   13  C4  UNL     1      -2.763  -0.419   0.558  1.00  0.00     0.046 C 
HETATM   14  C2  UNL     1      -4.192  -0.795   0.263  1.00  0.00     0.048 C 
HETATM   15  C1  UNL     1      -4.129  -2.014  -0.649  1.00  0.00     0.040 C 
HETATM   16  C3  UNL     1      -4.947  -1.189   1.507  1.00  0.00     0.040 C 
HETATM   17  N5  UNL     1      -4.927   0.197  -0.432  1.00  0.00    -0.278 N 
HETATM   18  C19 UNL     1      -4.403   1.528  -0.390  1.00  0.00     0.048 C 
HETATM   19  C18 UNL     1      -2.947   1.662  -0.689  1.00  0.00     0.046 C 
HETATM   20  C20 UNL     1      -4.712   2.244   0.903  1.00  0.00     0.040 C 
HETATM   21  C21 UNL     1      -5.169   2.306  -1.470  1.00  0.00     0.040 C 
BRANCH  17  22
HETATM   22  O2  UNL     1      -5.375  -0.177  -1.650  1.00  0.00    -0.291 OA
HETATM   23  H28 UNL     1      -6.357   0.024  -1.702  1.00  0.00     0.244 HD
ENDBRANCH  17  22
ENDBRANCH   9  12
ENDBRANCH   1   8
BRANCH   6  24
HETATM   24  N4  UNL     1       4.639  -0.679  -0.615  1.00  0.00    -0.344 N 
HETATM   25  H14 UNL     1       4.222  -0.888  -1.569  1.00  0.00     0.167 HD
BRANCH  24  26
HETATM   26  C11 UNL     1       6.048  -0.496  -0.685  1.00  0.00     0.035 A 
HETATM   27  C12 UNL     1       6.761  -1.665  -0.516  1.00  0.00     0.029 A 
HETATM   28  C13 UNL     1       8.155  -1.637  -0.561  1.00  0.00     0.004 A 
HETATM   29  C14 UNL     1       8.829  -0.432  -0.776  1.00  0.00     0.024 A 
HETATM   30  C15 UNL     1       8.100   0.718  -0.942  1.00  0.00     0.036 A 
HETATM   31 CL1  UNL     1       8.853   2.262  -1.215  1.00  0.00    -0.084 Cl
HETATM   32  C16 UNL     1       6.711   0.687  -0.897  1.00  0.00     0.053 A 
ENDBRANCH  24  26
ENDBRANCH   6  24
TORSDOF 5
