REMARK  8 active torsions:
REMARK  status: ('A' for Active; 'I' for Inactive)
REMARK    1  A    between atoms: C2_2  and  O1_3 
REMARK    2  A    between atoms: C2_2  and  C4_5 
REMARK    3  A    between atoms: C4_5  and  O2_6 
REMARK    4  A    between atoms: C4_5  and  C6_8 
REMARK    5  A    between atoms: C8_10  and  N1_11 
REMARK    6  A    between atoms: N1_11  and  C9_12 
REMARK    7  A    between atoms: C15_20  and  C16_21 
REMARK    8  A    between atoms: C16_21  and  O4_23 
ROOT
HETATM    1  C6  UNL     1      -1.495  -0.626  -0.218  1.00  0.00     0.071 A 
HETATM    2  C7  UNL     1      -0.267  -0.568  -0.785  1.00  0.00     0.061 A 
HETATM    3  C8  UNL     1       0.842  -0.848  -0.013  1.00  0.00     0.053 A 
HETATM    4  C15 UNL     1       0.580  -1.169   1.299  1.00  0.00     0.081 A 
HETATM    5  C17 UNL     1      -0.673  -1.225   1.865  1.00  0.00     0.137 A 
HETATM    6  N2  UNL     1      -1.714  -0.943   1.069  1.00  0.00    -0.261 NA
ENDROOT
BRANCH   3   7
HETATM    7  N1  UNL     1       2.152  -0.812  -0.528  1.00  0.00    -0.355 N 
HETATM    8  H11 UNL     1       2.194  -1.511  -1.276  1.00  0.00     0.166 HD
BRANCH   7   9
HETATM    9  C9  UNL     1       3.298  -0.039  -0.203  1.00  0.00     0.034 A 
HETATM   10  C10 UNL     1       4.492  -0.282  -0.848  1.00  0.00     0.032 A 
HETATM   11  C11 UNL     1       5.572   0.494  -0.507  1.00  0.00     0.046 A 
HETATM   12  C12 UNL     1       5.563   1.502   0.434  1.00  0.00     0.138 A 
HETATM   13  F1  UNL     1       6.708   2.188   0.669  1.00  0.00    -0.204 F 
HETATM   14  C13 UNL     1       4.367   1.749   1.083  1.00  0.00     0.074 A 
HETATM   15 CL1  UNL     1       4.299   3.006   2.275  1.00  0.00    -0.081 Cl
HETATM   16  C14 UNL     1       3.261   0.970   0.747  1.00  0.00     0.056 A 
ENDBRANCH   7   9
ENDBRANCH   3   7
BRANCH   4  17
HETATM   17  C16 UNL     1       1.638  -1.502   2.242  1.00  0.00     0.179 C 
HETATM   18  O3  UNL     1       1.565  -1.811   3.457  1.00  0.00    -0.646 OA
BRANCH  17  19
HETATM   19  O4  UNL     1       2.956  -1.693   2.549  1.00  0.00    -0.773 OA
HETATM   20  H15 UNL     1       3.571  -2.411   2.144  1.00  0.00     0.167 HD
ENDBRANCH  17  19
ENDBRANCH   4  17
BRANCH   1  21
HETATM   21  C4  UNL     1      -2.704  -0.332  -1.024  1.00  0.00     0.228 C 
BRANCH  21  22
HETATM   22  C2  UNL     1      -3.919  -0.172  -0.151  1.00  0.00     0.071 C 
HETATM   23  C1  UNL     1      -4.934  -1.040  -0.304  1.00  0.00     0.049 C 
BRANCH  22  24
HETATM   24  O1  UNL     1      -3.809   0.913   0.737  1.00  0.00    -0.358 OA
HETATM   25  C3  UNL     1      -4.777   1.923   0.824  1.00  0.00     0.209 C 
ENDBRANCH  22  24
ENDBRANCH  21  22
BRANCH  21  26
HETATM   26  O2  UNL     1      -2.475   0.776  -1.791  1.00  0.00    -0.378 OA
HETATM   27  C5  UNL     1      -2.519   0.577  -3.152  1.00  0.00     0.203 C 
ENDBRANCH  21  26
ENDBRANCH   1  21
TORSDOF 8
