REMARK  4 active torsions:
REMARK  status: ('A' for Active; 'I' for Inactive)
REMARK    1  A    between atoms: C2_2  and  O1_3 
REMARK    2  A    between atoms: C2_2  and  C4_5 
REMARK    3  A    between atoms: C4_5  and  O2_19 
REMARK    4  A    between atoms: C5_6  and  C6_7 
ROOT
HETATM    1  C6  UNL     1       0.311  -0.587  -0.058  1.00  0.00     0.074 A 
HETATM    2  N1  UNL     1      -0.044  -1.341   0.995  1.00  0.00    -0.260 NA
HETATM    3  C7  UNL     1       0.716  -1.548   2.079  1.00  0.00     0.119 A 
HETATM    4  C8  UNL     1       1.962  -0.990   2.209  1.00  0.00     0.050 A 
HETATM    5  C9  UNL     1       2.382  -0.202   1.154  1.00  0.00     0.049 A 
HETATM    6  C10 UNL     1       1.558  -0.022   0.065  1.00  0.00     0.058 A 
HETATM    7  C11 UNL     1       1.831   0.811  -1.099  1.00  0.00     0.131 C 
HETATM    8  F1  UNL     1       0.742   1.169  -1.818  1.00  0.00    -0.205 F 
HETATM    9  C12 UNL     1       2.980   1.291  -1.544  1.00  0.00     0.044 C 
HETATM   10  C13 UNL     1       4.304   1.079  -0.927  1.00  0.00     0.020 C 
HETATM   11  C14 UNL     1       4.612   0.676   0.295  1.00  0.00     0.088 C 
HETATM   12  N2  UNL     1       3.699   0.333   1.361  1.00  0.00    -0.365 N 
HETATM   13  H12 UNL     1       3.975   0.464   2.362  1.00  0.00     0.165 HD
ENDROOT
BRANCH   1  14
HETATM   14  C5  UNL     1      -0.625  -0.448  -1.164  1.00  0.00     0.072 C 
HETATM   15  C4  UNL     1      -1.912  -0.075  -1.110  1.00  0.00     0.102 C 
BRANCH  15  16
HETATM   16  C2  UNL     1      -2.668   0.278   0.061  1.00  0.00     0.092 C 
HETATM   17  C1  UNL     1      -3.947   0.634   0.037  1.00  0.00     0.053 C 
BRANCH  16  18
HETATM   18  O1  UNL     1      -2.070   0.262   1.302  1.00  0.00    -0.354 OA
HETATM   19  C3  UNL     1      -2.741   0.450   2.504  1.00  0.00     0.210 C 
ENDBRANCH  16  18
ENDBRANCH  15  16
BRANCH  15  20
HETATM   20  O2  UNL     1      -2.621  -0.015  -2.309  1.00  0.00    -0.353 OA
HETATM   21  C15 UNL     1      -2.714  -1.044  -3.245  1.00  0.00     0.210 C 
ENDBRANCH  15  20
ENDBRANCH   1  14
TORSDOF 4
