REMARK  7 active torsions:
REMARK  status: ('A' for Active; 'I' for Inactive)
REMARK    1  A    between atoms: C2_2  and  C3_3 
REMARK    2  A    between atoms: C5_5  and  N1_6 
REMARK    3  A    between atoms: N1_6  and  C6_7 
REMARK    4  A    between atoms: C6_7  and  C7_8 
REMARK    5  A    between atoms: C8_9  and  C9_10 
REMARK    6  A    between atoms: N4_17  and  O1_18 
REMARK    7  A    between atoms: C16_22  and  C17_23 
ROOT
HETATM    1  C3  UNL     1       0.300  -0.290  -0.137  1.00  0.00     0.081 C 
HETATM    2  C4  UNL     1       0.487   0.995  -0.550  1.00  0.00     0.070 A 
HETATM    3  C5  UNL     1       1.698   1.620  -0.535  1.00  0.00     0.140 A 
HETATM    4  N2  UNL     1       1.834   2.918  -0.831  1.00  0.00    -0.224 NA
HETATM    5  C10 UNL     1       0.825   3.694  -1.160  1.00  0.00     0.235 A 
HETATM    6  N3  UNL     1      -0.387   3.098  -1.185  1.00  0.00    -0.243 NA
HETATM    7  C11 UNL     1      -0.580   1.796  -0.896  1.00  0.00     0.080 A 
HETATM    8  C12 UNL     1      -1.932   1.801  -1.087  1.00  0.00     0.192 C 
HETATM    9  N4  UNL     1      -3.003   0.886  -1.018  1.00  0.00    -0.281 N 
HETATM   10  C14 UNL     1      -3.522   0.838   0.358  1.00  0.00     0.153 C 
HETATM   11  C15 UNL     1      -2.472   0.332   1.282  1.00  0.00     0.054 C 
HETATM   12  C16 UNL     1      -1.838  -0.987   0.913  1.00  0.00     0.130 C 
HETATM   13  O2  UNL     1      -0.961  -0.943  -0.154  1.00  0.00    -0.345 OA
ENDROOT
BRANCH   3  14
HETATM   14  N1  UNL     1       2.875   0.873  -0.291  1.00  0.00    -0.364 N 
HETATM   15  H4  UNL     1       3.398   0.015  -0.126  1.00  0.00     0.162 HD
BRANCH  14  16
HETATM   16  C6  UNL     1       4.097   1.680  -0.271  1.00  0.00     0.215 C 
BRANCH  16  17
HETATM   17  C7  UNL     1       5.316   0.926  -0.129  1.00  0.00    -0.086 C 
HETATM   18  C8  UNL     1       6.318   0.316  -0.025  1.00  0.00    -0.090 C 
BRANCH  18  19
HETATM   19  C9  UNL     1       7.584  -0.426   0.112  1.00  0.00     0.208 C 
HETATM   20 CL1  UNL     1       8.659   0.484   1.222  1.00  0.00    -0.117 Cl
ENDBRANCH  18  19
ENDBRANCH  16  17
ENDBRANCH  14  16
ENDBRANCH   3  14
BRANCH   1  21
HETATM   21  C2  UNL     1       1.422  -1.076   0.356  1.00  0.00     0.029 C 
HETATM   22  C1  UNL     1       1.319  -2.318   0.753  1.00  0.00     0.016 C 
ENDBRANCH   1  21
BRANCH  12  23
HETATM   23  C17 UNL     1      -2.878  -2.051   0.730  1.00  0.00     0.028 C 
HETATM   24  C18 UNL     1      -2.357  -3.402   0.347  1.00  0.00     0.007 C 
ENDBRANCH  12  23
BRANCH   9  25
HETATM   25  O1  UNL     1      -3.549   0.132  -2.040  1.00  0.00    -0.287 OA
HETATM   26  C13 UNL     1      -4.929   0.239  -1.910  1.00  0.00     0.237 C 
ENDBRANCH   9  25
TORSDOF 7
