REMARK  5 active torsions:
REMARK  status: ('A' for Active; 'I' for Inactive)
REMARK    1  A    between atoms: C5_5  and  N1_6 
REMARK    2  A    between atoms: C5_5  and  C6_7 
REMARK    3  A    between atoms: C11_14  and  N4_15 
REMARK    4  A    between atoms: N4_15  and  C12_16 
REMARK    5  A    between atoms: N5_29  and  O1_30 
ROOT
HETATM    1  C6  UNL     1      -0.348   0.627   1.387  1.00  0.00    -0.019 A 
HETATM    2  C7  UNL     1      -0.578   1.532   2.402  1.00  0.00     0.012 A 
HETATM    3  C8  UNL     1       0.496   2.189   2.963  1.00  0.00     0.033 A 
HETATM    4  C9  UNL     1       1.763   1.935   2.509  1.00  0.00     0.072 A 
HETATM    5  N2  UNL     1       2.739   2.623   3.118  1.00  0.00    -0.241 NA
HETATM    6  C10 UNL     1       4.010   2.428   2.726  1.00  0.00     0.236 A 
HETATM    7  N3  UNL     1       4.265   1.558   1.745  1.00  0.00    -0.224 NA
HETATM    8  C11 UNL     1       3.361   0.831   1.085  1.00  0.00     0.142 A 
HETATM    9  C18 UNL     1       2.063   1.044   1.500  1.00  0.00     0.039 A 
HETATM   10  C19 UNL     1       0.953   0.417   0.976  1.00  0.00     0.027 A 
ENDROOT
BRANCH   1  11
HETATM   11  C5  UNL     1      -1.461  -0.111   0.737  1.00  0.00     0.186 C 
HETATM   12  C4  UNL     1      -2.768   0.315   1.308  1.00  0.00     0.079 C 
HETATM   13  C2  UNL     1      -3.970  -0.223   0.613  1.00  0.00     0.050 C 
HETATM   14  C1  UNL     1      -4.436  -1.452   1.374  1.00  0.00     0.040 C 
HETATM   15  C3  UNL     1      -5.118   0.767   0.691  1.00  0.00     0.040 C 
HETATM   16  N5  UNL     1      -3.811  -0.598  -0.737  1.00  0.00    -0.278 N 
HETATM   17  C21 UNL     1      -2.666  -0.265  -1.460  1.00  0.00     0.050 C 
HETATM   18  C20 UNL     1      -1.417   0.069  -0.758  1.00  0.00     0.079 C 
HETATM   19  C22 UNL     1      -2.414  -1.398  -2.461  1.00  0.00     0.040 C 
HETATM   20  C23 UNL     1      -3.022   0.938  -2.348  1.00  0.00     0.040 C 
BRANCH  16  21
HETATM   21  O1  UNL     1      -4.503  -1.661  -1.156  1.00  0.00    -0.291 OA
HETATM   22  H28 UNL     1      -5.383  -1.295  -1.482  1.00  0.00     0.244 HD
ENDBRANCH  16  21
BRANCH  11  23
HETATM   23  N1  UNL     1      -1.342  -1.552   1.016  1.00  0.00     0.092 N 
HETATM   24  H9  UNL     1      -1.654  -2.145   0.232  1.00  0.00     0.314 HD
HETATM   25  H10 UNL     1      -1.819  -1.752   1.919  1.00  0.00     0.314 HD
ENDBRANCH  11  23
ENDBRANCH   1  11
BRANCH   8  26
HETATM   26  N4  UNL     1       3.603  -0.095   0.045  1.00  0.00    -0.340 N 
HETATM   27  H14 UNL     1       2.851  -0.621  -0.398  1.00  0.00     0.167 HD
BRANCH  26  28
HETATM   28  C12 UNL     1       4.855  -0.431  -0.526  1.00  0.00     0.035 A 
HETATM   29  C13 UNL     1       6.025   0.213  -0.198  1.00  0.00     0.029 A 
HETATM   30  C14 UNL     1       7.243  -0.113  -0.745  1.00  0.00     0.004 A 
HETATM   31  C15 UNL     1       7.360  -1.124  -1.672  1.00  0.00     0.024 A 
HETATM   32  C16 UNL     1       6.221  -1.798  -2.032  1.00  0.00     0.036 A 
HETATM   33 CL1  UNL     1       6.270  -3.095  -3.199  1.00  0.00    -0.084 Cl
HETATM   34  C17 UNL     1       5.029  -1.431  -1.455  1.00  0.00     0.053 A 
ENDBRANCH  26  28
ENDBRANCH   8  26
TORSDOF 5
