REMARK  3 active torsions:
REMARK  status: ('A' for Active; 'I' for Inactive)
REMARK    1  A    between atoms: C10_12  and  N3_13 
REMARK       I    between atoms: N3_13  and  C11_14 
REMARK    2  A    between atoms: C11_14  and  C12_16 
REMARK    3  A    between atoms: N4_21  and  O2_22 
ROOT
HETATM    1  N3  UNL     1       0.252  -1.209  -0.139  1.00  0.00    -0.327 N 
HETATM    2  C11 UNL     1      -0.484  -0.577   0.904  1.00  0.00     0.226 C 
HETATM    3  O1  UNL     1       0.073  -0.595   2.026  1.00  0.00    -0.273 OA
HETATM    4  H8  UNL     1       0.034  -1.341  -1.154  1.00  0.00     0.169 HD
ENDROOT
BRANCH   1   5
HETATM    5  C10 UNL     1       1.521  -1.820   0.050  1.00  0.00     0.035 A 
HETATM    6  C9  UNL     1       1.558  -3.173   0.396  1.00  0.00     0.032 A 
HETATM    7  C8  UNL     1       2.788  -3.762   0.579  1.00  0.00     0.035 A 
HETATM    8  C7  UNL     1       3.955  -3.046   0.428  1.00  0.00     0.070 A 
HETATM    9  N2  UNL     1       5.134  -3.661   0.616  1.00  0.00    -0.241 NA
HETATM   10  C22 UNL     1       3.965  -1.698   0.085  1.00  0.00     0.025 A 
HETATM   11  C6  UNL     1       6.245  -2.924   0.458  1.00  0.00     0.234 A 
HETATM   12  N1  UNL     1       6.208  -1.623   0.126  1.00  0.00    -0.240 NA
HETATM   13  C5  UNL     1       5.081  -0.925  -0.083  1.00  0.00     0.081 A 
HETATM   14  C4  UNL     1       5.077   0.472  -0.439  1.00  0.00    -0.005 A 
HETATM   15  C3  UNL     1       4.335   1.651  -0.759  1.00  0.00     0.020 A 
HETATM   16  C23 UNL     1       6.172   1.202  -0.596  1.00  0.00     0.020 A 
HETATM   17  C2  UNL     1       5.412   2.389  -0.918  1.00  0.00    -0.060 A 
HETATM   18  C1  UNL     1       5.647   3.816  -1.276  1.00  0.00     0.048 C 
HETATM   19  C21 UNL     1       2.713  -1.162  -0.085  1.00  0.00     0.045 A 
ENDBRANCH   1   5
BRANCH   2  20
HETATM   20  C12 UNL     1      -1.772  -0.022   0.443  1.00  0.00     0.082 C 
HETATM   21  C13 UNL     1      -2.677  -1.107  -0.133  1.00  0.00     0.041 C 
HETATM   22  C14 UNL     1      -3.868  -0.403  -0.707  1.00  0.00     0.033 C 
HETATM   23  C15 UNL     1      -3.726  -0.505  -2.235  1.00  0.00     0.034 C 
HETATM   24  C16 UNL     1      -5.112  -1.212  -0.401  1.00  0.00     0.034 C 
HETATM   25  N4  UNL     1      -3.994   0.973  -0.424  1.00  0.00    -0.182 NA
HETATM   26  C17 UNL     1      -3.669   1.404   0.896  1.00  0.00     0.033 C 
HETATM   27  C18 UNL     1      -4.909   1.516   1.759  1.00  0.00     0.034 C 
HETATM   28  C19 UNL     1      -3.111   2.814   0.753  1.00  0.00     0.034 C 
HETATM   29  C20 UNL     1      -2.571   0.605   1.551  1.00  0.00     0.041 C 
BRANCH  25  30
HETATM   30  O2  UNL     1      -3.480   1.774  -1.393  1.00  0.00    -0.312 OA
HETATM   31  H18 UNL     1      -4.261   2.144  -1.896  1.00  0.00     0.237 HD
ENDBRANCH  25  30
ENDBRANCH   2  20
TORSDOF 3
