REMARK  4 active torsions:
REMARK  status: ('A' for Active; 'I' for Inactive)
REMARK    1  A    between atoms: C7_7  and  C8_8 
REMARK    2  A    between atoms: C8_8  and  N1_9 
REMARK    3  A    between atoms: C8_8  and  C9_10 
REMARK    4  A    between atoms: N3_28  and  O2_29 
ROOT
HETATM    1  C1  UNL     1      -2.505   1.026  -2.058  1.00  0.00     0.034 C 
HETATM    2  C2  UNL     1      -1.955   1.552  -0.724  1.00  0.00     0.106 C 
HETATM    3  C3  UNL     1      -0.765   0.763  -0.279  1.00  0.00     0.046 C 
HETATM    4  C4  UNL     1      -1.064  -0.335   0.672  1.00  0.00     0.048 C 
HETATM    5  C5  UNL     1       0.265  -0.717   1.343  1.00  0.00     0.047 C 
HETATM    6  C6  UNL     1       1.405  -0.677   0.418  1.00  0.00    -0.016 C 
HETATM    7  C7  UNL     1       2.149  -1.407  -0.437  1.00  0.00    -0.025 C 
HETATM    8  C15 UNL     1       2.122  -2.723  -1.121  1.00  0.00     0.009 C 
HETATM    9  C16 UNL     1       1.445  -3.831  -1.331  1.00  0.00     0.002 C 
HETATM   10  C17 UNL     1       0.244  -4.612  -1.087  1.00  0.00     0.017 C 
HETATM   11  C18 UNL     1      -0.809  -4.202  -0.346  1.00  0.00     0.091 C 
HETATM   12  N2  UNL     1      -0.664  -2.873   0.210  1.00  0.00    -0.337 N 
HETATM   13  C19 UNL     1      -1.415  -1.642  -0.041  1.00  0.00     0.230 C 
HETATM   14  O1  UNL     1      -1.946  -2.513  -0.769  1.00  0.00    -0.272 OA
HETATM   15  C20 UNL     1      -2.024   0.035   1.719  1.00  0.00     0.052 C 
HETATM   16  C21 UNL     1      -3.157   0.911   1.307  1.00  0.00     0.048 C 
HETATM   17  C22 UNL     1      -4.441   0.100   1.077  1.00  0.00     0.040 C 
HETATM   18  C23 UNL     1      -3.503   1.777   2.512  1.00  0.00     0.040 C 
HETATM   19  N3  UNL     1      -2.972   1.777   0.221  1.00  0.00    -0.283 N 
HETATM   20  H21 UNL     1       0.125  -3.193   0.811  1.00  0.00     0.168 HD
ENDROOT
BRANCH   7  21
HETATM   21  C8  UNL     1       3.282  -0.629  -1.081  1.00  0.00     0.283 C 
BRANCH  21  22
HETATM   22  N1  UNL     1       3.200  -0.730  -2.513  1.00  0.00     0.091 N 
HETATM   23  H11 UNL     1       2.873   0.149  -2.968  1.00  0.00     0.314 HD
HETATM   24  H12 UNL     1       4.024  -1.133  -2.975  1.00  0.00     0.314 HD
ENDBRANCH  21  22
BRANCH  21  25
HETATM   25  C9  UNL     1       3.443   0.719  -0.579  1.00  0.00    -0.019 A 
HETATM   26  C10 UNL     1       2.804   1.878  -1.032  1.00  0.00     0.010 A 
HETATM   27  C11 UNL     1       3.013   3.128  -0.498  1.00  0.00     0.002 A 
HETATM   28  C12 UNL     1       3.896   3.263   0.539  1.00  0.00     0.024 A 
HETATM   29  C13 UNL     1       4.581   2.194   1.065  1.00  0.00     0.034 A 
HETATM   30 CL1  UNL     1       5.721   2.303   2.389  1.00  0.00    -0.084 Cl
HETATM   31  C14 UNL     1       4.321   0.973   0.480  1.00  0.00     0.033 A 
ENDBRANCH  21  25
ENDBRANCH   7  21
BRANCH  19  32
HETATM   32  O2  UNL     1      -3.409   3.030   0.348  1.00  0.00    -0.291 OA
HETATM   33  H30 UNL     1      -2.682   3.637   0.051  1.00  0.00     0.244 HD
ENDBRANCH  19  32
TORSDOF 4
