REMARK  6 active torsions:
REMARK  status: ('A' for Active; 'I' for Inactive)
REMARK    1  A    between atoms: C4_4  and  C5_5 
REMARK    2  A    between atoms: C4_4  and  N1_7 
REMARK    3  A    between atoms: N1_7  and  C6_8 
REMARK    4  A    between atoms: C12_16  and  N4_17 
REMARK    5  A    between atoms: N4_17  and  C13_18 
REMARK    6  A    between atoms: N5_29  and  O2_30 
ROOT
HETATM    1  C6  UNL     1      -0.076  -0.416  -0.664  1.00  0.00     0.108 C 
HETATM    2  C7  UNL     1       0.508   0.184   0.621  1.00  0.00     0.011 C 
HETATM    3  C8  UNL     1       1.718   0.935   0.383  1.00  0.00     0.006 C 
HETATM    4  C9  UNL     1       1.428   2.303  -0.368  1.00  0.00     0.193 C 
HETATM    5  N2  UNL     1       1.796   1.674  -1.761  1.00  0.00    -0.270 NA
HETATM    6  C10 UNL     1       2.094   0.371  -1.385  1.00  0.00     0.125 C 
HETATM    7  C11 UNL     1       1.044  -0.660  -1.740  1.00  0.00     0.108 C 
HETATM    8  N3  UNL     1       2.766  -0.396  -0.301  1.00  0.00    -0.216 NA
HETATM    9  C12 UNL     1       3.183   0.470   0.623  1.00  0.00     0.138 C 
ENDROOT
BRANCH   1  10
HETATM   10  N1  UNL     1      -0.933  -1.460  -0.533  1.00  0.00    -0.399 N 
HETATM   11  H8  UNL     1      -0.556  -2.194   0.124  1.00  0.00     0.155 HD
BRANCH  10  12
HETATM   12  C4  UNL     1      -2.337  -1.371  -0.384  1.00  0.00     0.084 C 
HETATM   13  C3  UNL     1      -3.032  -0.760  -1.583  1.00  0.00     0.065 C 
HETATM   14  C2  UNL     1      -3.916   0.399  -1.309  1.00  0.00     0.108 C 
HETATM   15  C1  UNL     1      -5.381  -0.032  -1.333  1.00  0.00     0.034 C 
HETATM   16  N5  UNL     1      -3.644   1.150  -0.147  1.00  0.00    -0.283 N 
HETATM   17  C20 UNL     1      -3.433   0.417   1.053  1.00  0.00     0.050 C 
HETATM   18  C19 UNL     1      -2.922  -0.968   0.913  1.00  0.00     0.070 C 
HETATM   19  C21 UNL     1      -2.576   1.274   1.960  1.00  0.00     0.040 C 
HETATM   20  C22 UNL     1      -4.792   0.425   1.777  1.00  0.00     0.040 C 
BRANCH  16  21
HETATM   21  O2  UNL     1      -2.868   2.232  -0.317  1.00  0.00    -0.291 OA
HETATM   22  H28 UNL     1      -3.506   3.006  -0.448  1.00  0.00     0.244 HD
ENDBRANCH  16  21
BRANCH  12  23
HETATM   23  C5  UNL     1      -2.723  -2.856  -0.480  1.00  0.00     0.262 C 
HETATM   24  O1  UNL     1      -3.796  -3.431  -0.424  1.00  0.00    -0.304 OA
ENDBRANCH  12  23
ENDBRANCH  10  12
ENDBRANCH   1  10
BRANCH   9  25
HETATM   25  N4  UNL     1       4.408   0.584   1.307  1.00  0.00    -0.340 N 
HETATM   26  H15 UNL     1       4.127   1.035   2.240  1.00  0.00     0.167 HD
BRANCH  25  27
HETATM   27  C13 UNL     1       5.584   0.132   0.719  1.00  0.00     0.035 A 
HETATM   28  C14 UNL     1       6.140  -1.084   1.085  1.00  0.00     0.029 A 
HETATM   29  C15 UNL     1       7.335  -1.552   0.524  1.00  0.00     0.004 A 
HETATM   30  C16 UNL     1       7.974  -0.768  -0.428  1.00  0.00     0.024 A 
HETATM   31  C17 UNL     1       7.397   0.444  -0.778  1.00  0.00     0.036 A 
HETATM   32 CL1  UNL     1       8.279   1.382  -1.997  1.00  0.00    -0.084 Cl
HETATM   33  C18 UNL     1       6.219   0.912  -0.227  1.00  0.00     0.053 A 
ENDBRANCH  25  27
ENDBRANCH   9  25
TORSDOF 6
