REMARK  4 active torsions:
REMARK  status: ('A' for Active; 'I' for Inactive)
REMARK    1  A    between atoms: C5_5  and  C6_6 
REMARK       I    between atoms: C6_6  and  N1_8 
REMARK    2  A    between atoms: N1_8  and  C7_9 
REMARK    3  A    between atoms: C12_16  and  N4_17 
REMARK    4  A    between atoms: N5_31  and  O2_32 
ROOT
HETATM    1  C7  UNL     1       1.111  -1.660   0.055  1.00  0.00     0.035 A 
HETATM    2  C8  UNL     1       0.978  -3.029   0.000  1.00  0.00     0.032 A 
HETATM    3  C9  UNL     1       1.984  -3.907  -0.336  1.00  0.00     0.035 A 
HETATM    4  C10 UNL     1       3.225  -3.391  -0.643  1.00  0.00     0.072 A 
HETATM    5  N2  UNL     1       4.276  -4.179  -0.980  1.00  0.00    -0.241 NA
HETATM    6  C11 UNL     1       5.467  -3.627  -1.265  1.00  0.00     0.236 A 
HETATM    7  N3  UNL     1       5.634  -2.277  -1.221  1.00  0.00    -0.224 NA
HETATM    8  C12 UNL     1       4.599  -1.450  -0.886  1.00  0.00     0.140 A 
HETATM    9  C19 UNL     1       3.384  -2.030  -0.595  1.00  0.00     0.041 A 
HETATM   10  C20 UNL     1       2.362  -1.181  -0.257  1.00  0.00     0.047 A 
ENDROOT
BRANCH   1  11
HETATM   11  N1  UNL     1       0.096  -0.736   0.396  1.00  0.00    -0.327 N 
HETATM   12  C6  UNL     1      -1.265  -0.923   0.746  1.00  0.00     0.226 C 
HETATM   13  O1  UNL     1      -1.665  -2.115   0.764  1.00  0.00    -0.273 OA
HETATM   14  H10 UNL     1       0.335   0.289   0.407  1.00  0.00     0.169 HD
BRANCH  12  15
HETATM   15  C5  UNL     1      -2.185   0.176   1.075  1.00  0.00     0.083 C 
HETATM   16  C4  UNL     1      -2.384   1.164  -0.008  1.00  0.00     0.046 C 
HETATM   17  C2  UNL     1      -3.743   1.757  -0.092  1.00  0.00     0.048 C 
HETATM   18  C1  UNL     1      -4.011   2.257  -1.519  1.00  0.00     0.040 C 
HETATM   19  C3  UNL     1      -3.793   3.029   0.767  1.00  0.00     0.040 C 
HETATM   20  N5  UNL     1      -4.840   0.961   0.293  1.00  0.00    -0.278 N 
HETATM   21  C22 UNL     1      -4.610  -0.373   0.707  1.00  0.00     0.048 C 
HETATM   22  C21 UNL     1      -3.431  -0.402   1.652  1.00  0.00     0.046 C 
HETATM   23  C23 UNL     1      -5.819  -0.835   1.500  1.00  0.00     0.040 C 
HETATM   24  C24 UNL     1      -4.440  -1.350  -0.434  1.00  0.00     0.040 C 
BRANCH  20  25
HETATM   25  O2  UNL     1      -5.854   1.576   0.903  1.00  0.00    -0.291 OA
HETATM   26  H30 UNL     1      -5.588   2.026   1.742  1.00  0.00     0.244 HD
ENDBRANCH  20  25
ENDBRANCH  12  15
ENDBRANCH   1  11
BRANCH   8  27
HETATM   27  N4  UNL     1       4.915  -0.042  -0.904  1.00  0.00    -0.358 N 
HETATM   28  C13 UNL     1       4.270   0.754  -1.933  1.00  0.00     0.152 C 
HETATM   29  C14 UNL     1       3.949   2.080  -1.351  1.00  0.00    -0.004 C 
HETATM   30  C15 UNL     1       4.604   2.881  -0.529  1.00  0.00     0.039 C 
HETATM   31  C16 UNL     1       5.919   2.631   0.056  1.00  0.00     0.114 C 
HETATM   32  F1  UNL     1       6.668   3.731   0.303  1.00  0.00    -0.206 F 
HETATM   33  C17 UNL     1       6.380   1.420   0.338  1.00  0.00     0.035 C 
HETATM   34  C18 UNL     1       5.826   0.060   0.193  1.00  0.00     0.155 C 
ENDBRANCH   8  27
TORSDOF 4
