REMARK  8 active torsions:
REMARK  status: ('A' for Active; 'I' for Inactive)
REMARK    1  A    between atoms: C2_2  and  C23_29 
REMARK    2  A    between atoms: C3_3  and  C4_4 
REMARK    3  A    between atoms: C4_4  and  N1_5 
REMARK    4  A    between atoms: N1_5  and  C5_6 
REMARK    5  A    between atoms: C9_11  and  C10_12 
REMARK    6  A    between atoms: C12_14  and  N3_15 
REMARK       I    between atoms: N3_15  and  C13_16 
REMARK    7  A    between atoms: C13_16  and  C14_18 
REMARK    8  A    between atoms: N4_23  and  O2_24 
ROOT
HETATM    1  C10 UNL     1       1.461   2.144  -0.767  1.00  0.00    -0.047 A 
HETATM    2  C11 UNL     1       1.033   3.188  -0.025  1.00  0.00     0.008 A 
HETATM    3  C12 UNL     1       0.697   1.812   0.404  1.00  0.00     0.137 A 
ENDROOT
BRANCH   3   4
HETATM    4  N3  UNL     1      -0.716   1.491   0.327  1.00  0.00    -0.349 N 
HETATM    5  C13 UNL     1      -1.332   0.748   1.377  1.00  0.00     0.222 C 
HETATM    6  O1  UNL     1      -0.606   0.400   2.339  1.00  0.00    -0.273 OA
HETATM    7  H17 UNL     1      -1.217   1.844  -0.539  1.00  0.00     0.163 HD
BRANCH   5   8
HETATM    8  C14 UNL     1      -2.778   0.503   1.145  1.00  0.00     0.082 C 
HETATM    9  C15 UNL     1      -3.386  -0.290   2.282  1.00  0.00     0.046 C 
HETATM   10  C16 UNL     1      -4.844  -0.378   1.982  1.00  0.00     0.048 C 
HETATM   11  C17 UNL     1      -5.471  -1.160   3.138  1.00  0.00     0.040 C 
HETATM   12  C18 UNL     1      -5.434   1.004   2.062  1.00  0.00     0.040 C 
HETATM   13  N4  UNL     1      -5.108  -1.077   0.787  1.00  0.00    -0.278 N 
HETATM   14  C19 UNL     1      -4.293  -0.846  -0.349  1.00  0.00     0.048 C 
HETATM   15  C20 UNL     1      -4.951   0.071  -1.376  1.00  0.00     0.040 C 
HETATM   16  C21 UNL     1      -4.123  -2.203  -1.027  1.00  0.00     0.040 C 
HETATM   17  C22 UNL     1      -2.927  -0.334  -0.092  1.00  0.00     0.046 C 
BRANCH  13  18
HETATM   18  O2  UNL     1      -6.389  -1.172   0.457  1.00  0.00    -0.291 OA
HETATM   19  H27 UNL     1      -6.931  -0.366   0.535  1.00  0.00     0.244 HD
ENDBRANCH  13  18
ENDBRANCH   5   8
ENDBRANCH   3   4
BRANCH   1  20
HETATM   20  C9  UNL     1       2.217   1.716  -1.979  1.00  0.00     0.075 C 
HETATM   21  C5  UNL     1       3.404   0.834  -1.650  1.00  0.00     0.277 C 
HETATM   22  C6  UNL     1       3.434  -0.038  -2.882  1.00  0.00     0.036 C 
HETATM   23  C7  UNL     1       4.474  -0.860  -3.568  1.00  0.00     0.067 C 
HETATM   24  N2  UNL     1       2.306  -0.075  -3.470  1.00  0.00    -0.296 NA
HETATM   25  C8  UNL     1       1.346   0.742  -2.753  1.00  0.00     0.160 C 
BRANCH  21  26
HETATM   26  N1  UNL     1       3.083   0.068  -0.486  1.00  0.00     0.097 N 
HETATM   27  H7  UNL     1       2.137  -0.314  -0.562  1.00  0.00     0.317 HD
BRANCH  26  28
HETATM   28  C4  UNL     1       4.029  -0.990  -0.216  1.00  0.00     0.298 C 
BRANCH  28  29
HETATM   29  C3  UNL     1       5.348  -0.507   0.190  1.00  0.00     0.008 C 
HETATM   30  C2  UNL     1       6.408  -0.350   0.971  1.00  0.00    -0.058 C 
HETATM   31  C1  UNL     1       7.715   0.372   0.895  1.00  0.00     0.045 C 
BRANCH  30  32
HETATM   32  C23 UNL     1       6.264  -1.087   2.268  1.00  0.00     0.256 C 
HETATM   33  F1  UNL     1       5.053  -1.758   2.342  1.00  0.00    -0.251 F 
ENDBRANCH  30  32
ENDBRANCH  28  29
ENDBRANCH  26  28
ENDBRANCH  21  26
ENDBRANCH   1  20
TORSDOF 8
