REMARK  5 active torsions:
REMARK  status: ('A' for Active; 'I' for Inactive)
REMARK    1  A    between atoms: N1_6  and  C6_7 
REMARK    2  A    between atoms: C8_9  and  C9_10 
REMARK    3  A    between atoms: C9_10  and  N2_11 
REMARK       I    between atoms: N2_11  and  C10_12 
REMARK    4  A    between atoms: C10_12  and  C11_14 
REMARK    5  A    between atoms: N3_19  and  O2_20 
ROOT
HETATM    1  N2  UNL     1       1.092  -0.790  -0.437  1.00  0.00    -0.339 N 
HETATM    2  C10 UNL     1      -0.122  -1.319  -0.804  1.00  0.00     0.225 C 
HETATM    3  O1  UNL     1       0.249  -2.197  -1.622  1.00  0.00    -0.273 OA
HETATM    4  H9  UNL     1       1.080   0.011   0.282  1.00  0.00     0.167 HD
ENDROOT
BRANCH   2   5
HETATM    5  C11 UNL     1      -1.381  -0.781  -0.213  1.00  0.00     0.083 C 
HETATM    6  C12 UNL     1      -1.525   0.713  -0.533  1.00  0.00     0.046 C 
HETATM    7  C13 UNL     1      -2.678   1.152   0.362  1.00  0.00     0.048 C 
HETATM    8  C14 UNL     1      -2.119   1.217   1.761  1.00  0.00     0.040 C 
HETATM    9  C15 UNL     1      -3.001   2.589  -0.034  1.00  0.00     0.040 C 
HETATM   10  N3  UNL     1      -3.853   0.393   0.247  1.00  0.00    -0.278 N 
HETATM   11  C16 UNL     1      -3.806  -0.948  -0.158  1.00  0.00     0.048 C 
HETATM   12  C17 UNL     1      -4.022  -1.941   0.981  1.00  0.00     0.040 C 
HETATM   13  C18 UNL     1      -4.989  -1.178  -1.103  1.00  0.00     0.040 C 
HETATM   14  C19 UNL     1      -2.578  -1.401  -0.901  1.00  0.00     0.046 C 
BRANCH  10  15
HETATM   15  O2  UNL     1      -5.010   1.037   0.160  1.00  0.00    -0.291 OA
HETATM   16  H19 UNL     1      -5.383   1.068   1.099  1.00  0.00     0.244 HD
ENDBRANCH  10  15
ENDBRANCH   2   5
BRANCH   1  17
HETATM   17  C9  UNL     1       2.359  -1.216  -0.928  1.00  0.00     0.081 C 
BRANCH  17  18
HETATM   18  C8  UNL     1       3.558  -0.626  -0.505  1.00  0.00     0.049 A 
HETATM   19  C4  UNL     1       4.424   0.294   0.242  1.00  0.00     0.042 A 
HETATM   20  C3  UNL     1       5.347   1.154   0.930  1.00  0.00     0.103 A 
HETATM   21  C5  UNL     1       3.634   1.132   1.063  1.00  0.00     0.116 A 
HETATM   22  C2  UNL     1       6.152   0.271   0.043  1.00  0.00     0.044 A 
HETATM   23  C6  UNL     1       4.843  -0.385  -0.404  1.00  0.00     0.053 A 
HETATM   24  N1  UNL     1       4.787   0.655   0.533  1.00  0.00    -0.387 N 
HETATM   25  C1  UNL     1       6.747   0.952  -1.188  1.00  0.00     0.015 C 
HETATM   26  C7  UNL     1       4.516  -1.368  -1.255  1.00  0.00    -0.004 A 
ENDBRANCH  17  18
ENDBRANCH   1  17
TORSDOF 5
