REMARK  6 active torsions:
REMARK  status: ('A' for Active; 'I' for Inactive)
REMARK    1  A    between atoms: O1_2  and  C2_3 
REMARK    2  A    between atoms: C7_10  and  N2_11 
REMARK    3  A    between atoms: N2_11  and  C8_12 
REMARK    4  A    between atoms: C9_13  and  C10_14 
REMARK    5  A    between atoms: C10_14  and  C11_15 
REMARK    6  A    between atoms: C14_19  and  O3_20 
ROOT
HETATM    1  C2  UNL     1      -2.188   0.482   0.009  1.00  0.00     0.102 C 
HETATM    2  C3  UNL     1      -1.561   1.635   0.486  1.00  0.00     0.059 C 
HETATM    3  C4  UNL     1      -0.728   2.684   0.075  1.00  0.00     0.119 C 
HETATM    4  N1  UNL     1       0.235   1.760   0.094  1.00  0.00    -0.271 NA
HETATM    5  C5  UNL     1       1.297   1.900  -0.721  1.00  0.00     0.142 C 
HETATM    6  C6  UNL     1       1.297   1.040  -1.795  1.00  0.00     0.078 C 
HETATM    7 CL1  UNL     1       1.637   1.818  -3.316  1.00  0.00    -0.080 Cl
HETATM    8  C7  UNL     1       1.066  -0.304  -1.788  1.00  0.00     0.055 C 
HETATM    9  C12 UNL     1       0.215  -1.385  -1.833  1.00  0.00     0.034 C 
HETATM   10  C13 UNL     1      -1.020  -1.536  -1.248  1.00  0.00     0.042 C 
HETATM   11  C14 UNL     1      -1.633  -0.739  -0.309  1.00  0.00     0.101 C 
ENDROOT
BRANCH   8  12
HETATM   12  N2  UNL     1       2.465  -0.572  -1.676  1.00  0.00    -0.365 N 
HETATM   13  H7  UNL     1       3.479  -0.762  -1.907  1.00  0.00     0.165 HD
BRANCH  12  14
HETATM   14  C8  UNL     1       2.837  -0.662  -0.296  1.00  0.00     0.088 C 
HETATM   15  C9  UNL     1       3.564   0.042   0.581  1.00  0.00     0.021 C 
BRANCH  15  16
HETATM   16  C10 UNL     1       3.833  -0.218   1.983  1.00  0.00     0.060 C 
BRANCH  16  17
HETATM   17  C11 UNL     1       2.994  -1.033   2.563  1.00  0.00     0.221 C 
HETATM   18  O2  UNL     1       2.474  -1.852   3.362  1.00  0.00    -0.284 OA
ENDBRANCH  16  17
ENDBRANCH  15  16
ENDBRANCH  12  14
ENDBRANCH   8  12
BRANCH  11  19
HETATM   19  O3  UNL     1      -1.841  -1.327   0.930  1.00  0.00    -0.353 OA
HETATM   20  C15 UNL     1      -1.463  -2.637   1.229  1.00  0.00     0.210 C 
ENDBRANCH  11  19
BRANCH   1  21
HETATM   21  O1  UNL     1      -3.549   0.464  -0.208  1.00  0.00    -0.353 OA
HETATM   22  C1  UNL     1      -4.376   1.601   0.039  1.00  0.00     0.210 C 
ENDBRANCH   1  21
TORSDOF 6
