REMARK  5 active torsions:
REMARK  status: ('A' for Active; 'I' for Inactive)
REMARK    1  A    between atoms: O1_2  and  N1_3 
REMARK    2  A    between atoms: C5_7  and  C6_8 
REMARK    3  A    between atoms: C6_8  and  C7_10 
REMARK    4  A    between atoms: C12_17  and  N4_18 
REMARK    5  A    between atoms: C14_20  and  N5_21 
ROOT
HETATM    1  C7  UNL     1       0.512  -0.141  -1.146  1.00  0.00     0.011 A 
HETATM    2  C8  UNL     1       0.141   0.189  -2.445  1.00  0.00     0.017 A 
HETATM    3  C9  UNL     1       1.054   0.463  -3.442  1.00  0.00     0.033 A 
HETATM    4  C10 UNL     1       2.409   0.417  -3.178  1.00  0.00     0.072 A 
HETATM    5  N2  UNL     1       3.367   0.674  -4.078  1.00  0.00    -0.241 NA
HETATM    6  C11 UNL     1       4.662   0.608  -3.718  1.00  0.00     0.236 A 
HETATM    7  N3  UNL     1       5.016   0.282  -2.439  1.00  0.00    -0.223 NA
HETATM    8  C12 UNL     1       4.078   0.014  -1.493  1.00  0.00     0.143 A 
HETATM    9  C18 UNL     1       2.765   0.089  -1.888  1.00  0.00     0.040 A 
HETATM   10  C19 UNL     1       1.861  -0.186  -0.887  1.00  0.00     0.032 A 
ENDROOT
BRANCH   1  11
HETATM   11  C6  UNL     1      -0.450  -0.427  -0.085  1.00  0.00     0.164 C 
HETATM   12  O2  UNL     1      -0.004  -0.745   1.069  1.00  0.00    -0.292 OA
BRANCH  11  13
HETATM   13  C5  UNL     1      -1.939  -0.354  -0.322  1.00  0.00     0.066 C 
HETATM   14  C4  UNL     1      -2.261   1.054  -0.653  1.00  0.00     0.041 C 
HETATM   15  C3  UNL     1      -2.994   1.804   0.403  1.00  0.00    -0.007 C 
HETATM   16  C2  UNL     1      -4.017   1.504   1.224  1.00  0.00     0.114 C 
HETATM   17  N1  UNL     1      -4.701   0.233   1.255  1.00  0.00    -0.261 N 
HETATM   18  C21 UNL     1      -4.092  -1.037   0.820  1.00  0.00     0.052 C 
HETATM   19  C20 UNL     1      -2.606  -0.949   0.862  1.00  0.00     0.045 C 
HETATM   20  C22 UNL     1      -4.662  -1.437  -0.507  1.00  0.00     0.041 C 
HETATM   21  C23 UNL     1      -4.555  -2.050   1.866  1.00  0.00     0.041 C 
BRANCH  17  22
HETATM   22  O1  UNL     1      -5.958   0.300   1.720  1.00  0.00    -0.283 OA
HETATM   23  C1  UNL     1      -6.707   1.086   0.836  1.00  0.00     0.238 C 
ENDBRANCH  17  22
ENDBRANCH  11  13
ENDBRANCH   1  11
BRANCH   8  24
HETATM   24  N4  UNL     1       4.662  -0.327  -0.247  1.00  0.00    -0.335 N 
HETATM   25  C13 UNL     1       5.265   0.869   0.294  1.00  0.00     0.123 A 
HETATM   26  C14 UNL     1       5.906   0.939   1.474  1.00  0.00     0.063 A 
HETATM   27  C15 UNL     1       6.024  -0.273   2.299  1.00  0.00     0.059 A 
HETATM   28 CL1  UNL     1       6.807  -0.391   3.846  1.00  0.00    -0.082 Cl
HETATM   29  C16 UNL     1       5.458  -1.336   1.754  1.00  0.00     0.019 A 
HETATM   30  C17 UNL     1       4.727  -1.576   0.485  1.00  0.00     0.159 A 
BRANCH  26  31
HETATM   31  N5  UNL     1       6.512   2.089   2.043  1.00  0.00    -0.397 N 
HETATM   32  H13 UNL     1       6.378   2.292   3.060  1.00  0.00     0.156 HD
HETATM   33  H14 UNL     1       7.062   2.639   1.325  1.00  0.00     0.156 HD
ENDBRANCH  26  31
ENDBRANCH   8  24
TORSDOF 5
