REMARK  0 active torsions:
REMARK  status: ('A' for Active; 'I' for Inactive)
ROOT
HETATM    1  C1  UNL     1       4.856   2.107   0.681  1.00  0.00     0.012 C 
HETATM    2  C2  UNL     1       3.861   1.298   1.438  1.00  0.00     0.006 C 
HETATM    3  C3  UNL     1       2.561   1.489   0.561  1.00  0.00     0.010 C 
HETATM    4  C4  UNL     1       1.536   0.587   1.143  1.00  0.00     0.037 C 
HETATM    5  C5  UNL     1       0.513   0.225   0.083  1.00  0.00    -0.051 C 
HETATM    6  C6  UNL     1      -0.756   0.710   0.135  1.00  0.00    -0.009 C 
HETATM    7  C7  UNL     1      -1.663   0.290  -0.943  1.00  0.00     0.076 C 
HETATM    8  C8  UNL     1      -1.488  -1.273  -0.951  1.00  0.00     0.043 C 
HETATM    9  C9  UNL     1      -0.259  -1.756  -1.020  1.00  0.00     0.037 C 
HETATM   10  C10 UNL     1       0.787  -0.661  -1.077  1.00  0.00     0.177 C 
HETATM   11  O1  UNL     1       1.944  -1.178  -1.389  1.00  0.00    -0.353 OA
HETATM   12  C11 UNL     1       2.906  -1.576  -0.479  1.00  0.00     0.339 C 
HETATM   13  O2  UNL     1       3.254  -0.538   0.224  1.00  0.00    -0.367 OA
HETATM   14  C12 UNL     1       4.044  -0.248   1.209  1.00  0.00     0.174 C 
HETATM   15  N1  UNL     1      -2.844  -1.619  -0.861  1.00  0.00    -0.245 NA
HETATM   16  C13 UNL     1      -3.580  -1.885   0.130  1.00  0.00     0.250 C 
HETATM   17  N2  UNL     1      -5.013  -2.213   0.021  1.00  0.00    -0.174 NA
HETATM   18  N3  UNL     1      -5.737  -1.137  -0.418  1.00  0.00    -0.096 NA
HETATM   19  C14 UNL     1      -4.790  -0.005  -0.636  1.00  0.00     0.097 A 
HETATM   20  C15 UNL     1      -4.945  -0.381  -1.927  1.00  0.00    -0.012 A 
HETATM   21  C16 UNL     1      -3.652   0.069  -1.802  1.00  0.00     0.057 A 
HETATM   22  C17 UNL     1      -3.099   0.541  -0.641  1.00  0.00     0.031 A 
HETATM   23  C18 UNL     1      -3.208   0.844   0.662  1.00  0.00     0.009 A 
HETATM   24  C19 UNL     1      -4.531   0.399   0.629  1.00  0.00     0.038 A 
HETATM   25 CL1  UNL     1      -5.573   0.424   2.033  1.00  0.00    -0.087 Cl
ENDROOT
TORSDOF 0
