REMARK  4 active torsions:
REMARK  status: ('A' for Active; 'I' for Inactive)
REMARK    1  A    between atoms: S1_1  and  C1_2 
REMARK    2  A    between atoms: C4_5  and  N1_6 
REMARK    3  A    between atoms: N1_6  and  C5_7 
REMARK    4  A    between atoms: C5_7  and  C6_8 
ROOT
HETATM    1  C5  UNL     1      -0.216   0.883   1.228  1.00  0.00     0.177 C 
ENDROOT
BRANCH   1   2
HETATM    2  N1  UNL     1       0.918  -0.008   1.272  1.00  0.00    -0.384 N 
HETATM    3  H4  UNL     1       0.642  -0.799   1.936  1.00  0.00     0.160 HD
BRANCH   2   4
HETATM    4  C4  UNL     1       2.218  -0.154   0.729  1.00  0.00     0.029 A 
HETATM    5  C3  UNL     1       2.997  -1.283   1.014  1.00  0.00     0.030 A 
HETATM    6  C2  UNL     1       4.254  -1.335   0.474  1.00  0.00     0.022 A 
HETATM    7  C1  UNL     1       4.789  -0.354  -0.322  1.00  0.00     0.015 A 
HETATM    8  C14 UNL     1       4.066   0.761  -0.624  1.00  0.00     0.029 A 
HETATM    9  C13 UNL     1       2.808   0.813  -0.084  1.00  0.00     0.049 A 
HETATM   10 BR1  UNL     1       4.761   2.153  -1.725  1.00  0.00    -0.050 Br
BRANCH   7  11
HETATM   11  S1  UNL     1       6.433  -0.568  -0.946  1.00  0.00    -0.142 SA
HETATM   12  H1  UNL     1       7.341  -0.905   0.062  1.00  0.00     0.107 HD
ENDBRANCH   7  11
ENDBRANCH   2   4
ENDBRANCH   1   2
BRANCH   1  13
HETATM   13  C6  UNL     1      -1.007   0.639   0.030  1.00  0.00     0.038 A 
HETATM   14  C7  UNL     1      -2.294   0.253   0.218  1.00  0.00     0.018 A 
HETATM   15  C8  UNL     1      -3.037   0.034   1.455  1.00  0.00     0.211 C 
HETATM   16  C11 UNL     1      -3.095   0.004  -1.008  1.00  0.00     0.066 A 
HETATM   17  O1  UNL     1      -4.376   0.394   1.232  1.00  0.00    -0.383 OA
HETATM   18  C9  UNL     1      -4.972  -0.528   0.370  1.00  0.00     0.197 C 
HETATM   19  C10 UNL     1      -4.388  -0.374  -1.015  1.00  0.00     0.031 C 
HETATM   20  N2  UNL     1      -2.605   0.143  -2.335  1.00  0.00    -0.244 NA
HETATM   21  C12 UNL     1      -1.378   0.512  -2.480  1.00  0.00     0.208 A 
HETATM   22  N3  UNL     1      -0.602   0.753  -1.318  1.00  0.00    -0.352 N 
HETATM   23  H13 UNL     1       0.369   1.047  -1.534  1.00  0.00     0.166 HD
ENDBRANCH   1  13
TORSDOF 4
