REMARK  5 active torsions:
REMARK  status: ('A' for Active; 'I' for Inactive)
REMARK    1  A    between atoms: O1_2  and  C2_3 
REMARK    2  A    between atoms: C4_5  and  O2_6 
REMARK    3  A    between atoms: O2_6  and  C5_7 
REMARK    4  A    between atoms: C12_15  and  N2_16 
REMARK    5  A    between atoms: N2_16  and  C13_17 
ROOT
HETATM    1  C2  UNL     1      -1.017   3.527   1.439  1.00  0.00     0.073 A 
HETATM    2  C3  UNL     1      -0.109   2.518   1.096  1.00  0.00     0.074 A 
HETATM    3  C4  UNL     1      -0.481   1.283   0.610  1.00  0.00     0.088 A 
HETATM    4  C11 UNL     1      -1.830   1.066   0.468  1.00  0.00     0.072 A 
HETATM    5  C12 UNL     1      -2.294  -0.134  -0.010  1.00  0.00     0.144 A 
HETATM    6  N3  UNL     1      -3.620  -0.284  -0.126  1.00  0.00    -0.223 NA
HETATM    7  C19 UNL     1      -4.493   0.677   0.199  1.00  0.00     0.236 A 
HETATM    8  N4  UNL     1      -4.058   1.857   0.668  1.00  0.00    -0.241 NA
HETATM    9  C20 UNL     1      -2.734   2.051   0.802  1.00  0.00     0.077 A 
HETATM   10  C21 UNL     1      -2.367   3.283   1.286  1.00  0.00     0.069 A 
ENDROOT
BRANCH   5  11
HETATM   11  N2  UNL     1      -1.463  -1.224  -0.361  1.00  0.00    -0.340 N 
HETATM   12  H17 UNL     1      -0.462  -1.477  -0.336  1.00  0.00     0.167 HD
BRANCH  11  13
HETATM   13  C13 UNL     1      -2.005  -2.416  -0.938  1.00  0.00     0.035 A 
HETATM   14  C14 UNL     1      -1.573  -3.733  -0.742  1.00  0.00     0.032 A 
HETATM   15  C15 UNL     1      -2.135  -4.827  -1.348  1.00  0.00     0.046 A 
HETATM   16  C16 UNL     1      -3.194  -4.654  -2.210  1.00  0.00     0.138 A 
HETATM   17  F1  UNL     1      -3.680  -5.785  -2.756  1.00  0.00    -0.204 F 
HETATM   18  C17 UNL     1      -3.674  -3.377  -2.450  1.00  0.00     0.074 A 
HETATM   19 CL1  UNL     1      -5.009  -3.304  -3.555  1.00  0.00    -0.081 Cl
HETATM   20  C18 UNL     1      -3.083  -2.317  -1.825  1.00  0.00     0.056 A 
ENDBRANCH  11  13
ENDBRANCH   5  11
BRANCH   3  21
HETATM   21  O2  UNL     1       0.452   0.354   0.298  1.00  0.00    -0.345 OA
BRANCH  21  22
HETATM   22  C5  UNL     1       1.832   0.395   0.373  1.00  0.00     0.132 C 
HETATM   23  C6  UNL     1       2.295  -0.713   1.293  1.00  0.00     0.062 C 
HETATM   24  C7  UNL     1       3.782  -0.801   1.405  1.00  0.00     0.274 C 
HETATM   25  N1  UNL     1       4.501  -0.112   0.372  1.00  0.00     0.084 N 
HETATM   26  C8  UNL     1       5.829  -0.703   0.286  1.00  0.00     0.309 C 
HETATM   27  C9  UNL     1       3.903  -0.200  -0.931  1.00  0.00     0.274 C 
HETATM   28  C10 UNL     1       2.455   0.185  -0.987  1.00  0.00     0.062 C 
ENDBRANCH  21  22
ENDBRANCH   3  21
BRANCH   1  29
HETATM   29  O1  UNL     1      -0.623   4.764   1.927  1.00  0.00    -0.356 OA
HETATM   30  C1  UNL     1      -1.583   5.761   2.265  1.00  0.00     0.210 C 
ENDBRANCH   1  29
TORSDOF 5
