REMARK  5 active torsions:
REMARK  status: ('A' for Active; 'I' for Inactive)
REMARK    1  A    between atoms: O1_2  and  C2_3 
REMARK    2  A    between atoms: C5_6  and  N1_7 
REMARK    3  A    between atoms: N1_7  and  C6_8 
REMARK    4  A    between atoms: C6_8  and  C7_9 
REMARK    5  A    between atoms: C17_21  and  O2_22 
ROOT
HETATM    1  C7  UNL     1       2.647  -3.768   1.287  1.00  0.00    -0.070 C 
HETATM    2  C8  UNL     1       1.978  -4.648   1.774  1.00  0.00     0.006 C 
HETATM    3 CL1  UNL     1       1.035  -5.935   2.468  1.00  0.00    -0.023 Cl
ENDROOT
BRANCH   1   4
HETATM    4  C6  UNL     1       3.467  -2.685   0.697  1.00  0.00     0.215 C 
BRANCH   4   5
HETATM    5  N1  UNL     1       2.828  -2.181  -0.493  1.00  0.00    -0.385 N 
HETATM    6  H6  UNL     1       3.234  -2.332  -1.458  1.00  0.00     0.160 HD
BRANCH   5   7
HETATM    7  C5  UNL     1       1.568  -1.432  -0.470  1.00  0.00    -0.007 C 
HETATM    8  C4  UNL     1       0.266  -1.507  -0.127  1.00  0.00     0.069 C 
HETATM    9  C3  UNL     1      -0.854  -2.258   0.426  1.00  0.00     0.024 C 
HETATM   10  C2  UNL     1      -1.968  -1.583   0.459  1.00  0.00     0.098 C 
HETATM   11  C17 UNL     1      -2.371  -0.251   0.054  1.00  0.00     0.097 C 
HETATM   12  C16 UNL     1      -2.037   0.896  -0.495  1.00  0.00     0.013 C 
HETATM   13  C15 UNL     1      -1.996   2.243  -1.031  1.00  0.00     0.030 C 
HETATM   14  C14 UNL     1      -0.669   2.944  -0.953  1.00  0.00     0.004 C 
HETATM   15  C13 UNL     1      -0.021   3.075   0.372  1.00  0.00     0.002 C 
HETATM   16  C12 UNL     1       1.309   3.809   0.279  1.00  0.00     0.019 C 
HETATM   17  C11 UNL     1       2.333   3.159  -0.573  1.00  0.00     0.113 C 
HETATM   18  N2  UNL     1       2.992   2.014  -0.200  1.00  0.00    -0.421 N 
HETATM   19  C10 UNL     1       2.511   0.753   0.030  1.00  0.00     0.119 C 
HETATM   20  H13 UNL     1       3.981   1.979  -0.546  1.00  0.00     0.153 HD
HETATM   21  C9  UNL     1       1.887  -0.069  -1.051  1.00  0.00     0.072 C 
BRANCH  10  22
HETATM   22  O1  UNL     1      -3.150  -2.082   0.944  1.00  0.00    -0.353 OA
HETATM   23  C1  UNL     1      -3.217  -3.309   1.616  1.00  0.00     0.210 C 
ENDBRANCH  10  22
BRANCH  11  24
HETATM   24  O2  UNL     1      -3.583   0.407   0.153  1.00  0.00    -0.353 OA
HETATM   25  C18 UNL     1      -4.625   0.033  -0.746  1.00  0.00     0.210 C 
ENDBRANCH  11  24
ENDBRANCH   5   7
ENDBRANCH   4   5
ENDBRANCH   1   4
TORSDOF 5
