REMARK  4 active torsions:
REMARK  status: ('A' for Active; 'I' for Inactive)
REMARK    1  A    between atoms: C7_7  and  O1_8 
REMARK    2  A    between atoms: O1_8  and  N1_9 
REMARK    3  A    between atoms: C8_10  and  O2_11 
REMARK    4  A    between atoms: N2_16  and  C13_17 
ROOT
HETATM    1  C1  UNL     1       3.020   3.423  -0.606  1.00  0.00     0.019 C 
HETATM    2  C2  UNL     1       2.124   2.650  -0.310  1.00  0.00    -0.059 C 
HETATM    3  C3  UNL     1       1.070   1.721   0.053  1.00  0.00     0.089 A 
HETATM    4  C4  UNL     1      -0.190   2.122   0.107  1.00  0.00     0.026 A 
HETATM    5  C5  UNL     1      -1.262   1.218   0.473  1.00  0.00     0.071 A 
HETATM    6  C6  UNL     1      -2.589   1.381  -0.109  1.00  0.00     0.028 C 
HETATM    7  C7  UNL     1      -3.297   0.281  -0.084  1.00  0.00     0.122 C 
HETATM    8  C8  UNL     1      -3.018  -1.086   0.325  1.00  0.00     0.103 C 
HETATM    9  C10 UNL     1      -1.753  -1.315   0.731  1.00  0.00     0.049 C 
HETATM   10  C11 UNL     1      -0.874  -0.167   0.648  1.00  0.00    -0.028 A 
HETATM   11  C12 UNL     1       0.402  -0.574   0.570  1.00  0.00     0.106 A 
HETATM   12  N2  UNL     1       1.461   0.361   0.276  1.00  0.00    -0.315 N 
ENDROOT
BRANCH  12  13
HETATM   13  C13 UNL     1       2.830  -0.015   0.203  1.00  0.00     0.041 A 
HETATM   14  C14 UNL     1       3.742  -0.025   1.238  1.00  0.00     0.033 A 
HETATM   15  C15 UNL     1       5.048  -0.413   1.033  1.00  0.00     0.046 A 
HETATM   16  C16 UNL     1       5.415  -0.797  -0.259  1.00  0.00     0.138 A 
HETATM   17  F1  UNL     1       6.691  -1.186  -0.506  1.00  0.00    -0.204 F 
HETATM   18  C17 UNL     1       4.531  -0.800  -1.322  1.00  0.00     0.074 A 
HETATM   19 CL1  UNL     1       5.025  -1.288  -2.933  1.00  0.00    -0.081 Cl
HETATM   20  C18 UNL     1       3.213  -0.401  -1.082  1.00  0.00     0.057 A 
ENDBRANCH  12  13
BRANCH   7  21
HETATM   21  O1  UNL     1      -4.594   0.436  -0.604  1.00  0.00    -0.264 OA
BRANCH  21  22
HETATM   22  N1  UNL     1      -4.702   0.452  -1.969  1.00  0.00    -0.209 NA
HETATM   23  H5  UNL     1      -5.328   1.216  -2.243  1.00  0.00     0.150 HD
HETATM   24  H6  UNL     1      -4.960  -0.457  -2.392  1.00  0.00     0.150 HD
ENDBRANCH  21  22
ENDBRANCH   7  21
BRANCH   8  25
HETATM   25  O2  UNL     1      -3.987  -2.093   0.301  1.00  0.00    -0.353 OA
HETATM   26  C9  UNL     1      -4.396  -2.692   1.508  1.00  0.00     0.210 C 
ENDBRANCH   8  25
TORSDOF 4
