REMARK  6 active torsions:
REMARK  status: ('A' for Active; 'I' for Inactive)
REMARK    1  A    between atoms: O1_2  and  C2_3 
REMARK    2  A    between atoms: C7_10  and  N3_11 
REMARK    3  A    between atoms: N3_11  and  C8_12 
REMARK    4  A    between atoms: C12_17  and  P1_18 
REMARK    5  A    between atoms: C15_22  and  O2_23 
REMARK    6  A    between atoms: O2_23  and  C16_24 
ROOT
HETATM    1  C2  UNL     1      -2.627   3.286  -1.810  1.00  0.00     0.149 C 
HETATM    2  C3  UNL     1      -1.471   2.812  -1.379  1.00  0.00     0.040 A 
HETATM    3  C4  UNL     1      -0.393   3.653  -0.871  1.00  0.00     0.047 A 
HETATM    4  C5  UNL     1       0.708   3.036  -0.476  1.00  0.00     0.069 A 
HETATM    5  N1  UNL     1       1.730   3.886   0.026  1.00  0.00    -0.244 NA
HETATM    6  C6  UNL     1       2.669   3.291   0.729  1.00  0.00     0.235 C 
HETATM    7  N2  UNL     1       2.705   1.895   0.968  1.00  0.00    -0.226 NA
HETATM    8  C7  UNL     1       1.862   1.057   0.512  1.00  0.00     0.137 C 
HETATM    9  C14 UNL     1       0.987   1.615  -0.505  1.00  0.00     0.232 A 
HETATM   10  N4  UNL     1      -0.095   0.804  -0.991  1.00  0.00    -0.247 NA
HETATM   11  C15 UNL     1      -1.178   1.376  -1.378  1.00  0.00     0.173 A 
ENDROOT
BRANCH   8  12
HETATM   12  N3  UNL     1       1.932  -0.318   0.802  1.00  0.00    -0.342 N 
HETATM   13  H7  UNL     1       1.030  -0.834   0.780  1.00  0.00     0.167 HD
BRANCH  12  14
HETATM   14  C8  UNL     1       3.138  -0.981   1.106  1.00  0.00     0.034 A 
HETATM   15  C9  UNL     1       3.070  -2.328   1.424  1.00  0.00     0.031 A 
HETATM   16  C10 UNL     1       4.152  -3.121   1.740  1.00  0.00     0.027 A 
HETATM   17  C11 UNL     1       5.398  -2.574   1.750  1.00  0.00     0.044 A 
HETATM   18 CL1  UNL     1       6.845  -3.480   2.135  1.00  0.00    -0.083 Cl
HETATM   19  C12 UNL     1       5.535  -1.237   1.442  1.00  0.00    -0.013 A 
HETATM   20  C13 UNL     1       4.420  -0.499   1.136  1.00  0.00     0.043 A 
BRANCH  19  21
HETATM   21  P1  UNL     1       7.179  -0.429   1.436  1.00  0.00    -0.105 P 
HETATM   22  H10 UNL     1       7.131   0.723   2.333  1.00  0.00     0.059 HD
HETATM   23  H11 UNL     1       8.162  -1.347   1.974  1.00  0.00     0.059 HD
ENDBRANCH  19  21
ENDBRANCH  12  14
ENDBRANCH   8  12
BRANCH  11  24
HETATM   24  O2  UNL     1      -2.155   0.496  -1.839  1.00  0.00    -0.328 OA
BRANCH  24  25
HETATM   25  C16 UNL     1      -2.237  -0.815  -1.309  1.00  0.00     0.133 C 
HETATM   26  C17 UNL     1      -3.337  -1.569  -2.019  1.00  0.00     0.052 C 
HETATM   27  C18 UNL     1      -3.427  -2.971  -1.487  1.00  0.00     0.119 C 
HETATM   28  N5  UNL     1      -3.345  -3.073  -0.071  1.00  0.00    -0.416 N 
HETATM   29  C19 UNL     1      -2.480  -4.083   0.447  1.00  0.00     0.143 C 
HETATM   30  C20 UNL     1      -3.409  -1.871   0.664  1.00  0.00     0.119 C 
HETATM   31  C21 UNL     1      -2.641  -0.701   0.127  1.00  0.00     0.052 C 
ENDBRANCH  24  25
ENDBRANCH  11  24
BRANCH   1  32
HETATM   32  O1  UNL     1      -2.850   4.648  -1.788  1.00  0.00    -0.367 OA
HETATM   33  C1  UNL     1      -3.390   5.244  -0.623  1.00  0.00     0.208 C 
ENDBRANCH   1  32
TORSDOF 6
