REMARK  4 active torsions:
REMARK  status: ('A' for Active; 'I' for Inactive)
REMARK    1  A    between atoms: C3_3  and  C4_4 
REMARK    2  A    between atoms: C4_4  and  C5_5 
REMARK    3  A    between atoms: C15_20  and  N4_21 
REMARK    4  A    between atoms: N4_21  and  C16_22 
ROOT
HETATM    1  C1  UNL     1       2.077   2.063   0.112  1.00  0.00     0.055 C 
HETATM    2  C2  UNL     1       1.923   0.701  -0.460  1.00  0.00     0.013 A 
HETATM    3  C3  UNL     1       0.700   0.262  -0.917  1.00  0.00     0.068 A 
HETATM    4  N2  UNL     1       0.675  -0.989  -1.410  1.00  0.00    -0.241 NA
HETATM    5  C14 UNL     1       1.733  -1.784  -1.472  1.00  0.00     0.235 A 
HETATM    6  N3  UNL     1       2.879  -1.322  -1.023  1.00  0.00    -0.224 NA
HETATM    7  C15 UNL     1       3.048  -0.103  -0.509  1.00  0.00     0.137 A 
ENDROOT
BRANCH   3   8
HETATM    8  C4  UNL     1      -0.419   1.166  -0.837  1.00  0.00     0.040 C 
BRANCH   8   9
HETATM    9  C5  UNL     1      -1.686   0.977  -0.520  1.00  0.00    -0.024 C 
HETATM   10  C6  UNL     1      -2.853   1.901  -0.433  1.00  0.00     0.204 C 
HETATM   11  O1  UNL     1      -3.422   2.017   0.804  1.00  0.00    -0.387 OA
HETATM   12  C7  UNL     1      -4.726   2.405   0.827  1.00  0.00     0.169 C 
HETATM   13  C8  UNL     1      -5.717   1.311   0.701  1.00  0.00     0.056 C 
HETATM   14  C9  UNL     1      -5.490   0.131  -0.143  1.00  0.00     0.274 C 
HETATM   15  N1  UNL     1      -4.553  -0.832   0.280  1.00  0.00     0.093 NA
HETATM   16  C10 UNL     1      -4.192  -1.862  -0.659  1.00  0.00     0.298 C 
HETATM   17  C13 UNL     1      -3.304  -0.428   0.866  1.00  0.00     0.309 C 
HETATM   18  C11 UNL     1      -2.816  -2.385  -0.613  1.00  0.00     0.199 C 
HETATM   19  O2  UNL     1      -1.760  -1.472  -0.460  1.00  0.00    -0.378 OA
HETATM   20  C12 UNL     1      -2.424  -0.243  -0.299  1.00  0.00     0.181 C 
ENDBRANCH   8   9
ENDBRANCH   3   8
BRANCH   7  21
HETATM   21  N4  UNL     1       4.313   0.338  -0.037  1.00  0.00    -0.340 N 
HETATM   22  H21 UNL     1       4.307   1.313   0.354  1.00  0.00     0.167 HD
BRANCH  21  23
HETATM   23  C16 UNL     1       5.544  -0.325  -0.023  1.00  0.00     0.035 A 
HETATM   24  C17 UNL     1       5.843  -1.547  -0.579  1.00  0.00     0.032 A 
HETATM   25  C18 UNL     1       7.044  -2.197  -0.558  1.00  0.00     0.046 A 
HETATM   26  C19 UNL     1       8.065  -1.545   0.097  1.00  0.00     0.138 A 
HETATM   27  F1  UNL     1       9.298  -2.095   0.178  1.00  0.00    -0.204 F 
HETATM   28  C20 UNL     1       7.870  -0.330   0.681  1.00  0.00     0.074 A 
HETATM   29 CL1  UNL     1       9.186   0.480   1.508  1.00  0.00    -0.081 Cl
HETATM   30  C21 UNL     1       6.631   0.245   0.609  1.00  0.00     0.056 A 
ENDBRANCH  21  23
ENDBRANCH   7  21
TORSDOF 4
