REMARK  7 active torsions:
REMARK  status: ('A' for Active; 'I' for Inactive)
REMARK    1  A    between atoms: N1_8  and  C7_9 
REMARK    2  A    between atoms: C10_12  and  O1_13 
REMARK    3  A    between atoms: O1_13  and  C11_14 
REMARK    4  A    between atoms: C11_14  and  C12_15 
REMARK    5  A    between atoms: C12_15  and  C13_16 
REMARK    6  A    between atoms: C13_16  and  N2_17 
REMARK    7  A    between atoms: C18_23  and  O3_24 
ROOT
HETATM    1  C7  UNL     1      -3.738  -0.127  -0.931  1.00  0.00     0.135 C 
HETATM    2  C8  UNL     1      -2.504   0.274  -0.471  1.00  0.00     0.054 C 
HETATM    3  C9  UNL     1      -1.405   0.543   0.319  1.00  0.00     0.043 C 
HETATM    4  C10 UNL     1      -0.431  -0.402   0.557  1.00  0.00     0.102 C 
HETATM    5  C18 UNL     1      -0.485  -1.754   0.701  1.00  0.00     0.102 C 
HETATM    6  C20 UNL     1      -0.866  -2.764  -0.190  1.00  0.00     0.059 C 
HETATM    7  C21 UNL     1      -2.002  -3.119  -0.887  1.00  0.00     0.121 C 
HETATM    8  N3  UNL     1      -3.295  -3.393  -0.640  1.00  0.00    -0.254 NA
HETATM    9  C22 UNL     1      -4.254  -2.432  -0.645  1.00  0.00     0.234 C 
HETATM   10  N4  UNL     1      -3.966  -1.354  -1.399  1.00  0.00    -0.224 NA
ENDROOT
BRANCH   4  11
HETATM   11  O1  UNL     1       0.869   0.020   0.686  1.00  0.00    -0.348 OA
BRANCH  11  12
HETATM   12  C11 UNL     1       1.318   1.359   0.594  1.00  0.00     0.177 C 
BRANCH  12  13
HETATM   13  C12 UNL     1       2.815   1.299   0.809  1.00  0.00     0.046 C 
BRANCH  13  14
HETATM   14  C13 UNL     1       3.496   0.430  -0.236  1.00  0.00     0.119 C 
BRANCH  14  15
HETATM   15  N2  UNL     1       4.888   0.439   0.055  1.00  0.00    -0.408 N 
HETATM   16  C14 UNL     1       5.582   1.661  -0.141  1.00  0.00     0.143 C 
HETATM   17  C15 UNL     1       6.850   1.592  -0.918  1.00  0.00     0.187 C 
HETATM   18  O2  UNL     1       7.614   0.473  -0.756  1.00  0.00    -0.388 OA
HETATM   19  C16 UNL     1       7.096  -0.517   0.035  1.00  0.00     0.187 C 
HETATM   20  C17 UNL     1       5.612  -0.757  -0.221  1.00  0.00     0.143 C 
ENDBRANCH  14  15
ENDBRANCH  13  14
ENDBRANCH  12  13
ENDBRANCH  11  12
ENDBRANCH   4  11
BRANCH   5  21
HETATM   21  O3  UNL     1      -0.112  -2.254   1.916  1.00  0.00    -0.353 OA
HETATM   22  C19 UNL     1      -0.087  -3.606   2.295  1.00  0.00     0.210 C 
ENDBRANCH   5  21
BRANCH   1  23
HETATM   23  N1  UNL     1      -4.769   0.862  -0.875  1.00  0.00    -0.308 N 
HETATM   24  C2  UNL     1      -5.628   1.038   0.248  1.00  0.00     0.057 A 
HETATM   25  C1  UNL     1      -5.393   0.197   1.252  1.00  0.00     0.067 C 
HETATM   26  C3  UNL     1      -6.676   2.045   0.309  1.00  0.00     0.139 A 
HETATM   27  F1  UNL     1      -7.400   2.083   1.434  1.00  0.00    -0.204 F 
HETATM   28  C4  UNL     1      -6.819   2.834  -0.759  1.00  0.00     0.046 A 
HETATM   29  C5  UNL     1      -5.951   2.674  -1.920  1.00  0.00     0.021 A 
HETATM   30  C6  UNL     1      -4.988   1.752  -1.983  1.00  0.00     0.099 A 
ENDBRANCH   1  23
TORSDOF 7
