REMARK  7 active torsions:
REMARK  status: ('A' for Active; 'I' for Inactive)
REMARK    1  A    between atoms: O1_2  and  C2_3 
REMARK    2  A    between atoms: C6_9  and  N3_10 
REMARK    3  A    between atoms: N3_10  and  C7_11 
REMARK    4  A    between atoms: C15_21  and  O2_22 
REMARK    5  A    between atoms: O2_22  and  C16_23 
REMARK    6  A    between atoms: C16_23  and  C17_24 
REMARK    7  A    between atoms: C17_24  and  C18_25 
ROOT
HETATM    1  C2  UNL     1      -1.048   1.519   1.593  1.00  0.00     0.103 A 
HETATM    2  C3  UNL     1      -0.491   2.801   1.693  1.00  0.00     0.072 A 
HETATM    3  C4  UNL     1       0.651   3.128   1.022  1.00  0.00     0.075 A 
HETATM    4  N1  UNL     1       1.216   4.356   1.100  1.00  0.00    -0.241 NA
HETATM    5  C5  UNL     1       2.362   4.616   0.405  1.00  0.00     0.236 A 
HETATM    6  N2  UNL     1       2.954   3.687  -0.361  1.00  0.00    -0.224 NA
HETATM    7  C6  UNL     1       2.406   2.458  -0.452  1.00  0.00     0.142 A 
HETATM    8  C13 UNL     1       1.230   2.154   0.248  1.00  0.00     0.042 A 
HETATM    9  C14 UNL     1       0.748   0.854   0.088  1.00  0.00     0.057 A 
HETATM   10  C15 UNL     1      -0.408   0.594   0.794  1.00  0.00     0.103 A 
ENDROOT
BRANCH   7  11
HETATM   11  N3  UNL     1       3.121   1.561  -1.289  1.00  0.00    -0.340 N 
HETATM   12  H6  UNL     1       2.715   1.759  -2.207  1.00  0.00     0.167 HD
BRANCH  11  13
HETATM   13  C7  UNL     1       4.143   0.598  -1.065  1.00  0.00     0.035 A 
HETATM   14  C8  UNL     1       4.625  -0.075  -2.154  1.00  0.00     0.032 A 
HETATM   15  C9  UNL     1       5.610  -1.005  -1.912  1.00  0.00     0.046 A 
HETATM   16  C10 UNL     1       6.060  -1.215  -0.616  1.00  0.00     0.138 A 
HETATM   17  F1  UNL     1       7.041  -2.139  -0.366  1.00  0.00    -0.204 F 
HETATM   18  C11 UNL     1       5.564  -0.525   0.490  1.00  0.00     0.074 A 
HETATM   19 CL1  UNL     1       6.187  -0.855   2.081  1.00  0.00    -0.081 Cl
HETATM   20  C12 UNL     1       4.584   0.395   0.227  1.00  0.00     0.056 A 
ENDBRANCH  11  13
ENDBRANCH   7  11
BRANCH  10  21
HETATM   21  O2  UNL     1      -1.004  -0.628   0.744  1.00  0.00    -0.348 OA
BRANCH  21  22
HETATM   22  C16 UNL     1      -0.624  -1.773   0.038  1.00  0.00     0.178 C 
BRANCH  22  23
HETATM   23  C17 UNL     1      -1.538  -2.937   0.242  1.00  0.00     0.062 C 
BRANCH  23  24
HETATM   24  C18 UNL     1      -2.952  -2.743  -0.150  1.00  0.00     0.227 C 
HETATM   25  C19 UNL     1      -3.220  -2.406  -1.589  1.00  0.00     0.062 C 
HETATM   26  C20 UNL     1      -4.725  -2.303  -1.755  1.00  0.00     0.172 C 
HETATM   27  O3  UNL     1      -5.346  -1.454  -0.881  1.00  0.00    -0.363 OA
HETATM   28  C21 UNL     1      -4.435  -0.855  -0.055  1.00  0.00     0.437 C 
HETATM   29  N4  UNL     1      -3.611  -1.756   0.681  1.00  0.00     0.111 N 
HETATM   30  H22 UNL     1      -4.113  -2.231   1.435  1.00  0.00     0.319 HD
ENDBRANCH  23  24
ENDBRANCH  22  23
ENDBRANCH  21  22
ENDBRANCH  10  21
BRANCH   1  31
HETATM   31  O1  UNL     1      -2.223   1.204   2.291  1.00  0.00    -0.353 OA
HETATM   32  C1  UNL     1      -2.895   2.114   3.101  1.00  0.00     0.210 C 
ENDBRANCH   1  31
TORSDOF 7
