REMARK  7 active torsions:
REMARK  status: ('A' for Active; 'I' for Inactive)
REMARK    1  A    between atoms: O1_2  and  C2_3 
REMARK    2  A    between atoms: C6_8  and  N2_9 
REMARK    3  A    between atoms: N2_9  and  C7_10 
REMARK    4  A    between atoms: C14_19  and  C15_20 
REMARK    5  A    between atoms: C15_20  and  C16_21 
REMARK    6  A    between atoms: C16_21  and  C17_22 
REMARK    7  A    between atoms: C17_22  and  N3_23 
ROOT
HETATM    1  C2  UNL     1      -1.332  -1.675   0.652  1.00  0.00     0.076 C 
HETATM    2  C3  UNL     1      -0.805  -2.927   0.691  1.00  0.00     0.064 C 
HETATM    3  C4  UNL     1       0.503  -2.912   0.045  1.00  0.00     0.035 C 
HETATM    4  N1  UNL     1       1.772  -3.137   0.081  1.00  0.00    -0.291 NA
HETATM    5  C5  UNL     1       2.696  -1.985  -0.204  1.00  0.00     0.178 C 
HETATM    6  C6  UNL     1       1.948  -0.628  -0.344  1.00  0.00     0.132 C 
HETATM    7  C13 UNL     1       0.520  -0.871  -0.412  1.00  0.00    -0.041 C 
HETATM    8  C14 UNL     1      -0.648  -0.517   0.064  1.00  0.00    -0.020 C 
HETATM    9  C20 UNL     1       0.460  -2.149  -1.310  1.00  0.00     0.096 C 
ENDROOT
BRANCH   6  10
HETATM   10  N2  UNL     1       2.427   0.317   0.599  1.00  0.00    -0.380 N 
HETATM   11  H8  UNL     1       1.816   0.696   1.358  1.00  0.00     0.160 HD
BRANCH  10  12
HETATM   12  C7  UNL     1       3.764   0.809   0.588  1.00  0.00     0.030 A 
HETATM   13  C8  UNL     1       4.731   0.441  -0.325  1.00  0.00     0.032 A 
HETATM   14  C9  UNL     1       6.014   0.899  -0.349  1.00  0.00     0.046 A 
HETATM   15  C10 UNL     1       6.413   1.804   0.599  1.00  0.00     0.138 A 
HETATM   16  F1  UNL     1       7.663   2.308   0.647  1.00  0.00    -0.204 F 
HETATM   17  C11 UNL     1       5.511   2.210   1.530  1.00  0.00     0.074 A 
HETATM   18 CL1  UNL     1       5.951   3.376   2.786  1.00  0.00    -0.081 Cl
HETATM   19  C12 UNL     1       4.223   1.721   1.518  1.00  0.00     0.056 A 
ENDBRANCH  10  12
ENDBRANCH   6  10
BRANCH   8  20
HETATM   20  C15 UNL     1      -0.819   0.903  -0.060  1.00  0.00     0.043 C 
BRANCH  20  21
HETATM   21  C16 UNL     1      -1.838   1.396  -1.047  1.00  0.00     0.021 C 
BRANCH  21  22
HETATM   22  C17 UNL     1      -3.246   0.938  -0.799  1.00  0.00     0.121 C 
BRANCH  22  23
HETATM   23  N3  UNL     1      -3.729   1.371   0.507  1.00  0.00    -0.195 NA
HETATM   24  C18 UNL     1      -5.084   0.918   0.722  1.00  0.00     0.148 C 
HETATM   25  C19 UNL     1      -5.542   2.336   0.521  1.00  0.00     0.210 C 
HETATM   26  O2  UNL     1      -4.182   2.642   0.552  1.00  0.00    -0.302 OA
ENDBRANCH  22  23
ENDBRANCH  21  22
ENDBRANCH  20  21
ENDBRANCH   8  20
BRANCH   1  27
HETATM   27  O1  UNL     1      -2.574  -1.454   1.191  1.00  0.00    -0.355 OA
HETATM   28  C1  UNL     1      -3.613  -2.370   0.820  1.00  0.00     0.210 C 
ENDBRANCH   1  27
TORSDOF 7
