REMARK  7 active torsions:
REMARK  status: ('A' for Active; 'I' for Inactive)
REMARK    1  A    between atoms: O1_2  and  C2_3 
REMARK    2  A    between atoms: C6_9  and  N3_10 
REMARK    3  A    between atoms: N3_10  and  C7_11 
REMARK    4  A    between atoms: C15_21  and  C16_22 
REMARK    5  A    between atoms: C16_22  and  C17_23 
REMARK    6  A    between atoms: C17_23  and  C18_24 
REMARK    7  A    between atoms: C18_24  and  N4_25 
ROOT
HETATM    1  C2  UNL     1      -0.375  -2.164   0.645  1.00  0.00     0.076 A 
HETATM    2  C3  UNL     1       0.736  -2.963   0.798  1.00  0.00     0.070 A 
HETATM    3  C4  UNL     1       1.997  -2.436   0.639  1.00  0.00     0.074 A 
HETATM    4  N1  UNL     1       3.036  -3.300   0.805  1.00  0.00    -0.241 NA
HETATM    5  C5  UNL     1       4.302  -2.846   0.661  1.00  0.00     0.236 A 
HETATM    6  N2  UNL     1       4.444  -1.572   0.363  1.00  0.00    -0.224 NA
HETATM    7  C6  UNL     1       3.522  -0.640   0.178  1.00  0.00     0.142 A 
HETATM    8  C13 UNL     1       2.247  -1.111   0.326  1.00  0.00     0.039 A 
HETATM    9  C14 UNL     1       1.101  -0.366   0.187  1.00  0.00     0.027 A 
HETATM   10  C15 UNL     1      -0.192  -0.834   0.333  1.00  0.00    -0.024 A 
ENDROOT
BRANCH   7  11
HETATM   11  N3  UNL     1       3.726   0.719  -0.142  1.00  0.00    -0.340 N 
HETATM   12  H6  UNL     1       2.948   1.387  -0.243  1.00  0.00     0.167 HD
BRANCH  11  13
HETATM   13  C7  UNL     1       4.964   1.364  -0.366  1.00  0.00     0.035 A 
HETATM   14  C8  UNL     1       6.153   0.685  -0.494  1.00  0.00     0.032 A 
HETATM   15  C9  UNL     1       7.378   1.295  -0.704  1.00  0.00     0.046 A 
HETATM   16  C10 UNL     1       7.435   2.663  -0.792  1.00  0.00     0.138 A 
HETATM   17  F1  UNL     1       8.587   3.349  -0.997  1.00  0.00    -0.204 F 
HETATM   18  C11 UNL     1       6.289   3.418  -0.674  1.00  0.00     0.074 A 
HETATM   19 CL1  UNL     1       6.284   5.163  -0.774  1.00  0.00    -0.081 Cl
HETATM   20  C12 UNL     1       5.117   2.727  -0.467  1.00  0.00     0.056 A 
ENDBRANCH  11  13
ENDBRANCH   7  11
BRANCH  10  21
HETATM   21  C16 UNL     1      -1.344   0.108   0.140  1.00  0.00     0.043 C 
BRANCH  21  22
HETATM   22  C17 UNL     1      -2.006  -0.100  -1.188  1.00  0.00     0.024 C 
BRANCH  22  23
HETATM   23  C18 UNL     1      -3.152   0.791  -1.493  1.00  0.00     0.117 C 
BRANCH  23  24
HETATM   24  N4  UNL     1      -4.263   0.790  -0.662  1.00  0.00    -0.408 N 
HETATM   25  C19 UNL     1      -4.212   1.285   0.642  1.00  0.00     0.143 C 
HETATM   26  C20 UNL     1      -5.405   2.236   0.825  1.00  0.00     0.187 C 
HETATM   27  O2  UNL     1      -6.358   2.082  -0.161  1.00  0.00    -0.388 OA
HETATM   28  C21 UNL     1      -6.634   0.747  -0.447  1.00  0.00     0.187 C 
HETATM   29  C22 UNL     1      -5.414   0.067  -1.059  1.00  0.00     0.143 C 
ENDBRANCH  23  24
ENDBRANCH  22  23
ENDBRANCH  21  22
ENDBRANCH  10  21
BRANCH   1  30
HETATM   30  O1  UNL     1      -1.663  -2.643   0.794  1.00  0.00    -0.355 OA
HETATM   31  C1  UNL     1      -1.964  -3.990   1.115  1.00  0.00     0.210 C 
ENDBRANCH   1  30
TORSDOF 7
