REMARK  3 active torsions:
REMARK  status: ('A' for Active; 'I' for Inactive)
REMARK    1  A    between atoms: N1_1  and  C1_2 
REMARK    2  A    between atoms: C9_13  and  C10_14 
REMARK    3  A    between atoms: C10_14  and  O1_15 
ROOT
HETATM    1  C1  UNL     1       1.958   0.411  -0.509  1.00  0.00     0.006 C 
HETATM    2  C2  UNL     1       3.086   0.129   0.210  1.00  0.00     0.027 C 
HETATM    3  C3  UNL     1       3.292  -1.206   0.761  1.00  0.00     0.037 C 
HETATM    4  C4  UNL     1       2.745  -2.420   0.839  1.00  0.00     0.103 A 
HETATM    5  N2  UNL     1       3.267  -3.515   1.481  1.00  0.00    -0.238 NA
HETATM    6  C5  UNL     1       2.758  -4.613   1.466  1.00  0.00     0.236 A 
HETATM    7  N3  UNL     1       1.599  -4.327   0.642  1.00  0.00    -0.223 NA
HETATM    8  C6  UNL     1       1.576  -3.084   0.276  1.00  0.00     0.148 A 
HETATM    9  N4  UNL     1       0.381  -3.325  -0.425  1.00  0.00    -0.370 NA
HETATM   10  C7  UNL     1      -0.646  -2.641  -0.631  1.00  0.00     0.287 C 
HETATM   11  C8  UNL     1      -1.282  -1.422  -0.405  1.00  0.00     0.027 C 
HETATM   12  C9  UNL     1      -2.018  -0.341  -0.284  1.00  0.00    -0.024 C 
HETATM   13  C11 UNL     1      -1.215   0.655   0.490  1.00  0.00     0.072 A 
HETATM   14  C12 UNL     1      -2.085   1.601   1.186  1.00  0.00    -0.017 A 
HETATM   15  C13 UNL     1      -2.212   2.886   1.017  1.00  0.00    -0.023 A 
HETATM   16  C14 UNL     1      -1.412   3.646  -0.007  1.00  0.00     0.097 A 
HETATM   17  C15 UNL     1      -0.435   2.716  -0.646  1.00  0.00     0.101 A 
HETATM   18  F1  UNL     1       0.333   3.459  -1.481  1.00  0.00    -0.210 F 
HETATM   19  C16 UNL     1      -0.295   1.386  -0.472  1.00  0.00    -0.028 A 
HETATM   20  C17 UNL     1       0.817   0.846  -1.308  1.00  0.00     0.094 C 
ENDROOT
BRANCH  12  21
HETATM   21  C10 UNL     1      -3.380   0.022  -0.764  1.00  0.00     0.244 C 
HETATM   22 CL1  UNL     1      -4.006  -1.270  -1.839  1.00  0.00    -0.090 Cl
BRANCH  21  23
HETATM   23  O1  UNL     1      -4.201   0.158   0.344  1.00  0.00    -0.377 OA
HETATM   24  H9  UNL     1      -4.133  -0.583   0.984  1.00  0.00     0.211 HD
ENDBRANCH  21  23
ENDBRANCH  12  21
BRANCH   1  25
HETATM   25  N1  UNL     1       2.429   1.798  -0.704  1.00  0.00    -0.402 N 
HETATM   26  H1  UNL     1       2.424   2.590   0.001  1.00  0.00     0.156 HD
HETATM   27  H2  UNL     1       2.834   2.501  -1.345  1.00  0.00     0.156 HD
ENDBRANCH   1  25
TORSDOF 3
