REMARK  8 active torsions:
REMARK  status: ('A' for Active; 'I' for Inactive)
REMARK    1  A    between atoms: N1_1  and  C1_2 
REMARK    2  A    between atoms: C1_2  and  C2_3 
REMARK    3  A    between atoms: O1_6  and  C4_7 
REMARK    4  A    between atoms: C6_9  and  N2_10 
REMARK    5  A    between atoms: N2_10  and  C7_11 
REMARK    6  A    between atoms: C10_14  and  O2_15 
REMARK    7  A    between atoms: O2_15  and  C11_16 
REMARK    8  A    between atoms: C11_16  and  C12_17 
ROOT
HETATM    1  N2  UNL     1       1.160  -0.753   1.671  1.00  0.00    -0.341 N 
HETATM    2  H7  UNL     1       1.325  -1.313   2.541  1.00  0.00     0.167 HD
ENDROOT
BRANCH   1   3
HETATM    3  C6  UNL     1       2.277  -0.074   1.121  1.00  0.00     0.131 A 
HETATM    4  C5  UNL     1       3.520  -0.187   1.758  1.00  0.00     0.084 A 
HETATM    5  C4  UNL     1       4.661   0.430   1.308  1.00  0.00     0.090 A 
HETATM    6  N4  UNL     1       4.552   1.177   0.196  1.00  0.00    -0.240 NA
HETATM    7  C20 UNL     1       3.375   1.306  -0.437  1.00  0.00     0.236 A 
HETATM    8  N3  UNL     1       2.278   0.692   0.023  1.00  0.00    -0.224 NA
BRANCH   5   9
HETATM    9  O1  UNL     1       5.794   0.179   2.101  1.00  0.00     0.000 OA
HETATM   10  C3  UNL     1       6.967   0.769   1.704  1.00  0.00     0.152 A 
HETATM   11  C2  UNL     1       8.131   1.322   1.467  1.00  0.00     0.048 C 
HETATM   12  F1  UNL     1       6.785   0.427   3.007  1.00  0.00    -0.203 F 
BRANCH  11  13
HETATM   13  C1  UNL     1       8.556   1.778   0.124  1.00  0.00     0.297 C 
BRANCH  13  14
HETATM   14  N1  UNL     1       7.534   1.535  -0.868  1.00  0.00     0.081 N 
HETATM   15  H1  UNL     1       7.558   0.505  -1.093  1.00  0.00     0.313 HD
HETATM   16  H2  UNL     1       7.636   2.144  -1.701  1.00  0.00     0.313 HD
ENDBRANCH  13  14
ENDBRANCH  11  13
ENDBRANCH   5   9
ENDBRANCH   1   3
BRANCH   1  17
HETATM   17  C7  UNL     1      -0.164  -0.760   1.170  1.00  0.00     0.035 A 
HETATM   18  C8  UNL     1      -0.621  -0.129   0.037  1.00  0.00     0.032 A 
HETATM   19  C9  UNL     1      -1.909  -0.159  -0.411  1.00  0.00     0.041 A 
HETATM   20  C10 UNL     1      -2.843  -0.867   0.306  1.00  0.00     0.091 A 
HETATM   21  C18 UNL     1      -2.452  -1.521   1.449  1.00  0.00     0.069 A 
HETATM   22 CL1  UNL     1      -3.634  -2.427   2.371  1.00  0.00    -0.081 Cl
HETATM   23  C19 UNL     1      -1.156  -1.458   1.849  1.00  0.00     0.056 A 
BRANCH  20  24
HETATM   24  O2  UNL     1      -4.174  -0.955  -0.072  1.00  0.00    -0.345 OA
BRANCH  24  25
HETATM   25  C11 UNL     1      -4.562  -0.275  -1.252  1.00  0.00     0.214 C 
BRANCH  25  26
HETATM   26  C12 UNL     1      -6.020  -0.492  -1.484  1.00  0.00    -0.034 A 
HETATM   27  C13 UNL     1      -6.389  -1.590  -2.247  1.00  0.00     0.009 A 
HETATM   28  C14 UNL     1      -7.697  -1.871  -2.513  1.00  0.00     0.001 A 
HETATM   29  C15 UNL     1      -8.670  -1.023  -1.997  1.00  0.00     0.000 A 
HETATM   30  C16 UNL     1      -8.342   0.086  -1.229  1.00  0.00     0.001 A 
HETATM   31  C17 UNL     1      -6.995   0.343  -0.977  1.00  0.00     0.009 A 
ENDBRANCH  25  26
ENDBRANCH  24  25
ENDBRANCH  20  24
ENDBRANCH   1  17
TORSDOF 8
