REMARK  5 active torsions:
REMARK  status: ('A' for Active; 'I' for Inactive)
REMARK    1  A    between atoms: C2_2  and  C3_3 
REMARK    2  A    between atoms: C11_15  and  C12_16 
REMARK    3  A    between atoms: C12_16  and  C13_17 
REMARK    4  A    between atoms: C13_17  and  N3_18 
REMARK    5  A    between atoms: C18_24  and  O2_25 
ROOT
HETATM    1  C3  UNL     1      -1.143   2.218  -0.055  1.00  0.00    -0.047 C 
HETATM    2  C4  UNL     1      -2.304   2.754   0.440  1.00  0.00     0.074 C 
HETATM    3  C5  UNL     1      -3.711   2.318   0.283  1.00  0.00     0.019 C 
HETATM    4 CL1  UNL     1      -4.000   3.746   1.288  1.00  0.00    -0.088 Cl
HETATM    5  C6  UNL     1      -4.794   1.579  -0.112  1.00  0.00     0.023 C 
HETATM    6  C7  UNL     1      -4.700   0.332  -0.962  1.00  0.00     0.301 C 
HETATM    7  N1  UNL     1      -3.276   0.080  -1.104  1.00  0.00     0.116 N 
HETATM    8  C8  UNL     1      -2.924  -0.937  -2.066  1.00  0.00     0.374 C 
HETATM    9  N2  UNL     1      -2.401  -0.266  -3.234  1.00  0.00    -0.255 NA
HETATM   10  C9  UNL     1      -1.615   0.738  -3.453  1.00  0.00     0.163 C 
HETATM   11  S1  UNL     1      -0.539   1.872  -2.515  1.00  0.00    -0.082 SA
HETATM   12  C10 UNL     1      -0.480   1.131  -0.851  1.00  0.00     0.018 C 
HETATM   13  C11 UNL     1      -0.002  -0.059  -0.510  1.00  0.00    -0.005 C 
HETATM   14  C18 UNL     1      -0.692  -1.296  -0.976  1.00  0.00     0.081 C 
HETATM   15  C20 UNL     1      -1.878  -1.771  -1.419  1.00  0.00     0.004 C 
HETATM   16  C21 UNL     1      -2.120  -3.217  -1.225  1.00  0.00     0.050 C 
HETATM   17  H8  UNL     1      -2.911  -0.250  -0.138  1.00  0.00     0.319 HD
ENDROOT
BRANCH  13  18
HETATM   18  C12 UNL     1       1.191  -0.495   0.308  1.00  0.00     0.073 C 
BRANCH  18  19
HETATM   19  C13 UNL     1       1.961   0.660   0.862  1.00  0.00     0.277 C 
BRANCH  19  20
HETATM   20  N3  UNL     1       3.109   0.284   1.618  1.00  0.00     0.092 N 
HETATM   21  C14 UNL     1       2.890  -0.372   2.857  1.00  0.00     0.298 C 
HETATM   22  C15 UNL     1       3.977  -1.346   3.245  1.00  0.00     0.198 C 
HETATM   23  O1  UNL     1       5.255  -0.938   2.935  1.00  0.00    -0.388 OA
HETATM   24  C16 UNL     1       5.392  -0.261   1.745  1.00  0.00     0.198 C 
HETATM   25  C17 UNL     1       4.131  -0.410   0.880  1.00  0.00     0.298 C 
ENDBRANCH  19  20
ENDBRANCH  18  19
ENDBRANCH  13  18
BRANCH  14  26
HETATM   26  O2  UNL     1       0.140  -2.407  -0.978  1.00  0.00    -0.355 OA
HETATM   27  C19 UNL     1       0.660  -2.804  -2.256  1.00  0.00     0.210 C 
ENDBRANCH  14  26
BRANCH   1  28
HETATM   28  C2  UNL     1      -0.471   3.333   0.655  1.00  0.00     0.043 C 
HETATM   29  C1  UNL     1       0.355   4.218   1.183  1.00  0.00    -0.008 C 
ENDBRANCH   1  28
TORSDOF 5
