REMARK  5 active torsions:
REMARK  status: ('A' for Active; 'I' for Inactive)
REMARK    1  A    between atoms: C3_3  and  O1_4 
REMARK    2  A    between atoms: O1_4  and  C4_5 
REMARK    3  A    between atoms: C4_5  and  C5_6 
REMARK    4  A    between atoms: N1_17  and  C14_18 
REMARK    5  A    between atoms: C19_27  and  N4_28 
ROOT
HETATM    1  C1  UNL     1       0.656  -2.257  -0.701  1.00  0.00     0.035 C 
HETATM    2  C2  UNL     1       0.767  -0.791  -0.980  1.00  0.00     0.116 C 
HETATM    3  C3  UNL     1       2.044  -0.265  -0.363  1.00  0.00     0.188 C 
HETATM    4  C11 UNL     1       2.215   1.189  -0.745  1.00  0.00     0.040 C 
HETATM    5 CL1  UNL     1       3.740   2.033  -0.845  1.00  0.00    -0.086 Cl
HETATM    6  C12 UNL     1       1.105   1.853  -1.022  1.00  0.00     0.015 C 
HETATM    7  C13 UNL     1      -0.307   1.350  -1.005  1.00  0.00     0.153 C 
HETATM    8  N1  UNL     1      -0.391  -0.026  -0.559  1.00  0.00    -0.354 N 
ENDROOT
BRANCH   8   9
HETATM    9  C14 UNL     1      -1.483  -0.514   0.200  1.00  0.00     0.139 C 
HETATM   10  N2  UNL     1      -1.643  -1.290   1.252  1.00  0.00    -0.224 NA
HETATM   11  C15 UNL     1      -2.957  -1.590   1.776  1.00  0.00     0.231 C 
HETATM   12  N3  UNL     1      -3.108  -0.373   2.051  1.00  0.00    -0.257 NA
HETATM   13  C16 UNL     1      -4.266   0.186   2.648  1.00  0.00     0.323 C 
HETATM   14  O2  UNL     1      -3.969   1.563   2.781  1.00  0.00    -0.341 OA
HETATM   15  P1  UNL     1      -3.580   2.259   1.268  1.00  0.00     0.049 P 
HETATM   16  C17 UNL     1      -3.638   1.037  -0.072  1.00  0.00     0.009 A 
HETATM   17  H18 UNL     1      -4.494   3.342   0.987  1.00  0.00     0.093 HD
HETATM   18  C18 UNL     1      -4.694   1.107  -0.959  1.00  0.00     0.044 A 
HETATM   19  C22 UNL     1      -2.741   0.023  -0.387  1.00  0.00     0.023 A 
HETATM   20  C19 UNL     1      -4.978   0.336  -2.082  1.00  0.00     0.026 A 
HETATM   21  C20 UNL     1      -4.058  -0.655  -2.357  1.00  0.00     0.030 A 
HETATM   22  C21 UNL     1      -2.960  -0.776  -1.488  1.00  0.00     0.018 A 
BRANCH  20  23
HETATM   23  N4  UNL     1      -6.107   0.546  -2.880  1.00  0.00    -0.399 N 
HETATM   24  H20 UNL     1      -6.074   1.283  -3.631  1.00  0.00     0.156 HD
HETATM   25  H21 UNL     1      -6.951  -0.023  -2.718  1.00  0.00     0.156 HD
ENDBRANCH  20  23
ENDBRANCH   8   9
BRANCH   3  26
HETATM   26  O1  UNL     1       2.102  -0.415   0.988  1.00  0.00    -0.374 OA
BRANCH  26  27
HETATM   27  C4  UNL     1       3.146  -1.104   1.523  1.00  0.00     0.207 C 
BRANCH  27  28
HETATM   28  C5  UNL     1       4.488  -0.573   1.284  1.00  0.00    -0.032 A 
HETATM   29  C6  UNL     1       5.395  -0.864   0.289  1.00  0.00     0.009 A 
HETATM   30  C7  UNL     1       6.627  -0.259   0.200  1.00  0.00     0.004 A 
HETATM   31  C8  UNL     1       7.041   0.683   1.110  1.00  0.00     0.042 A 
HETATM   32  C9  UNL     1       6.182   1.021   2.131  1.00  0.00     0.117 A 
HETATM   33  F1  UNL     1       6.550   1.935   3.036  1.00  0.00    -0.206 F 
HETATM   34  C10 UNL     1       4.956   0.395   2.187  1.00  0.00     0.051 A 
ENDBRANCH  27  28
ENDBRANCH  26  27
ENDBRANCH   3  26
TORSDOF 5
