REMARK  5 active torsions:
REMARK  status: ('A' for Active; 'I' for Inactive)
REMARK       I    between atoms: C2_2  and  N1_4 
REMARK    1  A    between atoms: N1_4  and  C3_5 
REMARK    2  A    between atoms: C7_9  and  O2_10 
REMARK    3  A    between atoms: O2_10  and  C8_11 
REMARK    4  A    between atoms: C10_13  and  N2_14 
REMARK    5  A    between atoms: N2_14  and  C11_15 
ROOT
HETATM    1  C8  UNL     1       0.681  -0.763  -2.232  1.00  0.00     0.174 A 
HETATM    2  C9  UNL     1       0.018  -0.037  -1.268  1.00  0.00     0.108 A 
HETATM    3  C10 UNL     1      -1.250   0.413  -1.572  1.00  0.00     0.133 A 
HETATM    4  N3  UNL     1      -1.816   0.153  -2.762  1.00  0.00    -0.224 NA
HETATM    5  C21 UNL     1      -1.158  -0.566  -3.715  1.00  0.00     0.238 A 
HETATM    6  N4  UNL     1       0.088  -1.008  -3.415  1.00  0.00    -0.217 NA
ENDROOT
BRANCH   3   7
HETATM    7  N2  UNL     1      -1.985   1.147  -0.628  1.00  0.00    -0.343 N 
HETATM    8  H9  UNL     1      -2.068   2.158  -0.318  1.00  0.00     0.167 HD
BRANCH   7   9
HETATM    9  C11 UNL     1      -2.889   0.338   0.155  1.00  0.00     0.029 C 
HETATM   10  C12 UNL     1      -2.465  -0.842   0.636  1.00  0.00     0.028 C 
HETATM   11  C13 UNL     1      -3.135  -1.879   1.454  1.00  0.00     0.026 C 
HETATM   12  C14 UNL     1      -4.212  -1.699   2.210  1.00  0.00     0.134 C 
HETATM   13  O3  UNL     1      -4.918  -0.487   2.373  1.00  0.00    -0.361 OA
HETATM   14  C15 UNL     1      -4.715   0.781   1.824  1.00  0.00     0.198 C 
HETATM   15  C16 UNL     1      -4.258   0.817   0.412  1.00  0.00     0.062 A 
HETATM   16  C17 UNL     1      -4.358   2.216  -0.077  1.00  0.00    -0.002 A 
HETATM   17  C20 UNL     1      -5.265   0.117  -0.451  1.00  0.00     0.037 A 
HETATM   18  C18 UNL     1      -5.249   2.283  -1.030  1.00  0.00     0.039 A 
HETATM   19  C19 UNL     1      -5.841   0.975  -1.292  1.00  0.00     0.113 A 
HETATM   20  F1  UNL     1      -6.768   0.460  -2.125  1.00  0.00    -0.206 F 
ENDBRANCH   7   9
ENDBRANCH   3   7
BRANCH   1  21
HETATM   21  O2  UNL     1       1.942  -1.327  -2.194  1.00  0.00    -0.292 OA
BRANCH  21  22
HETATM   22  C7  UNL     1       2.846  -1.287  -1.178  1.00  0.00     0.080 A 
HETATM   23  C6  UNL     1       2.693  -2.297  -0.221  1.00  0.00     0.037 A 
HETATM   24  C5  UNL     1       3.569  -2.337   0.850  1.00  0.00     0.005 A 
HETATM   25  C4  UNL     1       4.545  -1.367   0.902  1.00  0.00     0.029 A 
HETATM   26  C3  UNL     1       4.732  -0.363  -0.008  1.00  0.00     0.037 A 
HETATM   27  C22 UNL     1       3.850  -0.358  -1.045  1.00  0.00     0.066 A 
BRANCH  26  28
HETATM   28  N1  UNL     1       5.722   0.630   0.021  1.00  0.00    -0.327 N 
HETATM   29  C2  UNL     1       6.740   0.838   0.957  1.00  0.00     0.218 C 
HETATM   30  C1  UNL     1       7.802   1.860   1.034  1.00  0.00     0.117 C 
HETATM   31  O1  UNL     1       6.853   0.066   1.951  1.00  0.00    -0.274 OA
HETATM   32  H4  UNL     1       5.789   1.356  -0.714  1.00  0.00     0.169 HD
ENDBRANCH  26  28
ENDBRANCH  21  22
ENDBRANCH   1  21
TORSDOF 5
