REMARK  3 active torsions:
REMARK  status: ('A' for Active; 'I' for Inactive)
REMARK    1  A    between atoms: C8_11  and  O1_12 
REMARK    2  A    between atoms: O1_12  and  C9_13 
REMARK    3  A    between atoms: C13_17  and  N4_18 
ROOT
HETATM    1  C1  UNL     1      -1.059   0.233   2.139  1.00  0.00     0.049 C 
HETATM    2  C2  UNL     1      -2.038   0.324   1.051  1.00  0.00    -0.044 C 
HETATM    3  C3  UNL     1      -3.245   0.895   1.236  1.00  0.00     0.009 C 
HETATM    4  C4  UNL     1      -4.442   1.169   0.448  1.00  0.00     0.018 C 
HETATM    5  C5  UNL     1      -4.675   0.608  -0.728  1.00  0.00     0.090 C 
HETATM    6  N1  UNL     1      -3.917  -0.330  -1.499  1.00  0.00    -0.350 N 
HETATM    7  C6  UNL     1      -2.493  -0.509  -1.398  1.00  0.00     0.143 A 
HETATM    8  N2  UNL     1      -1.979  -1.003  -2.525  1.00  0.00    -0.223 NA
HETATM    9  C7  UNL     1      -0.642  -1.215  -2.558  1.00  0.00     0.238 A 
HETATM   10  N3  UNL     1       0.167  -0.946  -1.503  1.00  0.00    -0.217 NA
HETATM   11  C8  UNL     1      -0.375  -0.450  -0.381  1.00  0.00     0.185 A 
HETATM   12  C15 UNL     1      -1.715  -0.216  -0.290  1.00  0.00     0.069 A 
HETATM   13  H7  UNL     1      -4.411  -0.935  -2.191  1.00  0.00     0.166 HD
ENDROOT
BRANCH  11  14
HETATM   14  O1  UNL     1       0.479  -0.189   0.669  1.00  0.00    -0.291 OA
BRANCH  14  15
HETATM   15  C9  UNL     1       1.838  -0.442   0.532  1.00  0.00     0.080 A 
HETATM   16  C10 UNL     1       2.550  -1.591   0.812  1.00  0.00     0.037 A 
HETATM   17  C11 UNL     1       3.909  -1.616   0.596  1.00  0.00     0.005 A 
HETATM   18  C12 UNL     1       4.580  -0.503   0.101  1.00  0.00     0.029 A 
HETATM   19  C13 UNL     1       3.875   0.659  -0.184  1.00  0.00     0.028 A 
HETATM   20  C14 UNL     1       2.500   0.680   0.035  1.00  0.00     0.066 A 
BRANCH  19  21
HETATM   21  N4  UNL     1       4.602   1.776  -0.690  1.00  0.00    -0.399 N 
HETATM   22  H12 UNL     1       4.440   2.169  -1.647  1.00  0.00     0.156 HD
HETATM   23  H13 UNL     1       5.310   2.169  -0.026  1.00  0.00     0.156 HD
ENDBRANCH  19  21
ENDBRANCH  14  15
ENDBRANCH  11  14
TORSDOF 3
