REMARK  8 active torsions:
REMARK  status: ('A' for Active; 'I' for Inactive)
REMARK    1  A    between atoms: C2_2  and  C3_4 
REMARK    2  A    between atoms: C4_5  and  C5_6 
REMARK    3  A    between atoms: C6_7  and  O1_8 
REMARK    4  A    between atoms: O1_8  and  C7_9 
REMARK    5  A    between atoms: C10_12  and  N1_13 
REMARK    6  A    between atoms: N1_13  and  C11_14 
REMARK    7  A    between atoms: C13_16  and  C14_17 
REMARK    8  A    between atoms: C16_19  and  N2_20 
ROOT
HETATM    1  C7  UNL     1       1.533  -1.393  -0.380  1.00  0.00     0.096 A 
HETATM    2  C8  UNL     1       0.780  -0.213  -0.443  1.00  0.00     0.041 A 
HETATM    3  C9  UNL     1      -0.333  -0.111   0.376  1.00  0.00     0.032 A 
HETATM    4  C10 UNL     1      -0.766  -1.093   1.261  1.00  0.00     0.035 A 
HETATM    5  C18 UNL     1       0.027  -2.222   1.264  1.00  0.00     0.056 A 
HETATM    6  C19 UNL     1       1.153  -2.404   0.480  1.00  0.00     0.070 A 
HETATM    7 CL1  UNL     1       2.141  -3.823   0.492  1.00  0.00    -0.081 Cl
ENDROOT
BRANCH   4   8
HETATM    8  N1  UNL     1      -1.911  -0.937   2.072  1.00  0.00    -0.341 N 
HETATM    9  H9  UNL     1      -2.154  -1.750   2.686  1.00  0.00     0.167 HD
BRANCH   8  10
HETATM   10  C11 UNL     1      -2.577   0.313   1.934  1.00  0.00     0.131 A 
HETATM   11  C12 UNL     1      -3.555   0.454   0.971  1.00  0.00     0.082 A 
HETATM   12  C13 UNL     1      -4.242   1.623   0.774  1.00  0.00     0.070 A 
HETATM   13  N3  UNL     1      -3.951   2.661   1.542  1.00  0.00    -0.241 NA
HETATM   14  C17 UNL     1      -2.991   2.566   2.506  1.00  0.00     0.235 A 
HETATM   15  N4  UNL     1      -2.341   1.411   2.672  1.00  0.00    -0.224 NA
BRANCH  12  16
HETATM   16  C14 UNL     1      -5.257   1.675  -0.270  1.00  0.00     0.006 A 
HETATM   17  C15 UNL     1      -6.174   2.425  -0.900  1.00  0.00     0.025 A 
HETATM   18  C16 UNL     1      -6.036   1.062  -1.361  1.00  0.00     0.276 A 
BRANCH  18  19
HETATM   19  N2  UNL     1      -5.397   0.829  -2.655  1.00  0.00     0.090 N 
HETATM   20  H13 UNL     1      -6.032   1.158  -3.424  1.00  0.00     0.314 HD
HETATM   21  H14 UNL     1      -4.515   1.386  -2.697  1.00  0.00     0.314 HD
ENDBRANCH  18  19
ENDBRANCH  12  16
ENDBRANCH   8  10
ENDBRANCH   4   8
BRANCH   1  22
HETATM   22  O1  UNL     1       2.620  -1.384  -1.240  1.00  0.00    -0.321 OA
BRANCH  22  23
HETATM   23  C6  UNL     1       3.509  -2.442  -1.358  1.00  0.00     0.142 C 
HETATM   24  C5  UNL     1       4.746  -2.026  -1.125  1.00  0.00     0.025 C 
BRANCH  24  25
HETATM   25  C4  UNL     1       4.570  -0.613  -0.849  1.00  0.00     0.005 C 
HETATM   26  C3  UNL     1       5.611   0.171  -0.562  1.00  0.00     0.036 C 
BRANCH  26  27
HETATM   27  C2  UNL     1       5.910   1.542  -0.239  1.00  0.00     0.050 C 
HETATM   28  C1  UNL     1       6.975   2.258   0.042  1.00  0.00     0.337 C 
HETATM   29  F1  UNL     1       5.237   2.705  -0.092  1.00  0.00    -0.427 F 
ENDBRANCH  26  27
ENDBRANCH  24  25
ENDBRANCH  22  23
ENDBRANCH   1  22
TORSDOF 8
