REMARK  5 active torsions:
REMARK  status: ('A' for Active; 'I' for Inactive)
REMARK       I    between atoms: C1_2  and  N1_3 
REMARK    1  A    between atoms: C1_2  and  C8_11 
REMARK    2  A    between atoms: N1_3  and  C2_4 
REMARK    3  A    between atoms: C11_14  and  O3_15 
REMARK    4  A    between atoms: O3_15  and  C12_16 
REMARK    5  A    between atoms: C12_16  and  C13_17 
ROOT
HETATM    1  C8  UNL     1      -0.854  -0.397   0.005  1.00  0.00     0.034 A 
HETATM    2  C9  UNL     1       0.015  -1.353  -0.481  1.00  0.00     0.020 A 
HETATM    3  C10 UNL     1       1.397  -1.290  -0.276  1.00  0.00     0.039 A 
HETATM    4  C11 UNL     1       1.908  -0.229   0.443  1.00  0.00     0.090 A 
HETATM    5  C19 UNL     1       1.057   0.760   0.952  1.00  0.00     0.068 A 
HETATM    6 CL1  UNL     1       1.647   2.140   1.877  1.00  0.00    -0.081 Cl
HETATM    7  C20 UNL     1      -0.289   0.642   0.716  1.00  0.00     0.044 A 
ENDROOT
BRANCH   1   8
HETATM    8  C1  UNL     1      -2.281  -0.546  -0.260  1.00  0.00     0.256 C 
HETATM    9  O1  UNL     1      -2.618  -1.555  -0.925  1.00  0.00    -0.267 OA
HETATM   10  N1  UNL     1      -3.234   0.393   0.207  1.00  0.00    -0.324 N 
HETATM   11  H1  UNL     1      -2.949   1.230   0.759  1.00  0.00     0.169 HD
BRANCH  10  12
HETATM   12  C2  UNL     1      -4.640   0.336   0.001  1.00  0.00     0.036 C 
HETATM   13  C3  UNL     1      -5.406   0.279   1.104  1.00  0.00     0.027 C 
HETATM   14  C4  UNL     1      -6.882   0.215   1.066  1.00  0.00     0.000 C 
HETATM   15  C5  UNL     1      -7.713   0.449   0.055  1.00  0.00    -0.001 C 
HETATM   16  C6  UNL     1      -7.227   0.847  -1.313  1.00  0.00     0.195 C 
HETATM   17  O2  UNL     1      -6.281  -0.112  -1.673  1.00  0.00    -0.382 OA
HETATM   18  C7  UNL     1      -5.005   0.353  -1.457  1.00  0.00     0.225 C 
ENDBRANCH  10  12
ENDBRANCH   1   8
BRANCH   4  19
HETATM   19  O3  UNL     1       3.263  -0.082   0.697  1.00  0.00    -0.345 OA
BRANCH  19  20
HETATM   20  C12 UNL     1       4.269  -0.967   0.271  1.00  0.00     0.214 C 
BRANCH  20  21
HETATM   21  C13 UNL     1       5.607  -0.504   0.720  1.00  0.00    -0.031 A 
HETATM   22  C14 UNL     1       6.174  -0.869   1.920  1.00  0.00     0.009 A 
HETATM   23  C15 UNL     1       7.433  -0.410   2.299  1.00  0.00     0.004 A 
HETATM   24  C16 UNL     1       8.094   0.433   1.413  1.00  0.00     0.042 A 
HETATM   25  C17 UNL     1       7.526   0.802   0.204  1.00  0.00     0.117 A 
HETATM   26  F1  UNL     1       8.236   1.626  -0.602  1.00  0.00    -0.206 F 
HETATM   27  C18 UNL     1       6.266   0.331  -0.155  1.00  0.00     0.051 A 
ENDBRANCH  20  21
ENDBRANCH  19  20
ENDBRANCH   4  19
TORSDOF 5
