REMARK  8 active torsions:
REMARK  status: ('A' for Active; 'I' for Inactive)
REMARK    1  A    between atoms: C6_9  and  C7_10 
REMARK    2  A    between atoms: C7_10  and  C8_11 
REMARK    3  A    between atoms: C9_12  and  C10_13 
REMARK    4  A    between atoms: C10_13  and  O1_14 
REMARK    5  A    between atoms: O1_14  and  C11_15 
REMARK    6  A    between atoms: C11_15  and  C12_16 
REMARK    7  A    between atoms: C19_24  and  C20_25 
REMARK    8  A    between atoms: C20_25  and  N4_26 
REMARK       I    between atoms: N4_26  and  C21_27 
ROOT
HETATM    1  C1  UNL     1      -5.810  -1.040   0.901  1.00  0.00     0.071 C 
HETATM    2  C2  UNL     1      -4.606  -1.625   1.023  1.00  0.00     0.130 C 
HETATM    3  N1  UNL     1      -5.058  -2.829   0.441  1.00  0.00    -0.353 NA
HETATM    4  C3  UNL     1      -4.545  -3.992   0.489  1.00  0.00     0.399 C 
HETATM    5  N2  UNL     1      -3.650  -5.111   0.794  1.00  0.00    -0.272 N 
HETATM    6  N3  UNL     1      -2.491  -4.938   0.027  1.00  0.00    -0.186 NA
HETATM    7  C4  UNL     1      -1.906  -3.811  -0.097  1.00  0.00     0.139 C 
HETATM    8  C5  UNL     1      -1.272  -2.474  -0.201  1.00  0.00     0.031 C 
HETATM    9  C6  UNL     1      -1.273  -1.203   0.116  1.00  0.00    -0.020 C 
HETATM   10  C18 UNL     1      -2.319  -0.660   0.944  1.00  0.00     0.082 C 
HETATM   11  C19 UNL     1      -2.129   0.658   1.149  1.00  0.00     0.030 C 
HETATM   12  O3  UNL     1      -3.401  -1.233   1.515  1.00  0.00    -0.295 OA
HETATM   13  H4  UNL     1      -4.435  -5.371   1.419  1.00  0.00     0.190 HD
ENDROOT
BRANCH   9  14
HETATM   14  C7  UNL     1      -0.143  -0.475  -0.475  1.00  0.00     0.068 C 
BRANCH  14  15
HETATM   15  C8  UNL     1       0.750  -1.337  -1.281  1.00  0.00    -0.024 C 
HETATM   16  C9  UNL     1       2.047  -1.482  -0.941  1.00  0.00    -0.005 C 
BRANCH  16  17
HETATM   17  C10 UNL     1       2.903  -0.946   0.143  1.00  0.00     0.195 C 
BRANCH  17  18
HETATM   18  O1  UNL     1       3.943  -0.229  -0.457  1.00  0.00    -0.383 OA
BRANCH  18  19
HETATM   19  C11 UNL     1       4.797   0.320   0.507  1.00  0.00     0.206 C 
BRANCH  19  20
HETATM   20  C12 UNL     1       5.868   1.041  -0.226  1.00  0.00    -0.032 A 
HETATM   21  C13 UNL     1       7.082   0.515  -0.622  1.00  0.00     0.009 A 
HETATM   22  C14 UNL     1       7.999   1.291  -1.317  1.00  0.00     0.004 A 
HETATM   23  C15 UNL     1       7.688   2.601  -1.613  1.00  0.00     0.042 A 
HETATM   24  C16 UNL     1       6.493   3.118  -1.224  1.00  0.00     0.117 A 
HETATM   25  F1  UNL     1       6.286   4.419  -1.568  1.00  0.00    -0.206 F 
HETATM   26  C17 UNL     1       5.576   2.371  -0.538  1.00  0.00     0.051 A 
ENDBRANCH  19  20
ENDBRANCH  18  19
ENDBRANCH  17  18
ENDBRANCH  16  17
ENDBRANCH  14  15
ENDBRANCH   9  14
BRANCH  11  27
HETATM   27  C20 UNL     1      -2.964   1.600   1.936  1.00  0.00     0.152 C 
BRANCH  27  28
HETATM   28  N4  UNL     1      -3.451   2.722   1.158  1.00  0.00    -0.358 N 
HETATM   29  C21 UNL     1      -4.261   2.734  -0.004  1.00  0.00     0.213 C 
HETATM   30  C22 UNL     1      -4.656   4.035  -0.657  1.00  0.00     0.117 C 
HETATM   31  O2  UNL     1      -4.627   1.625  -0.454  1.00  0.00    -0.274 OA
HETATM   32  H22 UNL     1      -3.180   3.705   1.472  1.00  0.00     0.162 HD
ENDBRANCH  27  28
ENDBRANCH  11  27
TORSDOF 8
