REMARK  1 active torsions:
REMARK  status: ('A' for Active; 'I' for Inactive)
REMARK       I    between atoms: C2_2  and  N1_4 
REMARK    1  A    between atoms: N1_4  and  C3_5 
ROOT
HETATM    1  C3  UNL     1       4.279  -1.445   0.533  1.00  0.00     0.006 A 
HETATM    2  C4  UNL     1       3.335  -0.633   0.956  1.00  0.00     0.066 A 
HETATM    3  C5  UNL     1       2.448   0.483   1.349  1.00  0.00    -0.019 C 
HETATM    4  C6  UNL     1       2.545   1.793   1.288  1.00  0.00    -0.030 C 
HETATM    5  C7  UNL     1       1.688   2.877   1.666  1.00  0.00     0.030 C 
HETATM    6  C8  UNL     1       0.374   2.384   2.277  1.00  0.00     0.031 C 
HETATM    7  C9  UNL     1      -0.434   3.573   2.613  1.00  0.00    -0.023 C 
HETATM    8  C10 UNL     1      -1.635   3.814   2.099  1.00  0.00     0.038 C 
HETATM    9  C11 UNL     1      -2.872   3.641   1.291  1.00  0.00     0.112 C 
HETATM   10  F1  UNL     1      -2.181   2.503   0.932  1.00  0.00    -0.206 F 
HETATM   11  C12 UNL     1      -4.058   3.663   0.639  1.00  0.00     0.017 C 
HETATM   12  C13 UNL     1      -4.351   2.498  -0.295  1.00  0.00     0.056 C 
HETATM   13  C14 UNL     1      -4.559   2.934  -1.704  1.00  0.00     0.172 C 
HETATM   14  O2  UNL     1      -4.731   1.862  -2.543  1.00  0.00    -0.386 OA
HETATM   15  C15 UNL     1      -3.596   1.100  -2.615  1.00  0.00     0.218 C 
HETATM   16  C16 UNL     1      -3.802  -0.052  -3.557  1.00  0.00     0.033 C 
HETATM   17 CL1  UNL     1      -4.202   0.009  -5.253  1.00  0.00    -0.087 Cl
HETATM   18  C17 UNL     1      -3.651  -1.250  -2.968  1.00  0.00     0.014 C 
HETATM   19  C18 UNL     1      -3.334  -1.752  -1.630  1.00  0.00     0.150 C 
HETATM   20  N2  UNL     1      -2.084  -2.527  -1.687  1.00  0.00    -0.371 N 
HETATM   21  C19 UNL     1      -1.492  -3.053  -0.511  1.00  0.00     0.129 A 
HETATM   22  C20 UNL     1      -0.291  -2.701   0.080  1.00  0.00     0.108 A 
HETATM   23  C21 UNL     1       0.053  -3.374   1.235  1.00  0.00     0.169 A 
HETATM   24  N3  UNL     1      -0.726  -4.335   1.783  1.00  0.00    -0.218 NA
HETATM   25  C22 UNL     1      -1.896  -4.642   1.161  1.00  0.00     0.238 A 
HETATM   26  N4  UNL     1      -2.278  -4.004   0.021  1.00  0.00    -0.225 NA
HETATM   27  O3  UNL     1       1.251  -3.078   1.894  1.00  0.00    -0.325 OA
HETATM   28  C23 UNL     1       2.504  -3.323   1.338  1.00  0.00     0.171 C 
HETATM   29  C24 UNL     1       3.194  -2.261   1.023  1.00  0.00     0.077 A 
HETATM   30  H24 UNL     1      -1.344  -2.914  -2.299  1.00  0.00     0.161 HD
ENDROOT
BRANCH   1  31
HETATM   31  N1  UNL     1       5.558  -1.712  -0.052  1.00  0.00    -0.334 N 
HETATM   32  C2  UNL     1       6.471  -0.765  -0.505  1.00  0.00     0.217 C 
HETATM   33  C1  UNL     1       7.732  -1.292  -1.072  1.00  0.00     0.117 C 
HETATM   34  O1  UNL     1       6.039   0.395  -0.340  1.00  0.00    -0.274 OA
HETATM   35  H4  UNL     1       5.735  -2.725  -0.098  1.00  0.00     0.168 HD
ENDBRANCH   1  31
TORSDOF 1
