REMARK  4 active torsions:
REMARK  status: ('A' for Active; 'I' for Inactive)
REMARK    1  A    between atoms: C5_6  and  N1_7 
REMARK    2  A    between atoms: C10_12  and  O2_13 
REMARK    3  A    between atoms: O2_13  and  C11_14 
REMARK    4  A    between atoms: C11_14  and  C12_15 
ROOT
HETATM    1  O1  UNL     1       3.025  -0.053   0.860  1.00  0.00    -0.145 OA
HETATM    2  C1  UNL     1       3.382  -0.424   1.984  1.00  0.00     0.360 A 
HETATM    3  C2  UNL     1       2.934  -1.804   1.530  1.00  0.00     0.108 C 
HETATM    4  C3  UNL     1       1.874  -1.548   0.493  1.00  0.00    -0.018 C 
HETATM    5  C4  UNL     1       0.720  -1.567  -0.137  1.00  0.00     0.040 C 
HETATM    6  C5  UNL     1      -0.270  -1.280  -1.173  1.00  0.00     0.109 C 
HETATM    7  N2  UNL     1       0.487  -0.479  -1.806  1.00  0.00    -0.109 NA
HETATM    8  C18 UNL     1       0.307   0.273  -2.965  1.00  0.00     0.232 A 
HETATM    9  N3  UNL     1       0.694   0.947  -1.981  1.00  0.00    -0.163 N 
HETATM   10  O3  UNL     1       0.926   2.322  -2.034  1.00  0.00    -0.219 OA
HETATM   11  C19 UNL     1       2.125   2.712  -1.346  1.00  0.00     0.103 A 
HETATM   12  C20 UNL     1       3.097   3.664  -1.540  1.00  0.00     0.039 A 
HETATM   13  C21 UNL     1       4.140   3.729  -0.647  1.00  0.00     0.005 A 
HETATM   14  C22 UNL     1       4.317   2.916   0.450  1.00  0.00     0.040 A 
HETATM   15  C23 UNL     1       3.378   1.953   0.688  1.00  0.00     0.173 A 
HETATM   16  C24 UNL     1       2.356   1.929  -0.223  1.00  0.00     0.079 A 
HETATM   17  N4  UNL     1       3.580   1.002   1.762  1.00  0.00     0.118 N 
HETATM   18  H23 UNL     1       3.978   1.363   2.658  1.00  0.00     0.329 HD
ENDROOT
BRANCH   6  19
HETATM   19  N1  UNL     1      -1.494  -1.959  -0.938  1.00  0.00    -0.340 N 
HETATM   20  C6  UNL     1      -1.464  -3.372  -0.640  1.00  0.00     0.153 C 
HETATM   21  C7  UNL     1      -2.502  -4.028  -1.495  1.00  0.00    -0.011 C 
HETATM   22  C8  UNL     1      -3.465  -3.434  -2.163  1.00  0.00    -0.025 C 
HETATM   23  C9  UNL     1      -3.601  -1.949  -2.112  1.00  0.00     0.081 C 
HETATM   24  C10 UNL     1      -2.829  -1.343  -0.969  1.00  0.00     0.228 C 
BRANCH  24  25
HETATM   25  O2  UNL     1      -3.443  -1.325   0.222  1.00  0.00    -0.362 OA
BRANCH  25  26
HETATM   26  C11 UNL     1      -3.757  -0.204   0.883  1.00  0.00     0.209 C 
BRANCH  26  27
HETATM   27  C12 UNL     1      -2.586   0.644   1.221  1.00  0.00    -0.032 A 
HETATM   28  C13 UNL     1      -2.110   1.680   0.448  1.00  0.00     0.009 A 
HETATM   29  C14 UNL     1      -1.016   2.458   0.767  1.00  0.00     0.004 A 
HETATM   30  C15 UNL     1      -0.359   2.173   1.946  1.00  0.00     0.042 A 
HETATM   31  C16 UNL     1      -0.769   1.154   2.779  1.00  0.00     0.117 A 
HETATM   32  F1  UNL     1      -0.108   0.887   3.937  1.00  0.00    -0.206 F 
HETATM   33  C17 UNL     1      -1.875   0.406   2.404  1.00  0.00     0.051 A 
ENDBRANCH  26  27
ENDBRANCH  25  26
ENDBRANCH  24  25
ENDBRANCH   6  19
TORSDOF 4
