REMARK  7 active torsions:
REMARK  status: ('A' for Active; 'I' for Inactive)
REMARK    1  A    between atoms: O1_2  and  C2_3 
REMARK    2  A    between atoms: C4_5  and  O2_6 
REMARK    3  A    between atoms: O2_6  and  C5_7 
REMARK    4  A    between atoms: C12_15  and  N2_16 
REMARK    5  A    between atoms: N2_16  and  C13_17 
REMARK    6  A    between atoms: C13_17  and  C14_18 
REMARK    7  A    between atoms: C15_19  and  C16_21 
ROOT
HETATM    1  C2  UNL     1      -0.303   3.460   1.564  1.00  0.00     0.073 A 
HETATM    2  C3  UNL     1       0.363   2.234   1.449  1.00  0.00     0.074 A 
HETATM    3  C4  UNL     1      -0.151   1.131   0.809  1.00  0.00     0.088 A 
HETATM    4  C11 UNL     1      -1.400   1.224   0.240  1.00  0.00     0.072 A 
HETATM    5  C12 UNL     1      -1.950   0.143  -0.411  1.00  0.00     0.140 A 
HETATM    6  N3  UNL     1      -3.167   0.352  -0.925  1.00  0.00    -0.224 NA
HETATM    7  C17 UNL     1      -3.827   1.509  -0.831  1.00  0.00     0.236 A 
HETATM    8  N4  UNL     1      -3.298   2.547  -0.205  1.00  0.00    -0.241 NA
HETATM    9  C18 UNL     1      -2.078   2.421   0.339  1.00  0.00     0.077 A 
HETATM   10  C19 UNL     1      -1.564   3.525   0.980  1.00  0.00     0.069 A 
ENDROOT
BRANCH   3  11
HETATM   11  O2  UNL     1       0.564  -0.007   0.750  1.00  0.00    -0.345 OA
BRANCH  11  12
HETATM   12  C5  UNL     1       1.807  -0.372   1.218  1.00  0.00     0.132 C 
HETATM   13  C6  UNL     1       2.801  -0.640   0.074  1.00  0.00     0.052 C 
HETATM   14  C7  UNL     1       4.036  -1.202   0.746  1.00  0.00     0.119 C 
HETATM   15  N1  UNL     1       3.718  -2.538   1.098  1.00  0.00    -0.416 N 
HETATM   16  C8  UNL     1       4.201  -3.577   0.266  1.00  0.00     0.143 C 
HETATM   17  C9  UNL     1       2.478  -2.753   1.740  1.00  0.00     0.119 C 
HETATM   18  C10 UNL     1       1.767  -1.505   2.178  1.00  0.00     0.052 C 
ENDBRANCH  11  12
ENDBRANCH   3  11
BRANCH   1  19
HETATM   19  O1  UNL     1       0.230   4.559   2.212  1.00  0.00    -0.356 OA
HETATM   20  C1  UNL     1      -0.385   5.800   2.357  1.00  0.00     0.210 C 
ENDBRANCH   1  19
BRANCH   5  21
HETATM   21  N2  UNL     1      -1.333  -1.127  -0.561  1.00  0.00    -0.370 N 
HETATM   22  H17 UNL     1      -0.444  -1.568  -0.283  1.00  0.00     0.161 HD
BRANCH  21  23
HETATM   23  C13 UNL     1      -2.082  -2.139  -1.287  1.00  0.00     0.150 C 
BRANCH  23  24
HETATM   24  C14 UNL     1      -2.299  -1.623  -2.673  1.00  0.00     0.014 C 
HETATM   25  C15 UNL     1      -3.427  -1.390  -3.325  1.00  0.00     0.038 C 
HETATM   26 CL1  UNL     1      -5.112  -1.552  -2.933  1.00  0.00    -0.087 Cl
BRANCH  25  27
HETATM   27  C16 UNL     1      -3.419  -0.870  -4.714  1.00  0.00     0.273 C 
HETATM   28  F1  UNL     1      -2.095  -0.708  -5.110  1.00  0.00    -0.250 F 
ENDBRANCH  25  27
ENDBRANCH  23  24
ENDBRANCH  21  23
ENDBRANCH   5  21
TORSDOF 7
