REMARK  4 active torsions:
REMARK  status: ('A' for Active; 'I' for Inactive)
REMARK    1  A    between atoms: C5_6  and  C6_7 
REMARK    2  A    between atoms: C6_7  and  C7_8 
REMARK    3  A    between atoms: C9_11  and  N2_12 
REMARK    4  A    between atoms: C15_20  and  N4_21 
ROOT
HETATM    1  C1  UNL     1       2.981  -1.245  -1.745  1.00  0.00     0.045 C 
HETATM    2  C2  UNL     1       2.234  -0.900  -0.558  1.00  0.00    -0.050 C 
HETATM    3  C3  UNL     1       1.051  -0.644  -1.160  1.00  0.00    -0.001 C 
HETATM    4  C4  UNL     1      -0.057  -0.451  -2.103  1.00  0.00     0.176 C 
HETATM    5  N1  UNL     1      -1.176  -1.219  -1.807  1.00  0.00    -0.294 NA
HETATM    6  C5  UNL     1      -2.179  -0.964  -1.053  1.00  0.00     0.014 C 
HETATM    7  C8  UNL     1      -2.766   0.109  -0.156  1.00  0.00     0.126 C 
HETATM    8  C9  UNL     1      -1.798   1.188   0.150  1.00  0.00     0.082 C 
HETATM    9  N3  UNL     1      -1.292   2.227  -0.310  1.00  0.00    -0.253 NA
HETATM   10  C10 UNL     1      -0.345   3.113   0.202  1.00  0.00     0.118 C 
HETATM   11  C11 UNL     1       0.859   3.043   0.678  1.00  0.00     0.018 C 
HETATM   12  C12 UNL     1       2.177   3.086   1.215  1.00  0.00     0.009 C 
HETATM   13  C13 UNL     1       2.898   2.001   1.364  1.00  0.00     0.186 A 
HETATM   14  C14 UNL     1       3.088   0.571   1.261  1.00  0.00     0.162 A 
HETATM   15  O1  UNL     1       1.925   1.046   0.951  1.00  0.00    -0.359 OA
HETATM   16  C15 UNL     1       2.441  -0.713   0.916  1.00  0.00     0.286 C 
ENDROOT
BRANCH   6  17
HETATM   17  C6  UNL     1      -3.034  -2.181  -1.164  1.00  0.00     0.069 C 
BRANCH  17  18
HETATM   18  C7  UNL     1      -3.082  -2.854   0.186  1.00  0.00     0.120 C 
HETATM   19 CL1  UNL     1      -4.080  -4.336   0.058  1.00  0.00    -0.130 Cl
ENDBRANCH  17  18
ENDBRANCH   6  17
BRANCH   8  20
HETATM   20  N2  UNL     1      -1.200   1.039   1.459  1.00  0.00    -0.290 NA
HETATM   21  H13 UNL     1      -1.054   1.693   2.288  1.00  0.00     0.125 HD
HETATM   22  H14 UNL     1      -0.980   1.528   2.342  1.00  0.00     0.125 HD
ENDBRANCH   8  20
BRANCH  16  23
HETATM   23  N4  UNL     1       1.120  -0.862   1.491  1.00  0.00     0.090 N 
HETATM   24  H20 UNL     1       1.068  -0.423   2.445  1.00  0.00     0.313 HD
HETATM   25  H21 UNL     1       0.787  -1.829   1.499  1.00  0.00     0.313 HD
ENDBRANCH  16  23
TORSDOF 4
