REMARK  7 active torsions:
REMARK  status: ('A' for Active; 'I' for Inactive)
REMARK       I    between atoms: C2_2  and  N1_4 
REMARK    1  A    between atoms: N1_4  and  C3_5 
REMARK    2  A    between atoms: C7_9  and  O2_10 
REMARK    3  A    between atoms: O2_10  and  C8_11 
REMARK    4  A    between atoms: N4_16  and  C11_17 
REMARK    5  A    between atoms: C14_20  and  O3_21 
REMARK    6  A    between atoms: O3_21  and  C15_22 
REMARK    7  A    between atoms: C15_22  and  C16_23 
ROOT
HETATM    1  C8  UNL     1       2.421   1.490  -2.616  1.00  0.00     0.367 A 
HETATM    2  N2  UNL     1       3.429   2.079  -3.520  1.00  0.00    -0.231 NA
HETATM    3  C9  UNL     1       3.147   2.550  -4.669  1.00  0.00     0.233 A 
HETATM    4  N3  UNL     1       1.844   2.582  -5.252  1.00  0.00    -0.237 NA
HETATM    5  C10 UNL     1       0.894   2.077  -4.524  1.00  0.00     0.215 A 
HETATM    6  N4  UNL     1       1.109   1.521  -3.230  1.00  0.00    -0.295 N 
ENDROOT
BRANCH   6   7
HETATM    7  C11 UNL     1      -0.023   0.996  -2.553  1.00  0.00     0.041 A 
HETATM    8  C12 UNL     1       0.069   0.201  -1.424  1.00  0.00     0.032 A 
HETATM    9  C13 UNL     1      -1.004  -0.320  -0.732  1.00  0.00     0.041 A 
HETATM   10  C14 UNL     1      -2.280  -0.043  -1.178  1.00  0.00     0.091 A 
HETATM   11  C22 UNL     1      -2.442   0.750  -2.308  1.00  0.00     0.069 A 
HETATM   12 CL1  UNL     1      -4.073   1.084  -2.848  1.00  0.00    -0.081 Cl
HETATM   13  C23 UNL     1      -1.321   1.236  -2.948  1.00  0.00     0.056 A 
BRANCH  10  14
HETATM   14  O3  UNL     1      -3.374  -0.557  -0.496  1.00  0.00    -0.345 OA
BRANCH  14  15
HETATM   15  C15 UNL     1      -3.189  -1.373   0.669  1.00  0.00     0.214 C 
BRANCH  15  16
HETATM   16  C16 UNL     1      -4.470  -1.812   1.234  1.00  0.00    -0.031 A 
HETATM   17  C17 UNL     1      -5.126  -2.969   0.890  1.00  0.00     0.009 A 
HETATM   18  C18 UNL     1      -6.337  -3.346   1.451  1.00  0.00     0.004 A 
HETATM   19  C19 UNL     1      -6.892  -2.492   2.406  1.00  0.00     0.042 A 
HETATM   20  C20 UNL     1      -6.258  -1.316   2.778  1.00  0.00     0.117 A 
HETATM   21  F1  UNL     1      -6.847  -0.514   3.721  1.00  0.00    -0.206 F 
HETATM   22  C21 UNL     1      -5.051  -0.983   2.191  1.00  0.00     0.051 A 
ENDBRANCH  15  16
ENDBRANCH  14  15
ENDBRANCH  10  14
ENDBRANCH   6   7
BRANCH   1  23
HETATM   23  O2  UNL     1       2.412   2.358  -1.480  1.00  0.00    -0.306 OA
BRANCH  23  24
HETATM   24  C7  UNL     1       2.879   1.987  -0.239  1.00  0.00     0.075 A 
HETATM   25  C6  UNL     1       2.728   3.042   0.658  1.00  0.00     0.037 A 
HETATM   26  C5  UNL     1       3.109   2.967   1.984  1.00  0.00     0.005 A 
HETATM   27  C4  UNL     1       3.671   1.795   2.470  1.00  0.00     0.029 A 
HETATM   28  C3  UNL     1       3.821   0.748   1.581  1.00  0.00     0.037 A 
HETATM   29  C24 UNL     1       3.442   0.826   0.263  1.00  0.00     0.066 A 
BRANCH  28  30
HETATM   30  N1  UNL     1       4.379  -0.539   1.891  1.00  0.00    -0.327 N 
HETATM   31  C2  UNL     1       3.635  -1.679   2.355  1.00  0.00     0.218 C 
HETATM   32  C1  UNL     1       4.527  -2.867   2.584  1.00  0.00     0.117 C 
HETATM   33  O1  UNL     1       2.392  -1.538   2.499  1.00  0.00    -0.274 OA
HETATM   34  H4  UNL     1       5.403  -0.513   1.729  1.00  0.00     0.169 HD
ENDBRANCH  28  30
ENDBRANCH  23  24
ENDBRANCH   1  23
TORSDOF 7
