REMARK  5 active torsions:
REMARK  status: ('A' for Active; 'I' for Inactive)
REMARK    1  A    between atoms: C2_2  and  O1_3 
REMARK    2  A    between atoms: O1_3  and  C3_4 
REMARK    3  A    between atoms: C3_4  and  C4_6 
REMARK    4  A    between atoms: C5_7  and  C6_8 
REMARK       I    between atoms: C6_8  and  N1_10 
REMARK    5  A    between atoms: N1_10  and  C7_11 
ROOT
HETATM    1  C7  UNL     1       0.826   0.113  -1.183  1.00  0.00     0.033 C 
HETATM    2  C8  UNL     1       0.632  -0.656  -2.275  1.00  0.00     0.006 C 
HETATM    3  C9  UNL     1      -0.796  -0.570  -2.543  1.00  0.00     0.023 C 
HETATM    4  C10 UNL     1      -1.790  -0.955  -3.318  1.00  0.00     0.002 C 
HETATM    5  C11 UNL     1      -3.167  -0.518  -3.116  1.00  0.00     0.033 C 
HETATM    6  C12 UNL     1      -4.152  -1.595  -2.819  1.00  0.00    -0.026 C 
HETATM    7  C13 UNL     1      -5.070  -2.062  -1.984  1.00  0.00    -0.003 C 
HETATM    8  C14 UNL     1      -5.649  -1.641  -0.733  1.00  0.00     0.017 C 
HETATM    9  C15 UNL     1      -5.692  -0.770   0.189  1.00  0.00     0.089 C 
HETATM   10  N2  UNL     1      -5.084   0.443   0.500  1.00  0.00    -0.355 N 
HETATM   11  C16 UNL     1      -4.741   1.498   1.345  1.00  0.00     0.099 C 
HETATM   12  C17 UNL     1      -5.845   2.345   1.792  1.00  0.00     0.091 C 
HETATM   13  N3  UNL     1      -3.665   1.953   1.855  1.00  0.00    -0.246 NA
HETATM   14  C18 UNL     1      -2.387   1.389   1.633  1.00  0.00     0.142 C 
HETATM   15  C19 UNL     1      -1.224   0.787   1.739  1.00  0.00     0.154 C 
HETATM   16  O4  UNL     1      -0.092   0.439   1.014  1.00  0.00    -0.356 OA
HETATM   17  C20 UNL     1      -0.113   0.868  -0.333  1.00  0.00     0.231 C 
HETATM   18  H18 UNL     1      -4.591   0.881  -0.294  1.00  0.00     0.166 HD
ENDROOT
BRANCH   1  19
HETATM   19  N1  UNL     1       2.066   0.345  -0.541  1.00  0.00    -0.325 N 
HETATM   20  C6  UNL     1       2.832   1.512  -0.272  1.00  0.00     0.245 C 
HETATM   21  O3  UNL     1       2.336   2.599  -0.675  1.00  0.00    -0.268 OA
HETATM   22  H8  UNL     1       2.339  -0.626  -0.274  1.00  0.00     0.169 HD
BRANCH  20  23
HETATM   23  C5  UNL     1       4.091   1.385   0.425  1.00  0.00     0.080 C 
HETATM   24  C4  UNL     1       4.652   0.271   0.865  1.00  0.00     0.088 C 
BRANCH  24  25
HETATM   25  C3  UNL     1       5.930   0.281   1.555  1.00  0.00     0.283 C 
HETATM   26  O2  UNL     1       6.505   1.398   1.728  1.00  0.00    -0.260 OA
BRANCH  25  27
HETATM   27  O1  UNL     1       6.490  -0.892   2.002  1.00  0.00    -0.319 OA
BRANCH  27  28
HETATM   28  C2  UNL     1       7.720  -0.966   2.676  1.00  0.00     0.174 C 
HETATM   29  C1  UNL     1       8.795  -0.411   1.763  1.00  0.00     0.034 C 
ENDBRANCH  27  28
ENDBRANCH  25  27
ENDBRANCH  24  25
ENDBRANCH  20  23
ENDBRANCH   1  19
TORSDOF 5
