REMARK  6 active torsions:
REMARK  status: ('A' for Active; 'I' for Inactive)
REMARK    1  A    between atoms: C2_2  and  C3_3 
REMARK    2  A    between atoms: C3_3  and  N1_4 
REMARK    3  A    between atoms: N1_4  and  C4_5 
REMARK    4  A    between atoms: C7_8  and  O1_9 
REMARK    5  A    between atoms: O1_9  and  C8_10 
REMARK    6  A    between atoms: C8_10  and  C9_11 
ROOT
HETATM    1  C4  UNL     1       2.110   0.080   0.458  1.00  0.00     0.029 A 
HETATM    2  C5  UNL     1       1.211   1.021   0.006  1.00  0.00     0.032 A 
HETATM    3  C6  UNL     1      -0.086   0.915   0.437  1.00  0.00     0.041 A 
HETATM    4  C7  UNL     1      -0.554  -0.059   1.284  1.00  0.00     0.091 A 
HETATM    5  C15 UNL     1       0.401  -1.000   1.721  1.00  0.00     0.069 A 
HETATM    6 CL1  UNL     1       0.142  -2.378   2.810  1.00  0.00    -0.081 Cl
HETATM    7  C16 UNL     1       1.742  -0.939   1.312  1.00  0.00     0.056 A 
ENDROOT
BRANCH   4   8
HETATM    8  O1  UNL     1      -1.732  -0.405   1.860  1.00  0.00    -0.345 OA
BRANCH   8   9
HETATM    9  C8  UNL     1      -2.976   0.169   1.769  1.00  0.00     0.214 C 
BRANCH   9  10
HETATM   10  C9  UNL     1      -3.601   0.227   0.439  1.00  0.00    -0.031 A 
HETATM   11  C10 UNL     1      -4.282  -0.950   0.095  1.00  0.00     0.009 A 
HETATM   12  C11 UNL     1      -4.956  -1.128  -1.093  1.00  0.00     0.004 A 
HETATM   13  C12 UNL     1      -4.990  -0.115  -2.026  1.00  0.00     0.042 A 
HETATM   14  C13 UNL     1      -4.329   1.048  -1.706  1.00  0.00     0.117 A 
HETATM   15  F1  UNL     1      -4.267   2.141  -2.518  1.00  0.00    -0.206 F 
HETATM   16  C14 UNL     1      -3.661   1.207  -0.516  1.00  0.00     0.051 A 
ENDBRANCH   9  10
ENDBRANCH   8   9
ENDBRANCH   4   8
BRANCH   1  17
HETATM   17  N1  UNL     1       3.452   0.201   0.004  1.00  0.00    -0.386 N 
HETATM   18  H6  UNL     1       3.771   0.954  -0.639  1.00  0.00     0.160 HD
BRANCH  17  19
HETATM   19  C3  UNL     1       4.449  -0.745   0.433  1.00  0.00     0.146 C 
BRANCH  19  20
HETATM   20  C2  UNL     1       5.787  -0.470  -0.134  1.00  0.00    -0.018 C 
HETATM   21  C1  UNL     1       6.178   0.498  -0.956  1.00  0.00     0.008 C 
ENDBRANCH  19  20
ENDBRANCH  17  19
ENDBRANCH   1  17
TORSDOF 6
