REMARK  4 active torsions:
REMARK  status: ('A' for Active; 'I' for Inactive)
REMARK    1  A    between atoms: N1_1  and  C1_2 
REMARK    2  A    between atoms: C7_9  and  O1_10 
REMARK    3  A    between atoms: O1_10  and  C8_11 
REMARK    4  A    between atoms: C8_11  and  C9_12 
ROOT
HETATM    1  C1  UNL     1       3.433  -0.856  -0.756  1.00  0.00     0.037 A 
HETATM    2  C2  UNL     1       4.484  -0.109  -1.042  1.00  0.00     0.022 A 
HETATM    3  C3  UNL     1       4.548   1.330  -0.779  1.00  0.00     0.149 A 
HETATM    4  N2  UNL     1       3.373   1.893  -0.177  1.00  0.00    -0.386 N 
HETATM    5  C4  UNL     1       2.271   1.049   0.111  1.00  0.00     0.042 A 
HETATM    6  C5  UNL     1       1.189   1.676   0.687  1.00  0.00     0.033 A 
HETATM    7  C6  UNL     1       0.094   0.904   0.987  1.00  0.00     0.041 A 
HETATM    8  C7  UNL     1      -0.044  -0.445   0.772  1.00  0.00     0.091 A 
HETATM    9  C15 UNL     1       1.089  -1.042   0.181  1.00  0.00     0.082 A 
HETATM   10 CL1  UNL     1       1.274  -2.755  -0.241  1.00  0.00    -0.080 Cl
HETATM   11  C16 UNL     1       2.233  -0.303  -0.145  1.00  0.00     0.041 A 
HETATM   12  H6  UNL     1       3.409   2.916   0.014  1.00  0.00     0.160 HD
ENDROOT
BRANCH   8  13
HETATM   13  O1  UNL     1      -0.958  -1.418   0.956  1.00  0.00    -0.345 OA
BRANCH  13  14
HETATM   14  C8  UNL     1      -2.226  -1.347   1.488  1.00  0.00     0.214 C 
BRANCH  14  15
HETATM   15  C9  UNL     1      -3.115  -0.469   0.695  1.00  0.00    -0.031 A 
HETATM   16  C10 UNL     1      -3.535   0.837   0.776  1.00  0.00     0.009 A 
HETATM   17  C11 UNL     1      -4.364   1.401  -0.135  1.00  0.00     0.004 A 
HETATM   18  C12 UNL     1      -4.854   0.696  -1.226  1.00  0.00     0.042 A 
HETATM   19  C13 UNL     1      -4.464  -0.615  -1.352  1.00  0.00     0.117 A 
HETATM   20  F1  UNL     1      -4.962  -1.255  -2.419  1.00  0.00    -0.206 F 
HETATM   21  C14 UNL     1      -3.610  -1.185  -0.408  1.00  0.00     0.051 A 
ENDBRANCH  14  15
ENDBRANCH  13  14
ENDBRANCH   8  13
BRANCH   1  22
HETATM   22  N1  UNL     1       3.450  -2.248  -1.043  1.00  0.00    -0.399 N 
HETATM   23  H1  UNL     1       3.820  -2.633  -0.132  1.00  0.00     0.156 HD
HETATM   24  H2  UNL     1       3.096  -2.349  -2.031  1.00  0.00     0.156 HD
ENDBRANCH   1  22
TORSDOF 4
