REMARK  5 active torsions:
REMARK  status: ('A' for Active; 'I' for Inactive)
REMARK    1  A    between atoms: C2_2  and  O1_3 
REMARK    2  A    between atoms: O1_3  and  C3_4 
REMARK    3  A    between atoms: C3_4  and  C4_6 
REMARK    4  A    between atoms: C5_7  and  C6_8 
REMARK       I    between atoms: C6_8  and  N1_10 
REMARK    5  A    between atoms: N1_10  and  C7_11 
ROOT
HETATM    1  C7  UNL     1       0.972  -1.789  -0.278  1.00  0.00     0.048 A 
HETATM    2  C8  UNL     1       1.314  -3.102  -0.040  1.00  0.00     0.030 A 
HETATM    3  C9  UNL     1       0.293  -3.907   0.417  1.00  0.00     0.005 A 
HETATM    4  C10 UNL     1      -0.990  -3.377   0.609  1.00  0.00     0.038 A 
HETATM    5  C11 UNL     1      -1.294  -2.034   0.353  1.00  0.00     0.083 A 
HETATM    6  C12 UNL     1      -0.277  -1.238  -0.100  1.00  0.00     0.026 A 
HETATM    7  C13 UNL     1      -0.377   0.155  -0.423  1.00  0.00     0.042 C 
HETATM    8  C14 UNL     1      -1.386   0.921  -0.796  1.00  0.00     0.056 A 
HETATM    9 CL1  UNL     1      -1.180   2.650  -1.132  1.00  0.00    -0.083 Cl
HETATM   10  O4  UNL     1      -2.672   1.373  -1.155  1.00  0.00     0.000 OA
HETATM   11  C15 UNL     1      -3.668   1.470  -0.152  1.00  0.00    -0.021 C 
HETATM   12  C16 UNL     1      -4.411   0.485  -0.632  1.00  0.00     0.043 C 
HETATM   13  C17 UNL     1      -5.650  -0.180  -0.292  1.00  0.00    -0.000 C 
HETATM   14  C18 UNL     1      -6.792  -0.535   0.326  1.00  0.00     0.085 C 
HETATM   15  N2  UNL     1      -6.848   0.350   1.423  1.00  0.00    -0.361 N 
HETATM   16  C19 UNL     1      -5.938   0.562   2.486  1.00  0.00     0.208 C 
HETATM   17  N3  UNL     1      -4.953   0.663   3.258  1.00  0.00    -0.237 NA
HETATM   18  C20 UNL     1      -3.603   0.372   3.043  1.00  0.00     0.230 C 
HETATM   19  N4  UNL     1      -2.801  -0.500   2.521  1.00  0.00    -0.257 NA
HETATM   20  C21 UNL     1      -3.241  -1.691   1.865  1.00  0.00     0.325 C 
HETATM   21  O5  UNL     1      -2.614  -1.872   0.644  1.00  0.00    -0.329 OA
HETATM   22  H17 UNL     1      -7.735   0.873   1.336  1.00  0.00     0.166 HD
ENDROOT
BRANCH   1  23
HETATM   23  N1  UNL     1       2.053  -0.981  -0.753  1.00  0.00    -0.323 N 
HETATM   24  C6  UNL     1       2.810  -0.346   0.260  1.00  0.00     0.245 C 
HETATM   25  O3  UNL     1       2.400  -0.604   1.437  1.00  0.00    -0.268 OA
HETATM   26  H8  UNL     1       2.301  -0.843  -1.760  1.00  0.00     0.169 HD
BRANCH  24  27
HETATM   27  C5  UNL     1       3.941   0.513  -0.033  1.00  0.00     0.080 C 
HETATM   28  C4  UNL     1       4.394   0.802  -1.239  1.00  0.00     0.088 C 
BRANCH  28  29
HETATM   29  C3  UNL     1       5.542   1.680  -1.433  1.00  0.00     0.283 C 
HETATM   30  O2  UNL     1       6.125   2.180  -0.412  1.00  0.00    -0.260 OA
BRANCH  29  31
HETATM   31  O1  UNL     1       6.005   1.975  -2.691  1.00  0.00    -0.319 OA
BRANCH  31  32
HETATM   32  C2  UNL     1       7.111   2.815  -2.944  1.00  0.00     0.174 C 
HETATM   33  C1  UNL     1       8.328   2.172  -2.258  1.00  0.00     0.034 C 
ENDBRANCH  31  32
ENDBRANCH  29  31
ENDBRANCH  28  29
ENDBRANCH  24  27
ENDBRANCH   1  23
TORSDOF 5
