REMARK  7 active torsions:
REMARK  status: ('A' for Active; 'I' for Inactive)
REMARK    1  A    between atoms: C2_2  and  O1_3 
REMARK    2  A    between atoms: O1_3  and  C3_4 
REMARK    3  A    between atoms: C3_4  and  C4_6 
REMARK    4  A    between atoms: C4_6  and  N1_7 
REMARK    5  A    between atoms: C5_8  and  O3_9 
REMARK    6  A    between atoms: O3_9  and  C6_10 
REMARK    7  A    between atoms: C6_10  and  C7_11 
ROOT
HETATM    1  N1  UNL     1      -0.892   0.400  -0.121  1.00  0.00    -0.319 N 
HETATM    2  C5  UNL     1      -1.096  -1.022  -0.037  1.00  0.00     0.142 C 
HETATM    3  C13 UNL     1      -0.241  -2.061  -0.040  1.00  0.00     0.037 C 
HETATM    4  C14 UNL     1       1.181  -1.590  -0.150  1.00  0.00     0.096 C 
HETATM    5  C15 UNL     1       2.276  -2.411  -0.182  1.00  0.00     0.072 C 
HETATM    6  N2  UNL     1       3.574  -1.768  -0.288  1.00  0.00    -0.377 N 
HETATM    7  C16 UNL     1       4.709  -1.505   0.575  1.00  0.00     0.097 C 
HETATM    8  C17 UNL     1       5.439  -2.793   0.678  1.00  0.00     0.091 C 
HETATM    9  N3  UNL     1       4.871  -0.341   1.048  1.00  0.00    -0.230 NA
HETATM   10  C18 UNL     1       5.864   0.167   1.889  1.00  0.00     0.231 C 
HETATM   11  N4  UNL     1       5.252   1.308   1.649  1.00  0.00    -0.257 NA
HETATM   12  C19 UNL     1       4.124   1.257   0.793  1.00  0.00     0.325 C 
HETATM   13  O4  UNL     1       3.436   2.500   0.627  1.00  0.00    -0.330 OA
HETATM   14  C20 UNL     1       2.324   2.341  -0.249  1.00  0.00     0.073 A 
HETATM   15  C21 UNL     1       2.143   2.909  -1.482  1.00  0.00     0.037 A 
HETATM   16  C22 UNL     1       1.024   2.664  -2.216  1.00  0.00     0.005 A 
HETATM   17  C23 UNL     1       0.099   1.798  -1.608  1.00  0.00     0.030 A 
HETATM   18  C24 UNL     1       0.271   1.209  -0.345  1.00  0.00     0.039 A 
HETATM   19  C25 UNL     1       1.420   1.495   0.348  1.00  0.00     0.066 A 
HETATM   20  H17 UNL     1       3.952  -1.315  -1.159  1.00  0.00     0.160 HD
ENDROOT
BRANCH   2  21
HETATM   21  O3  UNL     1      -2.473  -1.343   0.067  1.00  0.00    -0.331 OA
BRANCH  21  22
HETATM   22  C6  UNL     1      -3.168  -2.008  -0.982  1.00  0.00     0.216 C 
BRANCH  22  23
HETATM   23  C7  UNL     1      -4.367  -2.638  -0.322  1.00  0.00    -0.031 A 
HETATM   24  C8  UNL     1      -5.583  -2.014  -0.168  1.00  0.00     0.009 A 
HETATM   25  C9  UNL     1      -6.586  -2.726   0.471  1.00  0.00     0.004 A 
HETATM   26  C10 UNL     1      -6.300  -4.012   0.912  1.00  0.00     0.042 A 
HETATM   27  C11 UNL     1      -5.103  -4.652   0.772  1.00  0.00     0.117 A 
HETATM   28  F1  UNL     1      -4.846  -5.899   1.206  1.00  0.00    -0.206 F 
HETATM   29  C12 UNL     1      -4.114  -3.934   0.135  1.00  0.00     0.051 A 
ENDBRANCH  22  23
ENDBRANCH  21  22
ENDBRANCH   2  21
BRANCH   1  30
HETATM   30  C4  UNL     1      -2.082   1.219  -0.009  1.00  0.00     0.242 C 
BRANCH  30  31
HETATM   31  C3  UNL     1      -1.846   2.648   0.154  1.00  0.00     0.277 C 
HETATM   32  O2  UNL     1      -2.851   3.372  -0.030  1.00  0.00    -0.263 OA
BRANCH  31  33
HETATM   33  O1  UNL     1      -0.685   3.288   0.482  1.00  0.00    -0.321 OA
BRANCH  33  34
HETATM   34  C2  UNL     1      -0.457   4.650   0.640  1.00  0.00     0.174 C 
HETATM   35  C1  UNL     1      -0.694   5.506  -0.555  1.00  0.00     0.034 C 
ENDBRANCH  33  34
ENDBRANCH  31  33
ENDBRANCH  30  31
ENDBRANCH   1  30
TORSDOF 7
