REMARK  8 active torsions:
REMARK  status: ('A' for Active; 'I' for Inactive)
REMARK    1  A    between atoms: C2_2  and  C3_3 
REMARK    2  A    between atoms: C3_3  and  C4_4 
REMARK    3  A    between atoms: C4_4  and  C5_5 
REMARK    4  A    between atoms: C6_6  and  N1_7 
REMARK    5  A    between atoms: C8_9  and  C9_10 
REMARK    6  A    between atoms: C10_11  and  C11_12 
REMARK    7  A    between atoms: C11_12  and  O1_13 
REMARK    8  A    between atoms: O1_13  and  C12_14 
ROOT
HETATM    1  C5  UNL     1       3.684   2.193  -0.342  1.00  0.00    -0.024 C 
HETATM    2  C6  UNL     1       2.586   1.623  -0.621  1.00  0.00     0.098 C 
HETATM    3  C7  UNL     1       1.298   1.026  -0.596  1.00  0.00    -0.079 C 
HETATM    4  C8  UNL     1       0.458   0.271  -0.082  1.00  0.00    -0.006 C 
HETATM    5  B1  UNL     1       0.908   1.526  -2.121  1.00  0.00     0.280 B 
HETATM    6  C17 UNL     1       1.991   1.799  -3.297  1.00  0.00     0.101 C 
HETATM    7  O2  UNL     1       1.658   1.835  -4.544  1.00  0.00    -0.307 OA
HETATM    8  C18 UNL     1       3.478   2.032  -3.142  1.00  0.00     0.037 C 
HETATM    9  C19 UNL     1       4.002   2.170  -1.869  1.00  0.00     0.012 C 
HETATM   10  H20 UNL     1      -0.050   0.924  -2.592  1.00  0.00    -0.012 HD
ENDROOT
BRANCH   2  11
HETATM   11  N1  UNL     1       2.237   1.679   0.966  1.00  0.00    -0.413 N 
HETATM   12  H6  UNL     1       1.991   1.644   1.986  1.00  0.00     0.151 HD
HETATM   13  H7  UNL     1       2.337   2.503   1.590  1.00  0.00     0.151 HD
ENDBRANCH   2  11
BRANCH   4  14
HETATM   14  C9  UNL     1       0.183  -0.676   1.023  1.00  0.00    -0.002 C 
HETATM   15  C10 UNL     1      -0.953  -1.336   1.284  1.00  0.00    -0.000 C 
BRANCH  15  16
HETATM   16  C11 UNL     1      -2.290  -1.384   0.635  1.00  0.00     0.203 C 
BRANCH  16  17
HETATM   17  O1  UNL     1      -2.527  -2.731   0.232  1.00  0.00    -0.349 OA
BRANCH  17  18
HETATM   18  C12 UNL     1      -3.866  -3.095   0.184  1.00  0.00     0.079 A 
HETATM   19  C13 UNL     1      -4.358  -3.822   1.208  1.00  0.00     0.123 A 
HETATM   20  N2  UNL     1      -5.765  -4.115   0.992  1.00  0.00    -0.351 N 
HETATM   21  C14 UNL     1      -6.473  -3.666  -0.178  1.00  0.00     0.091 A 
HETATM   22  H14 UNL     1      -6.074  -4.664   1.855  1.00  0.00     0.166 HD
HETATM   23  C15 UNL     1      -7.673  -4.090   0.040  1.00  0.00     0.063 C 
HETATM   24  N3  UNL     1      -5.887  -2.918  -1.205  1.00  0.00    -0.371 N 
HETATM   25  C16 UNL     1      -4.520  -2.568  -1.075  1.00  0.00     0.187 A 
HETATM   26  H17 UNL     1      -6.537  -2.695  -1.956  1.00  0.00     0.161 HD
ENDBRANCH  17  18
ENDBRANCH  16  17
ENDBRANCH  15  16
ENDBRANCH   4  14
BRANCH   1  27
HETATM   27  C4  UNL     1       4.667   2.779   0.466  1.00  0.00     0.006 C 
BRANCH  27  28
HETATM   28  C3  UNL     1       4.974   3.095   1.668  1.00  0.00    -0.021 C 
BRANCH  28  29
HETATM   29  C2  UNL     1       6.311   3.729   1.652  1.00  0.00     0.034 C 
HETATM   30  C1  UNL     1       7.366   4.298   2.119  1.00  0.00    -0.008 C 
ENDBRANCH  28  29
ENDBRANCH  27  28
ENDBRANCH   1  27
TORSDOF 8
