REMARK  4 active torsions:
REMARK  status: ('A' for Active; 'I' for Inactive)
REMARK    1  A    between atoms: C8_10  and  N1_11 
REMARK    2  A    between atoms: C11_14  and  O2_15 
REMARK    3  A    between atoms: O2_15  and  C12_16 
REMARK    4  A    between atoms: C16_20  and  C17_21 
ROOT
HETATM    1  N1  UNL     1      -3.116   0.857   0.295  1.00  0.00    -0.249 N 
HETATM    2  C9  UNL     1      -2.859  -0.519   0.696  1.00  0.00     0.117 A 
HETATM    3  C10 UNL     1      -1.700  -1.061   0.492  1.00  0.00     0.030 A 
HETATM    4  C11 UNL     1      -0.535  -0.340  -0.160  1.00  0.00     0.194 A 
HETATM    5  C25 UNL     1      -0.921   1.022  -0.512  1.00  0.00     0.148 A 
HETATM    6  N3  UNL     1      -2.093   1.589  -0.314  1.00  0.00    -0.182 NA
ENDROOT
BRANCH   4   7
HETATM    7  O2  UNL     1       0.581  -0.507   0.627  1.00  0.00    -0.344 OA
BRANCH   7   8
HETATM    8  C12 UNL     1       1.808  -0.975   0.452  1.00  0.00     0.045 A 
HETATM    9  C13 UNL     1       2.819  -1.240   1.372  1.00  0.00     0.087 A 
HETATM   10  C14 UNL     1       3.947  -1.733   0.817  1.00  0.00     0.047 A 
HETATM   11  C17 UNL     1       2.822  -1.441  -0.360  1.00  0.00     0.041 A 
HETATM   12  C15 UNL     1       5.058  -2.222   0.253  1.00  0.00    -0.015 A 
HETATM   13  N2  UNL     1       4.723  -1.407   1.996  1.00  0.00    -0.409 N 
HETATM   14  C16 UNL     1       4.022  -1.924  -0.599  1.00  0.00     0.054 A 
HETATM   15  C24 UNL     1       5.264  -0.083   2.021  1.00  0.00     0.118 C 
HETATM   16  H23 UNL     1       4.956  -1.995   2.857  1.00  0.00     0.154 HD
HETATM   17  C23 UNL     1       6.438   0.240   1.155  1.00  0.00     0.046 C 
HETATM   18  C22 UNL     1       6.299   0.218  -0.296  1.00  0.00    -0.025 C 
HETATM   19  C21 UNL     1       6.020   0.161  -1.603  1.00  0.00    -0.004 C 
HETATM   20  C20 UNL     1       4.848  -0.118  -2.493  1.00  0.00    -0.004 C 
HETATM   21  C19 UNL     1       3.543  -0.470  -2.580  1.00  0.00    -0.025 C 
HETATM   22  C18 UNL     1       2.380  -0.860  -1.687  1.00  0.00     0.046 C 
ENDBRANCH   7   8
ENDBRANCH   4   7
BRANCH   1  23
HETATM   23  C8  UNL     1      -4.479   1.098   0.649  1.00  0.00     0.050 C 
HETATM   24  C3  UNL     1      -5.430   0.645  -0.404  1.00  0.00     0.052 A 
HETATM   25  C2  UNL     1      -4.808   0.171  -1.632  1.00  0.00     0.029 A 
HETATM   26  C4  UNL     1      -6.550  -0.230   0.139  1.00  0.00     0.195 C 
HETATM   27  C26 UNL     1      -6.055   1.757  -1.195  1.00  0.00     0.092 A 
HETATM   28  C1  UNL     1      -5.359   1.139  -2.333  1.00  0.00     0.092 A 
HETATM   29  F1  UNL     1      -5.311   1.480  -3.657  1.00  0.00    -0.211 F 
HETATM   30  O1  UNL     1      -7.464   0.646   0.745  1.00  0.00    -0.362 OA
HETATM   31  C5  UNL     1      -7.204   1.485   1.845  1.00  0.00     0.134 C 
HETATM   32  C6  UNL     1      -6.093   1.962   2.363  1.00  0.00     0.026 C 
HETATM   33  C7  UNL     1      -4.768   1.645   1.802  1.00  0.00     0.030 C 
ENDBRANCH   1  23
TORSDOF 4
