REMARK  3 active torsions:
REMARK  status: ('A' for Active; 'I' for Inactive)
REMARK    1  A    between atoms: N1_7  and  C6_8 
REMARK    2  A    between atoms: C8_10  and  O1_11 
REMARK    3  A    between atoms: O1_11  and  C9_12 
ROOT
HETATM    1  C6  UNL     1       1.439  -0.172   0.455  1.00  0.00     0.136 A 
HETATM    2  C7  UNL     1       0.495   0.286  -0.408  1.00  0.00     0.109 A 
HETATM    3  C8  UNL     1      -0.860   0.054  -0.285  1.00  0.00     0.174 A 
HETATM    4  N2  UNL     1      -1.242  -0.693   0.792  1.00  0.00    -0.217 NA
HETATM    5  C15 UNL     1      -0.302  -1.153   1.658  1.00  0.00     0.238 A 
HETATM    6  N3  UNL     1       1.002  -0.901   1.496  1.00  0.00    -0.224 NA
ENDROOT
BRANCH   1   7
HETATM    7  N1  UNL     1       2.853   0.084   0.307  1.00  0.00    -0.320 N 
HETATM    8  C1  UNL     1       3.748  -0.468   1.305  1.00  0.00     0.211 A 
HETATM    9 CL1  UNL     1       3.662  -2.252   1.184  1.00  0.00    -0.098 Cl
HETATM   10  C2  UNL     1       5.131  -0.082   0.952  1.00  0.00     0.014 A 
HETATM   11  C3  UNL     1       5.612   0.628  -0.052  1.00  0.00     0.001 A 
HETATM   12  C4  UNL     1       4.611   1.128  -0.989  1.00  0.00     0.017 A 
HETATM   13  C5  UNL     1       3.329   0.854  -0.790  1.00  0.00     0.094 A 
ENDBRANCH   1   7
BRANCH   3  14
HETATM   14  O1  UNL     1      -1.790   0.542  -1.192  1.00  0.00    -0.292 OA
BRANCH  14  15
HETATM   15  C9  UNL     1      -3.128   0.238  -0.956  1.00  0.00     0.077 A 
HETATM   16  C10 UNL     1      -3.813   1.153  -0.173  1.00  0.00     0.037 A 
HETATM   17  C11 UNL     1      -5.147   0.913   0.102  1.00  0.00     0.003 A 
HETATM   18  C12 UNL     1      -5.804  -0.200  -0.377  1.00  0.00     0.000 A 
HETATM   19  C13 UNL     1      -5.108  -1.086  -1.146  1.00  0.00     0.003 A 
HETATM   20  C14 UNL     1      -3.784  -0.889  -1.444  1.00  0.00     0.037 A 
ENDBRANCH  14  15
ENDBRANCH   3  14
TORSDOF 3
