REMARK  3 active torsions:
REMARK  status: ('A' for Active; 'I' for Inactive)
REMARK    1  A    between atoms: C2_2  and  C3_3 
REMARK    2  A    between atoms: C4_4  and  O1_5 
REMARK    3  A    between atoms: O1_5  and  C5_6 
ROOT
HETATM    1  C5  UNL     1       2.994   1.217   0.212  1.00  0.00     0.086 C 
HETATM    2  C6  UNL     1       2.614   2.450   0.367  1.00  0.00     0.018 C 
HETATM    3  C7  UNL     1       1.494   2.742  -0.283  1.00  0.00     0.068 C 
HETATM    4  S1  UNL     1       0.520   2.493   1.167  1.00  0.00    -0.062 SA
HETATM    5  C8  UNL     1      -1.032   1.640   0.877  1.00  0.00     0.186 C 
HETATM    6  N1  UNL     1      -1.879   2.002   1.861  1.00  0.00    -0.217 NA
HETATM    7  C9  UNL     1      -3.213   1.462   1.882  1.00  0.00     0.232 C 
HETATM    8  N2  UNL     1      -4.445   1.033   1.742  1.00  0.00    -0.257 NA
HETATM    9  C10 UNL     1      -5.257   1.211   0.569  1.00  0.00     0.325 C 
HETATM   10  O2  UNL     1      -5.753  -0.080   0.154  1.00  0.00    -0.330 OA
HETATM   11  C11 UNL     1      -4.805  -1.059  -0.068  1.00  0.00     0.073 A 
HETATM   12  C12 UNL     1      -4.864  -2.427  -0.144  1.00  0.00     0.037 A 
HETATM   13  C13 UNL     1      -3.761  -3.226  -0.362  1.00  0.00     0.005 A 
HETATM   14  C14 UNL     1      -2.470  -2.718  -0.526  1.00  0.00     0.031 A 
HETATM   15  C15 UNL     1      -2.315  -1.360  -0.465  1.00  0.00     0.053 A 
HETATM   16  C16 UNL     1      -3.499  -0.714  -0.251  1.00  0.00     0.067 A 
HETATM   17  N3  UNL     1      -1.097  -0.673  -0.466  1.00  0.00    -0.287 N 
HETATM   18  C17 UNL     1       0.033  -1.594  -0.582  1.00  0.00     0.176 C 
HETATM   19  C18 UNL     1       1.309  -0.855  -0.320  1.00  0.00    -0.003 C 
HETATM   20  C19 UNL     1       1.956   0.273  -0.061  1.00  0.00     0.036 C 
HETATM   21  N4  UNL     1      -1.246   0.766  -0.298  1.00  0.00    -0.275 N 
HETATM   22  H18 UNL     1      -1.563   1.269  -1.176  1.00  0.00     0.189 HD
ENDROOT
BRANCH   1  23
HETATM   23  O1  UNL     1       3.661   0.006   0.095  1.00  0.00    -0.322 OA
BRANCH  23  24
HETATM   24  C4  UNL     1       4.607  -0.168  -0.905  1.00  0.00     0.142 C 
HETATM   25  C3  UNL     1       5.887   0.065  -0.669  1.00  0.00     0.024 C 
BRANCH  25  26
HETATM   26  C2  UNL     1       6.306   0.510   0.655  1.00  0.00    -0.008 C 
HETATM   27  C1  UNL     1       7.612   0.740   0.871  1.00  0.00     0.011 C 
ENDBRANCH  25  26
ENDBRANCH  23  24
ENDBRANCH   1  23
TORSDOF 3
