REMARK  4 active torsions:
REMARK  status: ('A' for Active; 'I' for Inactive)
REMARK    1  A    between atoms: C5_6  and  C6_7 
REMARK    2  A    between atoms: C6_7  and  O1_8 
REMARK    3  A    between atoms: O1_8  and  C7_9 
REMARK    4  A    between atoms: C8_10  and  C9_11 
ROOT
HETATM    1  C9  UNL     1       1.498  -0.746  -1.249  1.00  0.00     0.050 C 
HETATM    2  C10 UNL     1       0.211  -0.615  -0.974  1.00  0.00     0.102 C 
HETATM    3  N1  UNL     1      -0.819  -0.859  -1.915  1.00  0.00    -0.336 N 
HETATM    4  C11 UNL     1      -1.821  -0.003  -2.474  1.00  0.00     0.230 C 
HETATM    5  N2  UNL     1      -1.545   1.254  -2.300  1.00  0.00    -0.168 NA
HETATM    6  N3  UNL     1      -2.399   2.271  -2.774  1.00  0.00    -0.260 N 
HETATM    7  C12 UNL     1      -3.319   2.765  -1.791  1.00  0.00     0.148 A 
HETATM    8  C13 UNL     1      -3.869   1.901  -0.867  1.00  0.00     0.102 A 
HETATM    9  C14 UNL     1      -4.753   2.371   0.080  1.00  0.00     0.132 A 
HETATM   10  N4  UNL     1      -5.089   3.677   0.115  1.00  0.00    -0.224 NA
HETATM   11  C15 UNL     1      -4.540   4.502  -0.795  1.00  0.00     0.237 A 
HETATM   12  N5  UNL     1      -3.670   4.062  -1.734  1.00  0.00    -0.223 NA
HETATM   13  N6  UNL     1      -5.324   1.488   1.037  1.00  0.00    -0.344 N 
HETATM   14  C16 UNL     1      -4.862   0.521   1.998  1.00  0.00     0.015 C 
HETATM   15  C17 UNL     1      -5.230   0.733   3.273  1.00  0.00     0.025 C 
HETATM   16  C18 UNL     1      -4.424   0.095   4.370  1.00  0.00     0.204 C 
HETATM   17  O2  UNL     1      -3.064  -0.030   3.925  1.00  0.00    -0.352 OA
HETATM   18  C19 UNL     1      -2.807  -0.499   2.621  1.00  0.00     0.050 C 
HETATM   19  C20 UNL     1      -1.565  -0.724   2.228  1.00  0.00     0.025 C 
HETATM   20  C21 UNL     1      -1.125  -1.212   0.906  1.00  0.00     0.151 C 
HETATM   21  N7  UNL     1      -0.247  -0.212   0.308  1.00  0.00    -0.373 N 
HETATM   22  C22 UNL     1      -4.022  -0.700   1.786  1.00  0.00     0.121 C 
HETATM   23  H9  UNL     1      -0.636  -1.873  -2.091  1.00  0.00     0.168 HD
HETATM   24  H11 UNL     1      -2.464   2.714  -3.716  1.00  0.00     0.191 HD
HETATM   25  H14 UNL     1      -6.366   1.519   1.089  1.00  0.00     0.167 HD
HETATM   26  H21 UNL     1       0.154   0.724   0.535  1.00  0.00     0.161 HD
ENDROOT
BRANCH   1  27
HETATM   27  C8  UNL     1       1.913  -1.162  -2.582  1.00  0.00     0.028 C 
HETATM   28  C7  UNL     1       3.188  -1.304  -2.894  1.00  0.00     0.135 C 
BRANCH  28  29
HETATM   29  O1  UNL     1       4.244  -1.092  -2.055  1.00  0.00    -0.359 OA
BRANCH  29  30
HETATM   30  C6  UNL     1       4.920  -2.077  -1.327  1.00  0.00     0.213 C 
BRANCH  30  31
HETATM   31  C5  UNL     1       6.018  -1.492  -0.530  1.00  0.00    -0.031 A 
HETATM   32  C4  UNL     1       5.785  -1.049   0.772  1.00  0.00     0.009 A 
HETATM   33  C3  UNL     1       6.781  -0.508   1.524  1.00  0.00     0.004 A 
HETATM   34  C2  UNL     1       8.078  -0.360   1.058  1.00  0.00     0.042 A 
HETATM   35  C1  UNL     1       8.313  -0.797  -0.228  1.00  0.00     0.117 A 
HETATM   36  F1  UNL     1       9.583  -0.648  -0.674  1.00  0.00    -0.206 F 
HETATM   37  C23 UNL     1       7.309  -1.345  -0.993  1.00  0.00     0.051 A 
ENDBRANCH  30  31
ENDBRANCH  29  30
ENDBRANCH  28  29
ENDBRANCH   1  27
TORSDOF 4
