REMARK  7 active torsions:
REMARK  status: ('A' for Active; 'I' for Inactive)
REMARK    1  A    between atoms: O1_1  and  C1_2 
REMARK    2  A    between atoms: C10_13  and  N1_14 
REMARK    3  A    between atoms: N1_14  and  C11_15 
REMARK    4  A    between atoms: C13_17  and  O2_18 
REMARK    5  A    between atoms: O2_18  and  C14_19 
REMARK    6  A    between atoms: C14_19  and  C15_20 
REMARK    7  A    between atoms: C16_21  and  C17_22 
ROOT
HETATM    1  C1  UNL     1      -5.193  -1.039   0.463  1.00  0.00     0.233 A 
HETATM    2  F1  UNL     1      -5.702  -1.856  -0.528  1.00  0.00    -0.206 F 
HETATM    3  C2  UNL     1      -6.265  -0.111   0.887  1.00  0.00     0.047 A 
HETATM    4  C3  UNL     1      -6.407   1.201   0.932  1.00  0.00     0.001 A 
HETATM    5  C4  UNL     1      -5.250   1.945   0.459  1.00  0.00    -0.003 A 
HETATM    6  C5  UNL     1      -4.256   1.199   0.065  1.00  0.00    -0.011 A 
HETATM    7  C6  UNL     1      -4.019  -0.256  -0.017  1.00  0.00     0.049 A 
HETATM    8  C7  UNL     1      -3.814  -0.576  -1.493  1.00  0.00     0.070 C 
HETATM    9  C8  UNL     1      -2.707   0.297  -1.970  1.00  0.00     0.011 C 
HETATM   10 CL1  UNL     1      -2.851   1.295  -3.403  1.00  0.00    -0.089 Cl
HETATM   11  C9  UNL     1      -1.589   0.304  -1.279  1.00  0.00     0.017 C 
HETATM   12  C10 UNL     1      -1.529  -0.558  -0.083  1.00  0.00     0.108 C 
HETATM   13  C19 UNL     1      -2.756  -0.553   0.763  1.00  0.00     0.049 C 
ENDROOT
BRANCH  12  14
HETATM   14  N1  UNL     1      -0.330  -0.288   0.671  1.00  0.00    -0.367 N 
HETATM   15  H10 UNL     1      -0.288   0.040   1.651  1.00  0.00     0.161 HD
BRANCH  14  16
HETATM   16  C11 UNL     1       0.926  -0.492   0.011  1.00  0.00     0.129 A 
HETATM   17  C12 UNL     1       2.138  -0.267   0.632  1.00  0.00     0.108 A 
HETATM   18  C13 UNL     1       3.359  -0.454   0.018  1.00  0.00     0.169 A 
HETATM   19  N2  UNL     1       3.300  -0.883  -1.258  1.00  0.00    -0.218 NA
HETATM   20  C18 UNL     1       2.164  -1.121  -1.921  1.00  0.00     0.238 A 
HETATM   21  N3  UNL     1       1.009  -0.917  -1.262  1.00  0.00    -0.225 NA
BRANCH  18  22
HETATM   22  O2  UNL     1       4.565  -0.213   0.687  1.00  0.00    -0.331 OA
BRANCH  22  23
HETATM   23  C14 UNL     1       5.758  -0.447  -0.061  1.00  0.00     0.204 C 
BRANCH  23  24
HETATM   24  C15 UNL     1       6.982  -0.174   0.702  1.00  0.00    -0.002 C 
HETATM   25  C16 UNL     1       7.900   0.703   0.386  1.00  0.00     0.002 C 
BRANCH  25  26
HETATM   26  C17 UNL     1       7.983   1.623  -0.752  1.00  0.00     0.249 C 
HETATM   27  F2  UNL     1       8.033   2.937  -0.324  1.00  0.00    -0.251 F 
ENDBRANCH  25  26
ENDBRANCH  23  24
ENDBRANCH  22  23
ENDBRANCH  18  22
ENDBRANCH  14  16
ENDBRANCH  12  14
BRANCH   1  28
HETATM   28  O1  UNL     1      -4.810  -1.824   1.554  1.00  0.00    -0.358 OA
HETATM   29  H1  UNL     1      -4.874  -1.319   2.402  1.00  0.00     0.213 HD
ENDBRANCH   1  28
TORSDOF 7
