REMARK  4 active torsions:
REMARK  status: ('A' for Active; 'I' for Inactive)
REMARK    1  A    between atoms: C1_2  and  C2_3 
REMARK       I    between atoms: C1_2  and  N1_11 
REMARK    2  A    between atoms: C2_3  and  O2_4 
REMARK    3  A    between atoms: O2_4  and  C3_5 
REMARK    4  A    between atoms: N1_11  and  C9_12 
ROOT
HETATM    1  O1  UNL     1      -0.106  -2.836   0.128  1.00  0.00    -0.271 OA
HETATM    2  C1  UNL     1       0.303  -1.642   0.087  1.00  0.00     0.246 C 
HETATM    3  N1  UNL     1      -0.444  -0.456   0.073  1.00  0.00    -0.325 N 
HETATM    4  H8  UNL     1       0.039   0.474   0.037  1.00  0.00     0.169 HD
ENDROOT
BRANCH   3   5
HETATM    5  C9  UNL     1      -1.851  -0.249   0.102  1.00  0.00     0.037 A 
HETATM    6  C10 UNL     1      -2.408  -0.205  -1.179  1.00  0.00     0.032 A 
HETATM    7  C11 UNL     1      -3.782  -0.008  -1.336  1.00  0.00     0.034 A 
HETATM    8  C12 UNL     1      -4.565   0.141  -0.209  1.00  0.00     0.063 A 
HETATM    9  C13 UNL     1      -4.015   0.099   1.063  1.00  0.00     0.099 A 
HETATM   10  N2  UNL     1      -5.973   0.354  -0.022  1.00  0.00    -0.366 N 
HETATM   11  C14 UNL     1      -2.657  -0.097   1.215  1.00  0.00     0.068 A 
HETATM   12  O3  UNL     1      -5.022   0.274   1.980  1.00  0.00    -0.330 OA
HETATM   13  C15 UNL     1      -6.067   0.986   1.299  1.00  0.00     0.298 C 
HETATM   14  H14 UNL     1      -6.708   0.088  -0.722  1.00  0.00     0.162 HD
ENDBRANCH   3   5
BRANCH   2  15
HETATM   15  C2  UNL     1       1.784  -1.615   0.050  1.00  0.00     0.278 C 
BRANCH  15  16
HETATM   16  O2  UNL     1       2.220  -0.276   0.004  1.00  0.00    -0.342 OA
BRANCH  16  17
HETATM   17  C3  UNL     1       3.577   0.016  -0.037  1.00  0.00     0.069 A 
HETATM   18  C4  UNL     1       3.836   1.388  -0.079  1.00  0.00     0.037 A 
HETATM   19  C5  UNL     1       5.122   1.914  -0.124  1.00  0.00     0.003 A 
HETATM   20  C6  UNL     1       6.163   0.997  -0.125  1.00  0.00     0.000 A 
HETATM   21  C7  UNL     1       5.918  -0.356  -0.083  1.00  0.00     0.003 A 
HETATM   22  C8  UNL     1       4.638  -0.861  -0.039  1.00  0.00     0.037 A 
ENDBRANCH  16  17
ENDBRANCH  15  16
ENDBRANCH   2  15
TORSDOF 4
