REMARK  8 active torsions:
REMARK  status: ('A' for Active; 'I' for Inactive)
REMARK    1  A    between atoms: C2_2  and  N3_13 
REMARK    2  A    between atoms: C3_3  and  C4_4 
REMARK    3  A    between atoms: C5_5  and  C6_6 
REMARK    4  A    between atoms: C8_8  and  C9_9 
REMARK       I    between atoms: N3_13  and  C11_14 
REMARK    5  A    between atoms: C11_14  and  C12_16 
REMARK    6  A    between atoms: C12_16  and  S1_17 
REMARK    7  A    between atoms: S1_17  and  O2_18 
REMARK    8  A    between atoms: O2_18  and  C13_19 
ROOT
HETATM    1  C9  UNL     1       7.896  -0.198   0.473  1.00  0.00     0.183 C 
HETATM    2  C10 UNL     1       7.657  -1.591   0.776  1.00  0.00     0.065 C 
HETATM    3  N1  UNL     1       7.463  -2.711   1.001  1.00  0.00    -0.197 NA
ENDROOT
BRANCH   1   4
HETATM    4  C8  UNL     1       6.593   0.518   0.305  1.00  0.00     0.050 A 
HETATM    5  C7  UNL     1       6.425   1.932  -0.006  1.00  0.00     0.059 A 
HETATM    6  C6  UNL     1       5.119   1.690   0.035  1.00  0.00     0.059 A 
HETATM    7  N2  UNL     1       5.336   0.318   0.337  1.00  0.00    -0.253 NA
BRANCH   6   8
HETATM    8  C5  UNL     1       3.890   2.445  -0.141  1.00  0.00     0.031 C 
HETATM    9  C4  UNL     1       2.656   1.984  -0.051  1.00  0.00     0.004 C 
BRANCH   9  10
HETATM   10  C3  UNL     1       2.177   0.648   0.237  1.00  0.00     0.025 C 
HETATM   11  C2  UNL     1       0.941   0.154   0.334  1.00  0.00     0.008 C 
HETATM   12  C1  UNL     1       0.700  -1.259   0.642  1.00  0.00     0.068 C 
BRANCH  11  13
HETATM   13  N3  UNL     1      -0.168   1.026   0.133  1.00  0.00    -0.331 N 
HETATM   14  C11 UNL     1      -1.097   0.764  -0.909  1.00  0.00     0.233 C 
HETATM   15  O1  UNL     1      -0.909  -0.254  -1.644  1.00  0.00    -0.272 OA
HETATM   16  H10 UNL     1      -0.337   1.867   0.728  1.00  0.00     0.168 HD
BRANCH  14  17
HETATM   17  C12 UNL     1      -2.275   1.603  -1.201  1.00  0.00     0.208 C 
BRANCH  17  18
HETATM   18  S1  UNL     1      -3.743   1.050  -0.277  1.00  0.00     0.005 SA
BRANCH  18  19
HETATM   19  O2  UNL     1      -4.251  -0.522  -0.816  1.00  0.00    -0.279 OA
BRANCH  19  20
HETATM   20  C13 UNL     1      -5.464  -1.006  -0.345  1.00  0.00     0.084 A 
HETATM   21  C14 UNL     1      -5.344  -1.726   0.824  1.00  0.00     0.038 A 
HETATM   22  C15 UNL     1      -6.464  -2.292   1.445  1.00  0.00     0.003 A 
HETATM   23  C16 UNL     1      -7.660  -2.063   0.791  1.00  0.00     0.000 A 
HETATM   24  C17 UNL     1      -7.820  -1.357  -0.366  1.00  0.00     0.003 A 
HETATM   25  C18 UNL     1      -6.697  -0.823  -0.937  1.00  0.00     0.038 A 
ENDBRANCH  19  20
ENDBRANCH  18  19
ENDBRANCH  17  18
ENDBRANCH  14  17
ENDBRANCH  11  13
ENDBRANCH   9  10
ENDBRANCH   6   8
ENDBRANCH   1   4
TORSDOF 8
