REMARK  10 active torsions:
REMARK  status: ('A' for Active; 'I' for Inactive)
REMARK    1  A    between atoms: C1_2  and  C2_3 
REMARK       I    between atoms: C1_2  and  N1_5 
REMARK    2  A    between atoms: N1_5  and  C3_6 
REMARK    3  A    between atoms: C7_10  and  O2_11 
REMARK    4  A    between atoms: O2_11  and  C8_12 
REMARK    5  A    between atoms: C10_14  and  N2_15 
REMARK    6  A    between atoms: N2_15  and  C11_16 
REMARK    7  A    between atoms: C11_16  and  C12_17 
REMARK    8  A    between atoms: C12_17  and  C13_18 
REMARK    9  A    between atoms: C13_18  and  B1_19 
REMARK   10  A    between atoms: B1_19  and  C14_20 
ROOT
HETATM    1  C8  UNL     1       0.343   1.099  -0.639  1.00  0.00     0.174 A 
HETATM    2  C9  UNL     1       1.010   0.198   0.158  1.00  0.00     0.108 A 
HETATM    3  C10 UNL     1       2.326  -0.107  -0.092  1.00  0.00     0.129 A 
HETATM    4  N3  UNL     1       2.969   0.471  -1.113  1.00  0.00    -0.225 NA
HETATM    5  C15 UNL     1       2.321   1.344  -1.885  1.00  0.00     0.238 A 
HETATM    6  N4  UNL     1       1.034   1.667  -1.671  1.00  0.00    -0.217 NA
ENDROOT
BRANCH   1   7
HETATM    7  O2  UNL     1      -0.925   1.584  -0.627  1.00  0.00    -0.292 OA
BRANCH   7   8
HETATM    8  C7  UNL     1      -1.921   1.243   0.256  1.00  0.00     0.080 A 
HETATM    9  C6  UNL     1      -1.653   1.351   1.600  1.00  0.00     0.037 A 
HETATM   10  C5  UNL     1      -2.645   1.016   2.489  1.00  0.00     0.005 A 
HETATM   11  C4  UNL     1      -3.880   0.582   2.060  1.00  0.00     0.029 A 
HETATM   12  C3  UNL     1      -4.179   0.464   0.697  1.00  0.00     0.037 A 
HETATM   13  C16 UNL     1      -3.147   0.813  -0.138  1.00  0.00     0.066 A 
BRANCH  12  14
HETATM   14  N1  UNL     1      -5.478   0.032   0.356  1.00  0.00    -0.325 N 
HETATM   15  C1  UNL     1      -6.061  -0.179  -0.913  1.00  0.00     0.250 C 
HETATM   16  O1  UNL     1      -5.346   0.035  -1.924  1.00  0.00    -0.271 OA
HETATM   17  H3  UNL     1      -6.172  -0.183   1.119  1.00  0.00     0.169 HD
BRANCH  15  18
HETATM   18  C2  UNL     1      -7.456  -0.634  -1.140  1.00  0.00     0.325 C 
HETATM   19  F1  UNL     1      -8.207   0.550  -1.219  1.00  0.00    -0.246 F 
ENDBRANCH  15  18
ENDBRANCH  12  14
ENDBRANCH   7   8
ENDBRANCH   1   7
BRANCH   3  20
HETATM   20  N2  UNL     1       3.021  -1.030   0.720  1.00  0.00    -0.373 N 
HETATM   21  H8  UNL     1       3.242  -0.532   1.617  1.00  0.00     0.161 HD
BRANCH  20  22
HETATM   22  C11 UNL     1       3.438  -2.407   0.544  1.00  0.00     0.137 C 
BRANCH  22  23
HETATM   23  C12 UNL     1       4.401  -2.518  -0.595  1.00  0.00     0.069 C 
BRANCH  23  24
HETATM   24  C13 UNL     1       5.370  -1.618  -0.586  1.00  0.00    -0.240 C 
BRANCH  24  25
HETATM   25  B1  UNL     1       6.719  -0.555  -0.572  1.00  0.00     0.245 B 
BRANCH  25  26
HETATM   26  C14 UNL     1       8.006   0.658  -0.394  1.00  0.00     0.070 C 
HETATM   27 CL1  UNL     1       8.579   0.641   1.298  1.00  0.00    -0.140 Cl
ENDBRANCH  25  26
ENDBRANCH  24  25
ENDBRANCH  23  24
ENDBRANCH  22  23
ENDBRANCH  20  22
ENDBRANCH   3  20
TORSDOF 10
