REMARK  3 active torsions:
REMARK  status: ('A' for Active; 'I' for Inactive)
REMARK    1  A    between atoms: C5_6  and  C6_7 
REMARK    2  A    between atoms: C6_7  and  O1_8 
REMARK    3  A    between atoms: O1_8  and  C7_9 
ROOT
HETATM    1  C7  UNL     1      -0.353  -0.349  -0.505  1.00  0.00     0.121 C 
HETATM    2  C8  UNL     1      -1.198  -0.201   0.701  1.00  0.00     0.036 C 
HETATM    3  C9  UNL     1      -2.035   0.692   1.164  1.00  0.00     0.117 C 
HETATM    4  N1  UNL     1      -2.852   0.811   2.349  1.00  0.00    -0.254 NA
HETATM    5  C10 UNL     1      -3.992   0.184   2.407  1.00  0.00     0.233 C 
HETATM    6  N2  UNL     1      -3.892  -0.393   1.134  1.00  0.00    -0.237 NA
HETATM    7  C11 UNL     1      -4.261   0.152   0.029  1.00  0.00     0.208 C 
HETATM    8  N3  UNL     1      -4.298  -0.148  -1.389  1.00  0.00    -0.351 N 
HETATM    9  C12 UNL     1      -2.859  -0.248  -1.422  1.00  0.00     0.030 C 
HETATM   10  C13 UNL     1      -2.328  -1.484  -1.403  1.00  0.00     0.006 C 
HETATM   11  C14 UNL     1      -0.860  -1.637  -1.189  1.00  0.00     0.077 C 
HETATM   12  C15 UNL     1      -2.008   0.955  -1.448  1.00  0.00     0.052 C 
HETATM   13  C16 UNL     1      -0.700   0.759  -1.449  1.00  0.00     0.052 C 
HETATM   14 CL1  UNL     1       0.173   1.832  -2.527  1.00  0.00    -0.085 Cl
HETATM   15  H10 UNL     1      -5.212  -0.194  -1.876  1.00  0.00     0.166 HD
ENDROOT
BRANCH   1  16
HETATM   16  O1  UNL     1       0.977  -0.514  -0.278  1.00  0.00    -0.365 OA
BRANCH  16  17
HETATM   17  C6  UNL     1       1.597   0.502   0.395  1.00  0.00     0.208 C 
BRANCH  17  18
HETATM   18  C5  UNL     1       3.058   0.226   0.595  1.00  0.00    -0.032 A 
HETATM   19  C4  UNL     1       3.633  -0.417   1.654  1.00  0.00     0.009 A 
HETATM   20  C3  UNL     1       5.005  -0.596   1.696  1.00  0.00     0.004 A 
HETATM   21  C2  UNL     1       5.824  -0.137   0.683  1.00  0.00     0.042 A 
HETATM   22  C1  UNL     1       5.212   0.501  -0.357  1.00  0.00     0.117 A 
HETATM   23  F1  UNL     1       6.014   0.963  -1.372  1.00  0.00    -0.206 F 
HETATM   24  C17 UNL     1       3.833   0.713  -0.458  1.00  0.00     0.051 A 
ENDBRANCH  17  18
ENDBRANCH  16  17
ENDBRANCH   1  16
TORSDOF 3
