REMARK  2 active torsions:
REMARK  status: ('A' for Active; 'I' for Inactive)
REMARK    1  A    between atoms: C1_3  and  N2_4 
REMARK    2  A    between atoms: N2_4  and  C2_5 
ROOT
HETATM    1  C2  UNL     1       1.686  -0.403  -1.122  1.00  0.00     0.038 C 
HETATM    2  C3  UNL     1       0.408  -0.453  -1.450  1.00  0.00     0.095 C 
HETATM    3  C4  UNL     1      -1.039  -0.531  -1.394  1.00  0.00     0.047 C 
HETATM    4  C5  UNL     1      -1.634   0.023  -0.147  1.00  0.00    -0.049 A 
HETATM    5  C6  UNL     1      -2.401   1.130  -0.581  1.00  0.00     0.011 A 
HETATM    6  C7  UNL     1      -3.185   2.046   0.141  1.00  0.00     0.043 A 
HETATM    7  C8  UNL     1      -3.201   1.813   1.522  1.00  0.00     0.117 A 
HETATM    8  F2  UNL     1      -3.934   2.654   2.279  1.00  0.00    -0.206 F 
HETATM    9  C9  UNL     1      -2.433   0.709   1.934  1.00  0.00     0.052 A 
HETATM   10  C10 UNL     1      -1.638  -0.225   1.224  1.00  0.00    -0.025 A 
HETATM   11  C11 UNL     1      -1.109  -1.109   2.263  1.00  0.00     0.207 C 
HETATM   12  O1  UNL     1       0.285  -0.891   2.377  1.00  0.00    -0.381 OA
HETATM   13  C12 UNL     1       0.890  -1.544   1.360  1.00  0.00     0.219 C 
HETATM   14  C13 UNL     1       2.293  -1.185   1.141  1.00  0.00     0.033 C 
HETATM   15 CL1  UNL     1       3.557  -1.400   2.334  1.00  0.00    -0.087 Cl
HETATM   16  C14 UNL     1       2.670  -0.658  -0.030  1.00  0.00     0.020 C 
ENDROOT
BRANCH   1  17
HETATM   17  N2  UNL     1       2.181  -0.277  -2.469  1.00  0.00    -0.374 N 
HETATM   18  H2  UNL     1       2.148  -0.933  -3.310  1.00  0.00     0.161 HD
BRANCH  17  19
HETATM   19  C1  UNL     1       2.847   0.950  -2.758  1.00  0.00     0.238 C 
HETATM   20  N1  UNL     1       3.477   1.545  -1.774  1.00  0.00    -0.083 NA
HETATM   21  F1  UNL     1       4.093   2.702  -2.092  1.00  0.00    -0.073 F 
ENDBRANCH  17  19
ENDBRANCH   1  17
TORSDOF 2
