REMARK  6 active torsions:
REMARK  status: ('A' for Active; 'I' for Inactive)
REMARK    1  A    between atoms: O1_2  and  C2_3 
REMARK    2  A    between atoms: C5_6  and  N1_7 
REMARK    3  A    between atoms: C9_12  and  N3_13 
REMARK    4  A    between atoms: N3_13  and  C10_14 
REMARK    5  A    between atoms: N5_22  and  C17_23 
REMARK    6  A    between atoms: C20_26  and  O2_27 
ROOT
HETATM    1  N1  UNL     1       2.312   0.391  -0.534  1.00  0.00    -0.295 N 
HETATM    2  C6  UNL     1       1.557   1.571  -0.220  1.00  0.00     0.178 A 
HETATM    3  C7  UNL     1       0.132   1.204  -0.088  1.00  0.00     0.025 A 
HETATM    4  C8  UNL     1      -0.749   2.218   0.212  1.00  0.00     0.149 A 
HETATM    5  N2  UNL     1      -2.029   1.909   0.335  1.00  0.00    -0.074 NA
HETATM    6  C9  UNL     1      -2.597   0.714   0.202  1.00  0.00     0.728 A 
HETATM    7  N4  UNL     1      -1.712  -0.240  -0.088  1.00  0.00    -0.044 NA
HETATM    8  C16 UNL     1      -0.393  -0.059  -0.238  1.00  0.00     0.162 A 
HETATM    9  N5  UNL     1       0.483  -1.136  -0.550  1.00  0.00    -0.278 N 
HETATM   10  C22 UNL     1       1.882  -0.937  -0.708  1.00  0.00     0.331 A 
HETATM   11  O3  UNL     1       2.670  -1.860  -0.980  1.00  0.00    -0.246 OA
ENDROOT
BRANCH   1  12
HETATM   12  C5  UNL     1       3.719   0.656  -0.682  1.00  0.00     0.039 A 
HETATM   13  C4  UNL     1       4.402   0.528   0.530  1.00  0.00     0.032 A 
HETATM   14  C3  UNL     1       5.763   0.739   0.612  1.00  0.00     0.039 A 
HETATM   15  C2  UNL     1       6.428   1.086  -0.568  1.00  0.00     0.068 A 
HETATM   16  C24 UNL     1       5.752   1.212  -1.764  1.00  0.00     0.039 A 
HETATM   17  C23 UNL     1       4.390   1.000  -1.843  1.00  0.00     0.032 A 
BRANCH  15  18
HETATM   18  O1  UNL     1       7.792   1.312  -0.553  1.00  0.00    -0.356 OA
HETATM   19  C1  UNL     1       8.517   1.190   0.661  1.00  0.00     0.210 C 
ENDBRANCH  15  18
ENDBRANCH   1  12
BRANCH   9  20
HETATM   20  C17 UNL     1      -0.079  -2.461  -0.706  1.00  0.00     0.099 C 
HETATM   21  C18 UNL     1      -1.190  -2.557  -1.693  1.00  0.00     0.028 C 
HETATM   22  C19 UNL     1      -2.297  -3.375  -1.023  1.00  0.00     0.034 C 
HETATM   23  C20 UNL     1      -1.562  -4.085   0.069  1.00  0.00     0.120 C 
HETATM   24  C21 UNL     1      -0.647  -2.980   0.592  1.00  0.00     0.057 C 
BRANCH  23  25
HETATM   25  O2  UNL     1      -2.380  -4.457   1.125  1.00  0.00    -0.396 OA
HETATM   26  H21 UNL     1      -2.018  -5.200   1.646  1.00  0.00     0.210 HD
ENDBRANCH  23  25
ENDBRANCH   9  20
BRANCH   6  27
HETATM   27  N3  UNL     1      -3.960   0.396   0.334  1.00  0.00    -0.188 N 
HETATM   28  H9  UNL     1      -4.231  -0.623   0.192  1.00  0.00     0.184 HD
BRANCH  27  29
HETATM   29  C10 UNL     1      -5.031   1.258   0.634  1.00  0.00     0.049 A 
HETATM   30  C11 UNL     1      -6.327   0.796   0.731  1.00  0.00     0.030 A 
HETATM   31  C12 UNL     1      -7.407   1.597   1.021  1.00  0.00     0.002 A 
HETATM   32  C13 UNL     1      -7.241   2.945   1.236  1.00  0.00     0.000 A 
HETATM   33  C14 UNL     1      -5.968   3.465   1.152  1.00  0.00     0.002 A 
HETATM   34  C15 UNL     1      -4.927   2.613   0.858  1.00  0.00     0.030 A 
ENDBRANCH  27  29
ENDBRANCH   6  27
TORSDOF 6
