REMARK  8 active torsions:
REMARK  status: ('A' for Active; 'I' for Inactive)
REMARK    1  A    between atoms: O1_1  and  C1_2 
REMARK    2  A    between atoms: C1_2  and  N1_3 
REMARK    3  A    between atoms: N2_5  and  C3_6 
REMARK    4  A    between atoms: C3_6  and  N3_7 
REMARK    5  A    between atoms: N3_7  and  C4_8 
REMARK    6  A    between atoms: C7_11  and  O2_12 
REMARK    7  A    between atoms: O2_12  and  C8_13 
REMARK    8  A    between atoms: C8_13  and  C9_14 
ROOT
HETATM    1  C4  UNL     1      -1.690  -0.244  -1.808  1.00  0.00     0.032 A 
HETATM    2  C5  UNL     1      -1.313   0.616  -0.805  1.00  0.00     0.032 A 
HETATM    3  C6  UNL     1      -0.052   0.654  -0.255  1.00  0.00     0.039 A 
HETATM    4  C7  UNL     1       0.922  -0.209  -0.713  1.00  0.00     0.069 A 
HETATM    5  C15 UNL     1       0.605  -1.095  -1.719  1.00  0.00     0.039 A 
HETATM    6  C16 UNL     1      -0.674  -1.091  -2.234  1.00  0.00     0.032 A 
ENDROOT
BRANCH   1   7
HETATM    7  N3  UNL     1      -2.976  -0.323  -2.400  1.00  0.00    -0.355 N 
HETATM    8  H6  UNL     1      -3.107  -1.019  -3.192  1.00  0.00     0.166 HD
BRANCH   7   9
HETATM    9  C3  UNL     1      -4.074   0.477  -1.988  1.00  0.00     0.179 C 
BRANCH   9  10
HETATM   10  N2  UNL     1      -4.234   0.582  -0.689  1.00  0.00    -0.146 NA
HETATM   11  C2  UNL     1      -5.348   1.394  -0.312  1.00  0.00     0.197 A 
HETATM   12  N1  UNL     1      -5.289   0.336   0.426  1.00  0.00    -0.276 N 
BRANCH  12  13
HETATM   13  C1  UNL     1      -6.247   0.063   1.476  1.00  0.00     0.309 C 
BRANCH  13  14
HETATM   14  O1  UNL     1      -7.512   0.547   1.223  1.00  0.00    -0.381 OA
HETATM   15  H1  UNL     1      -7.890   0.293   0.363  1.00  0.00     0.211 HD
ENDBRANCH  13  14
ENDBRANCH  12  13
ENDBRANCH   9  10
ENDBRANCH   7   9
ENDBRANCH   1   7
BRANCH   4  16
HETATM   16  O2  UNL     1       2.215  -0.252  -0.230  1.00  0.00    -0.347 OA
BRANCH  16  17
HETATM   17  C8  UNL     1       2.690   0.595   0.801  1.00  0.00     0.214 C 
BRANCH  17  18
HETATM   18  C9  UNL     1       4.112   0.300   1.085  1.00  0.00    -0.031 A 
HETATM   19  C10 UNL     1       4.559  -0.617   2.009  1.00  0.00     0.009 A 
HETATM   20  C11 UNL     1       5.886  -0.828   2.209  1.00  0.00     0.004 A 
HETATM   21  C12 UNL     1       6.876  -0.154   1.515  1.00  0.00     0.042 A 
HETATM   22  C13 UNL     1       6.458   0.783   0.569  1.00  0.00     0.117 A 
HETATM   23  F1  UNL     1       7.312   1.513  -0.182  1.00  0.00    -0.206 F 
HETATM   24  C14 UNL     1       5.091   0.982   0.383  1.00  0.00     0.051 A 
ENDBRANCH  17  18
ENDBRANCH  16  17
ENDBRANCH   4  16
TORSDOF 8
