REMARK  6 active torsions:
REMARK  status: ('A' for Active; 'I' for Inactive)
REMARK    1  A    between atoms: C3_4  and  N1_5 
REMARK    2  A    between atoms: N1_5  and  C4_6 
REMARK    3  A    between atoms: C10_15  and  C11_16 
REMARK    4  A    between atoms: C11_16  and  O1_17 
REMARK    5  A    between atoms: O1_17  and  C12_18 
REMARK    6  A    between atoms: C12_18  and  C13_19 
ROOT
HETATM    1  F1  UNL     1       0.565   1.209   1.788  1.00  0.00    -0.205 F 
HETATM    2  C1  UNL     1       0.813   0.278   0.814  1.00  0.00     0.127 A 
HETATM    3  C2  UNL     1       2.125  -0.197   0.829  1.00  0.00     0.072 A 
HETATM    4  C3  UNL     1       2.511  -1.150  -0.112  1.00  0.00     0.036 A 
HETATM    5  C8  UNL     1       1.581  -1.596  -1.029  1.00  0.00     0.030 A 
HETATM    6  C9  UNL     1       0.283  -1.132  -1.050  1.00  0.00     0.014 A 
HETATM    7  C10 UNL     1      -0.113  -0.190  -0.129  1.00  0.00     0.004 A 
ENDROOT
BRANCH   4   8
HETATM    8  N1  UNL     1       3.830  -1.601  -0.125  1.00  0.00    -0.341 N 
HETATM    9  H2  UNL     1       3.922  -2.618  -0.319  1.00  0.00     0.167 HD
BRANCH   8  10
HETATM   10  C4  UNL     1       5.029  -0.868   0.089  1.00  0.00     0.132 A 
HETATM   11  C5  UNL     1       5.083   0.528   0.162  1.00  0.00     0.095 A 
HETATM   12  C6  UNL     1       6.247   1.219   0.398  1.00  0.00     0.131 A 
HETATM   13 CL1  UNL     1       6.206   2.987   0.477  1.00  0.00    -0.062 Cl
HETATM   14  N2  UNL     1       7.368   0.535   0.563  1.00  0.00    -0.230 NA
HETATM   15  C7  UNL     1       7.352  -0.832   0.496  1.00  0.00     0.236 A 
HETATM   16  N3  UNL     1       6.202  -1.484   0.265  1.00  0.00    -0.224 NA
ENDBRANCH   8  10
ENDBRANCH   4   8
BRANCH   7  17
HETATM   17  C11 UNL     1      -1.425   0.516   0.103  1.00  0.00     0.209 C 
BRANCH  17  18
HETATM   18  O1  UNL     1      -2.007  -0.046   1.209  1.00  0.00    -0.382 OA
BRANCH  18  19
HETATM   19  C12 UNL     1      -3.198   0.495   1.614  1.00  0.00     0.206 C 
BRANCH  19  20
HETATM   20  C13 UNL     1      -4.243   0.407   0.573  1.00  0.00    -0.035 A 
HETATM   21  C14 UNL     1      -4.382   1.428  -0.323  1.00  0.00     0.009 A 
HETATM   22  C15 UNL     1      -5.321   1.476  -1.339  1.00  0.00     0.001 A 
HETATM   23  C16 UNL     1      -6.175   0.375  -1.424  1.00  0.00     0.000 A 
HETATM   24  C17 UNL     1      -6.069  -0.679  -0.538  1.00  0.00     0.001 A 
HETATM   25  C18 UNL     1      -5.099  -0.661   0.463  1.00  0.00     0.009 A 
ENDBRANCH  19  20
ENDBRANCH  18  19
ENDBRANCH  17  18
ENDBRANCH   7  17
TORSDOF 6
