REMARK  4 active torsions:
REMARK  status: ('A' for Active; 'I' for Inactive)
REMARK    1  A    between atoms: N3_7  and  C5_8 
REMARK    2  A    between atoms: C8_11  and  O1_12 
REMARK    3  A    between atoms: O1_12  and  C9_13 
REMARK    4  A    between atoms: C9_13  and  C10_14 
ROOT
HETATM    1  C5  UNL     1       2.175   0.459  -0.529  1.00  0.00     0.043 A 
HETATM    2  C6  UNL     1       1.114   1.175  -0.025  1.00  0.00     0.033 A 
HETATM    3  C7  UNL     1      -0.139   0.899  -0.465  1.00  0.00     0.041 A 
HETATM    4  C8  UNL     1      -0.445  -0.061  -1.396  1.00  0.00     0.091 A 
HETATM    5  C16 UNL     1       0.639  -0.791  -1.911  1.00  0.00     0.069 A 
HETATM    6 CL1  UNL     1       0.624  -2.080  -3.104  1.00  0.00    -0.081 Cl
HETATM    7  C17 UNL     1       1.947  -0.533  -1.479  1.00  0.00     0.056 A 
ENDROOT
BRANCH   4   8
HETATM    8  O1  UNL     1      -1.566  -0.542  -2.006  1.00  0.00    -0.345 OA
BRANCH   8   9
HETATM    9  C9  UNL     1      -2.895  -0.216  -1.896  1.00  0.00     0.214 C 
BRANCH   9  10
HETATM   10  C10 UNL     1      -3.529  -0.374  -0.588  1.00  0.00    -0.031 A 
HETATM   11  C11 UNL     1      -4.030  -1.648  -0.292  1.00  0.00     0.009 A 
HETATM   12  C12 UNL     1      -4.675  -2.028   0.870  1.00  0.00     0.004 A 
HETATM   13  C13 UNL     1      -4.840  -1.051   1.834  1.00  0.00     0.042 A 
HETATM   14  C14 UNL     1      -4.371   0.218   1.606  1.00  0.00     0.117 A 
HETATM   15  F1  UNL     1      -4.507   1.205   2.515  1.00  0.00    -0.206 F 
HETATM   16  C15 UNL     1      -3.740   0.532   0.430  1.00  0.00     0.051 A 
ENDBRANCH   9  10
ENDBRANCH   8   9
ENDBRANCH   4   8
BRANCH   1  17
HETATM   17  N3  UNL     1       3.459   0.807  -0.014  1.00  0.00    -0.294 N 
HETATM   18  C2  UNL     1       4.005   0.198   1.140  1.00  0.00     0.113 A 
HETATM   19  C1  UNL     1       3.231  -0.710   1.695  1.00  0.00     0.087 C 
HETATM   20  N1  UNL     1       5.297   0.585   1.611  1.00  0.00    -0.228 NA
HETATM   21  C3  UNL     1       5.975   1.496   0.985  1.00  0.00     0.236 A 
HETATM   22  N2  UNL     1       5.445   2.121  -0.176  1.00  0.00    -0.236 NA
HETATM   23  C4  UNL     1       4.303   1.805  -0.626  1.00  0.00     0.217 A 
ENDBRANCH   1  17
TORSDOF 4
