REMARK  6 active torsions:
REMARK  status: ('A' for Active; 'I' for Inactive)
REMARK    1  A    between atoms: O1_2  and  C2_3 
REMARK    2  A    between atoms: C4_5  and  O2_6 
REMARK    3  A    between atoms: O2_6  and  C5_7 
REMARK    4  A    between atoms: C5_7  and  C6_8 
REMARK    5  A    between atoms: C12_16  and  N3_17 
REMARK    6  A    between atoms: N3_17  and  C13_18 
ROOT
HETATM    1  C2  UNL     1      -1.073   3.497  -0.961  1.00  0.00     0.073 A 
HETATM    2  C3  UNL     1      -0.466   2.463  -0.300  1.00  0.00     0.074 A 
HETATM    3  C4  UNL     1      -0.707   1.111  -0.420  1.00  0.00     0.087 A 
HETATM    4  C11 UNL     1      -1.714   0.825  -1.353  1.00  0.00     0.072 A 
HETATM    5  C12 UNL     1      -2.135  -0.438  -1.661  1.00  0.00     0.144 A 
HETATM    6  N4  UNL     1      -3.109  -0.667  -2.577  1.00  0.00    -0.223 NA
HETATM    7  C19 UNL     1      -3.712   0.315  -3.227  1.00  0.00     0.236 A 
HETATM    8  N5  UNL     1      -3.339   1.573  -2.965  1.00  0.00    -0.241 NA
HETATM    9  C20 UNL     1      -2.367   1.818  -2.052  1.00  0.00     0.077 A 
HETATM   10  C21 UNL     1      -2.042   3.134  -1.852  1.00  0.00     0.069 A 
ENDROOT
BRANCH   3  11
HETATM   11  O2  UNL     1      -0.210   0.034   0.146  1.00  0.00    -0.350 OA
BRANCH  11  12
HETATM   12  C5  UNL     1       0.686  -0.453   1.011  1.00  0.00     0.182 C 
BRANCH  12  13
HETATM   13  C6  UNL     1       2.136  -0.333   0.660  1.00  0.00     0.030 C 
HETATM   14  C7  UNL     1       2.678   1.034   0.442  1.00  0.00     0.024 C 
HETATM   15  C8  UNL     1       4.116   0.878  -0.072  1.00  0.00     0.110 C 
HETATM   16  N1  UNL     1       4.774  -0.289   0.371  1.00  0.00    -0.243 NA
HETATM   17  N2  UNL     1       4.374  -0.818   1.555  1.00  0.00    -0.352 N 
HETATM   18  H12 UNL     1       5.809  -0.164   0.401  1.00  0.00     0.146 HD
HETATM   19  C9  UNL     1       5.199  -1.861   2.080  1.00  0.00     0.164 C 
HETATM   20  C10 UNL     1       2.993  -0.957   1.768  1.00  0.00     0.143 C 
ENDBRANCH  12  13
ENDBRANCH  11  12
ENDBRANCH   3  11
BRANCH   1  21
HETATM   21  O1  UNL     1      -0.661   4.788  -0.676  1.00  0.00    -0.356 OA
HETATM   22  C1  UNL     1      -1.208   5.920  -1.291  1.00  0.00     0.210 C 
ENDBRANCH   1  21
BRANCH   5  23
HETATM   23  N3  UNL     1      -1.579  -1.580  -1.023  1.00  0.00    -0.340 N 
HETATM   24  H18 UNL     1      -0.578  -1.785  -1.242  1.00  0.00     0.167 HD
BRANCH  23  25
HETATM   25  C13 UNL     1      -2.258  -2.474  -0.122  1.00  0.00     0.035 A 
HETATM   26  C14 UNL     1      -1.644  -3.471   0.611  1.00  0.00     0.032 A 
HETATM   27  C15 UNL     1      -2.478  -4.238   1.398  1.00  0.00     0.046 A 
HETATM   28  C16 UNL     1      -3.843  -4.112   1.527  1.00  0.00     0.138 A 
HETATM   29  F1  UNL     1      -4.505  -4.960   2.353  1.00  0.00    -0.204 F 
HETATM   30  C17 UNL     1      -4.423  -3.087   0.765  1.00  0.00     0.074 A 
HETATM   31 CL1  UNL     1      -6.162  -2.960   0.953  1.00  0.00    -0.081 Cl
HETATM   32  C18 UNL     1      -3.622  -2.299  -0.035  1.00  0.00     0.056 A 
ENDBRANCH  23  25
ENDBRANCH   5  23
TORSDOF 6
