REMARK  3 active torsions:
REMARK  status: ('A' for Active; 'I' for Inactive)
REMARK    1  A    between atoms: N3_9  and  C6_10 
REMARK    2  A    between atoms: N4_11  and  C7_12 
REMARK    3  A    between atoms: C10_15  and  O2_16 
ROOT
HETATM    1  O1  UNL     1       0.521  -1.362   3.297  1.00  0.00    -0.247 OA
HETATM    2  C1  UNL     1       0.840  -1.187   2.177  1.00  0.00     0.321 C 
HETATM    3  N1  UNL     1       0.193  -2.327   1.642  1.00  0.00    -0.330 N 
HETATM    4  C2  UNL     1       1.293  -3.121   0.936  1.00  0.00     0.158 A 
HETATM    5  C3  UNL     1       0.508  -2.566  -0.431  1.00  0.00     0.056 A 
HETATM    6  C4  UNL     1       0.002  -3.601  -1.123  1.00  0.00     0.696 A 
HETATM    7  N2  UNL     1      -1.196  -2.891  -1.160  1.00  0.00     0.073 NA
HETATM    8  C5  UNL     1      -1.217  -1.668  -0.519  1.00  0.00     0.277 A 
HETATM    9  N3  UNL     1      -0.151  -2.227  -0.478  1.00  0.00     0.000 N 
HETATM   10  C6  UNL     1       0.994  -1.571   0.236  1.00  0.00     0.093 A 
HETATM   11  N4  UNL     1       1.466  -0.542   1.076  1.00  0.00    -0.315 N 
HETATM   12  N5  UNL     1      -1.774  -0.602   0.061  1.00  0.00    -0.313 N 
HETATM   13  C12 UNL     1      -1.895   0.610  -0.630  1.00  0.00     0.043 A 
HETATM   14  C13 UNL     1      -1.238   0.504  -1.824  1.00  0.00     0.030 A 
HETATM   15  C14 UNL     1      -1.319   1.684  -2.567  1.00  0.00     0.002 A 
HETATM   16  C15 UNL     1      -2.002   2.811  -2.103  1.00  0.00     0.001 A 
HETATM   17  C16 UNL     1      -2.625   2.775  -0.870  1.00  0.00     0.010 A 
HETATM   18  C17 UNL     1      -2.589   1.639  -0.073  1.00  0.00    -0.028 A 
HETATM   19  C18 UNL     1      -3.335   1.799   1.205  1.00  0.00     0.067 C 
HETATM   20  C19 UNL     1      -2.782   0.882   2.208  1.00  0.00    -0.024 C 
HETATM   21  C20 UNL     1      -2.259  -0.322   2.365  1.00  0.00    -0.003 C 
HETATM   22  C21 UNL     1      -2.028  -1.336   1.293  1.00  0.00     0.132 C 
HETATM   23  C22 UNL     1      -1.226  -2.485   1.731  1.00  0.00     0.157 C 
ENDROOT
BRANCH  11  24
HETATM   24  C7  UNL     1       2.266   0.466   0.590  1.00  0.00     0.092 C 
HETATM   25  C8  UNL     1       3.431  -0.087  -0.218  1.00  0.00     0.028 C 
HETATM   26  C9  UNL     1       3.991   1.120  -0.930  1.00  0.00     0.034 C 
HETATM   27  C10 UNL     1       3.013   2.258  -0.655  1.00  0.00     0.120 C 
HETATM   28  C11 UNL     1       1.707   1.448  -0.421  1.00  0.00     0.057 C 
BRANCH  27  29
HETATM   29  O2  UNL     1       2.862   3.113  -1.719  1.00  0.00    -0.396 OA
HETATM   30  H10 UNL     1       2.921   4.030  -1.331  1.00  0.00     0.210 HD
ENDBRANCH  27  29
ENDBRANCH  11  24
TORSDOF 3
