REMARK  6 active torsions:
REMARK  status: ('A' for Active; 'I' for Inactive)
REMARK    1  A    between atoms: N1_1  and  C1_2 
REMARK    2  A    between atoms: C4_5  and  O1_6 
REMARK    3  A    between atoms: O1_6  and  C5_7 
REMARK    4  A    between atoms: C5_7  and  N2_8 
REMARK    5  A    between atoms: N3_15  and  C12_16 
REMARK    6  A    between atoms: C12_16  and  C13_17 
ROOT
HETATM    1  C1  UNL     1      -2.765  -1.817   0.411  1.00  0.00     0.342 A 
HETATM    2  C2  UNL     1      -1.498  -2.503   0.057  1.00  0.00     0.032 A 
HETATM    3  C3  UNL     1      -0.278  -1.995   0.046  1.00  0.00     0.038 A 
HETATM    4  C4  UNL     1      -0.099  -0.598   0.418  1.00  0.00     0.086 A 
HETATM    5  C11 UNL     1      -1.140   0.145   0.760  1.00  0.00     0.124 A 
HETATM    6  N3  UNL     1      -2.434  -0.449   0.757  1.00  0.00    -0.354 N 
ENDROOT
BRANCH   4   7
HETATM    7  O1  UNL     1       1.155  -0.064   0.408  1.00  0.00    -0.331 OA
BRANCH   7   8
HETATM    8  C5  UNL     1       2.132  -0.627  -0.445  1.00  0.00     0.300 C 
BRANCH   8   9
HETATM    9  N2  UNL     1       3.402   0.071  -0.351  1.00  0.00    -0.365 N 
HETATM   10  C6  UNL     1       4.434  -0.472  -1.198  1.00  0.00     0.088 A 
HETATM   11  C7  UNL     1       5.609   0.150  -1.134  1.00  0.00     0.017 A 
HETATM   12  C8  UNL     1       5.905   1.302  -0.292  1.00  0.00    -0.001 A 
HETATM   13  C9  UNL     1       4.915   1.733   0.447  1.00  0.00    -0.007 A 
HETATM   14  C10 UNL     1       3.545   1.197   0.529  1.00  0.00     0.151 A 
ENDBRANCH   8   9
ENDBRANCH   7   8
ENDBRANCH   4   7
BRANCH   6  15
HETATM   15  C12 UNL     1      -3.511   0.437   1.149  1.00  0.00     0.138 C 
BRANCH  15  16
HETATM   16  C13 UNL     1      -3.740   1.506   0.141  1.00  0.00     0.022 A 
HETATM   17  C14 UNL     1      -3.761   2.810  -0.082  1.00  0.00     0.119 A 
HETATM   18  N4  UNL     1      -3.956   3.907  -0.960  1.00  0.00    -0.296 NA
HETATM   19  C15 UNL     1      -4.100   2.677  -1.391  1.00  0.00     0.110 A 
HETATM   20  C16 UNL     1      -4.109   1.208  -1.267  1.00  0.00     0.053 A 
ENDBRANCH  15  16
ENDBRANCH   6  15
BRANCH   1  21
HETATM   21  N1  UNL     1      -3.393  -2.522   1.501  1.00  0.00     0.105 N 
HETATM   22  H1  UNL     1      -4.406  -2.587   1.372  1.00  0.00     0.315 HD
HETATM   23  H2  UNL     1      -3.062  -2.223   2.443  1.00  0.00     0.315 HD
ENDBRANCH   1  21
TORSDOF 6
