REMARK  5 active torsions:
REMARK  status: ('A' for Active; 'I' for Inactive)
REMARK    1  A    between atoms: O1_2  and  C2_3 
REMARK    2  A    between atoms: C6_8  and  N2_9 
REMARK    3  A    between atoms: N2_9  and  C7_10 
REMARK    4  A    between atoms: N5_26  and  C20_27 
REMARK    5  A    between atoms: C23_30  and  O3_31 
ROOT
HETATM    1  C2  UNL     1      -2.629   3.878   0.809  1.00  0.00     0.064 C 
HETATM    2  C3  UNL     1      -1.291   3.641   0.782  1.00  0.00     0.016 C 
HETATM    3  C4  UNL     1       0.128   3.181   0.673  1.00  0.00     0.090 C 
HETATM    4  C5  UNL     1       0.321   1.758   0.474  1.00  0.00     0.069 A 
HETATM    5  N1  UNL     1       1.464   1.301   1.020  1.00  0.00    -0.066 NA
HETATM    6  C6  UNL     1       1.859   0.028   1.020  1.00  0.00     0.729 A 
HETATM    7  N3  UNL     1       1.138  -0.972   0.463  1.00  0.00    -0.044 NA
HETATM    8  C13 UNL     1      -0.035  -0.577  -0.106  1.00  0.00     0.163 A 
HETATM    9  C14 UNL     1      -0.375   0.745  -0.078  1.00  0.00     0.032 A 
HETATM   10  C15 UNL     1      -1.535   1.036  -0.923  1.00  0.00     0.172 C 
HETATM   11  N4  UNL     1      -2.560   0.053  -0.776  1.00  0.00    -0.326 N 
HETATM   12  C16 UNL     1      -3.956   0.401  -0.593  1.00  0.00     0.155 C 
HETATM   13  C17 UNL     1      -4.139   1.750  -0.078  1.00  0.00    -0.004 C 
HETATM   14  C18 UNL     1      -3.689   2.914   0.390  1.00  0.00     0.034 C 
HETATM   15  C19 UNL     1      -2.215  -1.325  -0.836  1.00  0.00     0.327 C 
HETATM   16  O2  UNL     1      -3.062  -2.178  -1.188  1.00  0.00    -0.247 OA
HETATM   17  N5  UNL     1      -0.870  -1.670  -0.476  1.00  0.00    -0.278 N 
ENDROOT
BRANCH   6  18
HETATM   18  N2  UNL     1       3.097  -0.377   1.644  1.00  0.00    -0.188 N 
HETATM   19  H7  UNL     1       3.013  -0.968   2.482  1.00  0.00     0.184 HD
BRANCH  18  20
HETATM   20  C7  UNL     1       4.343   0.015   1.123  1.00  0.00     0.049 A 
HETATM   21  C8  UNL     1       4.496   0.850   0.037  1.00  0.00     0.030 A 
HETATM   22  C9  UNL     1       5.713   1.247  -0.464  1.00  0.00     0.002 A 
HETATM   23  C10 UNL     1       6.846   0.756   0.188  1.00  0.00     0.000 A 
HETATM   24  C11 UNL     1       6.746  -0.096   1.295  1.00  0.00     0.002 A 
HETATM   25  C12 UNL     1       5.487  -0.447   1.736  1.00  0.00     0.030 A 
ENDBRANCH  18  20
ENDBRANCH   6  18
BRANCH  17  26
HETATM   26  C20 UNL     1      -0.393  -3.003  -0.503  1.00  0.00     0.099 C 
HETATM   27  C21 UNL     1      -0.469  -3.652  -1.905  1.00  0.00     0.028 C 
HETATM   28  C22 UNL     1      -0.140  -5.110  -1.561  1.00  0.00     0.034 C 
HETATM   29  C23 UNL     1      -0.626  -5.329  -0.172  1.00  0.00     0.120 C 
HETATM   30  C24 UNL     1      -1.220  -4.011   0.254  1.00  0.00     0.057 C 
BRANCH  29  31
HETATM   31  O3  UNL     1      -1.550  -6.371  -0.086  1.00  0.00    -0.396 OA
HETATM   32  H25 UNL     1      -2.420  -6.020  -0.378  1.00  0.00     0.210 HD
ENDBRANCH  29  31
ENDBRANCH  17  26
BRANCH   1  33
HETATM   33  O1  UNL     1      -3.160   5.098   1.255  1.00  0.00    -0.356 OA
HETATM   34  C1  UNL     1      -3.416   6.102   0.308  1.00  0.00     0.210 C 
ENDBRANCH   1  33
TORSDOF 5
