REMARK  3 active torsions:
REMARK  status: ('A' for Active; 'I' for Inactive)
REMARK    1  A    between atoms: C7_7  and  N1_8 
REMARK    2  A    between atoms: N4_17  and  C13_18 
REMARK    3  A    between atoms: C16_21  and  O1_22 
ROOT
HETATM    1  N1  UNL     1      -1.577  -0.195  -0.444  1.00  0.00    -0.294 N 
HETATM    2  C8  UNL     1      -1.639   1.238  -0.441  1.00  0.00     0.178 C 
HETATM    3  C9  UNL     1      -0.412   1.904  -0.038  1.00  0.00     0.024 A 
HETATM    4  C10 UNL     1      -0.643   3.276   0.114  1.00  0.00     0.132 A 
HETATM    5  N2  UNL     1       0.394   4.105   0.442  1.00  0.00    -0.230 NA
HETATM    6  C11 UNL     1       1.642   3.582   0.619  1.00  0.00     0.224 A 
HETATM    7 CL1  UNL     1       2.979   4.640   1.039  1.00  0.00    -0.041 Cl
HETATM    8  N3  UNL     1       1.839   2.260   0.469  1.00  0.00    -0.200 NA
HETATM    9  C12 UNL     1       0.857   1.430   0.152  1.00  0.00     0.146 A 
HETATM   10  N4  UNL     1       0.930   0.020   0.015  1.00  0.00    -0.278 N 
HETATM   11  C18 UNL     1      -0.274  -0.668  -0.272  1.00  0.00     0.331 C 
HETATM   12  O2  UNL     1      -0.024  -1.888  -0.373  1.00  0.00    -0.246 OA
ENDROOT
BRANCH   1  13
HETATM   13  C7  UNL     1      -2.784  -0.901  -0.544  1.00  0.00     0.054 A 
HETATM   14  C2  UNL     1      -4.017  -0.239  -0.980  1.00  0.00    -0.018 A 
HETATM   15  C1  UNL     1      -4.265   1.025  -1.282  1.00  0.00     0.026 C 
HETATM   16  C3  UNL     1      -5.125  -1.160  -1.090  1.00  0.00     0.013 A 
HETATM   17  C4  UNL     1      -4.610  -2.319  -0.742  1.00  0.00     0.010 A 
HETATM   18  C5  UNL     1      -3.203  -2.140  -0.417  1.00  0.00    -0.034 A 
HETATM   19  C6  UNL     1      -2.410  -3.298   0.052  1.00  0.00     0.050 C 
ENDBRANCH   1  13
BRANCH  10  20
HETATM   20  C13 UNL     1       2.213  -0.581   0.179  1.00  0.00     0.099 C 
HETATM   21  C14 UNL     1       3.291  -0.102  -0.706  1.00  0.00     0.028 C 
HETATM   22  C15 UNL     1       4.495  -0.822  -0.115  1.00  0.00     0.034 C 
HETATM   23  C16 UNL     1       4.305  -0.410   1.351  1.00  0.00     0.120 C 
HETATM   24  C17 UNL     1       2.808  -0.403   1.567  1.00  0.00     0.057 C 
BRANCH  23  25
HETATM   25  O1  UNL     1       4.790   0.883   1.574  1.00  0.00    -0.396 OA
HETATM   26  H17 UNL     1       5.452   0.922   2.331  1.00  0.00     0.210 HD
ENDBRANCH  23  25
ENDBRANCH  10  20
TORSDOF 3
