REMARK  8 active torsions:
REMARK  status: ('A' for Active; 'I' for Inactive)
REMARK    1  A    between atoms: O1_2  and  C2_3 
REMARK    2  A    between atoms: C5_6  and  N1_7 
REMARK    3  A    between atoms: C7_9  and  O2_10 
REMARK    4  A    between atoms: C8_11  and  N2_12 
REMARK    5  A    between atoms: N2_12  and  C9_13 
REMARK    6  A    between atoms: C15_20  and  N4_21 
REMARK    7  A    between atoms: N4_21  and  C16_22 
REMARK    8  A    between atoms: N4_21  and  C17_24 
ROOT
HETATM    1  N1  UNL     1       0.653  -0.817  -0.693  1.00  0.00    -0.339 N 
HETATM    2  C6  UNL     1       0.035  -1.665  -1.731  1.00  0.00     0.166 C 
HETATM    3  C7  UNL     1      -0.944  -2.568  -0.983  1.00  0.00     0.205 C 
HETATM    4  C8  UNL     1      -1.844  -1.683  -0.203  1.00  0.00     0.134 C 
HETATM    5  N3  UNL     1      -1.562  -0.459   0.094  1.00  0.00    -0.229 NA
HETATM    6  C15 UNL     1      -0.329   0.184  -0.305  1.00  0.00     0.321 C 
ENDROOT
BRANCH   1   7
HETATM    7  C5  UNL     1       2.007  -1.186  -0.382  1.00  0.00     0.033 A 
HETATM    8  C4  UNL     1       2.774  -1.284  -1.551  1.00  0.00     0.032 A 
HETATM    9  C3  UNL     1       4.129  -1.639  -1.521  1.00  0.00     0.039 A 
HETATM   10  C2  UNL     1       4.640  -1.882  -0.264  1.00  0.00     0.068 A 
HETATM   11  C23 UNL     1       3.943  -1.804   0.915  1.00  0.00     0.039 A 
HETATM   12  C22 UNL     1       2.619  -1.451   0.819  1.00  0.00     0.032 A 
BRANCH  10  13
HETATM   13  O1  UNL     1       5.977  -2.238  -0.167  1.00  0.00    -0.356 OA
HETATM   14  C1  UNL     1       6.645  -2.518   1.048  1.00  0.00     0.210 C 
ENDBRANCH  10  13
ENDBRANCH   1   7
BRANCH   6  15
HETATM   15  N4  UNL     1       0.135   1.199   0.573  1.00  0.00    -0.315 N 
BRANCH  15  16
HETATM   16  C16 UNL     1       0.544   1.084   1.914  1.00  0.00     0.354 C 
HETATM   17  O3  UNL     1       0.838   0.680   3.057  1.00  0.00    -0.283 OA
ENDBRANCH  15  16
BRANCH  15  18
HETATM   18  C17 UNL     1       0.249   2.586   0.146  1.00  0.00     0.090 C 
HETATM   19  C18 UNL     1       1.621   3.160   0.382  1.00  0.00     0.025 C 
HETATM   20  C19 UNL     1       1.406   4.619   0.716  1.00  0.00     0.002 C 
HETATM   21  C20 UNL     1      -0.087   4.873   0.641  1.00  0.00     0.002 C 
HETATM   22  C21 UNL     1      -0.649   3.499   0.947  1.00  0.00     0.025 C 
ENDBRANCH  15  18
ENDBRANCH   6  15
BRANCH   3  23
HETATM   23  O2  UNL     1      -1.605  -3.415  -1.840  1.00  0.00    -0.386 OA
HETATM   24  H9  UNL     1      -1.062  -3.705  -2.592  1.00  0.00     0.210 HD
ENDBRANCH   3  23
BRANCH   4  25
HETATM   25  N2  UNL     1      -3.096  -2.152   0.273  1.00  0.00    -0.342 N 
HETATM   26  H10 UNL     1      -3.137  -3.157   0.623  1.00  0.00     0.167 HD
BRANCH  25  27
HETATM   27  C9  UNL     1      -4.291  -1.393   0.313  1.00  0.00     0.033 A 
HETATM   28  C10 UNL     1      -4.459  -0.111  -0.119  1.00  0.00     0.029 A 
HETATM   29  C11 UNL     1      -5.631   0.601  -0.063  1.00  0.00     0.002 A 
HETATM   30  C12 UNL     1      -6.755   0.009   0.468  1.00  0.00     0.000 A 
HETATM   31  C13 UNL     1      -6.646  -1.287   0.922  1.00  0.00     0.002 A 
HETATM   32  C14 UNL     1      -5.444  -1.956   0.841  1.00  0.00     0.029 A 
ENDBRANCH  25  27
ENDBRANCH   4  25
TORSDOF 8
