REMARK  8 active torsions:
REMARK  status: ('A' for Active; 'I' for Inactive)
REMARK    1  A    between atoms: O1_2  and  C2_3 
REMARK    2  A    between atoms: C3_4  and  C4_5 
REMARK    3  A    between atoms: C9_10  and  N1_11 
REMARK    4  A    between atoms: N1_11  and  C10_12 
REMARK    5  A    between atoms: C14_18  and  N4_19 
REMARK    6  A    between atoms: N4_19  and  C15_20 
REMARK    7  A    between atoms: C18_23  and  O2_24 
REMARK    8  A    between atoms: C24_32  and  S1_33 
ROOT
HETATM    1  C10 UNL     1       0.458  -1.299  -0.488  1.00  0.00     0.727 A 
HETATM    2  N2  UNL     1       1.169  -2.378  -0.912  1.00  0.00    -0.074 NA
HETATM    3  C11 UNL     1       0.581  -3.472  -1.473  1.00  0.00     0.147 A 
HETATM    4  C12 UNL     1      -0.781  -3.523  -1.632  1.00  0.00     0.010 A 
HETATM    5  C13 UNL     1      -1.459  -2.418  -1.192  1.00  0.00     0.119 A 
HETATM    6  N3  UNL     1      -0.875  -1.343  -0.641  1.00  0.00    -0.060 NA
HETATM    7  C14 UNL     1      -2.896  -2.269  -1.269  1.00  0.00     0.149 A 
HETATM    8  C20 UNL     1      -3.607  -3.421  -1.868  1.00  0.00     0.272 A 
HETATM    9  O3  UNL     1      -4.843  -3.610  -2.079  1.00  0.00    -0.266 OA
HETATM   10  N5  UNL     1      -2.856  -4.569  -2.318  1.00  0.00    -0.351 N 
HETATM   11  C21 UNL     1      -1.420  -4.688  -2.232  1.00  0.00     0.165 A 
HETATM   12  H19 UNL     1      -3.243  -5.437  -2.751  1.00  0.00     0.163 HD
ENDROOT
BRANCH   1  13
HETATM   13  N1  UNL     1       1.205  -0.224   0.072  1.00  0.00    -0.187 N 
HETATM   14  H8  UNL     1       1.178  -0.611   1.034  1.00  0.00     0.184 HD
BRANCH  13  15
HETATM   15  C9  UNL     1       1.668   0.864  -0.718  1.00  0.00     0.060 A 
HETATM   16  C4  UNL     1       2.417   1.820  -0.078  1.00  0.00     0.004 A 
HETATM   17  C5  UNL     1       2.847   2.905  -0.825  1.00  0.00     0.014 A 
HETATM   18  C6  UNL     1       2.500   2.960  -2.153  1.00  0.00     0.001 A 
HETATM   19  C7  UNL     1       1.738   1.965  -2.762  1.00  0.00     0.002 A 
HETATM   20  C8  UNL     1       1.294   0.869  -2.040  1.00  0.00     0.031 A 
BRANCH  16  21
HETATM   21  C3  UNL     1       2.833   1.843   1.314  1.00  0.00     0.007 A 
HETATM   22  C2  UNL     1       3.331   0.902   2.096  1.00  0.00     0.074 A 
HETATM   23  C24 UNL     1       3.616   1.369   3.471  1.00  0.00     0.124 A 
HETATM   24  C23 UNL     1       3.191   2.795   3.379  1.00  0.00    -0.004 A 
HETATM   25  C22 UNL     1       2.759   3.030   2.164  1.00  0.00     0.012 A 
BRANCH  22  26
HETATM   26  O1  UNL     1       3.679  -0.433   2.019  1.00  0.00    -0.358 OA
HETATM   27  C1  UNL     1       4.502  -0.907   0.952  1.00  0.00     0.209 C 
ENDBRANCH  22  26
BRANCH  23  28
HETATM   28  S1  UNL     1       5.387   1.250   3.857  1.00  0.00    -0.167 SA
HETATM   29  H25 UNL     1       5.887  -0.010   3.545  1.00  0.00     0.102 HD
ENDBRANCH  23  28
ENDBRANCH  16  21
ENDBRANCH  13  15
ENDBRANCH   1  13
BRANCH   7  30
HETATM   30  N4  UNL     1      -3.785  -1.421  -0.975  1.00  0.00    -0.277 NA
BRANCH  30  31
HETATM   31  C15 UNL     1      -3.475  -0.165  -0.381  1.00  0.00     0.111 C 
HETATM   32  C16 UNL     1      -3.398  -0.215   1.127  1.00  0.00     0.030 C 
HETATM   33  C17 UNL     1      -3.415   1.231   1.511  1.00  0.00     0.034 C 
HETATM   34  C18 UNL     1      -4.261   1.902   0.475  1.00  0.00     0.120 C 
HETATM   35  C19 UNL     1      -4.589   0.853  -0.567  1.00  0.00     0.059 C 
BRANCH  34  36
HETATM   36  O2  UNL     1      -3.524   2.953  -0.065  1.00  0.00    -0.396 OA
HETATM   37  H16 UNL     1      -3.240   3.525   0.679  1.00  0.00     0.210 HD
ENDBRANCH  34  36
ENDBRANCH  30  31
ENDBRANCH   7  30
TORSDOF 8
