REMARK  0 active torsions:
REMARK  status: ('A' for Active; 'I' for Inactive)
ROOT
HETATM    1  O1  UNL     1      -0.183  -4.777  -1.392  1.00  0.00    -0.290 OA
HETATM    2  C1  UNL     1       0.264  -3.609  -1.046  1.00  0.00     0.179 C 
HETATM    3  C2  UNL     1       1.699  -3.901  -1.148  1.00  0.00     0.259 C 
HETATM    4  O2  UNL     1       2.613  -2.915  -1.027  1.00  0.00    -0.344 OA
HETATM    5  C3  UNL     1       3.097  -1.974  -0.235  1.00  0.00     0.069 A 
HETATM    6  C4  UNL     1       2.825  -1.622   1.061  1.00  0.00     0.039 A 
HETATM    7  C5  UNL     1       3.442  -0.592   1.699  1.00  0.00     0.036 A 
HETATM    8  C6  UNL     1       4.391   0.161   1.062  1.00  0.00     0.079 A 
HETATM    9  C7  UNL     1       4.732  -0.127  -0.249  1.00  0.00     0.036 A 
HETATM   10  C8  UNL     1       4.077  -1.201  -0.895  1.00  0.00     0.039 A 
HETATM   11  N1  UNL     1       5.186   1.259   1.476  1.00  0.00    -0.156 NA
HETATM   12  N2  UNL     1       4.840   2.400   1.447  1.00  0.00    -0.193 NA
HETATM   13  C9  UNL     1       3.834   3.291   1.135  1.00  0.00     0.173 C 
HETATM   14  C10 UNL     1       2.715   2.691   0.308  1.00  0.00     0.024 C 
HETATM   15  C11 UNL     1       1.626   3.670   0.011  1.00  0.00     0.003 C 
HETATM   16  C12 UNL     1       0.509   3.011  -0.824  1.00  0.00     0.016 C 
HETATM   17  C13 UNL     1       0.030   1.770  -0.132  1.00  0.00     0.113 C 
HETATM   18  N3  UNL     1      -1.082   1.103  -0.686  1.00  0.00    -0.231 NA
HETATM   19  C14 UNL     1      -1.360  -0.155   0.028  1.00  0.00     0.141 C 
HETATM   20  C15 UNL     1      -0.379  -1.222  -0.286  1.00  0.00     0.001 C 
HETATM   21  C16 UNL     1      -0.621  -2.482  -0.701  1.00  0.00    -0.004 C 
HETATM   22  C17 UNL     1      -1.923  -3.181  -0.861  1.00  0.00     0.057 C 
HETATM   23  C18 UNL     1      -3.224  -3.408  -0.856  1.00  0.00    -0.016 C 
HETATM   24  C19 UNL     1      -4.655  -3.147  -0.670  1.00  0.00    -0.003 C 
HETATM   25  C20 UNL     1      -5.413  -2.181  -0.261  1.00  0.00     0.001 C 
HETATM   26  C21 UNL     1      -5.472  -0.832   0.253  1.00  0.00     0.017 C 
HETATM   27  C22 UNL     1      -4.826   0.240   0.624  1.00  0.00     0.084 C 
HETATM   28  N4  UNL     1      -3.763   1.138   0.910  1.00  0.00    -0.382 N 
HETATM   29  C23 UNL     1      -3.101   2.115   0.131  1.00  0.00     0.255 C 
HETATM   30  N5  UNL     1      -2.238   1.770  -0.910  1.00  0.00    -0.337 N 
HETATM   31  H26 UNL     1      -3.395   1.038   1.920  1.00  0.00     0.160 HD
HETATM   32  H29 UNL     1      -2.239   2.468  -1.667  1.00  0.00     0.176 HD
ENDROOT
TORSDOF 0
