REMARK  4 active torsions:
REMARK  status: ('A' for Active; 'I' for Inactive)
REMARK    1  A    between atoms: O1_2  and  C2_3 
REMARK    2  A    between atoms: C4_5  and  O2_6 
REMARK    3  A    between atoms: O2_6  and  C5_7 
REMARK    4  A    between atoms: C10_13  and  N2_14 
ROOT
HETATM    1  C2  UNL     1      -3.239  -1.213   1.078  1.00  0.00     0.073 A 
HETATM    2  C3  UNL     1      -2.438  -0.194   0.610  1.00  0.00     0.074 A 
HETATM    3  C4  UNL     1      -1.075  -0.233   0.437  1.00  0.00     0.088 A 
HETATM    4  C9  UNL     1      -0.561  -1.477   0.806  1.00  0.00     0.072 A 
HETATM    5  C10 UNL     1       0.801  -1.653   0.674  1.00  0.00     0.145 A 
HETATM    6  N3  UNL     1       1.408  -2.834   0.999  1.00  0.00    -0.223 NA
HETATM    7  C16 UNL     1       0.623  -3.852   1.464  1.00  0.00     0.236 A 
HETATM    8  N4  UNL     1      -0.708  -3.721   1.608  1.00  0.00    -0.241 NA
HETATM    9  C17 UNL     1      -1.273  -2.556   1.282  1.00  0.00     0.077 A 
HETATM   10  C18 UNL     1      -2.635  -2.406   1.416  1.00  0.00     0.069 A 
ENDROOT
BRANCH   5  11
HETATM   11  N2  UNL     1       1.796  -0.716   0.241  1.00  0.00    -0.330 N 
HETATM   12  C11 UNL     1       2.418   0.499   0.710  1.00  0.00     0.156 C 
HETATM   13  C12 UNL     1       3.874   0.227   1.014  1.00  0.00     0.012 C 
HETATM   14  C13 UNL     1       4.442  -0.325  -0.077  1.00  0.00     0.014 C 
HETATM   15 CL1  UNL     1       6.161  -0.719   0.086  1.00  0.00    -0.089 Cl
HETATM   16  C14 UNL     1       3.696  -0.594  -1.339  1.00  0.00     0.110 C 
HETATM   17  C15 UNL     1       2.316  -1.144  -1.066  1.00  0.00     0.278 C 
HETATM   18  F1  UNL     1       2.410  -2.515  -1.168  1.00  0.00    -0.226 F 
ENDBRANCH   5  11
BRANCH   3  19
HETATM   19  O2  UNL     1      -0.217   0.729  -0.021  1.00  0.00    -0.343 OA
BRANCH  19  20
HETATM   20  C5  UNL     1      -0.703   1.978  -0.415  1.00  0.00     0.158 C 
HETATM   21  C6  UNL     1      -0.079   3.134   0.323  1.00  0.00     0.064 C 
HETATM   22  C7  UNL     1       0.124   4.239  -0.683  1.00  0.00     0.272 C 
HETATM   23  N1  UNL     1      -0.440   3.774  -1.924  1.00  0.00     0.086 N 
HETATM   24  C8  UNL     1      -0.337   2.316  -1.849  1.00  0.00     0.301 C 
HETATM   25  H10 UNL     1      -1.452   4.025  -1.943  1.00  0.00     0.315 HD
ENDBRANCH  19  20
ENDBRANCH   3  19
BRANCH   1  26
HETATM   26  O1  UNL     1      -4.604  -1.036   1.203  1.00  0.00    -0.356 OA
HETATM   27  C1  UNL     1      -5.380  -2.108   1.686  1.00  0.00     0.210 C 
ENDBRANCH   1  26
TORSDOF 4
