REMARK  6 active torsions:
REMARK  status: ('A' for Active; 'I' for Inactive)
REMARK    1  A    between atoms: O1_2  and  C2_3 
REMARK    2  A    between atoms: C5_6  and  N1_7 
REMARK    3  A    between atoms: S1_14  and  C10_15 
REMARK    4  A    between atoms: C10_15  and  C11_16 
REMARK    5  A    between atoms: C14_19  and  O2_20 
REMARK    6  A    between atoms: N4_22  and  C16_23 
ROOT
HETATM    1  N1  UNL     1      -1.182   0.905  -0.984  1.00  0.00    -0.359 N 
HETATM    2  C6  UNL     1      -0.144  -0.129  -1.413  1.00  0.00     0.173 C 
HETATM    3  C7  UNL     1       0.583  -0.460  -0.143  1.00  0.00     0.025 C 
HETATM    4  C8  UNL     1      -0.250  -1.122   1.090  1.00  0.00     0.137 C 
HETATM    5  N2  UNL     1      -0.169   0.007   2.474  1.00  0.00    -0.224 NA
HETATM    6  C9  UNL     1       0.474   0.694   1.608  1.00  0.00     0.237 C 
HETATM    7  N3  UNL     1       1.513  -0.570   1.995  1.00  0.00    -0.186 NA
HETATM    8  S1  UNL     1       2.482   0.058   0.698  1.00  0.00    -0.064 SA
HETATM    9  N4  UNL     1      -0.159   1.885   1.050  1.00  0.00    -0.313 N 
HETATM   10  C21 UNL     1      -0.912   2.036  -0.175  1.00  0.00     0.257 C 
ENDROOT
BRANCH   1  11
HETATM   11  C5  UNL     1      -2.509   0.726  -1.436  1.00  0.00     0.031 A 
HETATM   12  C4  UNL     1      -2.970   0.412  -2.685  1.00  0.00     0.032 A 
HETATM   13  C3  UNL     1      -4.270   0.218  -3.078  1.00  0.00     0.039 A 
HETATM   14  C2  UNL     1      -5.226   0.365  -2.057  1.00  0.00     0.068 A 
HETATM   15  C23 UNL     1      -4.921   0.685  -0.728  1.00  0.00     0.039 A 
HETATM   16  C22 UNL     1      -3.551   0.841  -0.534  1.00  0.00     0.032 A 
BRANCH  14  17
HETATM   17  O1  UNL     1      -6.504   0.139  -2.593  1.00  0.00    -0.356 OA
HETATM   18  C1  UNL     1      -7.666   0.211  -1.801  1.00  0.00     0.210 C 
ENDBRANCH  14  17
ENDBRANCH   1  11
BRANCH   9  19
HETATM   19  C16 UNL     1      -0.129   3.207   1.661  1.00  0.00    -0.031 C 
HETATM   20  B1  UNL     1      -1.062   4.453   0.862  1.00  0.00     0.234 B 
HETATM   21  C17 UNL     1       0.328   6.181   1.208  1.00  0.00    -0.079 C 
HETATM   22  C18 UNL     1       0.897   5.868   2.406  1.00  0.00    -0.016 C 
HETATM   23  C19 UNL     1       1.024   4.752   3.137  1.00  0.00    -0.000 C 
HETATM   24  C20 UNL     1       0.549   3.551   2.779  1.00  0.00     0.012 C 
ENDBRANCH   9  19
BRANCH   8  25
HETATM   25  C10 UNL     1       3.935  -0.990   0.243  1.00  0.00     0.097 C 
BRANCH  25  26
HETATM   26  C11 UNL     1       3.899  -2.424   0.579  1.00  0.00    -0.002 C 
HETATM   27  C12 UNL     1       5.211  -3.078   0.111  1.00  0.00     0.008 C 
HETATM   28  C13 UNL     1       4.868  -4.540   0.267  1.00  0.00     0.032 C 
HETATM   29  C14 UNL     1       3.377  -4.651   0.149  1.00  0.00     0.118 C 
HETATM   30  C15 UNL     1       2.876  -3.236  -0.169  1.00  0.00     0.037 C 
BRANCH  29  31
HETATM   31  O2  UNL     1       3.059  -5.563  -0.828  1.00  0.00    -0.396 OA
HETATM   32  H17 UNL     1       3.836  -6.160  -0.972  1.00  0.00     0.210 HD
ENDBRANCH  29  31
ENDBRANCH  25  26
ENDBRANCH   8  25
TORSDOF 6
