REMARK  8 active torsions:
REMARK  status: ('A' for Active; 'I' for Inactive)
REMARK    1  A    between atoms: O1_2  and  C2_3 
REMARK    2  A    between atoms: C5_6  and  N1_7 
REMARK    3  A    between atoms: C9_11  and  N2_12 
REMARK    4  A    between atoms: C10_13  and  C11_14 
REMARK    5  A    between atoms: C12_15  and  C13_16 
REMARK    6  A    between atoms: C14_17  and  N3_18 
REMARK    7  A    between atoms: N5_21  and  C16_22 
REMARK    8  A    between atoms: C19_25  and  O2_26 
ROOT
HETATM    1  N1  UNL     1      -1.895   0.606  -0.205  1.00  0.00    -0.295 N 
HETATM    2  C6  UNL     1      -0.740   1.422  -0.518  1.00  0.00     0.176 A 
HETATM    3  C7  UNL     1       0.455   0.600  -0.741  1.00  0.00     0.006 A 
HETATM    4  C8  UNL     1       1.632   1.109  -1.039  1.00  0.00     0.035 A 
HETATM    5  C9  UNL     1       2.611   0.011  -1.197  1.00  0.00     0.255 A 
HETATM    6  N4  UNL     1       1.837  -1.165  -0.952  1.00  0.00    -0.240 NA
HETATM    7  C15 UNL     1       0.621  -0.840  -0.695  1.00  0.00     0.139 A 
HETATM    8  N5  UNL     1      -0.586  -1.553  -0.378  1.00  0.00    -0.278 N 
HETATM    9  C21 UNL     1      -1.763  -0.789  -0.154  1.00  0.00     0.331 A 
HETATM   10  O3  UNL     1      -2.727  -1.514   0.109  1.00  0.00    -0.246 OA
ENDROOT
BRANCH   5  11
HETATM   11  N2  UNL     1       3.743   0.148  -0.321  1.00  0.00    -0.270 NA
HETATM   12  C10 UNL     1       3.906  -0.389   0.820  1.00  0.00     0.113 C 
BRANCH  12  13
HETATM   13  C11 UNL     1       5.034  -0.273   1.729  1.00  0.00     0.019 C 
HETATM   14  C12 UNL     1       6.129   0.431   1.532  1.00  0.00     0.003 C 
BRANCH  14  15
HETATM   15  C13 UNL     1       6.581   1.275   0.438  1.00  0.00     0.017 C 
HETATM   16  C14 UNL     1       7.686   1.994   0.223  1.00  0.00     0.080 C 
BRANCH  16  17
HETATM   17  N3  UNL     1       7.814   2.724  -0.984  1.00  0.00    -0.408 N 
HETATM   18  H15 UNL     1       8.407   2.334  -1.739  1.00  0.00     0.155 HD
HETATM   19  H16 UNL     1       7.550   3.584  -1.530  1.00  0.00     0.155 HD
ENDBRANCH  16  17
ENDBRANCH  14  15
ENDBRANCH  12  13
ENDBRANCH   5  11
BRANCH   8  20
HETATM   20  C16 UNL     1      -0.527  -2.990  -0.307  1.00  0.00     0.099 C 
HETATM   21  C17 UNL     1      -1.442  -3.712  -1.247  1.00  0.00     0.028 C 
HETATM   22  C18 UNL     1      -1.444  -5.133  -0.685  1.00  0.00     0.034 C 
HETATM   23  C19 UNL     1      -0.906  -5.047   0.722  1.00  0.00     0.120 C 
HETATM   24  C20 UNL     1      -0.895  -3.551   1.046  1.00  0.00     0.057 C 
BRANCH  23  25
HETATM   25  O2  UNL     1       0.403  -5.479   0.816  1.00  0.00    -0.396 OA
HETATM   26  H23 UNL     1       0.937  -4.984   1.481  1.00  0.00     0.210 HD
ENDBRANCH  23  25
ENDBRANCH   8  20
BRANCH   1  27
HETATM   27  C5  UNL     1      -3.087   1.329   0.027  1.00  0.00     0.039 A 
HETATM   28  C4  UNL     1      -4.308   0.828   0.333  1.00  0.00     0.032 A 
HETATM   29  C3  UNL     1      -5.453   1.559   0.555  1.00  0.00     0.039 A 
HETATM   30  C2  UNL     1      -5.399   2.932   0.468  1.00  0.00     0.068 A 
HETATM   31  C23 UNL     1      -4.209   3.505   0.164  1.00  0.00     0.039 A 
HETATM   32  C22 UNL     1      -3.114   2.712  -0.042  1.00  0.00     0.032 A 
BRANCH  30  33
HETATM   33  O1  UNL     1      -6.514   3.706   0.680  1.00  0.00    -0.356 OA
HETATM   34  C1  UNL     1      -6.518   5.118   0.604  1.00  0.00     0.210 C 
ENDBRANCH  30  33
ENDBRANCH   1  27
TORSDOF 8
