REMARK  3 active torsions:
REMARK  status: ('A' for Active; 'I' for Inactive)
REMARK    1  A    between atoms: C7_7  and  C8_8 
REMARK    2  A    between atoms: C11_11  and  C12_12 
REMARK    3  A    between atoms: C12_12  and  C13_13 
ROOT
HETATM    1  C8  UNL     1      -1.757  -0.554  -0.239  1.00  0.00    -0.029 A 
HETATM    2  C9  UNL     1      -0.489  -0.619  -0.561  1.00  0.00     0.027 A 
HETATM    3  C10 UNL     1       0.353  -1.784  -0.690  1.00  0.00     0.035 A 
HETATM    4  C11 UNL     1       1.663  -1.724  -1.064  1.00  0.00     0.054 A 
HETATM    5  N1  UNL     1       2.359  -2.895  -1.175  1.00  0.00    -0.245 NA
HETATM    6  C19 UNL     1       1.779  -4.093  -0.923  1.00  0.00     0.235 A 
HETATM    7  N2  UNL     1       0.473  -4.189  -0.547  1.00  0.00    -0.224 NA
HETATM    8  C20 UNL     1      -0.181  -3.025  -0.448  1.00  0.00     0.137 A 
HETATM    9  N3  UNL     1      -1.542  -2.937  -0.088  1.00  0.00    -0.370 N 
HETATM   10  C21 UNL     1      -2.462  -1.866  -0.007  1.00  0.00     0.160 A 
HETATM   11  H16 UNL     1      -2.056  -3.815   0.191  1.00  0.00     0.161 HD
ENDROOT
BRANCH   4  12
HETATM   12  C12 UNL     1       2.415  -0.517  -1.348  1.00  0.00     0.099 C 
BRANCH  12  13
HETATM   13  C13 UNL     1       2.928   0.231  -0.191  1.00  0.00    -0.051 A 
HETATM   14  C14 UNL     1       3.966  -0.519   0.346  1.00  0.00     0.007 A 
HETATM   15  C15 UNL     1       4.691  -0.081   1.465  1.00  0.00     0.002 A 
HETATM   16  C16 UNL     1       4.385   1.132   2.073  1.00  0.00     0.019 A 
HETATM   17  C17 UNL     1       3.345   1.873   1.527  1.00  0.00     0.011 A 
HETATM   18 BR1  UNL     1       2.755   3.557   2.192  1.00  0.00    -0.051 Br
HETATM   19  C18 UNL     1       2.657   1.414   0.430  1.00  0.00     0.026 A 
ENDBRANCH  12  13
ENDBRANCH   4  12
BRANCH   1  20
HETATM   20  C7  UNL     1      -2.597   0.613  -0.102  1.00  0.00    -0.022 A 
HETATM   21  C2  UNL     1      -2.339   1.957  -0.066  1.00  0.00    -0.051 A 
HETATM   22  C1  UNL     1      -0.920   2.362   0.004  1.00  0.00     0.049 C 
HETATM   23  C3  UNL     1      -3.255   2.966  -0.029  1.00  0.00     0.007 A 
HETATM   24  C4  UNL     1      -4.592   2.668  -0.023  1.00  0.00     0.001 A 
HETATM   25  C5  UNL     1      -4.954   1.353  -0.054  1.00  0.00     0.001 A 
HETATM   26  C6  UNL     1      -3.985   0.399  -0.091  1.00  0.00     0.012 A 
ENDBRANCH   1  20
TORSDOF 3
