REMARK  8 active torsions:
REMARK  status: ('A' for Active; 'I' for Inactive)
REMARK    1  A    between atoms: N1_1  and  C1_2 
REMARK    2  A    between atoms: C1_2  and  C2_3 
REMARK    3  A    between atoms: C4_6  and  C5_7 
REMARK    4  A    between atoms: C6_8  and  N3_9 
REMARK    5  A    between atoms: C6_8  and  C7_10 
REMARK    6  A    between atoms: C7_10  and  C8_11 
REMARK    7  A    between atoms: C14_17  and  N4_18 
REMARK    8  A    between atoms: N4_18  and  C15_19 
ROOT
HETATM    1  C2  UNL     1      -2.504  -2.747   0.013  1.00  0.00     0.155 A 
HETATM    2  N2  UNL     1      -1.384  -3.365   0.424  1.00  0.00    -0.243 NA
HETATM    3  C3  UNL     1      -0.312  -2.637   0.772  1.00  0.00     0.134 A 
HETATM    4  C4  UNL     1      -0.353  -1.258   0.710  1.00  0.00     0.029 A 
HETATM    5  C14 UNL     1      -1.497  -0.637   0.292  1.00  0.00     0.141 A 
HETATM    6  N5  UNL     1      -2.581  -1.383  -0.060  1.00  0.00    -0.213 NA
ENDROOT
BRANCH   4   7
HETATM    7  C5  UNL     1       0.770  -0.424   1.079  1.00  0.00     0.041 C 
HETATM    8  C6  UNL     1       1.468   0.590   0.618  1.00  0.00     0.007 C 
BRANCH   8   9
HETATM    9  N3  UNL     1       1.372   1.358  -0.586  1.00  0.00    -0.402 N 
HETATM   10  H7  UNL     1       0.913   2.177  -1.024  1.00  0.00     0.156 HD
HETATM   11  H8  UNL     1       1.990   0.958  -1.294  1.00  0.00     0.156 HD
ENDBRANCH   8   9
BRANCH   8  12
HETATM   12  C7  UNL     1       2.585   1.179   1.347  1.00  0.00     0.095 C 
BRANCH  12  13
HETATM   13  C8  UNL     1       3.887   1.112   0.675  1.00  0.00    -0.053 A 
HETATM   14  C9  UNL     1       4.419   1.981  -0.227  1.00  0.00     0.007 A 
HETATM   15  C10 UNL     1       5.676   1.773  -0.775  1.00  0.00     0.001 A 
HETATM   16  C11 UNL     1       6.443   0.679  -0.432  1.00  0.00     0.000 A 
HETATM   17  C12 UNL     1       5.948  -0.228   0.477  1.00  0.00     0.001 A 
HETATM   18  C13 UNL     1       4.709   0.019   0.988  1.00  0.00     0.007 A 
ENDBRANCH  12  13
ENDBRANCH   8  12
ENDBRANCH   4   7
BRANCH   5  19
HETATM   19  N4  UNL     1      -1.731   0.740   0.206  1.00  0.00    -0.342 N 
HETATM   20  H16 UNL     1      -1.133   1.546   0.462  1.00  0.00     0.167 HD
BRANCH  19  21
HETATM   21  C15 UNL     1      -2.885   1.432  -0.252  1.00  0.00     0.029 A 
HETATM   22  C16 UNL     1      -3.218   2.130  -1.343  1.00  0.00     0.026 A 
HETATM   23  C17 UNL     1      -4.589   2.610  -1.230  1.00  0.00    -0.001 A 
HETATM   24  C18 UNL     1      -5.045   2.183  -0.067  1.00  0.00    -0.005 A 
HETATM   25  C19 UNL     1      -4.048   1.388   0.707  1.00  0.00     0.130 A 
HETATM   26 BR1  UNL     1      -3.581   2.171   2.386  1.00  0.00    -0.080 Br
ENDBRANCH  19  21
ENDBRANCH   5  19
BRANCH   1  27
HETATM   27  C1  UNL     1      -3.641  -3.634  -0.349  1.00  0.00     0.346 C 
BRANCH  27  28
HETATM   28  N1  UNL     1      -3.602  -4.009  -1.752  1.00  0.00     0.085 N 
HETATM   29  H1  UNL     1      -2.627  -4.197  -2.057  1.00  0.00     0.313 HD
HETATM   30  H2  UNL     1      -4.131  -4.926  -1.798  1.00  0.00     0.313 HD
ENDBRANCH  27  28
ENDBRANCH   1  27
TORSDOF 8
