REMARK  6 active torsions:
REMARK  status: ('A' for Active; 'I' for Inactive)
REMARK    1  A    between atoms: C2_2  and  S1_3 
REMARK    2  A    between atoms: C3_4  and  C4_5 
REMARK    3  A    between atoms: C4_5  and  C5_6 
REMARK    4  A    between atoms: C6_7  and  C7_8 
REMARK    5  A    between atoms: C11_14  and  N2_15 
REMARK    6  A    between atoms: C12_17  and  C13_18 
ROOT
HETATM    1  S1  UNL     1      -0.800  -1.370   0.785  1.00  0.00    -0.230 SA
HETATM    2  C3  UNL     1       0.731  -1.035  -0.072  1.00  0.00     0.007 C 
HETATM    3  C8  UNL     1       1.336   0.180   0.449  1.00  0.00     0.294 A 
HETATM    4  C9  UNL     1       0.435   0.754   1.475  1.00  0.00     0.381 A 
HETATM    5  C10 UNL     1      -0.404   1.010   2.214  1.00  0.00     0.170 A 
HETATM    6  N1  UNL     1       0.880   1.233   1.553  1.00  0.00     0.044 N 
HETATM    7  C11 UNL     1       1.845   2.114   1.592  1.00  0.00     0.281 A 
HETATM    8  N3  UNL     1       2.218   1.218   0.661  1.00  0.00    -0.207 NA
HETATM    9  C12 UNL     1      -1.367   0.251   1.209  1.00  0.00     0.076 C 
HETATM   10  H6  UNL     1      -1.949  -1.964  -0.485  1.00  0.00     0.086 HD
ENDROOT
BRANCH   9  11
HETATM   11  C13 UNL     1      -1.620   1.126   0.005  1.00  0.00     0.046 A 
HETATM   12  C14 UNL     1      -2.033   2.493   0.256  1.00  0.00    -0.017 A 
HETATM   13  C15 UNL     1      -3.130   2.851  -0.345  1.00  0.00     0.003 A 
HETATM   14  C16 UNL     1      -3.522   1.630  -1.088  1.00  0.00    -0.065 A 
HETATM   15  C17 UNL     1      -4.736   1.612  -1.937  1.00  0.00     0.048 C 
HETATM   16  C18 UNL     1      -2.663   0.611  -0.906  1.00  0.00    -0.011 A 
ENDBRANCH   9  11
BRANCH   1  17
HETATM   17  C2  UNL     1      -0.803  -2.629   2.056  1.00  0.00     0.052 C 
HETATM   18  C1  UNL     1      -0.403  -3.961   1.548  1.00  0.00     0.014 C 
ENDBRANCH   1  17
BRANCH   2  19
HETATM   19  C4  UNL     1       1.732  -1.331  -0.837  1.00  0.00     0.059 C 
BRANCH  19  20
HETATM   20  C5  UNL     1       2.712  -1.866  -1.678  1.00  0.00    -0.019 C 
HETATM   21  C6  UNL     1       3.575  -0.891  -1.868  1.00  0.00    -0.019 C 
BRANCH  21  22
HETATM   22  C7  UNL     1       4.789  -0.962  -2.684  1.00  0.00     0.112 C 
HETATM   23 BR1  UNL     1       6.353  -0.691  -1.602  1.00  0.00    -0.092 Br
ENDBRANCH  21  22
ENDBRANCH  19  20
ENDBRANCH   2  19
BRANCH   7  24
HETATM   24  N2  UNL     1       2.691   3.220   1.956  1.00  0.00    -0.266 NA
HETATM   25  H13 UNL     1       2.733   3.867   1.116  1.00  0.00     0.127 HD
HETATM   26  H14 UNL     1       2.652   3.781   1.070  1.00  0.00     0.127 HD
ENDBRANCH   7  24
TORSDOF 6
