REMARK  0 active torsions:
REMARK  status: ('A' for Active; 'I' for Inactive)
ROOT
HETATM    1  C1  UNL     1       2.144   1.511  -2.362  1.00  0.00     0.151 C 
HETATM    2  N1  UNL     1       2.410   0.927  -1.080  1.00  0.00    -0.367 N 
HETATM    3  C2  UNL     1       3.807   1.093  -0.760  1.00  0.00     0.106 C 
HETATM    4  C3  UNL     1       4.663   0.665   0.169  1.00  0.00     0.026 C 
HETATM    5 BR1  UNL     1       6.225   1.721   0.429  1.00  0.00    -0.050 Br
HETATM    6  C4  UNL     1       4.653  -0.505   1.075  1.00  0.00     0.023 C 
HETATM    7  C5  UNL     1       3.813  -1.513   1.252  1.00  0.00     0.033 C 
HETATM    8  C6  UNL     1       2.479  -1.777   0.722  1.00  0.00     0.058 C 
HETATM    9  C7  UNL     1       1.715  -1.145  -0.185  1.00  0.00     0.052 C 
HETATM   10  C8  UNL     1       1.338   0.294  -0.323  1.00  0.00     0.233 C 
HETATM   11  N2  UNL     1       0.105   0.496  -0.938  1.00  0.00    -0.268 NA
HETATM   12  C9  UNL     1      -1.054   0.443  -0.419  1.00  0.00     0.023 C 
HETATM   13  C10 UNL     1      -1.761   0.772  -1.734  1.00  0.00     0.090 C 
HETATM   14  C11 UNL     1      -3.246   0.832  -1.460  1.00  0.00    -0.059 C 
HETATM   15  C12 UNL     1      -4.412   0.354  -1.881  1.00  0.00    -0.023 C 
HETATM   16  C13 UNL     1      -5.023  -0.387  -0.940  1.00  0.00     0.013 C 
HETATM   17  C14 UNL     1      -4.579  -0.380   0.488  1.00  0.00     0.004 C 
HETATM   18  C15 UNL     1      -3.558   0.473   0.735  1.00  0.00    -0.075 C 
HETATM   19  C16 UNL     1      -3.605   1.673  -0.226  1.00  0.00     0.069 C 
HETATM   20  C17 UNL     1      -2.461   0.323   1.695  1.00  0.00     0.050 C 
HETATM   21  C18 UNL     1      -1.122   0.128   1.027  1.00  0.00     0.078 C 
HETATM   22  C19 UNL     1      -0.793  -1.314   1.183  1.00  0.00     0.101 C 
HETATM   23  N3  UNL     1       0.335  -1.594   1.689  1.00  0.00    -0.257 NA
HETATM   24  C20 UNL     1       0.744  -2.941   1.881  1.00  0.00     0.232 C 
HETATM   25  N4  UNL     1       1.928  -2.944   1.319  1.00  0.00    -0.242 NA
ENDROOT
TORSDOF 0
