REMARK  1 active torsions:
REMARK  status: ('A' for Active; 'I' for Inactive)
REMARK    1  A    between atoms: S1_14  and  N2_15 
ROOT
HETATM    1  C1  UNL     1      -2.212  -1.725  -2.177  1.00  0.00     0.070 C 
HETATM    2  C2  UNL     1      -1.396  -1.950  -0.969  1.00  0.00     0.030 C 
HETATM    3  C3  UNL     1      -2.125  -1.623   0.090  1.00  0.00     0.029 C 
HETATM    4  C4  UNL     1      -3.127  -1.201   1.056  1.00  0.00     0.299 C 
HETATM    5  N1  UNL     1      -2.763  -0.070   1.889  1.00  0.00     0.087 N 
HETATM    6  C5  UNL     1      -2.711   1.247   1.170  1.00  0.00     0.274 C 
HETATM    7  C6  UNL     1      -1.689   0.972   0.231  1.00  0.00     0.070 C 
HETATM    8  C7  UNL     1      -0.890   1.416  -0.836  1.00  0.00    -0.038 A 
HETATM    9  C8  UNL     1      -1.239   2.484  -1.577  1.00  0.00     0.010 A 
HETATM   10  C9  UNL     1      -0.657   3.077  -2.680  1.00  0.00     0.016 A 
HETATM   11  P1  UNL     1       0.786   2.219  -3.122  1.00  0.00    -0.033 P 
HETATM   12  C10 UNL     1       1.105   0.871  -2.076  1.00  0.00     0.036 A 
HETATM   13  C11 UNL     1       0.253   0.588  -1.038  1.00  0.00     0.024 A 
HETATM   14  S1  UNL     1       0.889  -0.815  -0.068  1.00  0.00    -0.032 SA
HETATM   15  C17 UNL     1       0.852  -2.259  -0.767  1.00  0.00     0.144 C 
HETATM   16  N3  UNL     1      -0.172  -2.424  -1.455  1.00  0.00    -0.243 NA
HETATM   17  H7  UNL     1      -3.252  -0.013   2.768  1.00  0.00     0.316 HD
ENDROOT
BRANCH  14  18
HETATM   18  N2  UNL     1       2.544  -0.568   0.675  1.00  0.00    -0.327 N 
HETATM   19  C12 UNL     1       3.771  -1.152   0.235  1.00  0.00     0.117 A 
HETATM   20  C13 UNL     1       4.852  -0.829   0.922  1.00  0.00     0.026 A 
HETATM   21 BR1  UNL     1       6.436  -1.642   0.278  1.00  0.00    -0.050 Br
HETATM   22  C14 UNL     1       4.825   0.069   2.069  1.00  0.00     0.018 A 
HETATM   23  C15 UNL     1       3.656   0.573   2.424  1.00  0.00    -0.005 A 
HETATM   24  C16 UNL     1       2.335   0.338   1.791  1.00  0.00     0.163 A 
ENDBRANCH  14  18
TORSDOF 1
