REMARK  2 active torsions:
REMARK  status: ('A' for Active; 'I' for Inactive)
REMARK    1  A    between atoms: N1_1  and  C1_2 
REMARK    2  A    between atoms: N4_10  and  C7_11 
ROOT
HETATM    1  C1  UNL     1       0.608   1.941   1.394  1.00  0.00    -0.013 C 
HETATM    2  C2  UNL     1       1.703   1.174   1.174  1.00  0.00     0.021 C 
HETATM    3  C3  UNL     1       2.094   0.230   0.175  1.00  0.00     0.037 C 
HETATM    4  C4  UNL     1       1.633  -0.322  -0.895  1.00  0.00     0.105 A 
HETATM    5  C5  UNL     1       0.330  -0.100  -1.513  1.00  0.00     0.158 A 
HETATM    6  N2  UNL     1      -0.075  -0.746  -2.472  1.00  0.00    -0.220 NA
HETATM    7  C6  UNL     1       0.708  -1.806  -3.098  1.00  0.00     0.258 A 
HETATM    8  N3  UNL     1       1.870  -2.070  -2.625  1.00  0.00    -0.160 NA
HETATM    9  N4  UNL     1       2.366  -1.355  -1.533  1.00  0.00    -0.229 N 
HETATM   10  N5  UNL     1      -0.868   0.683  -1.503  1.00  0.00    -0.339 N 
HETATM   11  C13 UNL     1      -1.982   0.563  -0.601  1.00  0.00     0.036 C 
HETATM   12  C14 UNL     1      -1.742   1.342   0.523  1.00  0.00    -0.048 C 
HETATM   13  C15 UNL     1      -2.315   1.745   1.805  1.00  0.00     0.040 C 
HETATM   14  C16 UNL     1      -3.623   1.084   2.083  1.00  0.00     0.031 C 
HETATM   15  C17 UNL     1      -4.757   1.434   1.225  1.00  0.00    -0.030 C 
HETATM   16  C18 UNL     1      -5.488   0.787   0.264  1.00  0.00    -0.027 C 
HETATM   17  C19 UNL     1      -4.733  -0.419   0.325  1.00  0.00     0.054 C 
HETATM   18  C20 UNL     1      -4.176  -0.819  -1.039  1.00  0.00    -0.021 C 
HETATM   19  C21 UNL     1      -3.006  -0.293  -1.191  1.00  0.00     0.026 C 
HETATM   20  C22 UNL     1      -0.482   2.107   0.427  1.00  0.00     0.087 C 
HETATM   21  H10 UNL     1      -1.216   1.432  -2.057  1.00  0.00     0.167 HD
ENDROOT
BRANCH   9  22
HETATM   22  C7  UNL     1       3.651  -1.722  -1.113  1.00  0.00     0.060 A 
HETATM   23  C8  UNL     1       3.819  -3.067  -0.796  1.00  0.00     0.032 A 
HETATM   24  C9  UNL     1       5.057  -3.550  -0.395  1.00  0.00     0.004 A 
HETATM   25  C10 UNL     1       6.141  -2.708  -0.304  1.00  0.00     0.019 A 
HETATM   26  C11 UNL     1       6.038  -1.373  -0.603  1.00  0.00     0.013 A 
HETATM   27 BR1  UNL     1       7.465  -0.091  -0.519  1.00  0.00    -0.051 Br
HETATM   28  C12 UNL     1       4.802  -0.940  -0.994  1.00  0.00     0.050 A 
ENDBRANCH   9  22
BRANCH   1  29
HETATM   29  N1  UNL     1       0.533   2.800   2.548  1.00  0.00    -0.306 NA
HETATM   30  H1  UNL     1       0.137   2.860   3.523  1.00  0.00     0.124 HD
HETATM   31  H2  UNL     1       0.128   2.831   3.511  1.00  0.00     0.124 HD
ENDBRANCH   1  29
TORSDOF 2
