REMARK  6 active torsions:
REMARK  status: ('A' for Active; 'I' for Inactive)
REMARK    1  A    between atoms: C7_8  and  N1_9 
REMARK    2  A    between atoms: N1_9  and  C8_10 
REMARK    3  A    between atoms: C9_11  and  C10_12 
REMARK    4  A    between atoms: C10_12  and  N2_13 
REMARK    5  A    between atoms: C10_12  and  C11_14 
REMARK    6  A    between atoms: C11_14  and  C12_15 
ROOT
HETATM    1  C8  UNL     1       1.170  -1.166  -0.430  1.00  0.00     0.112 A 
HETATM    2  C9  UNL     1       0.508  -1.112  -1.575  1.00  0.00     0.025 A 
HETATM    3  C22 UNL     1       0.458  -2.336  -2.369  1.00  0.00     0.125 A 
HETATM    4  N3  UNL     1       0.968  -3.490  -2.130  1.00  0.00    -0.281 NA
HETATM    5  C23 UNL     1       1.726  -3.663  -0.884  1.00  0.00     0.271 A 
HETATM    6  N4  UNL     1       1.748  -2.430  -0.127  1.00  0.00    -0.358 N 
HETATM    7  H23 UNL     1       2.288  -2.632   0.725  1.00  0.00     0.162 HD
ENDROOT
BRANCH   2   8
HETATM    8  C10 UNL     1      -0.204   0.052  -2.168  1.00  0.00     0.117 C 
BRANCH   8   9
HETATM    9  N2  UNL     1       0.230   1.216  -1.499  1.00  0.00    -0.422 N 
HETATM   10  H9  UNL     1      -0.026   1.366  -0.529  1.00  0.00     0.150 HD
HETATM   11  H10 UNL     1       0.640   1.976  -2.037  1.00  0.00     0.150 HD
ENDBRANCH   8   9
BRANCH   8  12
HETATM   12  C11 UNL     1      -1.648  -0.170  -2.385  1.00  0.00     0.069 C 
BRANCH  12  13
HETATM   13  C12 UNL     1      -2.485  -0.477  -1.239  1.00  0.00    -0.045 A 
HETATM   14  C13 UNL     1      -2.738  -1.830  -0.949  1.00  0.00     0.008 A 
HETATM   15  C14 UNL     1      -3.471  -2.278   0.123  1.00  0.00     0.001 A 
HETATM   16  C15 UNL     1      -4.011  -1.369   0.993  1.00  0.00     0.012 A 
HETATM   17  C16 UNL     1      -3.809  -0.026   0.775  1.00  0.00    -0.025 A 
HETATM   18  C17 UNL     1      -4.342   0.948   1.611  1.00  0.00     0.012 A 
HETATM   19  C21 UNL     1      -3.065   0.359  -0.317  1.00  0.00    -0.020 A 
HETATM   20  C18 UNL     1      -4.166   2.315   1.405  1.00  0.00     0.001 A 
HETATM   21  C19 UNL     1      -3.416   2.663   0.297  1.00  0.00     0.001 A 
HETATM   22  C20 UNL     1      -2.882   1.706  -0.538  1.00  0.00     0.013 A 
ENDBRANCH  12  13
ENDBRANCH   8  12
ENDBRANCH   2   8
BRANCH   1  23
HETATM   23  N1  UNL     1       1.407  -0.181   0.558  1.00  0.00    -0.342 N 
HETATM   24  H7  UNL     1       0.511  -0.333   1.068  1.00  0.00     0.167 HD
BRANCH  23  25
HETATM   25  C7  UNL     1       2.402   0.763   0.916  1.00  0.00     0.041 A 
HETATM   26  C2  UNL     1       3.559   0.899   0.200  1.00  0.00    -0.035 A 
HETATM   27  C1  UNL     1       3.847   0.067  -0.993  1.00  0.00     0.050 C 
HETATM   28  C3  UNL     1       4.498   1.841   0.597  1.00  0.00     0.010 A 
HETATM   29  C4  UNL     1       4.247   2.621   1.703  1.00  0.00     0.020 A 
HETATM   30  C5  UNL     1       3.057   2.446   2.398  1.00  0.00     0.013 A 
HETATM   31 BR1  UNL     1       2.713   3.541   3.943  1.00  0.00    -0.051 Br
HETATM   32  C6  UNL     1       2.108   1.518   2.025  1.00  0.00     0.049 A 
ENDBRANCH  23  25
ENDBRANCH   1  23
TORSDOF 6
