REMARK  11 active torsions:
REMARK  status: ('A' for Active; 'I' for Inactive)
REMARK    1  A    between atoms: C2_2  and  C3_3 
REMARK    2  A    between atoms: C3_3  and  C4_4 
REMARK    3  A    between atoms: C9_9  and  C10_10 
REMARK    4  A    between atoms: C10_10  and  C11_11 
REMARK    5  A    between atoms: C11_11  and  C12_12 
REMARK    6  A    between atoms: C12_12  and  N1_13 
REMARK    7  A    between atoms: C13_14  and  C14_15 
REMARK    8  A    between atoms: C16_18  and  N3_19 
REMARK    9  A    between atoms: C17_21  and  B1_22 
REMARK   10  A    between atoms: B1_22  and  N5_23 
REMARK   11  A    between atoms: N5_23  and  C18_24 
ROOT
HETATM    1  C14 UNL     1       2.075  -0.553   0.118  1.00  0.00    -0.002 A 
HETATM    2  C15 UNL     1       1.979  -1.911  -0.098  1.00  0.00     0.132 A 
HETATM    3  N2  UNL     1       3.031  -2.731   0.125  1.00  0.00    -0.230 NA
HETATM    4  C16 UNL     1       4.183  -2.152   0.570  1.00  0.00     0.198 A 
HETATM    5  N4  UNL     1       4.312  -0.830   0.791  1.00  0.00    -0.233 NA
HETATM    6  C17 UNL     1       3.252   0.002   0.567  1.00  0.00     0.029 A 
ENDROOT
BRANCH   1   7
HETATM    7  C13 UNL     1       0.973   0.366  -0.102  1.00  0.00     0.032 C 
HETATM    8  C12 UNL     1      -0.319   0.114   0.170  1.00  0.00    -0.016 C 
BRANCH   8   9
HETATM    9  C11 UNL     1      -1.601   0.846   0.049  1.00  0.00     0.055 C 
BRANCH   9  10
HETATM   10  C10 UNL     1      -2.589   0.109  -0.847  1.00  0.00     0.045 C 
BRANCH  10  11
HETATM   11  C9  UNL     1      -3.880   0.840  -0.967  1.00  0.00    -0.047 A 
HETATM   12  C4  UNL     1      -4.750   0.778   0.096  1.00  0.00    -0.023 A 
HETATM   13  C5  UNL     1      -5.997   1.409   0.139  1.00  0.00     0.012 A 
HETATM   14  C6  UNL     1      -6.355   2.135  -0.975  1.00  0.00     0.001 A 
HETATM   15  C7  UNL     1      -5.508   2.227  -2.079  1.00  0.00     0.001 A 
HETATM   16  C8  UNL     1      -4.284   1.583  -2.068  1.00  0.00     0.008 A 
BRANCH  12  17
HETATM   17  C3  UNL     1      -4.400   0.018   1.286  1.00  0.00     0.062 C 
BRANCH  17  18
HETATM   18  C2  UNL     1      -4.534  -1.301   1.282  1.00  0.00    -0.154 C 
HETATM   19  C1  UNL     1      -4.677  -2.583   0.983  1.00  0.00     0.096 C 
ENDBRANCH  17  18
ENDBRANCH  12  17
ENDBRANCH  10  11
ENDBRANCH   9  10
ENDBRANCH   8   9
BRANCH   8  20
HETATM   20  N1  UNL     1      -0.618  -1.183   0.728  1.00  0.00    -0.306 NA
HETATM   21  H12 UNL     1      -0.591  -1.157   1.770  1.00  0.00     0.124 HD
HETATM   22  H13 UNL     1      -0.694  -1.584   1.689  1.00  0.00     0.124 HD
ENDBRANCH   8  20
ENDBRANCH   1   7
BRANCH   6  23
HETATM   23  B1  UNL     1       3.516   1.511   0.857  1.00  0.00     0.328 B 
HETATM   24  H18 UNL     1       2.766   2.210   1.415  1.00  0.00     0.007 HD
BRANCH  23  25
HETATM   25  N5  UNL     1       4.746   2.130   0.174  1.00  0.00    -0.440 N 
HETATM   26  H19 UNL     1       5.010   3.080  -0.128  1.00  0.00     0.138 HD
BRANCH  25  27
HETATM   27  C18 UNL     1       5.864   1.295  -0.180  1.00  0.00    -0.009 A 
HETATM   28  C19 UNL     1       6.973   0.747   0.489  1.00  0.00     0.003 A 
HETATM   29  C20 UNL     1       6.834   0.451  -0.918  1.00  0.00     0.084 A 
ENDBRANCH  25  27
ENDBRANCH  23  25
ENDBRANCH   6  23
BRANCH   4  30
HETATM   30  N3  UNL     1       5.275  -3.031   0.801  1.00  0.00    -0.271 NA
HETATM   31  H16 UNL     1       5.785  -3.785   0.299  1.00  0.00     0.127 HD
HETATM   32  H17 UNL     1       5.482  -3.672  -0.022  1.00  0.00     0.127 HD
ENDBRANCH   4  30
TORSDOF 11
