REMARK  3 active torsions:
REMARK  status: ('A' for Active; 'I' for Inactive)
REMARK    1  A    between atoms: C7_8  and  C8_9 
REMARK    2  A    between atoms: C9_11  and  N2_12 
REMARK    3  A    between atoms: C11_16  and  C12_17 
ROOT
HETATM    1  C8  UNL     1      -1.169   0.830  -0.155  1.00  0.00     0.136 A 
HETATM    2  N1  UNL     1      -2.011   0.991  -1.260  1.00  0.00    -0.086 NA
HETATM    3  C9  UNL     1      -2.085   1.441  -2.437  1.00  0.00     0.717 C 
HETATM    4  N3  UNL     1      -0.972   2.066  -3.058  1.00  0.00    -0.059 NA
HETATM    5  C10 UNL     1       0.241   2.251  -2.681  1.00  0.00     0.223 C 
HETATM    6  N4  UNL     1       0.751   1.805  -1.407  1.00  0.00    -0.367 N 
HETATM    7  C11 UNL     1       0.221   1.235  -0.201  1.00  0.00     0.098 A 
HETATM    8  C22 UNL     1      -0.763   2.169   0.489  1.00  0.00     0.056 A 
HETATM    9  C23 UNL     1      -1.178   3.450  -0.214  1.00  0.00     0.016 C 
HETATM   10  H10 UNL     1       1.801   1.961  -1.416  1.00  0.00     0.161 HD
ENDROOT
BRANCH   7  11
HETATM   11  C12 UNL     1       1.242   0.639   0.684  1.00  0.00    -0.016 A 
HETATM   12  C13 UNL     1       1.517   1.007   1.983  1.00  0.00     0.011 A 
HETATM   13  C14 UNL     1       2.468   0.442   2.801  1.00  0.00     0.002 A 
HETATM   14  C15 UNL     1       3.229  -0.587   2.298  1.00  0.00     0.012 A 
HETATM   15  C16 UNL     1       3.015  -1.011   1.008  1.00  0.00    -0.025 A 
HETATM   16  C17 UNL     1       3.808  -2.044   0.554  1.00  0.00     0.012 A 
HETATM   17  C21 UNL     1       2.048  -0.406   0.240  1.00  0.00    -0.017 A 
HETATM   18  C18 UNL     1       3.646  -2.515  -0.731  1.00  0.00     0.001 A 
HETATM   19  C19 UNL     1       2.695  -1.949  -1.547  1.00  0.00     0.001 A 
HETATM   20  C20 UNL     1       1.934  -0.920  -1.034  1.00  0.00     0.013 A 
ENDBRANCH   7  11
BRANCH   1  21
HETATM   21  C7  UNL     1      -1.562  -0.265   0.767  1.00  0.00    -0.017 A 
HETATM   22  C2  UNL     1      -1.624  -1.560   0.302  1.00  0.00    -0.036 A 
HETATM   23  C1  UNL     1      -1.329  -1.979  -1.068  1.00  0.00     0.050 C 
HETATM   24  C3  UNL     1      -1.990  -2.621   1.130  1.00  0.00     0.017 A 
HETATM   25 BR1  UNL     1      -2.093  -4.427   0.544  1.00  0.00    -0.051 Br
HETATM   26  C4  UNL     1      -2.306  -2.414   2.459  1.00  0.00     0.019 A 
HETATM   27  C5  UNL     1      -2.252  -1.129   2.951  1.00  0.00     0.002 A 
HETATM   28  C6  UNL     1      -1.886  -0.117   2.094  1.00  0.00     0.010 A 
ENDBRANCH   1  21
BRANCH   3  29
HETATM   29  N2  UNL     1      -3.265   1.356  -3.216  1.00  0.00    -0.231 N 
HETATM   30  H7  UNL     1      -3.751   0.857  -3.994  1.00  0.00     0.174 HD
HETATM   31  H8  UNL     1      -4.140   1.893  -3.203  1.00  0.00     0.174 HD
ENDBRANCH   3  29
TORSDOF 3
