REMARK  2 active torsions:
REMARK  status: ('A' for Active; 'I' for Inactive)
REMARK    1  A    between atoms: O1_2  and  C2_3 
REMARK    2  A    between atoms: C11_14  and  C12_15 
ROOT
HETATM    1  C2  UNL     1      -3.227   1.037   0.254  1.00  0.00     0.066 C 
HETATM    2  C3  UNL     1      -2.824  -0.222   0.157  1.00  0.00     0.019 C 
HETATM    3  C4  UNL     1      -1.796  -1.238  -0.092  1.00  0.00     0.068 C 
HETATM    4  C5  UNL     1      -2.305  -2.543   0.530  1.00  0.00     0.280 C 
HETATM    5  N1  UNL     1      -3.242  -3.207  -0.317  1.00  0.00     0.084 N 
HETATM    6  C6  UNL     1      -2.479  -3.672  -1.466  1.00  0.00     0.272 C 
HETATM    7  C7  UNL     1      -1.875  -2.574  -2.252  1.00  0.00     0.063 C 
HETATM    8  C8  UNL     1      -1.454  -1.352  -1.534  1.00  0.00     0.138 C 
HETATM    9  O2  UNL     1      -0.068  -1.040  -1.769  1.00  0.00    -0.357 OA
HETATM   10  C9  UNL     1       0.900  -1.131  -0.768  1.00  0.00     0.132 C 
HETATM   11  C10 UNL     1       1.624  -0.421   0.041  1.00  0.00     0.012 C 
HETATM   12  C11 UNL     1       2.030   0.870   0.564  1.00  0.00     0.083 C 
HETATM   13  C18 UNL     1       1.519   2.036  -0.243  1.00  0.00     0.102 C 
HETATM   14  N2  UNL     1       0.474   2.666  -0.653  1.00  0.00    -0.276 NA
HETATM   15  C19 UNL     1      -0.851   2.273  -0.328  1.00  0.00     0.118 C 
HETATM   16  C20 UNL     1      -2.101   1.974  -0.022  1.00  0.00     0.055 C 
HETATM   17  H8  UNL     1      -4.033  -2.583  -0.586  1.00  0.00     0.315 HD
ENDROOT
BRANCH  12  18
HETATM   18  C12 UNL     1       3.516   1.057   0.674  1.00  0.00    -0.044 A 
HETATM   19  C13 UNL     1       4.119   1.297   1.901  1.00  0.00     0.011 A 
HETATM   20  C14 UNL     1       5.503   1.458   1.913  1.00  0.00     0.044 A 
HETATM   21  C15 UNL     1       6.241   1.382   0.759  1.00  0.00     0.138 A 
HETATM   22  F1  UNL     1       7.596   1.543   0.801  1.00  0.00    -0.204 F 
HETATM   23  C16 UNL     1       5.638   1.141  -0.469  1.00  0.00     0.073 A 
HETATM   24 CL1  UNL     1       6.589   1.046  -1.934  1.00  0.00    -0.081 Cl
HETATM   25  C17 UNL     1       4.268   0.982  -0.480  1.00  0.00     0.035 A 
ENDBRANCH  12  18
BRANCH   1  26
HETATM   26  O1  UNL     1      -4.292   1.896   0.511  1.00  0.00    -0.356 OA
HETATM   27  C1  UNL     1      -4.314   2.459   1.830  1.00  0.00     0.210 C 
ENDBRANCH   1  26
TORSDOF 2
