REMARK  8 active torsions:
REMARK  status: ('A' for Active; 'I' for Inactive)
REMARK    1  A    between atoms: C2_2  and  C3_3 
REMARK    2  A    between atoms: C2_2  and  C12_13 
REMARK    3  A    between atoms: C3_3  and  C4_4 
REMARK    4  A    between atoms: C4_4  and  C5_5 
REMARK    5  A    between atoms: C6_6  and  N1_7 
REMARK    6  A    between atoms: C14_15  and  N2_16 
REMARK    7  A    between atoms: N2_16  and  C15_17 
REMARK    8  A    between atoms: C21_25  and  N4_26 
ROOT
HETATM    1  C12 UNL     1       0.403  -1.642   1.310  1.00  0.00     0.082 A 
HETATM    2  C13 UNL     1       1.029  -0.533   0.796  1.00  0.00     0.083 A 
HETATM    3  C14 UNL     1       2.361  -0.463   0.447  1.00  0.00     0.149 A 
HETATM    4  N3  UNL     1       3.040  -1.578   0.643  1.00  0.00    -0.045 NA
HETATM    5  C21 UNL     1       2.507  -2.699   1.139  1.00  0.00     0.722 A 
HETATM    6  N5  UNL     1       1.207  -2.702   1.458  1.00  0.00    -0.063 NA
ENDROOT
BRANCH   1   7
HETATM    7  C2  UNL     1      -0.998  -1.759   1.671  1.00  0.00    -0.050 C 
HETATM    8  C1  UNL     1      -1.396  -2.918   2.236  1.00  0.00     0.041 C 
BRANCH   7   9
HETATM    9  C3  UNL     1      -2.069  -0.775   1.516  1.00  0.00     0.041 C 
BRANCH   9  10
HETATM   10  C4  UNL     1      -2.356  -0.566   0.055  1.00  0.00     0.041 C 
BRANCH  10  11
HETATM   11  C5  UNL     1      -3.439   0.441  -0.157  1.00  0.00    -0.050 C 
HETATM   12  C6  UNL     1      -4.550   0.048  -0.802  1.00  0.00     0.028 C 
HETATM   13  C7  UNL     1      -5.750   0.787  -1.149  1.00  0.00     0.029 C 
HETATM   14  C8  UNL     1      -5.887   2.102  -1.227  1.00  0.00     0.002 C 
HETATM   15  C9  UNL     1      -4.848   3.122  -0.976  1.00  0.00    -0.004 C 
HETATM   16  C10 UNL     1      -3.724   2.897  -0.292  1.00  0.00    -0.022 C 
HETATM   17  C11 UNL     1      -3.102   1.764   0.400  1.00  0.00     0.063 C 
BRANCH  12  18
HETATM   18  N1  UNL     1      -4.614  -1.322  -1.243  1.00  0.00    -0.399 N 
HETATM   19  H7  UNL     1      -4.293  -1.801  -2.136  1.00  0.00     0.156 HD
HETATM   20  H8  UNL     1      -4.956  -2.259  -0.903  1.00  0.00     0.156 HD
ENDBRANCH  12  18
ENDBRANCH  10  11
ENDBRANCH   9  10
ENDBRANCH   7   9
ENDBRANCH   1   7
BRANCH   3  21
HETATM   21  N2  UNL     1       2.869   0.751  -0.073  1.00  0.00    -0.340 N 
HETATM   22  H16 UNL     1       2.214   1.559  -0.176  1.00  0.00     0.167 HD
BRANCH  21  23
HETATM   23  C15 UNL     1       4.201   1.000  -0.480  1.00  0.00     0.035 A 
HETATM   24  C16 UNL     1       5.255   0.133  -0.455  1.00  0.00     0.029 A 
HETATM   25  C17 UNL     1       6.530   0.405  -0.856  1.00  0.00     0.004 A 
HETATM   26  C18 UNL     1       6.825   1.651  -1.335  1.00  0.00     0.019 A 
HETATM   27  C19 UNL     1       5.817   2.580  -1.392  1.00  0.00     0.013 A 
HETATM   28 BR1  UNL     1       6.201   4.323  -2.056  1.00  0.00    -0.051 Br
HETATM   29  C20 UNL     1       4.553   2.247  -0.974  1.00  0.00     0.048 A 
ENDBRANCH  21  23
ENDBRANCH   3  21
BRANCH   5  30
HETATM   30  N4  UNL     1       3.274  -3.883   1.336  1.00  0.00    -0.231 N 
HETATM   31  H21 UNL     1       3.876  -4.473   0.695  1.00  0.00     0.174 HD
HETATM   32  H22 UNL     1       3.345  -4.378   2.258  1.00  0.00     0.174 HD
ENDBRANCH   5  30
TORSDOF 8
