REMARK  4 active torsions:
REMARK  status: ('A' for Active; 'I' for Inactive)
REMARK    1  A    between atoms: C7_7  and  N1_8 
REMARK    2  A    between atoms: N1_8  and  C8_9 
REMARK    3  A    between atoms: C9_10  and  C10_11 
REMARK    4  A    between atoms: N4_17  and  C14_18 
ROOT
HETATM    1  C10 UNL     1      -1.250  -0.426   0.017  1.00  0.00     0.151 C 
HETATM    2  C11 UNL     1      -1.342  -1.121   1.348  1.00  0.00     0.120 C 
HETATM    3  N2  UNL     1      -1.483  -0.494   2.491  1.00  0.00    -0.256 NA
HETATM    4  C12 UNL     1      -1.575   0.927   2.709  1.00  0.00     0.228 C 
HETATM    5  N3  UNL     1      -1.751   1.907   1.907  1.00  0.00    -0.263 NA
HETATM    6  C13 UNL     1      -1.927   1.962   0.447  1.00  0.00     0.275 C 
HETATM    7  N4  UNL     1      -2.266   0.607   0.066  1.00  0.00    -0.350 N 
ENDROOT
BRANCH   1   8
HETATM    8  C9  UNL     1       0.119   0.149  -0.156  1.00  0.00     0.020 C 
HETATM    9  C8  UNL     1       1.103  -0.266   0.621  1.00  0.00     0.086 C 
BRANCH   9  10
HETATM   10  N1  UNL     1       2.472   0.139   0.634  1.00  0.00    -0.366 N 
HETATM   11  H8  UNL     1       2.556   0.879   1.362  1.00  0.00     0.165 HD
BRANCH  10  12
HETATM   12  C7  UNL     1       3.603  -0.253  -0.094  1.00  0.00     0.037 A 
HETATM   13  C2  UNL     1       4.841   0.330   0.139  1.00  0.00    -0.035 A 
HETATM   14  C1  UNL     1       5.014   1.381   1.157  1.00  0.00     0.050 C 
HETATM   15  C3  UNL     1       5.870  -0.132  -0.630  1.00  0.00     0.009 A 
HETATM   16  C4  UNL     1       5.710  -1.124  -1.593  1.00  0.00     0.001 A 
HETATM   17  C5  UNL     1       4.467  -1.687  -1.803  1.00  0.00     0.002 A 
HETATM   18  C6  UNL     1       3.400  -1.242  -1.041  1.00  0.00     0.030 A 
ENDBRANCH  10  12
ENDBRANCH   9  10
ENDBRANCH   1   8
BRANCH   7  19
HETATM   19  C14 UNL     1      -3.588   0.219  -0.271  1.00  0.00     0.033 A 
HETATM   20  C15 UNL     1      -4.661   1.059  -0.433  1.00  0.00     0.029 A 
HETATM   21  C16 UNL     1      -5.935   0.676  -0.750  1.00  0.00     0.004 A 
HETATM   22  C17 UNL     1      -6.188  -0.676  -0.928  1.00  0.00     0.019 A 
HETATM   23  C18 UNL     1      -5.126  -1.557  -0.771  1.00  0.00     0.013 A 
HETATM   24 BR1  UNL     1      -5.564  -3.385  -1.032  1.00  0.00    -0.051 Br
HETATM   25  C19 UNL     1      -3.861  -1.115  -0.451  1.00  0.00     0.048 A 
ENDBRANCH   7  19
TORSDOF 4
