REMARK  8 active torsions:
REMARK  status: ('A' for Active; 'I' for Inactive)
REMARK    1  A    between atoms: O1_2  and  C2_3 
REMARK    2  A    between atoms: C5_6  and  O2_7 
REMARK    3  A    between atoms: C7_9  and  C8_10 
REMARK    4  A    between atoms: C8_10  and  C9_11 
REMARK    5  A    between atoms: C9_11  and  C10_12 
REMARK    6  A    between atoms: C12_15  and  N2_16 
REMARK    7  A    between atoms: C14_19  and  N4_20 
REMARK    8  A    between atoms: N4_20  and  C15_21 
ROOT
HETATM    1  C10 UNL     1       0.085  -0.987   0.083  1.00  0.00     0.265 C 
HETATM    2  C11 UNL     1       0.700  -1.263   1.411  1.00  0.00     0.121 C 
HETATM    3  N1  UNL     1       1.577  -1.992   2.032  1.00  0.00    -0.264 NA
HETATM    4  C12 UNL     1       2.451  -3.023   1.484  1.00  0.00     0.379 C 
HETATM    5  C13 UNL     1       2.910  -2.603   0.108  1.00  0.00     0.145 C 
HETATM    6  N3  UNL     1       2.825  -1.464  -0.519  1.00  0.00    -0.248 NA
HETATM    7  C14 UNL     1       2.286  -0.176  -0.195  1.00  0.00     0.447 C 
HETATM    8  N5  UNL     1       0.905  -0.021  -0.600  1.00  0.00     0.137 N 
HETATM    9  H25 UNL     1       0.613   0.930  -0.298  1.00  0.00     0.322 HD
ENDROOT
BRANCH   1  10
HETATM   10  C9  UNL     1      -1.308  -0.462   0.363  1.00  0.00     0.046 C 
BRANCH  10  11
HETATM   11  C8  UNL     1      -2.081  -0.127  -0.873  1.00  0.00     0.044 C 
BRANCH  11  12
HETATM   12  C7  UNL     1      -3.442   0.390  -0.546  1.00  0.00    -0.022 A 
HETATM   13  C5  UNL     1      -3.467   1.709  -0.087  1.00  0.00     0.074 A 
HETATM   14  C4  UNL     1      -4.728   2.224   0.228  1.00  0.00     0.040 A 
HETATM   15  C3  UNL     1      -5.905   1.519   0.112  1.00  0.00     0.039 A 
HETATM   16  C2  UNL     1      -5.828   0.206  -0.351  1.00  0.00     0.068 A 
HETATM   17  C21 UNL     1      -4.604  -0.341  -0.673  1.00  0.00     0.046 A 
BRANCH  13  18
HETATM   18  O2  UNL     1      -2.306   2.458   0.047  1.00  0.00    -0.355 OA
HETATM   19  C6  UNL     1      -2.445   3.785   0.520  1.00  0.00     0.210 C 
ENDBRANCH  13  18
BRANCH  16  20
HETATM   20  O1  UNL     1      -7.007  -0.476  -0.459  1.00  0.00    -0.356 OA
HETATM   21  C1  UNL     1      -7.101  -1.820  -0.914  1.00  0.00     0.210 C 
ENDBRANCH  16  20
ENDBRANCH  11  12
ENDBRANCH  10  11
ENDBRANCH   1  10
BRANCH   7  22
HETATM   22  N4  UNL     1       3.130   0.827  -0.819  1.00  0.00    -0.343 N 
HETATM   23  H20 UNL     1       2.676   1.470  -1.532  1.00  0.00     0.163 HD
BRANCH  22  24
HETATM   24  C15 UNL     1       4.493   1.020  -0.563  1.00  0.00     0.032 A 
HETATM   25  C16 UNL     1       5.243   2.005  -1.216  1.00  0.00     0.029 A 
HETATM   26  C17 UNL     1       6.572   2.195  -0.967  1.00  0.00     0.004 A 
HETATM   27  C18 UNL     1       7.251   1.420  -0.050  1.00  0.00     0.019 A 
HETATM   28  C19 UNL     1       6.559   0.432   0.624  1.00  0.00     0.013 A 
HETATM   29 BR1  UNL     1       7.485  -0.640   1.887  1.00  0.00    -0.051 Br
HETATM   30  C20 UNL     1       5.206   0.267   0.344  1.00  0.00     0.048 A 
ENDBRANCH  22  24
ENDBRANCH   7  22
BRANCH   4  31
HETATM   31  N2  UNL     1       1.734  -4.262   1.459  1.00  0.00     0.108 N 
HETATM   32  H16 UNL     1       2.383  -5.054   1.245  1.00  0.00     0.316 HD
HETATM   33  H17 UNL     1       0.966  -4.213   0.769  1.00  0.00     0.316 HD
ENDBRANCH   4  31
TORSDOF 8
