REMARK  6 active torsions:
REMARK  status: ('A' for Active; 'I' for Inactive)
REMARK    1  A    between atoms: N1_1  and  C1_2 
REMARK    2  A    between atoms: C2_4  and  N3_5 
REMARK    3  A    between atoms: N3_5  and  C3_6 
REMARK    4  A    between atoms: N5_17  and  C11_18 
REMARK    5  A    between atoms: C11_18  and  C12_19 
REMARK    6  A    between atoms: C12_19  and  C13_20 
ROOT
HETATM    1  C1  UNL     1       1.071  -2.227  -1.416  1.00  0.00     0.724 A 
HETATM    2  N2  UNL     1       2.028  -1.375  -1.036  1.00  0.00    -0.043 NA
HETATM    3  C2  UNL     1       1.820  -0.113  -0.696  1.00  0.00     0.178 A 
HETATM    4  C9  UNL     1       0.498   0.313  -0.752  1.00  0.00     0.130 A 
HETATM    5  C10 UNL     1      -0.496  -0.530  -1.134  1.00  0.00     0.180 A 
HETATM    6  N4  UNL     1      -0.226  -1.803  -1.470  1.00  0.00    -0.043 NA
HETATM    7  N5  UNL     1      -0.883   0.805  -0.797  1.00  0.00    -0.323 N 
ENDROOT
BRANCH   3   8
HETATM    8  N3  UNL     1       2.824   0.791  -0.294  1.00  0.00    -0.336 N 
HETATM    9  H3  UNL     1       2.505   1.778  -0.049  1.00  0.00     0.168 HD
BRANCH   8  10
HETATM   10  C3  UNL     1       4.211   0.583  -0.165  1.00  0.00     0.072 A 
HETATM   11  C4  UNL     1       4.874  -0.596  -0.419  1.00  0.00     0.034 A 
HETATM   12  C5  UNL     1       6.228  -0.816  -0.298  1.00  0.00     0.026 A 
HETATM   13  C6  UNL     1       7.005   0.239   0.117  1.00  0.00     0.037 A 
HETATM   14 CL1  UNL     1       8.734   0.042   0.295  1.00  0.00    -0.084 Cl
HETATM   15  C7  UNL     1       6.412   1.453   0.390  1.00  0.00     0.068 A 
HETATM   16  C8  UNL     1       5.053   1.593   0.245  1.00  0.00     0.144 A 
HETATM   17  F1  UNL     1       4.538   2.831   0.537  1.00  0.00    -0.204 F 
ENDBRANCH   8  10
ENDBRANCH   3   8
BRANCH   1  18
HETATM   18  N1  UNL     1       1.428  -3.577  -1.762  1.00  0.00    -0.231 N 
HETATM   19  H1  UNL     1       1.958  -4.024  -2.560  1.00  0.00     0.174 HD
HETATM   20  H2  UNL     1       1.113  -4.325  -1.103  1.00  0.00     0.174 HD
ENDBRANCH   1  18
BRANCH   7  21
HETATM   21  C11 UNL     1      -1.702   1.968  -0.569  1.00  0.00     0.135 C 
BRANCH  21  22
HETATM   22  C12 UNL     1      -2.704   1.766   0.500  1.00  0.00     0.054 C 
BRANCH  22  23
HETATM   23  C13 UNL     1      -3.682   0.703   0.248  1.00  0.00    -0.078 C 
HETATM   24  C14 UNL     1      -4.950   1.187   0.191  1.00  0.00    -0.020 C 
HETATM   25  C15 UNL     1      -6.108   0.263  -0.059  1.00  0.00     0.054 C 
HETATM   26  C16 UNL     1      -6.028  -0.760   1.031  1.00  0.00    -0.027 C 
HETATM   27  C17 UNL     1      -4.802  -1.265   1.051  1.00  0.00    -0.026 C 
HETATM   28  C18 UNL     1      -3.776  -0.764   0.051  1.00  0.00     0.060 C 
ENDBRANCH  22  23
ENDBRANCH  21  22
ENDBRANCH   7  21
TORSDOF 6
