REMARK  6 active torsions:
REMARK  status: ('A' for Active; 'I' for Inactive)
REMARK    1  A    between atoms: C7_7  and  C8_8 
REMARK    2  A    between atoms: C8_8  and  N1_9 
REMARK    3  A    between atoms: N1_9  and  C10_11 
REMARK    4  A    between atoms: C12_13  and  N2_14 
REMARK    5  A    between atoms: N2_14  and  C13_15 
REMARK    6  A    between atoms: C19_24  and  N4_25 
ROOT
HETATM    1  C10 UNL     1      -0.340   0.072   0.734  1.00  0.00     0.148 A 
HETATM    2  C11 UNL     1       0.779   0.855   0.553  1.00  0.00     0.102 A 
HETATM    3  C12 UNL     1       2.028   0.314   0.351  1.00  0.00     0.151 A 
HETATM    4  N3  UNL     1       2.144  -1.027   0.332  1.00  0.00    -0.045 NA
HETATM    5  C19 UNL     1       1.084  -1.828   0.503  1.00  0.00     0.724 A 
HETATM    6  N5  UNL     1      -0.087  -1.247   0.693  1.00  0.00    -0.045 NA
ENDROOT
BRANCH   1   7
HETATM    7  N1  UNL     1      -1.638   0.622   0.946  1.00  0.00    -0.365 N 
HETATM    8  C9  UNL     1      -1.730   2.067   0.968  1.00  0.00     0.151 C 
BRANCH   7   9
HETATM    9  C8  UNL     1      -2.864  -0.140   1.145  1.00  0.00     0.163 C 
BRANCH   9  10
HETATM   10  C7  UNL     1      -3.897   0.145   0.129  1.00  0.00    -0.034 A 
HETATM   11  C2  UNL     1      -3.869  -0.372  -1.155  1.00  0.00    -0.054 A 
HETATM   12  C1  UNL     1      -2.768  -1.290  -1.547  1.00  0.00     0.049 C 
HETATM   13  C3  UNL     1      -4.831  -0.095  -2.131  1.00  0.00     0.007 A 
HETATM   14  C4  UNL     1      -5.833   0.755  -1.693  1.00  0.00     0.001 A 
HETATM   15  C5  UNL     1      -5.938   1.311  -0.440  1.00  0.00     0.001 A 
HETATM   16  C6  UNL     1      -4.958   0.999   0.472  1.00  0.00     0.009 A 
ENDBRANCH   9  10
ENDBRANCH   7   9
ENDBRANCH   1   7
BRANCH   3  17
HETATM   17  N2  UNL     1       3.146   1.162   0.172  1.00  0.00    -0.338 N 
HETATM   18  H14 UNL     1       3.030   2.197   0.195  1.00  0.00     0.167 HD
BRANCH  17  19
HETATM   19  C13 UNL     1       4.428   0.565  -0.040  1.00  0.00     0.072 A 
HETATM   20  C14 UNL     1       5.479   0.812   0.853  1.00  0.00     0.034 A 
HETATM   21  C15 UNL     1       6.649   0.169   0.515  1.00  0.00     0.026 A 
HETATM   22  C16 UNL     1       6.838  -0.650  -0.576  1.00  0.00     0.037 A 
HETATM   23 CL1  UNL     1       8.384  -1.421  -0.907  1.00  0.00    -0.084 Cl
HETATM   24  C17 UNL     1       5.778  -0.869  -1.430  1.00  0.00     0.068 A 
HETATM   25  C18 UNL     1       4.583  -0.248  -1.139  1.00  0.00     0.144 A 
HETATM   26  F1  UNL     1       3.559  -0.477  -1.992  1.00  0.00    -0.204 F 
ENDBRANCH  17  19
ENDBRANCH   3  17
BRANCH   5  27
HETATM   27  N4  UNL     1       1.159  -3.253   0.489  1.00  0.00    -0.231 N 
HETATM   28  H18 UNL     1       1.277  -3.478   1.488  1.00  0.00     0.174 HD
HETATM   29  H19 UNL     1       1.051  -3.334  -0.566  1.00  0.00     0.174 HD
ENDBRANCH   5  27
TORSDOF 6
