REMARK  6 active torsions:
REMARK  status: ('A' for Active; 'I' for Inactive)
REMARK    1  A    between atoms: O1_1  and  C1_2 
REMARK    2  A    between atoms: C1_2  and  C7_9 
REMARK    3  A    between atoms: C2_3  and  C3_4 
REMARK    4  A    between atoms: C7_9  and  C8_10 
REMARK    5  A    between atoms: C8_10  and  N1_11 
REMARK    6  A    between atoms: C12_15  and  N2_16 
ROOT
HETATM    1  N1  UNL     1      -0.993   0.009  -0.844  1.00  0.00    -0.351 N 
HETATM    2  C9  UNL     1      -0.988   1.021   0.150  1.00  0.00     0.092 C 
HETATM    3  C10 UNL     1      -0.465   1.370   1.310  1.00  0.00     0.021 C 
HETATM    4  C11 UNL     1       0.525   0.555   2.077  1.00  0.00     0.050 C 
HETATM    5  C12 UNL     1       1.295  -0.545   2.208  1.00  0.00     0.104 C 
HETATM    6  N3  UNL     1       1.469  -1.687   1.375  1.00  0.00    -0.358 N 
HETATM    7  C18 UNL     1       1.648  -1.462  -0.069  1.00  0.00     0.273 C 
HETATM    8  N4  UNL     1       0.549  -0.811  -0.613  1.00  0.00    -0.265 NA
HETATM    9  C19 UNL     1       0.126  -0.409  -1.704  1.00  0.00     0.205 C 
HETATM   10  H18 UNL     1       1.483  -2.660   1.719  1.00  0.00     0.162 HD
ENDROOT
BRANCH   1  11
HETATM   11  C8  UNL     1      -2.244  -0.665  -0.906  1.00  0.00     0.135 C 
BRANCH  11  12
HETATM   12  C7  UNL     1      -2.488  -1.612  -2.015  1.00  0.00     0.084 C 
BRANCH  12  13
HETATM   13  C1  UNL     1      -2.523  -0.956  -3.347  1.00  0.00     0.044 C 
HETATM   14  C2  UNL     1      -2.514   0.178  -4.121  1.00  0.00     0.035 C 
BRANCH  13  15
HETATM   15  O1  UNL     1      -2.609  -2.077  -4.243  1.00  0.00    -0.365 OA
HETATM   16  H1  UNL     1      -1.752  -2.245  -4.785  1.00  0.00     0.217 HD
ENDBRANCH  13  15
BRANCH  14  17
HETATM   17  C3  UNL     1      -2.432   1.407  -3.412  1.00  0.00     0.039 C 
HETATM   18  C4  UNL     1      -2.389   2.587  -4.064  1.00  0.00     0.068 A 
HETATM   19  C5  UNL     1      -2.432   2.628  -5.496  1.00  0.00     0.045 A 
HETATM   20  O2  UNL     1      -2.317   3.961  -4.192  1.00  0.00    -0.339 OA
HETATM   21  C6  UNL     1      -2.363   3.952  -5.587  1.00  0.00     0.187 A 
ENDBRANCH  14  17
ENDBRANCH  12  13
ENDBRANCH  11  12
ENDBRANCH   1  11
BRANCH   5  22
HETATM   22  N2  UNL     1       2.155  -0.754   3.352  1.00  0.00    -0.339 N 
HETATM   23  C13 UNL     1       1.929  -1.429   4.597  1.00  0.00     0.112 C 
HETATM   24  C14 UNL     1       2.829  -1.267   5.567  1.00  0.00     0.026 C 
HETATM   25 BR1  UNL     1       2.338  -2.223   7.112  1.00  0.00    -0.050 Br
HETATM   26  C15 UNL     1       4.053  -0.494   5.359  1.00  0.00     0.018 C 
HETATM   27  C16 UNL     1       4.284   0.053   4.176  1.00  0.00    -0.005 C 
HETATM   28  C17 UNL     1       3.375  -0.074   3.017  1.00  0.00     0.157 C 
ENDBRANCH   5  22
TORSDOF 6
