REMARK  4 active torsions:
REMARK  status: ('A' for Active; 'I' for Inactive)
REMARK    1  A    between atoms: C3_5  and  N3_6 
REMARK    2  A    between atoms: C4_8  and  N5_9 
REMARK    3  A    between atoms: N5_9  and  C5_10 
REMARK    4  A    between atoms: C13_20  and  C14_21 
ROOT
HETATM    1  C1  UNL     1       2.657   2.869   0.647  1.00  0.00     0.152 C 
HETATM    2  N1  UNL     1       1.825   1.886  -0.040  1.00  0.00    -0.357 N 
HETATM    3  C2  UNL     1       0.406   2.103   0.131  1.00  0.00     0.155 A 
HETATM    4  N2  UNL     1      -0.416   2.904   0.724  1.00  0.00    -0.045 NA
HETATM    5  C3  UNL     1      -1.803   2.700   0.587  1.00  0.00     0.719 A 
HETATM    6  N4  UNL     1      -2.420   1.782  -0.079  1.00  0.00    -0.075 NA
HETATM    7  C4  UNL     1      -1.672   0.762  -0.830  1.00  0.00     0.263 A 
HETATM    8  C11 UNL     1      -0.243   1.027  -0.648  1.00  0.00     0.031 A 
HETATM    9  C12 UNL     1       0.693   0.278  -1.200  1.00  0.00     0.018 A 
HETATM   10  C13 UNL     1       2.061   0.735  -0.874  1.00  0.00     0.139 A 
ENDROOT
BRANCH   7  11
HETATM   11  N5  UNL     1      -2.090  -0.517  -0.318  1.00  0.00    -0.360 N 
HETATM   12  H7  UNL     1      -1.422  -1.167   0.112  1.00  0.00     0.162 HD
BRANCH  11  13
HETATM   13  C5  UNL     1      -3.456  -0.902  -0.404  1.00  0.00     0.069 A 
HETATM   14  C6  UNL     1      -4.435  -0.108  -0.963  1.00  0.00     0.034 A 
HETATM   15  C7  UNL     1      -5.748  -0.562  -1.007  1.00  0.00     0.026 A 
HETATM   16  C8  UNL     1      -6.142  -1.785  -0.516  1.00  0.00     0.037 A 
HETATM   17 CL1  UNL     1      -7.817  -2.282  -0.611  1.00  0.00    -0.084 Cl
HETATM   18  C9  UNL     1      -5.185  -2.600   0.048  1.00  0.00     0.068 A 
HETATM   19  C10 UNL     1      -3.889  -2.126   0.080  1.00  0.00     0.144 A 
HETATM   20  F1  UNL     1      -2.984  -2.984   0.654  1.00  0.00    -0.204 F 
ENDBRANCH  11  13
ENDBRANCH   7  11
BRANCH   5  21
HETATM   21  N3  UNL     1      -2.610   3.660   1.295  1.00  0.00    -0.231 N 
HETATM   22  H4  UNL     1      -2.838   3.485   2.319  1.00  0.00     0.174 HD
HETATM   23  H5  UNL     1      -3.150   4.559   1.297  1.00  0.00     0.174 HD
ENDBRANCH   5  21
BRANCH  10  24
HETATM   24  C14 UNL     1       2.901  -0.313  -0.293  1.00  0.00    -0.050 C 
HETATM   25  C15 UNL     1       3.420  -0.275   0.923  1.00  0.00     0.005 C 
HETATM   26  C16 UNL     1       4.265  -1.162   1.713  1.00  0.00     0.000 C 
HETATM   27  C17 UNL     1       5.025  -2.130   1.202  1.00  0.00    -0.000 C 
HETATM   28  C18 UNL     1       5.190  -2.520  -0.216  1.00  0.00    -0.004 C 
HETATM   29  C19 UNL     1       4.319  -2.169  -1.144  1.00  0.00    -0.022 C 
HETATM   30  C20 UNL     1       3.051  -1.412  -1.281  1.00  0.00     0.063 C 
ENDBRANCH  10  24
TORSDOF 4
