REMARK  6 active torsions:
REMARK  status: ('A' for Active; 'I' for Inactive)
REMARK    1  A    between atoms: C7_7  and  C8_8 
REMARK    2  A    between atoms: C8_8  and  C9_9 
REMARK    3  A    between atoms: C9_9  and  N1_10 
REMARK    4  A    between atoms: N1_10  and  C10_11 
REMARK    5  A    between atoms: C12_15  and  N4_16 
REMARK    6  A    between atoms: N4_16  and  C13_17 
ROOT
HETATM    1  C10 UNL     1       0.774  -1.593   1.078  1.00  0.00     0.118 C 
HETATM    2  N2  UNL     1       0.762  -2.214   2.340  1.00  0.00    -0.240 NA
HETATM    3  C11 UNL     1       2.257  -1.911   2.713  1.00  0.00     0.173 A 
HETATM    4  N3  UNL     1       3.638  -2.005   2.421  1.00  0.00    -0.239 NA
HETATM    5  C12 UNL     1       3.574  -1.710   0.883  1.00  0.00     0.123 A 
HETATM    6  C18 UNL     1       2.293  -1.625   0.953  1.00  0.00     0.131 A 
HETATM    7  C19 UNL     1       2.362  -3.008   1.737  1.00  0.00     0.089 A 
ENDROOT
BRANCH   1   8
HETATM    8  N1  UNL     1       0.216  -0.938  -0.119  1.00  0.00    -0.377 N 
HETATM    9  H12 UNL     1       0.741  -0.729  -0.991  1.00  0.00     0.160 HD
BRANCH   8  10
HETATM   10  C9  UNL     1      -1.173  -0.710   0.323  1.00  0.00     0.125 C 
BRANCH  10  11
HETATM   11  C8  UNL     1      -1.850  -0.049  -0.846  1.00  0.00     0.058 C 
BRANCH  11  12
HETATM   12  C7  UNL     1      -3.261   0.241  -0.547  1.00  0.00    -0.051 A 
HETATM   13  C2  UNL     1      -3.589   1.295   0.256  1.00  0.00    -0.056 A 
HETATM   14  C1  UNL     1      -2.619   2.203   0.877  1.00  0.00     0.049 C 
HETATM   15  C3  UNL     1      -4.935   1.546   0.520  1.00  0.00     0.007 A 
HETATM   16  C4  UNL     1      -5.876   0.716  -0.044  1.00  0.00     0.001 A 
HETATM   17  C5  UNL     1      -5.581  -0.360  -0.861  1.00  0.00     0.001 A 
HETATM   18  C6  UNL     1      -4.219  -0.574  -1.099  1.00  0.00     0.007 A 
ENDBRANCH  11  12
ENDBRANCH  10  11
ENDBRANCH   8  10
ENDBRANCH   1   8
BRANCH   5  19
HETATM   19  N4  UNL     1       3.920  -1.422  -0.541  1.00  0.00    -0.341 N 
HETATM   20  H13 UNL     1       4.270  -2.012  -1.309  1.00  0.00     0.167 HD
BRANCH  19  21
HETATM   21  C13 UNL     1       3.771  -0.048  -0.955  1.00  0.00     0.070 A 
HETATM   22  C14 UNL     1       3.101   0.717  -1.826  1.00  0.00     0.011 A 
HETATM   23  C15 UNL     1       3.473   2.166  -1.685  1.00  0.00     0.084 A 
HETATM   24  C16 UNL     1       4.462   2.106  -0.600  1.00  0.00     0.056 A 
HETATM   25 CL1  UNL     1       5.100   3.680  -0.197  1.00  0.00    -0.085 Cl
HETATM   26  C17 UNL     1       4.627   0.856  -0.191  1.00  0.00     0.160 A 
HETATM   27  F1  UNL     1       5.533   0.755   0.814  1.00  0.00    -0.202 F 
ENDBRANCH  19  21
ENDBRANCH   5  19
TORSDOF 6
