REMARK  5 active torsions:
REMARK  status: ('A' for Active; 'I' for Inactive)
REMARK    1  A    between atoms: C7_7  and  C8_8 
REMARK    2  A    between atoms: C8_8  and  C9_9 
REMARK    3  A    between atoms: C12_12  and  N1_13 
REMARK    4  A    between atoms: N1_13  and  C13_14 
REMARK    5  A    between atoms: C19_22  and  N3_23 
ROOT
HETATM    1  C9  UNL     1      -1.159  -0.402  -0.327  1.00  0.00    -0.022 A 
HETATM    2  C10 UNL     1      -0.184   0.397  -0.689  1.00  0.00     0.027 A 
HETATM    3  C11 UNL     1       0.718  -0.711  -0.638  1.00  0.00     0.041 A 
HETATM    4  C12 UNL     1       2.014  -1.150  -0.807  1.00  0.00     0.160 A 
HETATM    5  N2  UNL     1       2.305  -2.462  -0.594  1.00  0.00    -0.044 NA
HETATM    6  C19 UNL     1       1.360  -3.339  -0.223  1.00  0.00     0.722 A 
HETATM    7  N4  UNL     1       0.107  -2.888  -0.065  1.00  0.00    -0.062 NA
HETATM    8  C20 UNL     1      -0.257  -1.585  -0.261  1.00  0.00     0.096 A 
ENDROOT
BRANCH   4   9
HETATM    9  N1  UNL     1       3.160  -0.410  -1.197  1.00  0.00    -0.340 N 
HETATM   10  H11 UNL     1       3.132  -0.529  -2.229  1.00  0.00     0.167 HD
BRANCH   9  11
HETATM   11  C13 UNL     1       4.166   0.336  -0.563  1.00  0.00     0.033 A 
HETATM   12  C14 UNL     1       5.186   0.861  -1.350  1.00  0.00     0.031 A 
HETATM   13  C15 UNL     1       6.169   1.588  -0.749  1.00  0.00     0.026 A 
HETATM   14  C16 UNL     1       6.156   1.800   0.597  1.00  0.00     0.034 A 
HETATM   15 CL1  UNL     1       7.468   2.750   1.265  1.00  0.00    -0.084 Cl
HETATM   16  C17 UNL     1       5.190   1.320   1.446  1.00  0.00     0.026 A 
HETATM   17  C18 UNL     1       4.202   0.580   0.792  1.00  0.00     0.031 A 
ENDBRANCH   9  11
ENDBRANCH   4   9
BRANCH   6  18
HETATM   18  N3  UNL     1       1.552  -4.724   0.026  1.00  0.00    -0.231 N 
HETATM   19  H16 UNL     1       1.897  -4.809   1.022  1.00  0.00     0.174 HD
HETATM   20  H17 UNL     1       1.303  -5.284  -0.835  1.00  0.00     0.174 HD
ENDBRANCH   6  18
BRANCH   1  21
HETATM   21  C8  UNL     1      -2.581  -0.539  -0.016  1.00  0.00     0.080 C 
BRANCH  21  22
HETATM   22  C7  UNL     1      -3.402   0.676  -0.108  1.00  0.00    -0.048 A 
HETATM   23  C2  UNL     1      -4.763   0.355   0.089  1.00  0.00    -0.055 A 
HETATM   24  C1  UNL     1      -5.239  -1.031   0.345  1.00  0.00     0.049 C 
HETATM   25  C3  UNL     1      -5.715   1.369   0.042  1.00  0.00     0.007 A 
HETATM   26  C4  UNL     1      -5.416   2.691  -0.187  1.00  0.00     0.001 A 
HETATM   27  C5  UNL     1      -4.090   3.001  -0.378  1.00  0.00     0.001 A 
HETATM   28  C6  UNL     1      -3.150   2.004  -0.333  1.00  0.00     0.008 A 
ENDBRANCH  21  22
ENDBRANCH   1  21
TORSDOF 5
