REMARK  6 active torsions:
REMARK  status: ('A' for Active; 'I' for Inactive)
REMARK    1  A    between atoms: C2_2  and  C3_3 
REMARK    2  A    between atoms: C2_2  and  N1_11 
REMARK    3  A    between atoms: C3_3  and  C4_4 
REMARK    4  A    between atoms: N1_11  and  C11_12 
REMARK    5  A    between atoms: C12_14  and  N3_15 
REMARK    6  A    between atoms: C13_17  and  N5_18 
ROOT
HETATM    1  C11 UNL     1      -0.695   0.233  -0.647  1.00  0.00     0.169 A 
HETATM    2  N2  UNL     1      -0.319   1.444  -0.315  1.00  0.00    -0.046 NA
HETATM    3  C12 UNL     1      -1.280   2.393  -0.741  1.00  0.00     0.719 A 
HETATM    4  N4  UNL     1      -2.225   1.767  -1.324  1.00  0.00    -0.071 NA
HETATM    5  C13 UNL     1      -1.989   0.327  -1.346  1.00  0.00     0.300 A 
ENDROOT
BRANCH   1   6
HETATM    6  N1  UNL     1       0.199  -0.802  -0.268  1.00  0.00    -0.345 N 
HETATM    7  H12 UNL     1      -0.124  -1.777  -0.410  1.00  0.00     0.167 HD
BRANCH   6   8
HETATM    8  C2  UNL     1       1.497  -0.631   0.286  1.00  0.00     0.005 C 
HETATM    9  C1  UNL     1       1.607  -1.149   1.503  1.00  0.00     0.038 C 
BRANCH   8  10
HETATM   10  C3  UNL     1       2.375   0.079  -0.647  1.00  0.00     0.095 C 
BRANCH  10  11
HETATM   11  C4  UNL     1       3.759   0.292  -0.135  1.00  0.00    -0.047 A 
HETATM   12  C5  UNL     1       4.180   1.523   0.332  1.00  0.00     0.008 A 
HETATM   13  C6  UNL     1       5.462   1.744   0.814  1.00  0.00     0.001 A 
HETATM   14  C7  UNL     1       6.372   0.700   0.835  1.00  0.00     0.001 A 
HETATM   15  C8  UNL     1       5.962  -0.535   0.370  1.00  0.00     0.007 A 
HETATM   16  C9  UNL     1       4.666  -0.747  -0.114  1.00  0.00    -0.055 A 
HETATM   17  C10 UNL     1       4.292  -2.100  -0.600  1.00  0.00     0.049 C 
ENDBRANCH  10  11
ENDBRANCH   8  10
ENDBRANCH   6   8
ENDBRANCH   1   6
BRANCH   5  18
HETATM   18  N5  UNL     1      -3.064  -0.355  -0.685  1.00  0.00    -0.326 N 
HETATM   19  C14 UNL     1      -3.085  -1.765  -0.529  1.00  0.00     0.091 A 
HETATM   20  C15 UNL     1      -4.042  -2.428   0.083  1.00  0.00     0.017 A 
HETATM   21  C16 UNL     1      -5.178  -1.713   0.654  1.00  0.00     0.008 A 
HETATM   22  C17 UNL     1      -5.148  -0.391   0.499  1.00  0.00    -0.031 A 
HETATM   23  C18 UNL     1      -6.340   0.305   1.104  1.00  0.00     0.048 C 
HETATM   24  C19 UNL     1      -4.144   0.448  -0.167  1.00  0.00     0.303 A 
HETATM   25  F1  UNL     1      -4.724   1.057  -1.278  1.00  0.00    -0.222 F 
ENDBRANCH   5  18
BRANCH   3  26
HETATM   26  N3  UNL     1      -1.275   3.803  -0.591  1.00  0.00    -0.231 N 
HETATM   27  H13 UNL     1      -1.311   4.354   0.293  1.00  0.00     0.174 HD
HETATM   28  H14 UNL     1      -1.236   4.519  -1.347  1.00  0.00     0.174 HD
ENDBRANCH   3  26
TORSDOF 6
