REMARK  4 active torsions:
REMARK  status: ('A' for Active; 'I' for Inactive)
REMARK    1  A    between atoms: O1_2  and  C2_3 
REMARK    2  A    between atoms: C4_5  and  O2_6 
REMARK    3  A    between atoms: O2_6  and  C5_7 
REMARK    4  A    between atoms: C11_14  and  C12_15 
ROOT
HETATM    1  C2  UNL     1      -1.779   2.606  -0.630  1.00  0.00     0.073 A 
HETATM    2  C3  UNL     1      -0.729   1.793  -0.175  1.00  0.00     0.074 A 
HETATM    3  C4  UNL     1      -0.756   0.415  -0.189  1.00  0.00     0.086 A 
HETATM    4  C10 UNL     1      -1.879  -0.203  -0.677  1.00  0.00     0.056 A 
HETATM    5  C11 UNL     1      -1.999  -1.563  -0.743  1.00  0.00     0.080 A 
HETATM    6  N2  UNL     1      -3.166  -1.927  -1.261  1.00  0.00    -0.241 NA
HETATM    7  C17 UNL     1      -4.164  -1.249  -1.694  1.00  0.00     0.234 A 
HETATM    8  N3  UNL     1      -4.010   0.062  -1.613  1.00  0.00    -0.241 NA
HETATM    9  C18 UNL     1      -2.897   0.617  -1.117  1.00  0.00     0.076 A 
HETATM   10  C19 UNL     1      -2.923   1.982  -1.128  1.00  0.00     0.069 A 
ENDROOT
BRANCH   3  11
HETATM   11  O2  UNL     1       0.327  -0.165   0.275  1.00  0.00    -0.345 OA
BRANCH  11  12
HETATM   12  C5  UNL     1       1.610   0.120   0.636  1.00  0.00     0.132 C 
HETATM   13  C6  UNL     1       2.089  -0.108   2.006  1.00  0.00     0.051 C 
HETATM   14  C7  UNL     1       3.606  -0.378   1.897  1.00  0.00     0.116 C 
HETATM   15  N1  UNL     1       4.271   0.762   1.322  1.00  0.00    -0.421 N 
HETATM   16  C8  UNL     1       3.701   1.262   0.135  1.00  0.00     0.116 C 
HETATM   17  H10 UNL     1       4.640   1.427   2.003  1.00  0.00     0.153 HD
HETATM   18  C9  UNL     1       2.163   1.488   0.222  1.00  0.00     0.051 C 
ENDBRANCH  11  12
ENDBRANCH   3  11
BRANCH   1  19
HETATM   19  O1  UNL     1      -1.785   3.990  -0.632  1.00  0.00    -0.356 OA
HETATM   20  C1  UNL     1      -2.880   4.721  -1.107  1.00  0.00     0.210 C 
ENDBRANCH   1  19
BRANCH   5  21
HETATM   21  C12 UNL     1      -0.900  -2.452  -0.247  1.00  0.00    -0.023 A 
HETATM   22  C13 UNL     1      -1.300  -3.672  -0.514  1.00  0.00     0.011 A 
HETATM   23  C14 UNL     1      -0.536  -4.821  -0.193  1.00  0.00     0.020 A 
HETATM   24  C15 UNL     1       0.503  -4.291   0.358  1.00  0.00     0.016 A 
HETATM   25 CL1  UNL     1       2.017  -4.890   1.087  1.00  0.00    -0.089 Cl
HETATM   26  C16 UNL     1       0.369  -2.815   0.359  1.00  0.00     0.092 A 
ENDBRANCH   5  21
TORSDOF 4
