REMARK  10 active torsions:
REMARK  status: ('A' for Active; 'I' for Inactive)
REMARK    1  A    between atoms: N1_2  and  N2_3 
REMARK    2  A    between atoms: C2_4  and  C3_5 
REMARK    3  A    between atoms: C3_5  and  C4_6 
REMARK    4  A    between atoms: C3_5  and  C13_16 
REMARK    5  A    between atoms: C5_7  and  N3_8 
REMARK    6  A    between atoms: C5_7  and  C6_9 
REMARK    7  A    between atoms: C6_9  and  C7_10 
REMARK    8  A    between atoms: C13_16  and  C14_17 
REMARK    9  A    between atoms: C14_17  and  N4_18 
REMARK   10  A    between atoms: C14_17  and  C15_19 
ROOT
HETATM    1  C3  UNL     1       0.456   1.555  -0.856  1.00  0.00     0.077 C 
ENDROOT
BRANCH   1   2
HETATM    2  C2  UNL     1       1.074   2.216   0.323  1.00  0.00     0.123 C 
HETATM    3  N2  UNL     1       1.129   3.491   0.470  1.00  0.00    -0.196 NA
BRANCH   3   4
HETATM    4  N1  UNL     1       0.594   4.340  -0.501  1.00  0.00    -0.319 N 
HETATM    5  C1  UNL     1       0.462   5.036  -1.772  1.00  0.00     0.169 C 
HETATM    6  H4  UNL     1      -0.123   4.531   0.205  1.00  0.00     0.181 HD
ENDBRANCH   3   4
ENDBRANCH   1   2
BRANCH   1   7
HETATM    7  C4  UNL     1      -1.012   1.323  -0.596  1.00  0.00     0.012 C 
HETATM    8  C5  UNL     1      -1.755   0.235  -0.684  1.00  0.00     0.004 C 
BRANCH   8   9
HETATM    9  N3  UNL     1      -1.284  -1.038  -1.072  1.00  0.00    -0.402 N 
HETATM   10  H8  UNL     1      -0.812  -1.900  -0.740  1.00  0.00     0.156 HD
HETATM   11  H9  UNL     1      -1.362  -1.424  -2.055  1.00  0.00     0.156 HD
ENDBRANCH   8   9
BRANCH   8  12
HETATM   12  C6  UNL     1      -3.186   0.371  -0.348  1.00  0.00     0.094 C 
BRANCH  12  13
HETATM   13  C7  UNL     1      -3.511  -0.535   0.797  1.00  0.00    -0.053 A 
HETATM   14  C8  UNL     1      -3.925  -1.830   0.586  1.00  0.00     0.007 A 
HETATM   15  C9  UNL     1      -4.207  -2.604   1.692  1.00  0.00     0.001 A 
HETATM   16  C10 UNL     1      -4.094  -2.145   2.992  1.00  0.00     0.000 A 
HETATM   17  C11 UNL     1      -3.679  -0.851   3.181  1.00  0.00     0.001 A 
HETATM   18  C12 UNL     1      -3.397  -0.072   2.084  1.00  0.00     0.007 A 
ENDBRANCH  12  13
ENDBRANCH   8  12
ENDBRANCH   1   7
BRANCH   1  19
HETATM   19  C13 UNL     1       1.056   0.298  -1.273  1.00  0.00     0.017 C 
BRANCH  19  20
HETATM   20  C14 UNL     1       1.805  -0.818  -1.376  1.00  0.00     0.033 C 
BRANCH  20  21
HETATM   21  N4  UNL     1       1.603  -1.749  -2.484  1.00  0.00    -0.399 N 
HETATM   22  H18 UNL     1       1.015  -2.607  -2.557  1.00  0.00     0.156 HD
HETATM   23  H19 UNL     1       2.186  -1.417  -3.290  1.00  0.00     0.156 HD
ENDBRANCH  20  21
BRANCH  20  24
HETATM   24  C15 UNL     1       2.860  -1.260  -0.456  1.00  0.00    -0.010 A 
HETATM   25  C16 UNL     1       3.580  -2.414  -0.684  1.00  0.00     0.015 A 
HETATM   26  C17 UNL     1       4.579  -2.918   0.113  1.00  0.00     0.024 A 
HETATM   27  C18 UNL     1       4.922  -2.247   1.244  1.00  0.00     0.034 A 
HETATM   28 CL1  UNL     1       6.196  -2.930   2.218  1.00  0.00    -0.084 Cl
HETATM   29  C19 UNL     1       4.248  -1.088   1.539  1.00  0.00     0.024 A 
HETATM   30  C20 UNL     1       3.271  -0.647   0.706  1.00  0.00     0.015 A 
ENDBRANCH  20  24
ENDBRANCH  19  20
ENDBRANCH   1  19
TORSDOF 10
