REMARK  2 active torsions:
REMARK  status: ('A' for Active; 'I' for Inactive)
REMARK    1  A    between atoms: O1_2  and  C2_3 
REMARK    2  A    between atoms: N1_6  and  C5_7 
ROOT
HETATM    1  C2  UNL     1       2.419   0.270   0.619  1.00  0.00     0.067 C 
HETATM    2  C3  UNL     1       1.314  -0.272   1.016  1.00  0.00     0.030 C 
HETATM    3  C4  UNL     1       0.376  -0.882   0.079  1.00  0.00     0.160 C 
HETATM    4  N1  UNL     1      -0.757  -0.090  -0.186  1.00  0.00    -0.338 N 
HETATM    5  C11 UNL     1      -0.218   0.984  -1.051  1.00  0.00     0.211 C 
HETATM    6  N2  UNL     1       0.034   0.115  -1.855  1.00  0.00    -0.237 NA
HETATM    7  C12 UNL     1       0.554  -0.129  -3.052  1.00  0.00     0.233 C 
HETATM    8  N3  UNL     1       1.878  -0.078  -3.137  1.00  0.00    -0.254 NA
HETATM    9  C13 UNL     1       2.514   0.247  -1.885  1.00  0.00     0.120 C 
HETATM   10  C14 UNL     1       2.992   0.498  -0.685  1.00  0.00     0.055 C 
ENDROOT
BRANCH   4  11
HETATM   11  C5  UNL     1      -2.129  -0.058   0.123  1.00  0.00     0.037 A 
HETATM   12  C6  UNL     1      -2.559  -1.008   0.986  1.00  0.00     0.033 A 
HETATM   13  C7  UNL     1      -3.893  -1.073   1.360  1.00  0.00     0.046 A 
HETATM   14  C8  UNL     1      -4.734  -0.128   0.808  1.00  0.00     0.138 A 
HETATM   15  F1  UNL     1      -6.047  -0.204   1.185  1.00  0.00    -0.204 F 
HETATM   16  C9  UNL     1      -4.269   0.837  -0.077  1.00  0.00     0.074 A 
HETATM   17 CL1  UNL     1      -5.404   1.993  -0.736  1.00  0.00    -0.081 Cl
HETATM   18  C10 UNL     1      -2.944   0.897  -0.445  1.00  0.00     0.056 A 
ENDBRANCH   4  11
BRANCH   1  19
HETATM   19  O1  UNL     1       3.182   0.757   1.635  1.00  0.00    -0.356 OA
HETATM   20  C1  UNL     1       4.268   0.065   2.227  1.00  0.00     0.210 C 
ENDBRANCH   1  19
TORSDOF 2
