REMARK  7 active torsions:
REMARK  status: ('A' for Active; 'I' for Inactive)
REMARK    1  A    between atoms: N1_1  and  C1_2 
REMARK    2  A    between atoms: C1_2  and  N2_3 
REMARK    3  A    between atoms: C3_6  and  N4_7 
REMARK    4  A    between atoms: N4_7  and  C4_8 
REMARK    5  A    between atoms: C10_15  and  C11_16 
REMARK    6  A    between atoms: C12_17  and  C13_18 
REMARK    7  A    between atoms: C13_18  and  C14_19 
ROOT
HETATM    1  N2  UNL     1      -0.236   3.298  -0.989  1.00  0.00    -0.242 NA
HETATM    2  C2  UNL     1      -0.990   2.224  -1.008  1.00  0.00     0.140 A 
HETATM    3  N3  UNL     1      -2.316   2.131  -1.502  1.00  0.00    -0.326 N 
HETATM    4  C3  UNL     1      -2.162   0.791  -1.091  1.00  0.00     0.121 A 
HETATM    5  C10 UNL     1      -0.956   0.790  -0.620  1.00  0.00     0.053 A 
HETATM    6  H5  UNL     1      -3.060   2.727  -1.948  1.00  0.00     0.169 HD
ENDROOT
BRANCH   5   7
HETATM    7  C11 UNL     1       0.214   0.196  -0.005  1.00  0.00     0.015 C 
HETATM    8  C12 UNL     1       0.151  -1.077   0.302  1.00  0.00    -0.021 C 
BRANCH   8   9
HETATM    9  C13 UNL     1       1.157  -1.942   0.924  1.00  0.00     0.066 C 
BRANCH   9  10
HETATM   10  C14 UNL     1       2.367  -1.125   1.215  1.00  0.00    -0.044 A 
HETATM   11  C15 UNL     1       2.645  -0.712   2.527  1.00  0.00     0.008 A 
HETATM   12  C16 UNL     1       3.780   0.045   2.744  1.00  0.00     0.001 A 
HETATM   13  C17 UNL     1       4.631   0.398   1.723  1.00  0.00     0.012 A 
HETATM   14  C18 UNL     1       4.362  -0.008   0.419  1.00  0.00    -0.025 A 
HETATM   15  C19 UNL     1       5.267   0.389  -0.542  1.00  0.00     0.012 A 
HETATM   16  C23 UNL     1       3.228  -0.763   0.206  1.00  0.00    -0.019 A 
HETATM   17  C20 UNL     1       4.994  -0.020  -1.854  1.00  0.00     0.001 A 
HETATM   18  C21 UNL     1       3.867  -0.778  -2.108  1.00  0.00     0.001 A 
HETATM   19  C22 UNL     1       2.986  -1.150  -1.089  1.00  0.00     0.013 A 
ENDBRANCH   9  10
ENDBRANCH   8   9
ENDBRANCH   5   7
BRANCH   4  20
HETATM   20  N4  UNL     1      -3.080  -0.277  -1.155  1.00  0.00    -0.342 N 
HETATM   21  H6  UNL     1      -3.731  -0.414  -1.978  1.00  0.00     0.167 HD
BRANCH  20  22
HETATM   22  C4  UNL     1      -3.518  -1.399  -0.420  1.00  0.00     0.033 A 
HETATM   23  C5  UNL     1      -3.261  -2.769  -0.495  1.00  0.00     0.031 A 
HETATM   24  C6  UNL     1      -3.854  -3.607   0.404  1.00  0.00     0.026 A 
HETATM   25  C7  UNL     1      -4.690  -3.164   1.374  1.00  0.00     0.034 A 
HETATM   26 CL1  UNL     1      -5.390  -4.352   2.475  1.00  0.00    -0.084 Cl
HETATM   27  C8  UNL     1      -4.980  -1.812   1.492  1.00  0.00     0.026 A 
HETATM   28  C9  UNL     1      -4.385  -0.942   0.585  1.00  0.00     0.031 A 
ENDBRANCH  20  22
ENDBRANCH   4  20
BRANCH   1  29
HETATM   29  C1  UNL     1      -0.681   4.556  -1.484  1.00  0.00     0.417 C 
BRANCH  29  30
HETATM   30  N1  UNL     1      -2.092   4.796  -1.247  1.00  0.00     0.097 N 
HETATM   31  H1  UNL     1      -2.458   5.589  -1.804  1.00  0.00     0.315 HD
HETATM   32  H2  UNL     1      -2.357   4.790  -0.245  1.00  0.00     0.315 HD
ENDBRANCH  29  30
ENDBRANCH   1  29
TORSDOF 7
