REMARK  4 active torsions:
REMARK  status: ('A' for Active; 'I' for Inactive)
REMARK    1  A    between atoms: C10_11  and  C11_12 
REMARK    2  A    between atoms: C11_12  and  C12_13 
REMARK    3  A    between atoms: C12_13  and  C13_14 
REMARK    4  A    between atoms: C24_26  and  N2_27 
ROOT
HETATM    1  C1  UNL     1      -3.985  -2.533  -2.888  1.00  0.00     0.038 C 
HETATM    2  C2  UNL     1      -3.881  -2.398  -1.434  1.00  0.00    -0.008 C 
HETATM    3  C3  UNL     1      -3.675  -1.094  -1.160  1.00  0.00     0.005 C 
HETATM    4  C4  UNL     1      -3.557   0.078  -2.066  1.00  0.00     0.021 C 
HETATM    5  C5  UNL     1      -3.386   1.394  -1.903  1.00  0.00    -0.004 C 
HETATM    6  C6  UNL     1      -3.248   2.268  -0.748  1.00  0.00     0.116 C 
HETATM    7 CL1  UNL     1      -3.582   3.983  -1.247  1.00  0.00    -0.120 Cl
HETATM    8  C7  UNL     1      -2.024   2.203   0.058  1.00  0.00     0.081 C 
HETATM    9  C8  UNL     1      -1.217   0.972  -0.060  1.00  0.00     0.051 C 
HETATM   10  C9  UNL     1      -1.273   0.140   1.206  1.00  0.00    -0.044 C 
HETATM   11  C10 UNL     1      -0.410  -0.365   2.073  1.00  0.00    -0.020 C 
HETATM   12  C23 UNL     1      -2.783  -0.043   1.321  1.00  0.00     0.215 C 
HETATM   13  N1  UNL     1      -3.311   1.305   1.679  1.00  0.00    -0.252 NA
HETATM   14  C24 UNL     1      -2.478   2.312   1.508  1.00  0.00     0.100 C 
HETATM   15  N3  UNL     1      -3.397  -0.450   0.101  1.00  0.00    -0.266 NA
HETATM   16  H26 UNL     1      -2.562  -1.111  -0.029  1.00  0.00     0.130 HD
ENDROOT
BRANCH  11  17
HETATM   17  C11 UNL     1       1.046  -0.144   1.892  1.00  0.00     0.032 C 
BRANCH  17  18
HETATM   18  C12 UNL     1       1.812  -1.438   1.738  1.00  0.00     0.043 C 
BRANCH  18  19
HETATM   19  C13 UNL     1       3.229  -1.112   1.559  1.00  0.00    -0.047 A 
HETATM   20  C14 UNL     1       4.171  -1.216   2.561  1.00  0.00     0.008 A 
HETATM   21  C15 UNL     1       5.491  -0.900   2.393  1.00  0.00     0.001 A 
HETATM   22  C16 UNL     1       5.951  -0.453   1.187  1.00  0.00     0.012 A 
HETATM   23  C17 UNL     1       5.048  -0.331   0.148  1.00  0.00    -0.025 A 
HETATM   24  C18 UNL     1       5.530   0.123  -1.083  1.00  0.00     0.012 A 
HETATM   25  C22 UNL     1       3.735  -0.654   0.344  1.00  0.00    -0.020 A 
HETATM   26  C19 UNL     1       4.620   0.244  -2.137  1.00  0.00     0.001 A 
HETATM   27  C20 UNL     1       3.297  -0.082  -1.939  1.00  0.00     0.001 A 
HETATM   28  C21 UNL     1       2.858  -0.526  -0.712  1.00  0.00     0.013 A 
ENDBRANCH  18  19
ENDBRANCH  17  18
ENDBRANCH  11  17
BRANCH  14  29
HETATM   29  N2  UNL     1      -2.336   3.072   2.698  1.00  0.00    -0.387 N 
HETATM   30  H24 UNL     1      -3.178   3.599   3.012  1.00  0.00     0.157 HD
HETATM   31  H25 UNL     1      -1.387   2.992   3.095  1.00  0.00     0.157 HD
ENDBRANCH  14  29
TORSDOF 4
