REMARK  6 active torsions:
REMARK  status: ('A' for Active; 'I' for Inactive)
REMARK    1  A    between atoms: N1_1  and  C1_2 
REMARK    2  A    between atoms: C1_2  and  C2_3 
REMARK    3  A    between atoms: C2_3  and  C3_4 
REMARK    4  A    between atoms: C3_4  and  C4_5 
REMARK    5  A    between atoms: C4_5  and  C5_6 
REMARK    6  A    between atoms: N2_13  and  C12_14 
ROOT
HETATM    1  C5  UNL     1       0.794  -0.529  -0.458  1.00  0.00    -0.025 C 
HETATM    2  C6  UNL     1       1.590  -1.453  -1.290  1.00  0.00     0.067 C 
HETATM    3  C7  UNL     1       1.426  -2.863  -0.841  1.00  0.00    -0.026 C 
HETATM    4  C8  UNL     1       0.232  -3.388  -0.524  1.00  0.00    -0.024 C 
HETATM    5  C9  UNL     1      -1.193  -3.044  -0.439  1.00  0.00     0.086 C 
HETATM    6  C10 UNL     1      -1.474  -1.598  -0.258  1.00  0.00     0.041 C 
HETATM    7  C11 UNL     1      -0.626  -0.572  -0.271  1.00  0.00     0.066 C 
HETATM    8  N2  UNL     1      -1.074   0.823  -0.054  1.00  0.00    -0.326 N 
HETATM    9  C18 UNL     1      -2.223   0.929   0.692  1.00  0.00     0.280 C 
HETATM   10  N3  UNL     1      -3.133   1.716   1.293  1.00  0.00    -0.263 NA
HETATM   11  C19 UNL     1      -4.167   0.988   1.764  1.00  0.00     0.229 C 
HETATM   12  N4  UNL     1      -4.335  -0.425   1.673  1.00  0.00    -0.237 NA
HETATM   13  C20 UNL     1      -3.794  -1.313   0.958  1.00  0.00     0.208 C 
HETATM   14  N5  UNL     1      -2.864  -1.710  -0.064  1.00  0.00    -0.352 N 
HETATM   15  H20 UNL     1      -3.485  -2.178  -0.768  1.00  0.00     0.166 HD
ENDROOT
BRANCH   1  16
HETATM   16  C4  UNL     1       1.288   0.494   0.264  1.00  0.00     0.018 C 
BRANCH  16  17
HETATM   17  C3  UNL     1       2.727   0.442   0.016  1.00  0.00     0.057 C 
BRANCH  17  18
HETATM   18  C2  UNL     1       3.524  -0.182   0.862  1.00  0.00    -0.112 C 
BRANCH  18  19
HETATM   19  C1  UNL     1       3.970  -0.856   1.909  1.00  0.00     0.137 C 
BRANCH  19  20
HETATM   20  N1  UNL     1       3.743  -2.249   1.787  1.00  0.00    -0.402 N 
HETATM   21  H1  UNL     1       2.867  -2.751   1.986  1.00  0.00     0.156 HD
HETATM   22  H2  UNL     1       4.514  -2.900   1.462  1.00  0.00     0.156 HD
ENDBRANCH  19  20
ENDBRANCH  18  19
ENDBRANCH  17  18
ENDBRANCH  16  17
ENDBRANCH   1  16
BRANCH   8  23
HETATM   23  C12 UNL     1      -0.383   1.933  -0.615  1.00  0.00     0.036 A 
HETATM   24  C13 UNL     1      -0.530   3.114   0.137  1.00  0.00     0.031 A 
HETATM   25  C14 UNL     1       0.003   4.330  -0.215  1.00  0.00     0.026 A 
HETATM   26  C15 UNL     1       0.733   4.415  -1.379  1.00  0.00     0.034 A 
HETATM   27 CL1  UNL     1       1.472   5.896  -1.956  1.00  0.00    -0.084 Cl
HETATM   28  C16 UNL     1       0.899   3.301  -2.135  1.00  0.00     0.026 A 
HETATM   29  C17 UNL     1       0.372   2.087  -1.792  1.00  0.00     0.031 A 
ENDBRANCH   8  23
TORSDOF 6
