REMARK  7 active torsions:
REMARK  status: ('A' for Active; 'I' for Inactive)
REMARK    1  A    between atoms: C2_2  and  C3_3 
REMARK    2  A    between atoms: C3_3  and  C4_4 
REMARK    3  A    between atoms: C4_4  and  C5_5 
REMARK    4  A    between atoms: C5_5  and  C6_6 
REMARK    5  A    between atoms: C6_6  and  O1_7 
REMARK    6  A    between atoms: O1_7  and  C7_8 
REMARK    7  A    between atoms: C19_25  and  O2_26 
ROOT
HETATM    1  C7  UNL     1       0.403  -0.566   1.136  1.00  0.00     0.077 C 
HETATM    2  C8  UNL     1      -0.606   0.014   0.489  1.00  0.00     0.039 C 
HETATM    3  C9  UNL     1      -1.623   0.803   1.277  1.00  0.00     0.159 C 
HETATM    4  N1  UNL     1      -2.581   1.327   0.360  1.00  0.00    -0.374 N 
HETATM    5  C10 UNL     1      -3.781   0.917  -0.335  1.00  0.00     0.057 A 
HETATM    6  C11 UNL     1      -3.872   1.601  -1.553  1.00  0.00     0.058 A 
HETATM    7  C12 UNL     1      -4.924   1.372  -2.387  1.00  0.00     0.074 A 
HETATM    8 CL1  UNL     1      -5.002   2.242  -3.897  1.00  0.00    -0.081 Cl
HETATM    9  C13 UNL     1      -5.907   0.459  -2.028  1.00  0.00     0.140 A 
HETATM   10  F1  UNL     1      -6.967   0.213  -2.847  1.00  0.00    -0.204 F 
HETATM   11  C14 UNL     1      -5.843  -0.223  -0.843  1.00  0.00     0.075 A 
HETATM   12  C15 UNL     1      -4.777   0.011   0.001  1.00  0.00     0.062 A 
HETATM   13  N2  UNL     1      -5.051  -0.853   1.097  1.00  0.00    -0.349 N 
HETATM   14  C16 UNL     1      -4.434  -0.926   2.368  1.00  0.00     0.208 C 
HETATM   15  N3  UNL     1      -3.279  -0.634   2.876  1.00  0.00    -0.246 NA
HETATM   16  C17 UNL     1      -2.113  -0.094   2.312  1.00  0.00     0.061 C 
HETATM   17  C18 UNL     1      -1.163  -0.654   3.033  1.00  0.00     0.041 C 
HETATM   18  C19 UNL     1       0.553  -0.421   2.857  1.00  0.00     0.202 C 
HETATM   19  H16 UNL     1      -2.405   2.334   0.053  1.00  0.00     0.160 HD
HETATM   20  H19 UNL     1      -5.818  -1.558   0.991  1.00  0.00     0.167 HD
ENDROOT
BRANCH   1  21
HETATM   21  O1  UNL     1       1.165  -1.212   0.140  1.00  0.00    -0.353 OA
BRANCH  21  22
HETATM   22  C6  UNL     1       2.312  -0.526  -0.408  1.00  0.00     0.175 C 
BRANCH  22  23
HETATM   23  C5  UNL     1       2.606  -1.205  -1.703  1.00  0.00     0.027 C 
BRANCH  23  24
HETATM   24  C4  UNL     1       3.733  -0.618  -2.435  1.00  0.00     0.002 C 
BRANCH  24  25
HETATM   25  C3  UNL     1       5.102  -0.613  -1.926  1.00  0.00    -0.000 C 
BRANCH  25  26
HETATM   26  C2  UNL     1       5.462   0.059  -0.664  1.00  0.00    -0.005 C 
HETATM   27  C1  UNL     1       5.123   1.533  -0.624  1.00  0.00     0.005 C 
ENDBRANCH  25  26
ENDBRANCH  24  25
ENDBRANCH  23  24
ENDBRANCH  22  23
ENDBRANCH  21  22
ENDBRANCH   1  21
BRANCH  18  28
HETATM   28  O2  UNL     1       0.808  -1.666   3.046  1.00  0.00    -0.380 OA
HETATM   29  C20 UNL     1       1.279  -2.583   2.205  1.00  0.00     0.202 C 
ENDBRANCH  18  28
TORSDOF 7
