REMARK  4 active torsions:
REMARK  status: ('A' for Active; 'I' for Inactive)
REMARK    1  A    between atoms: C7_8  and  N1_9 
REMARK    2  A    between atoms: N1_9  and  C8_10 
REMARK    3  A    between atoms: C9_12  and  N3_13 
REMARK    4  A    between atoms: C13_18  and  C14_19 
ROOT
HETATM    1  C8  UNL     1      -1.413   0.315   0.725  1.00  0.00     0.157 A 
HETATM    2  N2  UNL     1      -1.684   1.577   1.072  1.00  0.00    -0.045 NA
HETATM    3  C9  UNL     1      -0.808   2.494   1.498  1.00  0.00     0.724 A 
HETATM    4  N4  UNL     1       0.481   2.119   1.590  1.00  0.00    -0.045 NA
HETATM    5  C10 UNL     1       0.879   0.869   1.268  1.00  0.00     0.153 A 
HETATM    6  C11 UNL     1      -0.078  -0.024   0.837  1.00  0.00     0.037 A 
HETATM    7  C12 UNL     1       0.623  -1.314   0.552  1.00  0.00     0.072 C 
HETATM    8  C13 UNL     1       2.076  -0.989   0.611  1.00  0.00     0.099 C 
HETATM    9  N5  UNL     1       2.157   0.286   1.295  1.00  0.00    -0.368 N 
HETATM   10  H20 UNL     1       3.008   0.712   1.737  1.00  0.00     0.161 HD
ENDROOT
BRANCH   1  11
HETATM   11  N1  UNL     1      -2.338  -0.651   0.278  1.00  0.00    -0.339 N 
HETATM   12  H7  UNL     1      -1.963  -1.604   0.039  1.00  0.00     0.167 HD
BRANCH  11  13
HETATM   13  C7  UNL     1      -3.732  -0.502   0.104  1.00  0.00     0.039 A 
HETATM   14  C2  UNL     1      -4.517  -1.566  -0.352  1.00  0.00    -0.034 A 
HETATM   15  C1  UNL     1      -3.842  -2.858  -0.649  1.00  0.00     0.050 C 
HETATM   16  C3  UNL     1      -5.879  -1.441  -0.527  1.00  0.00     0.032 A 
HETATM   17  C4  UNL     1      -6.539  -0.261  -0.263  1.00  0.00     0.034 A 
HETATM   18 CL1  UNL     1      -8.266  -0.238  -0.528  1.00  0.00    -0.084 Cl
HETATM   19  C5  UNL     1      -5.806   0.815   0.188  1.00  0.00     0.026 A 
HETATM   20  C6  UNL     1      -4.448   0.648   0.349  1.00  0.00     0.032 A 
ENDBRANCH  11  13
ENDBRANCH   1  11
BRANCH   3  21
HETATM   21  N3  UNL     1      -1.315   3.789   1.817  1.00  0.00    -0.231 N 
HETATM   22  H8  UNL     1      -1.801   4.052   2.712  1.00  0.00     0.174 HD
HETATM   23  H9  UNL     1      -1.146   4.471   1.037  1.00  0.00     0.174 HD
ENDBRANCH   3  21
BRANCH   8  24
HETATM   24  C14 UNL     1       2.694  -0.887  -0.774  1.00  0.00     0.065 A 
HETATM   25  C15 UNL     1       1.991   0.190  -1.519  1.00  0.00    -0.014 A 
HETATM   26  C16 UNL     1       2.857   1.153  -1.798  1.00  0.00     0.009 A 
HETATM   27  C17 UNL     1       4.192   0.854  -1.296  1.00  0.00    -0.029 A 
HETATM   28  C18 UNL     1       5.408   1.507  -1.322  1.00  0.00     0.012 A 
HETATM   29  C22 UNL     1       4.090  -0.375  -0.680  1.00  0.00    -0.038 A 
HETATM   30  C19 UNL     1       6.498   0.878  -0.711  1.00  0.00     0.001 A 
HETATM   31  C20 UNL     1       6.363  -0.361  -0.099  1.00  0.00     0.001 A 
HETATM   32  C21 UNL     1       5.158  -1.017  -0.068  1.00  0.00     0.009 A 
ENDBRANCH   8  24
TORSDOF 4
