REMARK  1 active torsions:
REMARK  status: ('A' for Active; 'I' for Inactive)
REMARK    1  A    between atoms: C13_15  and  N3_16 
ROOT
HETATM    1  C1  UNL     1      -2.843  -1.185  -1.466  1.00  0.00     0.058 C 
HETATM    2  C2  UNL     1      -1.786  -1.716  -0.919  1.00  0.00    -0.009 C 
HETATM    3  C3  UNL     1      -0.893  -2.738  -1.531  1.00  0.00     0.053 C 
HETATM    4  C4  UNL     1       0.539  -2.686  -0.957  1.00  0.00     0.007 C 
HETATM    5  C5  UNL     1       0.999  -1.304  -0.756  1.00  0.00     0.014 C 
HETATM    6  C6  UNL     1       1.355  -0.807   0.620  1.00  0.00    -0.013 C 
HETATM    7  C7  UNL     1       2.664  -1.543   0.924  1.00  0.00     0.020 C 
HETATM    8  C8  UNL     1       0.512  -1.192   1.742  1.00  0.00     0.034 C 
HETATM    9  C9  UNL     1      -0.944  -1.411   1.642  1.00  0.00     0.131 C 
HETATM   10  N1  UNL     1      -1.559  -1.185   0.371  1.00  0.00    -0.338 N 
HETATM   11  C10 UNL     1      -2.206   0.060   0.124  1.00  0.00     0.152 A 
HETATM   12  C11 UNL     1      -1.469   1.144   0.543  1.00  0.00     0.102 A 
HETATM   13  C12 UNL     1      -1.358   2.519   0.610  1.00  0.00     0.150 A 
HETATM   14  N2  UNL     1      -2.500   2.779  -0.022  1.00  0.00    -0.045 NA
HETATM   15  C13 UNL     1      -3.359   1.809  -0.506  1.00  0.00     0.724 A 
HETATM   16  N4  UNL     1      -3.336   0.400  -0.502  1.00  0.00    -0.045 NA
HETATM   17  N5  UNL     1      -0.114   2.568   1.288  1.00  0.00    -0.340 N 
HETATM   18  C14 UNL     1       1.090   1.912   0.778  1.00  0.00     0.040 A 
HETATM   19  C15 UNL     1       1.773   3.076   0.498  1.00  0.00     0.032 A 
HETATM   20  C16 UNL     1       3.063   3.162  -0.067  1.00  0.00     0.026 A 
HETATM   21  C17 UNL     1       3.713   1.979  -0.374  1.00  0.00     0.034 A 
HETATM   22 CL1  UNL     1       5.303   1.926  -1.075  1.00  0.00    -0.084 Cl
HETATM   23  C18 UNL     1       2.942   0.846  -0.054  1.00  0.00     0.034 A 
HETATM   24  C19 UNL     1       1.665   0.671   0.505  1.00  0.00    -0.021 A 
HETATM   25  H19 UNL     1      -0.495   3.118   2.004  1.00  0.00     0.167 HD
ENDROOT
BRANCH  15  26
HETATM   26  N3  UNL     1      -4.497   2.474  -1.137  1.00  0.00    -0.231 N 
HETATM   27  H17 UNL     1      -4.294   2.457  -2.150  1.00  0.00     0.174 HD
HETATM   28  H18 UNL     1      -5.147   2.749  -0.359  1.00  0.00     0.174 HD
ENDBRANCH  15  26
TORSDOF 1
