REMARK  4 active torsions:
REMARK  status: ('A' for Active; 'I' for Inactive)
REMARK    1  A    between atoms: C7_8  and  N1_9 
REMARK    2  A    between atoms: N1_9  and  C8_10 
REMARK    3  A    between atoms: C9_12  and  N3_13 
REMARK    4  A    between atoms: C13_18  and  C14_19 
ROOT
HETATM    1  C8  UNL     1      -1.206  -0.693   0.366  1.00  0.00     0.157 A 
HETATM    2  N2  UNL     1      -1.679  -1.940   0.539  1.00  0.00    -0.045 NA
HETATM    3  C9  UNL     1      -1.031  -2.927   1.170  1.00  0.00     0.724 A 
HETATM    4  N4  UNL     1       0.194  -2.692   1.689  1.00  0.00    -0.045 NA
HETATM    5  C10 UNL     1       0.714  -1.439   1.537  1.00  0.00     0.153 A 
HETATM    6  C11 UNL     1       0.051  -0.421   0.886  1.00  0.00     0.037 A 
HETATM    7  C12 UNL     1       0.900   0.800   0.896  1.00  0.00     0.072 A 
HETATM    8  C13 UNL     1       2.144   0.392   1.606  1.00  0.00     0.099 A 
HETATM    9  N5  UNL     1       1.970  -1.003   2.026  1.00  0.00    -0.368 N 
HETATM   10  H20 UNL     1       2.709  -1.461   2.576  1.00  0.00     0.161 HD
ENDROOT
BRANCH   1  11
HETATM   11  N1  UNL     1      -1.928   0.352  -0.274  1.00  0.00    -0.339 N 
HETATM   12  H7  UNL     1      -1.357   0.962  -0.859  1.00  0.00     0.167 HD
BRANCH  11  13
HETATM   13  C7  UNL     1      -3.325   0.555  -0.133  1.00  0.00     0.039 A 
HETATM   14  C2  UNL     1      -4.004   1.549  -0.798  1.00  0.00    -0.034 A 
HETATM   15  C1  UNL     1      -3.291   2.473  -1.728  1.00  0.00     0.050 C 
HETATM   16  C3  UNL     1      -5.354   1.757  -0.661  1.00  0.00     0.032 A 
HETATM   17  C4  UNL     1      -6.128   0.952   0.182  1.00  0.00     0.034 A 
HETATM   18 CL1  UNL     1      -7.825   1.267   0.317  1.00  0.00    -0.084 Cl
HETATM   19  C5  UNL     1      -5.481  -0.072   0.878  1.00  0.00     0.026 A 
HETATM   20  C6  UNL     1      -4.123  -0.213   0.683  1.00  0.00     0.032 A 
ENDBRANCH  11  13
ENDBRANCH   1  11
BRANCH   3  21
HETATM   21  N3  UNL     1      -1.582  -4.237   1.325  1.00  0.00    -0.231 N 
HETATM   22  H8  UNL     1      -1.414  -4.937   0.586  1.00  0.00     0.174 HD
HETATM   23  H9  UNL     1      -2.147  -4.435   2.205  1.00  0.00     0.174 HD
ENDBRANCH   3  21
BRANCH   8  24
HETATM   24  C14 UNL     1       3.390   0.381   0.749  1.00  0.00     0.054 C 
HETATM   25  C15 UNL     1       3.747   1.663   0.158  1.00  0.00    -0.004 C 
HETATM   26  C16 UNL     1       4.764   1.854  -0.604  1.00  0.00    -0.033 C 
HETATM   27  C17 UNL     1       5.672   1.003  -0.928  1.00  0.00    -0.011 C 
HETATM   28  C18 UNL     1       5.760  -0.480  -0.686  1.00  0.00     0.054 C 
HETATM   29  C19 UNL     1       4.411  -1.045  -0.991  1.00  0.00    -0.026 C 
HETATM   30  C20 UNL     1       3.321  -0.648  -0.332  1.00  0.00    -0.020 C 
ENDBRANCH   8  24
TORSDOF 4
