REMARK  1 active torsions:
REMARK  status: ('A' for Active; 'I' for Inactive)
REMARK    1  A    between atoms: N1_1  and  C1_2 
ROOT
HETATM    1  C1  UNL     1       3.585  -1.007  -0.365  1.00  0.00     0.095 C 
HETATM    2  N2  UNL     1       2.952  -0.757   0.678  1.00  0.00    -0.247 NA
HETATM    3  C2  UNL     1       1.553  -0.772   0.871  1.00  0.00     0.237 C 
HETATM    4  N3  UNL     1       1.106   0.535   1.279  1.00  0.00    -0.363 N 
HETATM    5  C3  UNL     1       0.282   1.661   1.037  1.00  0.00     0.041 A 
HETATM    6  C4  UNL     1       0.846   2.892   1.197  1.00  0.00     0.032 A 
HETATM    7  C5  UNL     1       0.165   4.068   1.041  1.00  0.00     0.026 A 
HETATM    8  C6  UNL     1      -1.163   3.923   0.704  1.00  0.00     0.035 A 
HETATM    9 CL1  UNL     1      -2.023   5.452   0.506  1.00  0.00    -0.084 Cl
HETATM   10  C7  UNL     1      -1.776   2.676   0.531  1.00  0.00     0.038 A 
HETATM   11  C8  UNL     1      -1.022   1.536   0.704  1.00  0.00     0.004 A 
HETATM   12  C9  UNL     1      -1.945   0.413   0.434  1.00  0.00     0.005 A 
HETATM   13  C10 UNL     1      -2.686   0.253   1.584  1.00  0.00     0.014 A 
HETATM   14  C11 UNL     1      -3.677  -0.732   1.718  1.00  0.00     0.001 A 
HETATM   15  C12 UNL     1      -3.915  -1.571   0.651  1.00  0.00     0.002 A 
HETATM   16  C13 UNL     1      -3.138  -1.354  -0.469  1.00  0.00     0.032 A 
HETATM   17  C14 UNL     1      -2.155  -0.406  -0.658  1.00  0.00     0.068 A 
HETATM   18  N4  UNL     1      -1.484  -0.284  -1.908  1.00  0.00    -0.246 NA
HETATM   19  C15 UNL     1      -1.432  -1.373  -2.596  1.00  0.00     0.086 C 
HETATM   20  C16 UNL     1      -0.873  -2.395  -1.965  1.00  0.00     0.034 C 
HETATM   21  C17 UNL     1      -0.316  -2.004  -0.644  1.00  0.00     0.009 C 
HETATM   22  C18 UNL     1       0.767  -1.306  -0.310  1.00  0.00    -0.036 C 
HETATM   23  C19 UNL     1       1.424  -0.943  -1.566  1.00  0.00     0.045 C 
HETATM   24  C20 UNL     1       2.887  -1.368  -1.595  1.00  0.00     0.082 C 
HETATM   25  H4  UNL     1       1.671   0.679   2.179  1.00  0.00     0.162 HD
ENDROOT
BRANCH   1  26
HETATM   26  N1  UNL     1       5.024  -0.941  -0.376  1.00  0.00    -0.388 N 
HETATM   27  H1  UNL     1       5.598  -0.102  -0.680  1.00  0.00     0.157 HD
HETATM   28  H2  UNL     1       5.769  -1.653  -0.109  1.00  0.00     0.157 HD
ENDBRANCH   1  26
TORSDOF 1
