REMARK  5 active torsions:
REMARK  status: ('A' for Active; 'I' for Inactive)
REMARK    1  A    between atoms: N1_1  and  C1_2 
REMARK    2  A    between atoms: C3_4  and  C4_5 
REMARK    3  A    between atoms: C4_5  and  C5_6 
REMARK    4  A    between atoms: C9_11  and  N3_12 
REMARK    5  A    between atoms: N5_15  and  C11_16 
ROOT
HETATM    1  C5  UNL     1      -0.113  -0.033   1.164  1.00  0.00     0.024 A 
HETATM    2  C6  UNL     1      -0.128  -1.175   1.931  1.00  0.00     0.042 A 
HETATM    3  C7  UNL     1      -1.077  -2.082   1.516  1.00  0.00     0.030 A 
HETATM    4  C8  UNL     1      -1.361  -3.330   2.061  1.00  0.00     0.135 A 
HETATM    5  N2  UNL     1      -2.365  -4.002   1.424  1.00  0.00    -0.230 NA
HETATM    6  C9  UNL     1      -2.982  -3.446   0.367  1.00  0.00     0.201 A 
HETATM    7  N4  UNL     1      -2.667  -2.232  -0.121  1.00  0.00    -0.199 NA
HETATM    8  C10 UNL     1      -1.692  -1.480   0.431  1.00  0.00     0.150 A 
HETATM    9  N5  UNL     1      -1.107  -0.298   0.260  1.00  0.00    -0.299 N 
ENDROOT
BRANCH   1  10
HETATM   10  C4  UNL     1       0.598   1.241   1.054  1.00  0.00     0.097 C 
BRANCH  10  11
HETATM   11  C3  UNL     1       1.712   1.270   0.110  1.00  0.00    -0.039 A 
HETATM   12  C2  UNL     1       2.974   0.787   0.349  1.00  0.00     0.008 A 
HETATM   13  C1  UNL     1       3.559   0.266   1.400  1.00  0.00     0.038 A 
HETATM   14  C20 UNL     1       3.986   0.806  -0.580  1.00  0.00    -0.012 A 
HETATM   15  C22 UNL     1       4.945  -0.113   1.175  1.00  0.00     0.043 A 
HETATM   16  C21 UNL     1       5.087   0.278  -0.082  1.00  0.00    -0.012 A 
HETATM   17  C19 UNL     1       3.764   1.331  -1.837  1.00  0.00     0.013 A 
HETATM   18  C18 UNL     1       2.511   1.841  -2.154  1.00  0.00     0.002 A 
HETATM   19  C17 UNL     1       1.536   1.786  -1.157  1.00  0.00     0.008 A 
BRANCH  13  20
HETATM   20  N1  UNL     1       2.905   0.088   2.639  1.00  0.00    -0.398 N 
HETATM   21  H1  UNL     1       2.857   0.768   3.442  1.00  0.00     0.156 HD
HETATM   22  H2  UNL     1       2.429  -0.047   3.536  1.00  0.00     0.156 HD
ENDBRANCH  13  20
ENDBRANCH  10  11
ENDBRANCH   1  10
BRANCH   9  23
HETATM   23  C11 UNL     1      -1.618   0.491  -0.836  1.00  0.00     0.041 A 
HETATM   24  C12 UNL     1      -2.348   1.571  -0.339  1.00  0.00     0.032 A 
HETATM   25  C13 UNL     1      -2.934   2.466  -1.234  1.00  0.00     0.026 A 
HETATM   26  C14 UNL     1      -2.782   2.267  -2.591  1.00  0.00     0.034 A 
HETATM   27 CL1  UNL     1      -3.505   3.369  -3.744  1.00  0.00    -0.084 Cl
HETATM   28  C15 UNL     1      -2.051   1.185  -3.053  1.00  0.00     0.026 A 
HETATM   29  C16 UNL     1      -1.473   0.303  -2.194  1.00  0.00     0.032 A 
ENDBRANCH   9  23
BRANCH   6  30
HETATM   30  N3  UNL     1      -4.036  -4.196  -0.270  1.00  0.00    -0.271 NA
HETATM   31  H7  UNL     1      -4.764  -4.503   0.422  1.00  0.00     0.127 HD
HETATM   32  H8  UNL     1      -4.776  -4.512   0.408  1.00  0.00     0.127 HD
ENDBRANCH   6  30
TORSDOF 5
