REMARK  7 active torsions:
REMARK  status: ('A' for Active; 'I' for Inactive)
REMARK    1  A    between atoms: O1_2  and  C2_3 
REMARK    2  A    between atoms: C5_6  and  O2_7 
REMARK    3  A    between atoms: C7_9  and  C8_10 
REMARK    4  A    between atoms: C11_13  and  C12_14 
REMARK    5  A    between atoms: C13_16  and  C14_17 
REMARK    6  A    between atoms: C18_23  and  N2_24 
REMARK    7  A    between atoms: N2_24  and  N3_25 
ROOT
HETATM    1  C8  UNL     1      -0.330  -0.587   0.118  1.00  0.00    -0.022 C 
HETATM    2  C9  UNL     1      -1.209   0.172  -0.724  1.00  0.00    -0.023 C 
HETATM    3  C10 UNL     1      -0.623   0.593  -2.068  1.00  0.00     0.051 C 
HETATM    4  C11 UNL     1      -2.649   0.371  -0.052  1.00  0.00     0.086 C 
HETATM    5  N1  UNL     1      -2.609  -0.651   1.065  1.00  0.00    -0.242 N 
HETATM    6  C15 UNL     1      -2.934  -1.990   0.542  1.00  0.00     0.116 C 
HETATM    7  C16 UNL     1      -1.822  -2.282   1.333  1.00  0.00     0.010 C 
HETATM    8  C17 UNL     1      -0.502  -1.475   1.350  1.00  0.00     0.116 C 
HETATM    9  C18 UNL     1      -0.832  -0.547   2.513  1.00  0.00     0.147 C 
HETATM   10  N4  UNL     1      -1.751   0.198   1.932  1.00  0.00    -0.152 NA
ENDROOT
BRANCH   1  11
HETATM   11  C7  UNL     1       1.097  -0.435  -0.287  1.00  0.00     0.008 A 
HETATM   12  C5  UNL     1       1.893  -1.537  -0.513  1.00  0.00     0.079 A 
HETATM   13  C4  UNL     1       3.219  -1.333  -0.848  1.00  0.00     0.040 A 
HETATM   14  C3  UNL     1       3.794  -0.065  -0.969  1.00  0.00     0.039 A 
HETATM   15  C2  UNL     1       2.982   1.030  -0.739  1.00  0.00     0.069 A 
HETATM   16  C19 UNL     1       1.665   0.811  -0.406  1.00  0.00     0.051 A 
BRANCH  12  17
HETATM   17  O2  UNL     1       1.394  -2.826  -0.413  1.00  0.00    -0.355 OA
HETATM   18  C6  UNL     1       2.251  -3.922  -0.654  1.00  0.00     0.210 C 
ENDBRANCH  12  17
BRANCH  15  19
HETATM   19  O1  UNL     1       3.574   2.275  -0.864  1.00  0.00    -0.356 OA
HETATM   20  C1  UNL     1       2.784   3.425  -0.640  1.00  0.00     0.210 C 
ENDBRANCH  15  19
ENDBRANCH   1  11
BRANCH   4  21
HETATM   21  C12 UNL     1      -3.446   1.293  -0.628  1.00  0.00     0.062 C 
HETATM   22 CL1  UNL     1      -5.039   1.579   0.043  1.00  0.00    -0.082 Cl
HETATM   23  C13 UNL     1      -2.833   1.883  -1.747  1.00  0.00     0.038 C 
BRANCH  23  24
HETATM   24  C14 UNL     1      -3.633   2.797  -2.266  1.00  0.00     0.443 C 
HETATM   25  F1  UNL     1      -4.621   3.666  -2.601  1.00  0.00    -0.452 F 
ENDBRANCH  23  24
ENDBRANCH   4  21
BRANCH   9  26
HETATM   26  N2  UNL     1      -0.231  -0.587   3.802  1.00  0.00    -0.309 N 
HETATM   27  H17 UNL     1       0.644  -1.146   3.890  1.00  0.00     0.182 HD
BRANCH  26  28
HETATM   28  N3  UNL     1      -1.003   0.180   4.697  1.00  0.00    -0.248 NA
HETATM   29  H18 UNL     1      -1.246   1.115   4.282  1.00  0.00     0.143 HD
HETATM   30  H19 UNL     1      -0.479   0.388   5.571  1.00  0.00     0.143 HD
ENDBRANCH  26  28
ENDBRANCH   9  26
TORSDOF 7
