REMARK  6 active torsions:
REMARK  status: ('A' for Active; 'I' for Inactive)
REMARK    1  A    between atoms: O1_2  and  C2_3 
REMARK    2  A    between atoms: C7_8  and  C8_9 
REMARK    3  A    between atoms: C8_9  and  N1_10 
REMARK    4  A    between atoms: N1_10  and  C9_11 
REMARK    5  A    between atoms: C11_13  and  N2_14 
REMARK    6  A    between atoms: C20_26  and  N4_27 
ROOT
HETATM    1  C9  UNL     1       0.050  -1.716   0.414  1.00  0.00     0.146 A 
HETATM    2  C10 UNL     1       1.077  -0.812   0.499  1.00  0.00     0.102 A 
HETATM    3  C11 UNL     1       2.388  -1.176   0.646  1.00  0.00     0.158 A 
HETATM    4  N3  UNL     1       2.694  -2.513   0.714  1.00  0.00    -0.045 NA
HETATM    5  C20 UNL     1       1.674  -3.420   0.630  1.00  0.00     0.724 A 
HETATM    6  N5  UNL     1       0.391  -3.031   0.485  1.00  0.00    -0.046 NA
ENDROOT
BRANCH   1   7
HETATM    7  N1  UNL     1      -1.351  -1.565   0.284  1.00  0.00    -0.373 N 
HETATM    8  H12 UNL     1      -1.938  -1.750   1.116  1.00  0.00     0.161 HD
BRANCH   7   9
HETATM    9  C8  UNL     1      -1.961  -1.166  -0.973  1.00  0.00     0.130 C 
BRANCH   9  10
HETATM   10  C7  UNL     1      -3.475  -1.182  -0.909  1.00  0.00     0.038 A 
HETATM   11  C5  UNL     1      -3.998  -0.743  -2.227  1.00  0.00    -0.078 A 
HETATM   12  C4  UNL     1      -4.873   0.252  -2.457  1.00  0.00     0.005 A 
HETATM   13  C6  UNL     1      -3.527  -1.496  -3.416  1.00  0.00     0.044 C 
HETATM   14  C3  UNL     1      -5.364   1.026  -1.327  1.00  0.00     0.032 A 
HETATM   15  C2  UNL     1      -4.915   0.709  -0.125  1.00  0.00     0.046 A 
HETATM   16  C21 UNL     1      -3.944  -0.352   0.242  1.00  0.00     0.075 A 
BRANCH  15  17
HETATM   17  O1  UNL     1      -5.349   1.406   0.993  1.00  0.00    -0.360 OA
HETATM   18  C1  UNL     1      -5.344   2.818   1.010  1.00  0.00     0.209 C 
ENDBRANCH  15  17
ENDBRANCH   9  10
ENDBRANCH   7   9
ENDBRANCH   1   7
BRANCH   3  19
HETATM   19  N2  UNL     1       3.389  -0.170   0.712  1.00  0.00    -0.292 N 
HETATM   20  C12 UNL     1       4.221   0.780   1.394  1.00  0.00     0.052 A 
HETATM   21  C13 UNL     1       4.353   0.645   0.058  1.00  0.00     0.103 A 
HETATM   22  C19 UNL     1       4.781   1.551   2.528  1.00  0.00     0.088 C 
HETATM   23  C14 UNL     1       5.203   1.279  -0.933  1.00  0.00     0.147 C 
HETATM   24  F1  UNL     1       4.856   0.884  -2.189  1.00  0.00    -0.204 F 
HETATM   25  C15 UNL     1       6.204   2.126  -0.893  1.00  0.00     0.069 C 
HETATM   26  C16 UNL     1       6.975   2.856   0.101  1.00  0.00     0.048 C 
HETATM   27 CL1  UNL     1       8.527   3.441  -0.457  1.00  0.00    -0.083 Cl
HETATM   28  C17 UNL     1       6.673   3.132   1.332  1.00  0.00    -0.006 C 
HETATM   29  C18 UNL     1       5.776   2.512   2.014  1.00  0.00    -0.007 C 
ENDBRANCH   3  19
BRANCH   5  30
HETATM   30  N4  UNL     1       2.103  -4.773   0.712  1.00  0.00    -0.231 N 
HETATM   31  H18 UNL     1       2.329  -5.171  -0.231  1.00  0.00     0.174 HD
HETATM   32  H19 UNL     1       2.130  -5.162   1.694  1.00  0.00     0.174 HD
ENDBRANCH   5  30
TORSDOF 6
