REMARK  5 active torsions:
REMARK  status: ('A' for Active; 'I' for Inactive)
REMARK    1  A    between atoms: O1_2  and  C2_3 
REMARK    2  A    between atoms: C5_6  and  O2_7 
REMARK    3  A    between atoms: C7_9  and  C8_10 
REMARK    4  A    between atoms: C8_10  and  C9_11 
REMARK    5  A    between atoms: N1_15  and  C13_16 
REMARK       I    between atoms: N2_21  and  C17_22 
REMARK       I    between atoms: C17_22  and  N4_24 
ROOT
HETATM    1  C9  UNL     1       0.340  -0.596  -0.611  1.00  0.00     0.023 A 
HETATM    2  C10 UNL     1      -0.662  -0.165  -1.394  1.00  0.00    -0.007 A 
HETATM    3  C11 UNL     1      -0.634   0.600  -2.643  1.00  0.00     0.053 C 
HETATM    4  C12 UNL     1      -1.937  -0.580  -0.822  1.00  0.00     0.106 A 
HETATM    5  N1  UNL     1      -3.167  -0.480  -1.087  1.00  0.00    -0.269 NA
HETATM    6  C16 UNL     1      -1.619  -1.320   0.409  1.00  0.00     0.176 A 
HETATM    7  N2  UNL     1      -2.187  -1.960   1.396  1.00  0.00    -0.043 NA
HETATM    8  C17 UNL     1      -3.569  -2.080   1.463  1.00  0.00     0.715 C 
HETATM    9  N3  UNL     1      -4.811  -2.090   1.782  1.00  0.00    -0.116 NA
HETATM   10  N4  UNL     1      -4.068  -2.631   0.225  1.00  0.00    -0.231 N 
HETATM   11  N5  UNL     1      -0.179  -1.317   0.522  1.00  0.00    -0.341 N 
HETATM   12  H16 UNL     1      -5.164  -1.774   2.719  1.00  0.00     0.206 HD
HETATM   13  H17 UNL     1      -4.492  -3.072  -0.619  1.00  0.00     0.174 HD
HETATM   14  H18 UNL     1      -4.558  -3.114  -0.572  1.00  0.00     0.174 HD
HETATM   15  H19 UNL     1       0.459  -1.739   1.263  1.00  0.00     0.167 HD
ENDROOT
BRANCH   1  16
HETATM   16  C8  UNL     1       1.808  -0.382  -0.844  1.00  0.00     0.099 C 
BRANCH  16  17
HETATM   17  C7  UNL     1       2.428   0.372   0.249  1.00  0.00    -0.017 A 
HETATM   18  C5  UNL     1       2.215   1.730   0.321  1.00  0.00     0.075 A 
HETATM   19  C4  UNL     1       2.824   2.393   1.370  1.00  0.00     0.040 A 
HETATM   20  C3  UNL     1       3.605   1.700   2.288  1.00  0.00     0.039 A 
HETATM   21  C2  UNL     1       3.806   0.320   2.191  1.00  0.00     0.068 A 
HETATM   22  C18 UNL     1       3.197  -0.334   1.146  1.00  0.00     0.047 A 
BRANCH  18  23
HETATM   23  O2  UNL     1       1.426   2.338  -0.631  1.00  0.00    -0.355 OA
HETATM   24  C6  UNL     1       1.217   3.728  -0.545  1.00  0.00     0.210 C 
ENDBRANCH  18  23
BRANCH  21  25
HETATM   25  O1  UNL     1       4.617  -0.110   3.225  1.00  0.00    -0.356 OA
HETATM   26  C1  UNL     1       4.963  -1.452   3.346  1.00  0.00     0.210 C 
ENDBRANCH  21  25
ENDBRANCH  16  17
ENDBRANCH   1  16
BRANCH   5  27
HETATM   27  C13 UNL     1      -3.726   0.194  -2.236  1.00  0.00     0.196 A 
HETATM   28  C14 UNL     1      -4.239  -0.673  -3.359  1.00  0.00     0.047 A 
HETATM   29  C15 UNL     1      -5.159  -0.056  -2.466  1.00  0.00     0.121 A 
HETATM   30  F1  UNL     1      -6.315   0.353  -1.834  1.00  0.00    -0.208 F 
ENDBRANCH   5  27
TORSDOF 5
