REMARK  2 active torsions:
REMARK  status: ('A' for Active; 'I' for Inactive)
REMARK       I    between atoms: N1_1  and  C1_2 
REMARK    1  A    between atoms: C2_4  and  N3_5 
REMARK    2  A    between atoms: N3_5  and  C3_6 
ROOT
HETATM    1  N1  UNL     1       1.040  -1.295   1.821  1.00  0.00    -0.231 N 
HETATM    2  C1  UNL     1       1.506  -1.238   0.477  1.00  0.00     0.719 C 
HETATM    3  N2  UNL     1       0.927  -0.694  -0.569  1.00  0.00    -0.079 NA
HETATM    4  C2  UNL     1      -0.380  -0.040  -0.397  1.00  0.00     0.238 C 
HETATM    5  C9  UNL     1      -0.439   0.927  -1.588  1.00  0.00     0.113 C 
HETATM    6  C10 UNL     1      -1.827   1.187  -1.979  1.00  0.00     0.189 C 
HETATM    7  O1  UNL     1      -2.562   2.193  -1.412  1.00  0.00    -0.362 OA
HETATM    8  C11 UNL     1      -2.273   3.184  -0.511  1.00  0.00     0.134 C 
HETATM    9  C12 UNL     1      -1.110   3.691  -0.138  1.00  0.00     0.026 C 
HETATM   10  C13 UNL     1       0.189   3.233  -0.681  1.00  0.00     0.036 C 
HETATM   11  C14 UNL     1       0.426   2.062  -1.283  1.00  0.00     0.074 C 
HETATM   12  O2  UNL     1       1.811   2.203  -1.573  1.00  0.00    -0.266 OA
HETATM   13  C15 UNL     1       2.744   1.613  -0.870  1.00  0.00     0.057 C 
HETATM   14  S1  UNL     1       3.762   0.940  -0.081  1.00  0.00    -0.004 SA
HETATM   15  C16 UNL     1       4.986   0.095   0.890  1.00  0.00     0.398 C 
HETATM   16  N4  UNL     1       5.899  -0.750   0.096  1.00  0.00     0.124 N 
HETATM   17  C17 UNL     1       5.184  -2.041   0.103  1.00  0.00     0.351 C 
HETATM   18  C18 UNL     1       3.827  -1.545   0.581  1.00  0.00     0.149 C 
HETATM   19  N5  UNL     1       2.712  -1.752  -0.066  1.00  0.00    -0.048 NA
HETATM   20  N6  UNL     1       4.365  -0.913   1.780  1.00  0.00    -0.338 N 
HETATM   21  H1  UNL     1       1.018  -0.747   2.713  1.00  0.00     0.174 HD
HETATM   22  H2  UNL     1       0.610  -2.244   1.716  1.00  0.00     0.174 HD
HETATM   23  H16 UNL     1       5.854  -0.366  -0.875  1.00  0.00     0.320 HD
HETATM   24  H19 UNL     1       3.980  -1.557   2.485  1.00  0.00     0.163 HD
ENDROOT
BRANCH   4  25
HETATM   25  N3  UNL     1      -1.418  -1.027  -0.414  1.00  0.00    -0.366 N 
HETATM   26  H4  UNL     1      -1.106  -1.947  -0.857  1.00  0.00     0.161 HD
BRANCH  25  27
HETATM   27  C3  UNL     1      -2.796  -1.176  -0.015  1.00  0.00     0.029 A 
HETATM   28  C4  UNL     1      -3.586  -2.309  -0.245  1.00  0.00     0.031 A 
HETATM   29  C5  UNL     1      -4.871  -2.280   0.237  1.00  0.00     0.026 A 
HETATM   30  C6  UNL     1      -5.428  -1.230   0.920  1.00  0.00     0.034 A 
HETATM   31 CL1  UNL     1      -7.081  -1.373   1.457  1.00  0.00    -0.084 Cl
HETATM   32  C7  UNL     1      -4.681  -0.099   1.165  1.00  0.00     0.026 A 
HETATM   33  C8  UNL     1      -3.398  -0.124   0.686  1.00  0.00     0.031 A 
ENDBRANCH  25  27
ENDBRANCH   4  25
TORSDOF 2
