REMARK  4 active torsions:
REMARK  status: ('A' for Active; 'I' for Inactive)
REMARK    1  A    between atoms: C3_3  and  C4_4 
REMARK    2  A    between atoms: C8_9  and  N2_10 
REMARK    3  A    between atoms: C10_13  and  N4_14 
REMARK    4  A    between atoms: N4_14  and  C11_15 
ROOT
HETATM    1  C1  UNL     1      -0.391   3.625  -1.263  1.00  0.00     0.012 C 
HETATM    2  C2  UNL     1      -1.466   3.100  -1.110  1.00  0.00    -0.111 C 
HETATM    3  C3  UNL     1      -2.754   2.444  -0.916  1.00  0.00     0.150 C 
ENDROOT
BRANCH   3   4
HETATM    4  C4  UNL     1      -2.646   1.210  -0.163  1.00  0.00     0.023 C 
HETATM    5  C5  UNL     1      -1.506   0.741   0.306  1.00  0.00    -0.011 C 
HETATM    6  C6  UNL     1      -1.799   0.203   1.719  1.00  0.00     0.073 C 
HETATM    7  C10 UNL     1      -0.066   0.419  -0.054  1.00  0.00     0.240 C 
HETATM    8  C7  UNL     1      -2.640  -0.926   0.993  1.00  0.00     0.154 C 
HETATM    9  N1  UNL     1      -3.488   0.092   0.308  1.00  0.00    -0.380 N 
HETATM   10  C8  UNL     1      -1.575  -1.462   0.053  1.00  0.00     0.120 C 
HETATM   11  H7  UNL     1      -4.532   0.188   0.092  1.00  0.00     0.160 HD
HETATM   12  N3  UNL     1      -0.309  -1.085  -0.127  1.00  0.00    -0.245 NA
BRANCH  10  13
HETATM   13  N2  UNL     1      -2.038  -2.559  -0.766  1.00  0.00    -0.381 N 
HETATM   14  C9  UNL     1      -1.064  -3.515  -1.307  1.00  0.00     0.147 C 
HETATM   15  H8  UNL     1      -3.054  -2.745  -1.022  1.00  0.00     0.160 HD
ENDBRANCH  10  13
BRANCH   7  16
HETATM   16  N4  UNL     1       0.844   0.668   0.992  1.00  0.00    -0.364 N 
HETATM   17  H13 UNL     1       0.623   1.046   1.945  1.00  0.00     0.162 HD
BRANCH  16  18
HETATM   18  C11 UNL     1       2.212   0.380   0.733  1.00  0.00     0.029 A 
HETATM   19  C12 UNL     1       3.206   0.580   1.674  1.00  0.00     0.031 A 
HETATM   20  C13 UNL     1       4.542   0.316   1.467  1.00  0.00     0.026 A 
HETATM   21  C14 UNL     1       4.944  -0.182   0.248  1.00  0.00     0.034 A 
HETATM   22 CL1  UNL     1       6.618  -0.547  -0.103  1.00  0.00    -0.084 Cl
HETATM   23  C15 UNL     1       4.002  -0.404  -0.733  1.00  0.00     0.026 A 
HETATM   24  C16 UNL     1       2.683  -0.116  -0.454  1.00  0.00     0.031 A 
ENDBRANCH  16  18
ENDBRANCH   7  16
ENDBRANCH   3   4
TORSDOF 4
