REMARK  6 active torsions:
REMARK  status: ('A' for Active; 'I' for Inactive)
REMARK    1  A    between atoms: O1_2  and  C2_3 
REMARK    2  A    between atoms: C5_6  and  O2_7 
REMARK    3  A    between atoms: C7_9  and  C8_10 
REMARK    4  A    between atoms: C12_14  and  N1_15 
REMARK    5  A    between atoms: N1_15  and  C13_16 
REMARK    6  A    between atoms: C19_24  and  N2_25 
ROOT
HETATM    1  C8  UNL     1      -1.800  -0.027  -0.103  1.00  0.00    -0.037 A 
HETATM    2  C9  UNL     1      -0.640   0.610  -0.110  1.00  0.00    -0.028 A 
HETATM    3  C10 UNL     1      -0.397   2.045  -0.244  1.00  0.00     0.051 C 
HETATM    4  C11 UNL     1       0.405  -0.392   0.044  1.00  0.00     0.068 A 
HETATM    5  C12 UNL     1       1.722  -0.448   0.127  1.00  0.00     0.092 A 
HETATM    6  C19 UNL     1       2.623  -1.589   0.292  1.00  0.00     0.392 A 
HETATM    7  N3  UNL     1       1.864  -2.798   0.380  1.00  0.00    -0.243 NA
HETATM    8  C20 UNL     1       0.583  -2.829   0.312  1.00  0.00     0.207 A 
HETATM    9  N4  UNL     1      -0.228  -1.675   0.144  1.00  0.00    -0.336 N 
HETATM   10  C21 UNL     1      -1.664  -1.511   0.048  1.00  0.00     0.166 A 
ENDROOT
BRANCH   5  11
HETATM   11  N1  UNL     1       2.410   0.797   0.052  1.00  0.00    -0.352 N 
HETATM   12  H13 UNL     1       2.184   1.813  -0.029  1.00  0.00     0.166 HD
BRANCH  11  13
HETATM   13  C13 UNL     1       3.817   1.028   0.069  1.00  0.00     0.071 A 
HETATM   14  C14 UNL     1       4.694   1.188  -0.967  1.00  0.00     0.034 A 
HETATM   15  C15 UNL     1       6.038   1.397  -0.740  1.00  0.00     0.026 A 
HETATM   16  C16 UNL     1       6.535   1.450   0.565  1.00  0.00     0.037 A 
HETATM   17 CL1  UNL     1       8.261   1.719   0.818  1.00  0.00    -0.084 Cl
HETATM   18  C17 UNL     1       5.695   1.295   1.644  1.00  0.00     0.068 A 
HETATM   19  C18 UNL     1       4.354   1.088   1.362  1.00  0.00     0.144 A 
HETATM   20  F1  UNL     1       3.580   0.943   2.489  1.00  0.00    -0.204 F 
ENDBRANCH  11  13
ENDBRANCH   5  11
BRANCH   6  21
HETATM   21  N2  UNL     1       3.501  -1.736  -0.876  1.00  0.00     0.109 N 
HETATM   22  H18 UNL     1       3.197  -1.167  -1.688  1.00  0.00     0.316 HD
HETATM   23  H19 UNL     1       4.503  -1.682  -0.648  1.00  0.00     0.316 HD
ENDBRANCH   6  21
BRANCH   1  24
HETATM   24  C7  UNL     1      -3.193   0.496  -0.225  1.00  0.00     0.130 A 
HETATM   25  C2  UNL     1      -3.957   0.150   0.999  1.00  0.00     0.060 A 
HETATM   26  C3  UNL     1      -4.952  -0.693   0.812  1.00  0.00     0.036 A 
HETATM   27  C4  UNL     1      -4.919  -0.982  -0.623  1.00  0.00     0.036 A 
HETATM   28  C5  UNL     1      -3.945  -0.333  -1.234  1.00  0.00     0.060 A 
BRANCH  25  29
HETATM   29  O1  UNL     1      -3.485   0.782   2.144  1.00  0.00    -0.359 OA
HETATM   30  C1  UNL     1      -4.433   1.578   2.843  1.00  0.00     0.209 C 
ENDBRANCH  25  29
BRANCH  28  31
HETATM   31  O2  UNL     1      -3.535  -0.295  -2.559  1.00  0.00    -0.359 OA
HETATM   32  C6  UNL     1      -3.736  -1.435  -3.385  1.00  0.00     0.209 C 
ENDBRANCH  28  31
ENDBRANCH   1  24
TORSDOF 6
