REMARK  3 active torsions:
REMARK  status: ('A' for Active; 'I' for Inactive)
REMARK    1  A    between atoms: C2_2  and  C3_3 
REMARK    2  A    between atoms: C7_10  and  O1_11 
REMARK    3  A    between atoms: C15_20  and  C16_22 
ROOT
HETATM    1  C3  UNL     1      -0.631   2.465  -0.058  1.00  0.00     0.031 C 
HETATM    2  N1  UNL     1       0.318   1.783   0.466  1.00  0.00    -0.279 NA
HETATM    3  C4  UNL     1       1.717   2.203   0.342  1.00  0.00     0.253 C 
HETATM    4  N2  UNL     1       2.590   1.255   0.997  1.00  0.00    -0.242 NA
HETATM    5  N3  UNL     1       2.545   0.000   0.409  1.00  0.00    -0.259 NA
HETATM    6  C5  UNL     1       3.692  -0.770   0.886  1.00  0.00     0.111 C 
HETATM    7  C6  UNL     1       3.652  -2.163   0.290  1.00  0.00     0.080 C 
HETATM    8  C7  UNL     1       3.881  -2.148  -1.196  1.00  0.00     0.055 C 
HETATM    9  C9  UNL     1       2.766  -2.368  -1.929  1.00  0.00     0.099 C 
HETATM   10  C10 UNL     1       1.577  -2.564  -1.222  1.00  0.00    -0.045 C 
HETATM   11  C11 UNL     1       0.623  -2.711  -0.665  1.00  0.00     0.064 C 
HETATM   12  O2  UNL     1      -0.572  -2.872   0.044  1.00  0.00    -0.273 OA
HETATM   13  C12 UNL     1      -1.114  -1.586   0.476  1.00  0.00     0.157 C 
HETATM   14  C13 UNL     1      -2.459  -1.803   0.582  1.00  0.00     0.056 C 
HETATM   15  C14 UNL     1      -3.728  -1.132   0.919  1.00  0.00     0.052 C 
HETATM   16  C15 UNL     1      -5.024  -1.276   1.047  1.00  0.00     0.046 C 
HETATM   17 CL1  UNL     1      -5.303  -2.972   0.660  1.00  0.00    -0.086 Cl
HETATM   18  N4  UNL     1      -3.173   0.169   1.246  1.00  0.00    -0.365 N 
HETATM   19  C18 UNL     1      -2.847   1.320   0.510  1.00  0.00     0.090 C 
HETATM   20  C19 UNL     1      -2.064   2.226  -0.023  1.00  0.00     0.044 C 
HETATM   21  H8  UNL     1       2.545   1.258   2.019  1.00  0.00     0.142 HD
HETATM   22  H9  UNL     1       2.620   0.080  -0.625  1.00  0.00     0.140 HD
HETATM   23  H22 UNL     1      -3.039   0.112   2.300  1.00  0.00     0.165 HD
ENDROOT
BRANCH  16  24
HETATM   24  C16 UNL     1      -5.709  -0.041   1.368  1.00  0.00     0.145 C 
HETATM   25  C17 UNL     1      -6.934  -0.620   1.222  1.00  0.00     0.367 C 
HETATM   26  F1  UNL     1      -7.828  -1.606   0.974  1.00  0.00    -0.461 F 
ENDBRANCH  16  24
BRANCH   1  27
HETATM   27  C2  UNL     1      -0.202   3.698  -0.798  1.00  0.00     0.054 C 
HETATM   28  C1  UNL     1      -0.798   4.937  -0.178  1.00  0.00     0.011 C 
ENDBRANCH   1  27
BRANCH   8  29
HETATM   29  O1  UNL     1       4.940  -1.960  -2.047  1.00  0.00    -0.360 OA
HETATM   30  C8  UNL     1       5.840  -2.985  -2.349  1.00  0.00     0.209 C 
ENDBRANCH   8  29
TORSDOF 3
