REMARK  2 active torsions:
REMARK  status: ('A' for Active; 'I' for Inactive)
REMARK    1  A    between atoms: C10_13  and  N3_14 
REMARK    2  A    between atoms: N3_14  and  C11_15 
ROOT
HETATM    1  C1  UNL     1       0.729   0.444   3.322  1.00  0.00     0.047 C 
HETATM    2  C2  UNL     1       0.030   0.374   2.174  1.00  0.00    -0.010 C 
HETATM    3  C3  UNL     1      -1.327   0.837   2.456  1.00  0.00     0.035 C 
HETATM    4  C4  UNL     1      -2.315   0.909   1.598  1.00  0.00     0.136 C 
HETATM    5  O1  UNL     1      -3.249   0.931   0.604  1.00  0.00    -0.358 OA
HETATM    6  C5  UNL     1      -4.065  -0.173   0.214  1.00  0.00     0.130 C 
HETATM    7  C6  UNL     1      -5.247   0.386  -0.569  1.00  0.00     0.040 C 
HETATM    8  C7  UNL     1      -3.403  -1.167  -0.596  1.00  0.00     0.050 C 
HETATM    9  C8  UNL     1      -2.504  -1.881  -1.192  1.00  0.00     0.141 C 
HETATM   10  N1  UNL     1      -1.242  -1.307  -0.778  1.00  0.00    -0.275 NA
HETATM   11  C9  UNL     1      -1.043  -0.011  -0.846  1.00  0.00     0.229 C 
HETATM   12  N2  UNL     1       0.233  -0.258  -0.338  1.00  0.00    -0.224 NA
HETATM   13  C10 UNL     1       0.598  -0.080   0.891  1.00  0.00     0.135 C 
ENDROOT
BRANCH  13  14
HETATM   14  N3  UNL     1       1.991  -0.453   0.967  1.00  0.00    -0.341 N 
HETATM   15  H12 UNL     1       2.301  -1.026   1.818  1.00  0.00     0.167 HD
BRANCH  14  16
HETATM   16  C11 UNL     1       3.032  -0.131   0.018  1.00  0.00     0.035 A 
HETATM   17  C12 UNL     1       2.829   0.643  -1.100  1.00  0.00     0.032 A 
HETATM   18  C13 UNL     1       3.872   0.897  -1.952  1.00  0.00     0.046 A 
HETATM   19  C14 UNL     1       5.154   0.427  -1.780  1.00  0.00     0.138 A 
HETATM   20  F1  UNL     1       6.190   0.663  -2.599  1.00  0.00    -0.204 F 
HETATM   21  C15 UNL     1       5.317  -0.348  -0.643  1.00  0.00     0.074 A 
HETATM   22 CL1  UNL     1       6.906  -1.009  -0.304  1.00  0.00    -0.081 Cl
HETATM   23  C16 UNL     1       4.296  -0.625   0.236  1.00  0.00     0.056 A 
ENDBRANCH  14  16
ENDBRANCH  13  14
TORSDOF 2
