REMARK  8 active torsions:
REMARK  status: ('A' for Active; 'I' for Inactive)
REMARK    1  A    between atoms: O1_2  and  C2_3 
REMARK    2  A    between atoms: C3_4  and  C4_5 
REMARK    3  A    between atoms: C4_5  and  O2_6 
REMARK    4  A    between atoms: O2_6  and  C5_7 
REMARK    5  A    between atoms: C5_7  and  C6_8 
REMARK    6  A    between atoms: C6_8  and  C7_9 
REMARK    7  A    between atoms: C7_9  and  C8_10 
REMARK    8  A    between atoms: C10_14  and  N3_15 
ROOT
HETATM    1  C8  UNL     1      -0.152   1.133   0.063  1.00  0.00     0.115 C 
HETATM    2  N1  UNL     1      -0.033   0.255   1.252  1.00  0.00    -0.376 N 
HETATM    3  C9  UNL     1      -0.906   0.033   2.388  1.00  0.00     0.206 C 
HETATM    4  N2  UNL     1      -2.061   0.405   2.602  1.00  0.00    -0.218 N 
HETATM    5  C10 UNL     1      -3.121   0.440   3.396  1.00  0.00     0.197 A 
HETATM    6  N4  UNL     1      -3.438   1.048   2.320  1.00  0.00    -0.237 N 
HETATM    7  C11 UNL     1      -4.678   1.666   1.987  1.00  0.00     0.274 C 
HETATM    8  N5  UNL     1      -4.574   2.710   0.966  1.00  0.00    -0.372 N 
HETATM    9  C12 UNL     1      -3.799   1.882   0.060  1.00  0.00     0.029 A 
HETATM   10  C13 UNL     1      -4.296   1.087  -0.954  1.00  0.00     0.029 A 
HETATM   11  C14 UNL     1      -3.459   0.281  -1.696  1.00  0.00     0.003 A 
HETATM   12  C15 UNL     1      -2.122   0.306  -1.381  1.00  0.00     0.009 A 
HETATM   13  C16 UNL     1      -1.520   1.047  -0.408  1.00  0.00    -0.033 A 
HETATM   14  C17 UNL     1      -2.418   1.854   0.317  1.00  0.00     0.038 A 
HETATM   15  H13 UNL     1       0.856  -0.288   1.231  1.00  0.00     0.161 HD
HETATM   16  H19 UNL     1      -4.496   3.450   0.232  1.00  0.00     0.161 HD
ENDROOT
BRANCH   1  17
HETATM   17  C7  UNL     1       0.987   1.074  -0.849  1.00  0.00     0.032 C 
BRANCH  17  18
HETATM   18  C6  UNL     1       1.416  -0.173  -1.489  1.00  0.00     0.029 C 
BRANCH  18  19
HETATM   19  C5  UNL     1       2.660   0.071  -2.371  1.00  0.00     0.169 C 
BRANCH  19  20
HETATM   20  O2  UNL     1       3.702   0.567  -1.640  1.00  0.00    -0.379 OA
BRANCH  20  21
HETATM   21  C4  UNL     1       4.172  -0.183  -0.608  1.00  0.00     0.263 C 
BRANCH  21  22
HETATM   22  C3  UNL     1       4.657  -1.470  -1.169  1.00  0.00    -0.050 C 
HETATM   23  C2  UNL     1       5.069  -2.507  -1.610  1.00  0.00     0.056 C 
BRANCH  23  24
HETATM   24  O1  UNL     1       5.540  -3.700  -2.138  1.00  0.00    -0.309 OA
HETATM   25  C1  UNL     1       6.954  -3.947  -2.163  1.00  0.00     0.223 C 
ENDBRANCH  23  24
ENDBRANCH  21  22
ENDBRANCH  20  21
ENDBRANCH  19  20
ENDBRANCH  18  19
ENDBRANCH  17  18
ENDBRANCH   1  17
BRANCH   5  26
HETATM   26  N3  UNL     1      -3.460  -0.021   4.684  1.00  0.00    -0.271 NA
HETATM   27  H15 UNL     1      -4.305   0.510   4.997  1.00  0.00     0.127 HD
HETATM   28  H16 UNL     1      -4.289   0.548   4.910  1.00  0.00     0.127 HD
ENDBRANCH   5  26
TORSDOF 8
