REMARK  4 active torsions:
REMARK  status: ('A' for Active; 'I' for Inactive)
REMARK    1  A    between atoms: C2_2  and  O1_3 
REMARK    2  A    between atoms: O1_3  and  C3_4 
REMARK    3  A    between atoms: C4_5  and  C5_6 
REMARK    4  A    between atoms: C15_20  and  N3_21 
ROOT
HETATM    1  C5  UNL     1      -0.391  -0.025   0.279  1.00  0.00     0.111 A 
HETATM    2  C6  UNL     1      -0.749   0.780  -0.762  1.00  0.00     0.068 A 
HETATM    3  C7  UNL     1       0.429   0.641  -1.033  1.00  0.00    -0.032 A 
HETATM    4  P1  UNL     1       1.740   0.468  -1.317  1.00  0.00    -0.070 P 
HETATM    5  C8  UNL     1       2.771   0.315  -1.526  1.00  0.00     0.161 C 
HETATM    6  C9  UNL     1       3.439  -1.098  -2.353  1.00  0.00     0.006 C 
HETATM    7  C10 UNL     1       3.242  -2.297  -1.982  1.00  0.00     0.018 C 
HETATM    8  C11 UNL     1       2.789  -3.499  -1.263  1.00  0.00     0.014 C 
HETATM    9 CL1  UNL     1       3.257  -5.132  -1.671  1.00  0.00    -0.089 Cl
HETATM   10  C12 UNL     1       1.942  -3.387  -0.187  1.00  0.00     0.047 C 
HETATM   11  C13 UNL     1       1.036  -3.062   0.939  1.00  0.00     0.195 C 
HETATM   12  N1  UNL     1       0.425  -2.026   1.527  1.00  0.00    -0.210 NA
HETATM   13  N2  UNL     1       0.682  -0.787   0.926  1.00  0.00    -0.283 N 
HETATM   14  C14 UNL     1       1.954  -0.266   0.798  1.00  0.00     0.223 C 
HETATM   15  C15 UNL     1       3.343  -0.142   0.860  1.00  0.00     0.113 C 
HETATM   16  N4  UNL     1       4.025   0.173  -0.293  1.00  0.00    -0.262 NA
HETATM   17  H7  UNL     1       4.286   0.181  -1.879  1.00  0.00     0.064 HD
ENDROOT
BRANCH   1  18
HETATM   18  C4  UNL     1      -1.685  -0.010   0.748  1.00  0.00     0.008 C 
HETATM   19  C3  UNL     1      -2.740   0.579   0.300  1.00  0.00     0.057 C 
HETATM   20  C19 UNL     1      -4.190   0.617   0.748  1.00  0.00     0.094 C 
HETATM   21  C18 UNL     1      -4.280   1.294   2.050  1.00  0.00     0.004 C 
HETATM   22  C17 UNL     1      -3.629   0.790   3.073  1.00  0.00     0.131 C 
HETATM   23  O2  UNL     1      -2.909  -0.355   2.821  1.00  0.00    -0.359 OA
HETATM   24  C16 UNL     1      -1.833  -0.751   2.021  1.00  0.00     0.214 C 
BRANCH  19  25
HETATM   25  O1  UNL     1      -2.658   1.374  -0.830  1.00  0.00    -0.355 OA
BRANCH  25  26
HETATM   26  C2  UNL     1      -2.991   2.747  -0.767  1.00  0.00     0.171 C 
HETATM   27  C1  UNL     1      -3.083   3.316  -2.169  1.00  0.00     0.034 C 
ENDBRANCH  25  26
ENDBRANCH  19  25
ENDBRANCH   1  18
BRANCH  15  28
HETATM   28  N3  UNL     1       4.437  -0.211   1.764  1.00  0.00    -0.386 N 
HETATM   29  H15 UNL     1       4.733   0.737   2.131  1.00  0.00     0.157 HD
HETATM   30  H16 UNL     1       4.938  -1.066   2.077  1.00  0.00     0.157 HD
ENDBRANCH  15  28
TORSDOF 4
