REMARK  3 active torsions:
REMARK  status: ('A' for Active; 'I' for Inactive)
REMARK    1  A    between atoms: C5_5  and  C6_6 
REMARK    2  A    between atoms: C7_7  and  N1_8 
REMARK    3  A    between atoms: N1_8  and  C8_9 
ROOT
HETATM    1  C1  UNL     1      -3.898   2.366  -0.601  1.00  0.00     0.018 C 
HETATM    2  C2  UNL     1      -4.083   0.892  -0.874  1.00  0.00     0.047 A 
HETATM    3  C3  UNL     1      -3.032   0.035  -0.180  1.00  0.00    -0.045 A 
HETATM    4  C4  UNL     1      -1.935  -0.658   0.332  1.00  0.00     0.003 C 
HETATM    5  C5  UNL     1      -1.226  -1.624   1.207  1.00  0.00     0.115 C 
HETATM    6  N2  UNL     1      -1.635  -3.054   0.985  1.00  0.00    -0.239 NA
HETATM    7  C14 UNL     1      -2.752  -2.524   0.633  1.00  0.00     0.012 C 
HETATM    8  C15 UNL     1      -3.665  -2.066   0.344  1.00  0.00     0.072 C 
HETATM    9  O1  UNL     1      -4.866  -1.429  -0.038  1.00  0.00    -0.292 OA
HETATM   10  C16 UNL     1      -4.575   0.072   0.148  1.00  0.00     0.177 A 
HETATM   11  H14 UNL     1      -2.183  -3.897   0.750  1.00  0.00     0.138 HD
ENDROOT
BRANCH   5  12
HETATM   12  C6  UNL     1       0.236  -1.582   0.899  1.00  0.00     0.014 C 
HETATM   13  C7  UNL     1       1.081  -0.951   0.097  1.00  0.00     0.086 C 
BRANCH  13  14
HETATM   14  N1  UNL     1       2.485  -1.190   0.088  1.00  0.00    -0.366 N 
HETATM   15  H9  UNL     1       2.799  -2.184   0.051  1.00  0.00     0.165 HD
BRANCH  14  16
HETATM   16  C8  UNL     1       3.395  -0.121   0.127  1.00  0.00     0.033 A 
HETATM   17  C9  UNL     1       4.748  -0.390   0.116  1.00  0.00     0.029 A 
HETATM   18  C10 UNL     1       5.664   0.653   0.154  1.00  0.00     0.004 A 
HETATM   19  C11 UNL     1       5.203   1.969   0.202  1.00  0.00     0.019 A 
HETATM   20  C12 UNL     1       3.839   2.218   0.212  1.00  0.00     0.013 A 
HETATM   21 BR1  UNL     1       3.261   4.034   0.279  1.00  0.00    -0.051 Br
HETATM   22  C13 UNL     1       2.934   1.178   0.174  1.00  0.00     0.048 A 
ENDBRANCH  14  16
ENDBRANCH  13  14
ENDBRANCH   5  12
TORSDOF 3
