REMARK  6 active torsions:
REMARK  status: ('A' for Active; 'I' for Inactive)
REMARK    1  A    between atoms: O1_2  and  C2_3 
REMARK    2  A    between atoms: C5_6  and  O2_7 
REMARK    3  A    between atoms: C7_9  and  C8_10 
REMARK    4  A    between atoms: C8_10  and  C9_11 
REMARK    5  A    between atoms: C13_16  and  N2_17 
REMARK    6  A    between atoms: C14_19  and  N4_20 
ROOT
HETATM    1  C9  UNL     1       0.571  -0.439   1.612  1.00  0.00     0.012 A 
HETATM    2  C10 UNL     1       0.031  -0.614   0.416  1.00  0.00     0.015 A 
HETATM    3  C11 UNL     1      -1.429  -0.661   0.474  1.00  0.00     0.114 A 
HETATM    4  C12 UNL     1      -1.671  -0.451   1.947  1.00  0.00     0.135 A 
HETATM    5  N1  UNL     1      -2.752  -0.368   2.619  1.00  0.00    -0.049 NA
HETATM    6  C13 UNL     1      -4.145  -0.435   2.276  1.00  0.00     0.719 C 
HETATM    7  N3  UNL     1      -4.924  -0.441   1.254  1.00  0.00    -0.065 NA
HETATM    8  C14 UNL     1      -4.748  -0.379  -0.161  1.00  0.00     0.391 C 
HETATM    9  C15 UNL     1      -3.515   0.395  -0.555  1.00  0.00     0.004 A 
HETATM   10  C16 UNL     1      -3.965   1.438  -1.361  1.00  0.00     0.013 A 
HETATM   11  C17 UNL     1      -3.120   2.350  -1.905  1.00  0.00     0.024 A 
HETATM   12  C18 UNL     1      -1.765   2.280  -1.680  1.00  0.00     0.034 A 
HETATM   13 CL1  UNL     1      -0.616   3.420  -2.347  1.00  0.00    -0.084 Cl
HETATM   14  C19 UNL     1      -1.278   1.262  -0.887  1.00  0.00     0.032 A 
HETATM   15  C20 UNL     1      -2.140   0.334  -0.334  1.00  0.00    -0.031 A 
HETATM   16  N5  UNL     1      -0.425  -0.328   2.628  1.00  0.00    -0.346 N 
HETATM   17  H21 UNL     1      -0.308  -0.188   3.657  1.00  0.00     0.167 HD
ENDROOT
BRANCH   1  18
HETATM   18  C8  UNL     1       2.009  -0.341   1.968  1.00  0.00     0.098 C 
BRANCH  18  19
HETATM   19  C7  UNL     1       2.889  -0.463   0.772  1.00  0.00    -0.017 A 
HETATM   20  C5  UNL     1       2.983   0.656  -0.065  1.00  0.00     0.075 A 
HETATM   21  C4  UNL     1       3.796   0.589  -1.199  1.00  0.00     0.040 A 
HETATM   22  C3  UNL     1       4.459  -0.601  -1.414  1.00  0.00     0.039 A 
HETATM   23  C2  UNL     1       4.397  -1.727  -0.620  1.00  0.00     0.068 A 
HETATM   24  C21 UNL     1       3.590  -1.644   0.496  1.00  0.00     0.047 A 
BRANCH  20  25
HETATM   25  O2  UNL     1       2.281   1.812   0.229  1.00  0.00    -0.355 OA
HETATM   26  C6  UNL     1       2.393   2.929  -0.631  1.00  0.00     0.210 C 
ENDBRANCH  20  25
BRANCH  23  27
HETATM   27  O1  UNL     1       5.099  -2.888  -0.910  1.00  0.00    -0.356 OA
HETATM   28  C1  UNL     1       5.916  -2.906  -2.080  1.00  0.00     0.210 C 
ENDBRANCH  23  27
ENDBRANCH  18  19
ENDBRANCH   1  18
BRANCH   6  29
HETATM   29  N2  UNL     1      -4.951  -0.525   3.465  1.00  0.00    -0.231 N 
HETATM   30  H13 UNL     1      -5.932  -0.151   3.473  1.00  0.00     0.174 HD
HETATM   31  H14 UNL     1      -4.895  -0.874   4.440  1.00  0.00     0.174 HD
ENDBRANCH   6  29
BRANCH   8  32
HETATM   32  N4  UNL     1      -4.716  -1.713  -0.766  1.00  0.00     0.108 N 
HETATM   33  H16 UNL     1      -4.986  -2.395  -0.015  1.00  0.00     0.316 HD
HETATM   34  H17 UNL     1      -5.425  -1.794  -1.523  1.00  0.00     0.316 HD
ENDBRANCH   8  32
TORSDOF 6
