REMARK  4 active torsions:
REMARK  status: ('A' for Active; 'I' for Inactive)
REMARK    1  A    between atoms: O1_3  and  C2_4 
REMARK    2  A    between atoms: C6_10  and  N3_11 
REMARK    3  A    between atoms: N3_11  and  C7_12 
REMARK    4  A    between atoms: C14_20  and  O2_21 
ROOT
HETATM    1  C2  UNL     1       3.068  -0.960  -0.482  1.00  0.00    -0.013 A 
HETATM    2  C3  UNL     1       2.708  -2.182  -0.830  1.00  0.00     0.043 A 
HETATM    3  C4  UNL     1       1.262  -2.194  -0.825  1.00  0.00     0.071 A 
HETATM    4  N1  UNL     1       0.544  -3.301  -1.140  1.00  0.00    -0.241 NA
HETATM    5  C5  UNL     1      -0.797  -3.205  -1.107  1.00  0.00     0.235 A 
HETATM    6  N2  UNL     1      -1.333  -2.031  -0.767  1.00  0.00    -0.224 NA
HETATM    7  C6  UNL     1      -0.653  -0.930  -0.454  1.00  0.00     0.141 A 
HETATM    8  C13 UNL     1       0.737  -0.948  -0.465  1.00  0.00     0.050 A 
HETATM    9  C14 UNL     1       1.870  -0.062  -0.215  1.00  0.00     0.194 A 
ENDROOT
BRANCH   7  10
HETATM   10  N3  UNL     1      -1.276   0.290  -0.104  1.00  0.00    -0.340 N 
HETATM   11  H5  UNL     1      -0.661   1.112   0.119  1.00  0.00     0.167 HD
BRANCH  10  12
HETATM   12  C7  UNL     1      -2.655   0.589  -0.007  1.00  0.00     0.035 A 
HETATM   13  C8  UNL     1      -3.689  -0.287  -0.237  1.00  0.00     0.029 A 
HETATM   14  C9  UNL     1      -5.031   0.004  -0.143  1.00  0.00     0.004 A 
HETATM   15  C10 UNL     1      -5.401   1.277   0.211  1.00  0.00     0.019 A 
HETATM   16  C11 UNL     1      -4.417   2.203   0.456  1.00  0.00     0.013 A 
HETATM   17 BR1  UNL     1      -4.919   3.959   0.944  1.00  0.00    -0.051 Br
HETATM   18  C12 UNL     1      -3.103   1.845   0.343  1.00  0.00     0.048 A 
ENDBRANCH  10  12
ENDBRANCH   7  10
BRANCH   9  19
HETATM   19  O2  UNL     1       1.920   0.350   1.109  1.00  0.00    -0.381 OA
HETATM   20  C15 UNL     1       2.055   1.721   1.273  1.00  0.00     0.202 C 
ENDBRANCH   9  19
BRANCH   1  21
HETATM   21  O1  UNL     1       4.305  -0.400  -0.329  1.00  0.00     0.000 OA
HETATM   22  C1  UNL     1       4.925  -0.073   0.851  1.00  0.00    -0.111 A 
HETATM   23  B1  UNL     1       5.815  -0.001  -1.201  1.00  0.00     0.142 B 
HETATM   24  H1  UNL     1       7.824   0.729  -0.464  1.00  0.00    -0.031 HD
ENDBRANCH   1  21
TORSDOF 4
