REMARK  4 active torsions:
REMARK  status: ('A' for Active; 'I' for Inactive)
REMARK    1  A    between atoms: O1_2  and  C2_3 
REMARK    2  A    between atoms: C4_5  and  O2_6 
REMARK    3  A    between atoms: C8_12  and  N3_13 
REMARK    4  A    between atoms: N3_13  and  C9_14 
ROOT
HETATM    1  C2  UNL     1      -2.427   1.816   0.352  1.00  0.00     0.124 A 
HETATM    2  C3  UNL     1      -3.012   0.657  -0.062  1.00  0.00     0.080 A 
HETATM    3  C4  UNL     1      -3.167  -0.641  -0.497  1.00  0.00     0.089 A 
HETATM    4  C6  UNL     1      -1.946  -1.267  -0.635  1.00  0.00     0.099 A 
HETATM    5  N1  UNL     1      -1.610  -2.511  -1.025  1.00  0.00    -0.239 NA
HETATM    6  C7  UNL     1      -0.318  -2.880  -1.075  1.00  0.00     0.236 A 
HETATM    7  N2  UNL     1       0.642  -2.016  -0.737  1.00  0.00    -0.224 NA
HETATM    8  C8  UNL     1       0.405  -0.770  -0.340  1.00  0.00     0.139 A 
HETATM    9  C15 UNL     1      -0.921  -0.416  -0.298  1.00  0.00     0.034 A 
HETATM   10  C16 UNL     1      -1.558   0.758   0.053  1.00  0.00     0.063 A 
ENDROOT
BRANCH   8  11
HETATM   11  N3  UNL     1       1.375   0.197   0.032  1.00  0.00    -0.340 N 
HETATM   12  H8  UNL     1       1.031   1.156   0.328  1.00  0.00     0.167 HD
BRANCH  11  13
HETATM   13  C9  UNL     1       2.777   0.061   0.066  1.00  0.00     0.035 A 
HETATM   14  C10 UNL     1       3.610   1.115   0.458  1.00  0.00     0.029 A 
HETATM   15  C11 UNL     1       4.977   1.010   0.500  1.00  0.00     0.004 A 
HETATM   16  C12 UNL     1       5.613  -0.160   0.151  1.00  0.00     0.019 A 
HETATM   17  C13 UNL     1       4.843  -1.234  -0.244  1.00  0.00     0.013 A 
HETATM   18 BR1  UNL     1       5.708  -2.861  -0.731  1.00  0.00    -0.051 Br
HETATM   19  C14 UNL     1       3.474  -1.076  -0.269  1.00  0.00     0.048 A 
ENDBRANCH  11  13
ENDBRANCH   8  11
BRANCH   3  20
HETATM   20  O2  UNL     1      -4.374  -1.280  -0.775  1.00  0.00    -0.357 OA
HETATM   21  C5  UNL     1      -4.983  -1.967   0.315  1.00  0.00     0.209 C 
ENDBRANCH   3  20
BRANCH   1  22
HETATM   22  O1  UNL     1      -2.614   3.134   0.775  1.00  0.00    -0.379 OA
HETATM   23  C1  UNL     1      -2.648   4.205  -0.156  1.00  0.00     0.202 C 
ENDBRANCH   1  22
TORSDOF 4
