REMARK  3 active torsions:
REMARK  status: ('A' for Active; 'I' for Inactive)
REMARK    1  A    between atoms: O1_2  and  C2_3 
REMARK    2  A    between atoms: C6_9  and  N3_10 
REMARK    3  A    between atoms: N3_10  and  C7_11 
ROOT
HETATM    1  C2  UNL     1       4.031   0.465   0.363  1.00  0.00     0.070 A 
HETATM    2  C3  UNL     1       2.951   0.362   1.122  1.00  0.00     0.067 A 
HETATM    3  C4  UNL     1       1.881  -0.540   0.682  1.00  0.00     0.071 A 
HETATM    4  N1  UNL     1       1.011  -0.410   1.613  1.00  0.00    -0.243 NA
HETATM    5  C5  UNL     1      -0.283  -0.966   1.878  1.00  0.00     0.235 C 
HETATM    6  N2  UNL     1      -1.231  -1.348   1.068  1.00  0.00    -0.223 NA
HETATM    7  C6  UNL     1      -1.407  -1.388  -0.352  1.00  0.00     0.151 C 
HETATM    8  C13 UNL     1      -0.549  -1.280  -1.357  1.00  0.00     0.186 C 
HETATM    9  O2  UNL     1       0.809  -1.093  -1.382  1.00  0.00    -0.344 OA
HETATM   10  C14 UNL     1       1.924  -1.349  -0.561  1.00  0.00     0.202 A 
HETATM   11  C15 UNL     1       3.179  -1.134  -1.303  1.00  0.00     0.014 A 
HETATM   12  C16 UNL     1       4.139  -0.303  -0.874  1.00  0.00     0.035 A 
ENDROOT
BRANCH   7  13
HETATM   13  N3  UNL     1      -2.794  -1.582  -0.626  1.00  0.00    -0.339 N 
HETATM   14  H6  UNL     1      -3.262  -2.431  -1.013  1.00  0.00     0.167 HD
BRANCH  13  15
HETATM   15  C7  UNL     1      -3.613  -0.463  -0.326  1.00  0.00     0.035 A 
HETATM   16  C8  UNL     1      -3.085   0.704   0.189  1.00  0.00     0.029 A 
HETATM   17  C9  UNL     1      -3.885   1.799   0.483  1.00  0.00     0.004 A 
HETATM   18  C10 UNL     1      -5.246   1.742   0.264  1.00  0.00     0.019 A 
HETATM   19  C11 UNL     1      -5.828   0.590  -0.252  1.00  0.00     0.013 A 
HETATM   20 BR1  UNL     1      -7.695   0.428  -0.584  1.00  0.00    -0.051 Br
HETATM   21  C12 UNL     1      -4.980  -0.473  -0.527  1.00  0.00     0.048 A 
ENDBRANCH  13  15
ENDBRANCH   7  13
BRANCH   1  22
HETATM   22  O1  UNL     1       5.031   1.323   0.796  1.00  0.00    -0.356 OA
HETATM   23  C1  UNL     1       5.912   1.983  -0.079  1.00  0.00     0.210 C 
ENDBRANCH   1  22
TORSDOF 3
