REMARK  6 active torsions:
REMARK  status: ('A' for Active; 'I' for Inactive)
REMARK    1  A    between atoms: C2_2  and  C3_3 
REMARK    2  A    between atoms: C3_3  and  C4_4 
REMARK    3  A    between atoms: C4_4  and  C5_5 
REMARK    4  A    between atoms: C4_4  and  C7_7 
REMARK    5  A    between atoms: C7_7  and  N1_8 
REMARK       I    between atoms: N1_8  and  C8_9 
REMARK    6  A    between atoms: C8_9  and  C9_11 
ROOT
HETATM    1  C9  UNL     1       0.512   0.343  -0.632  1.00  0.00     0.122 C 
HETATM    2  C10 UNL     1       1.145   0.027  -1.747  1.00  0.00     0.022 C 
HETATM    3  C11 UNL     1       0.447  -0.131  -3.038  1.00  0.00     0.069 C 
HETATM    4  N2  UNL     1       2.595  -0.106  -1.685  1.00  0.00    -0.389 N 
HETATM    5  C12 UNL     1       3.281   1.184  -1.934  1.00  0.00     0.147 C 
HETATM    6  C13 UNL     1       4.528   1.215  -1.068  1.00  0.00    -0.007 C 
HETATM    7  C14 UNL     1       4.923   0.254  -0.267  1.00  0.00     0.011 C 
HETATM    8  C15 UNL     1       5.548  -0.655   0.673  1.00  0.00    -0.008 A 
HETATM    9  C16 UNL     1       6.734  -1.299   0.480  1.00  0.00     0.014 A 
HETATM   10  C17 UNL     1       7.209  -2.078   1.510  1.00  0.00     0.001 A 
HETATM   11  C18 UNL     1       6.428  -2.126   2.638  1.00  0.00     0.002 A 
HETATM   12  C19 UNL     1       5.232  -1.492   2.863  1.00  0.00     0.032 A 
HETATM   13  C20 UNL     1       4.762  -0.714   1.826  1.00  0.00     0.058 A 
HETATM   14  N3  UNL     1       3.487  -0.126   2.103  1.00  0.00    -0.297 N 
HETATM   15  N4  UNL     1       2.333   0.117   1.397  1.00  0.00    -0.265 N 
HETATM   16  C21 UNL     1       1.154   0.366   0.676  1.00  0.00     0.277 C 
HETATM   17  O2  UNL     1       0.750   0.702   1.802  1.00  0.00    -0.266 OA
HETATM   18  H20 UNL     1       2.488  -1.126  -1.489  1.00  0.00     0.159 HD
HETATM   19  H29 UNL     1       3.232   0.254   3.019  1.00  0.00     0.187 HD
HETATM   20  H30 UNL     1       2.686  -0.257   0.553  1.00  0.00     0.190 HD
ENDROOT
BRANCH   1  21
HETATM   21  C8  UNL     1      -0.854   0.591  -0.407  1.00  0.00     0.259 C 
HETATM   22  N1  UNL     1      -2.066   0.614  -1.071  1.00  0.00    -0.356 N 
HETATM   23  H16 UNL     1      -1.867   0.340  -2.064  1.00  0.00     0.162 HD
HETATM   24  O1  UNL     1      -1.357   0.920   0.700  1.00  0.00    -0.267 OA
BRANCH  22  25
HETATM   25  C7  UNL     1      -3.450   0.906  -0.676  1.00  0.00     0.127 C 
BRANCH  25  26
HETATM   26  C4  UNL     1      -3.961  -0.013   0.350  1.00  0.00     0.003 C 
BRANCH  26  27
HETATM   27  C3  UNL     1      -5.363   0.202   0.768  1.00  0.00     0.006 C 
BRANCH  27  28
HETATM   28  C2  UNL     1      -5.824   1.507   1.283  1.00  0.00    -0.004 C 
HETATM   29  C1  UNL     1      -5.788   2.660   0.332  1.00  0.00     0.005 C 
ENDBRANCH  27  28
ENDBRANCH  26  27
BRANCH  26  30
HETATM   30  C5  UNL     1      -3.807  -1.484  -0.133  1.00  0.00     0.002 C 
HETATM   31  C6  UNL     1      -4.733  -1.748  -1.292  1.00  0.00     0.005 C 
ENDBRANCH  26  30
ENDBRANCH  25  26
ENDBRANCH  22  25
ENDBRANCH   1  21
TORSDOF 6
