REMARK  3 active torsions:
REMARK  status: ('A' for Active; 'I' for Inactive)
REMARK    1  A    between atoms: C2_2  and  N1_3 
REMARK    2  A    between atoms: C6_8  and  C7_9 
REMARK    3  A    between atoms: C6_8  and  C9_11 
ROOT
HETATM    1  N1  UNL     1       3.715  -0.746  -0.108  1.00  0.00     0.093 N 
HETATM    2  C3  UNL     1       2.967  -0.484   1.069  1.00  0.00     0.301 C 
HETATM    3  C4  UNL     1       2.106  -1.618   1.406  1.00  0.00     0.020 C 
HETATM    4  C5  UNL     1       0.863  -2.063   1.551  1.00  0.00     0.081 C 
HETATM    5  N2  UNL     1      -0.231  -1.196   1.308  1.00  0.00    -0.388 N 
HETATM    6  C6  UNL     1      -1.365  -0.245   1.104  1.00  0.00     0.057 C 
HETATM    7  C17 UNL     1      -0.802   1.086   0.845  1.00  0.00     0.103 C 
HETATM    8  C18 UNL     1       0.013   1.642   1.994  1.00  0.00     0.022 C 
HETATM    9  C19 UNL     1       0.045   1.235  -0.354  1.00  0.00     0.224 C 
HETATM   10  O2  UNL     1       0.042   2.074  -1.293  1.00  0.00    -0.273 OA
HETATM   11  N4  UNL     1       1.133   0.681  -1.054  1.00  0.00    -0.359 N 
HETATM   12  C20 UNL     1       2.206   0.233  -1.854  1.00  0.00     0.152 C 
HETATM   13  C21 UNL     1       2.953  -0.944  -1.294  1.00  0.00     0.292 C 
HETATM   14  H10 UNL     1      -0.309  -1.864   0.523  1.00  0.00     0.159 HD
HETATM   15  H25 UNL     1       0.966  -0.050  -0.378  1.00  0.00     0.162 HD
ENDROOT
BRANCH   6  16
HETATM   16  C7  UNL     1      -2.006  -0.363   2.488  1.00  0.00     0.028 C 
HETATM   17  C8  UNL     1      -3.174   0.439   2.817  1.00  0.00     0.007 C 
ENDBRANCH   6  16
BRANCH   6  18
HETATM   18  C9  UNL     1      -2.321  -0.805   0.087  1.00  0.00     0.142 C 
HETATM   19  C10 UNL     1      -1.562  -1.253  -1.149  1.00  0.00     0.233 C 
HETATM   20  O1  UNL     1      -0.824  -2.258  -1.502  1.00  0.00    -0.272 OA
HETATM   21  N3  UNL     1      -1.696  -0.307  -2.235  1.00  0.00    -0.326 N 
HETATM   22  C11 UNL     1      -2.766   0.567  -1.793  1.00  0.00     0.042 A 
HETATM   23  H17 UNL     1      -1.150  -0.254  -3.137  1.00  0.00     0.169 HD
HETATM   24  C12 UNL     1      -3.324   1.537  -2.640  1.00  0.00     0.033 A 
HETATM   25  C16 UNL     1      -3.231   0.190  -0.530  1.00  0.00    -0.013 A 
HETATM   26  C13 UNL     1      -4.450   2.197  -2.213  1.00  0.00     0.044 A 
HETATM   27  C14 UNL     1      -4.966   1.871  -0.985  1.00  0.00     0.117 A 
HETATM   28  F1  UNL     1      -6.081   2.552  -0.619  1.00  0.00    -0.206 F 
HETATM   29  C15 UNL     1      -4.354   0.922  -0.238  1.00  0.00     0.052 A 
ENDBRANCH   6  18
BRANCH   1  30
HETATM   30  C2  UNL     1       4.817   0.183  -0.344  1.00  0.00     0.268 C 
HETATM   31  C1  UNL     1       5.574  -0.203  -1.569  1.00  0.00     0.037 C 
ENDBRANCH   1  30
TORSDOF 3
