REMARK  1 active torsions:
REMARK  status: ('A' for Active; 'I' for Inactive)
REMARK       I    between atoms: C3_4  and  N2_5 
REMARK    1  A    between atoms: C6_9  and  C7_10 
ROOT
HETATM    1  C1  UNL     1      -2.046   1.618  -2.087  1.00  0.00     0.062 C 
HETATM    2  C2  UNL     1      -1.651   1.267  -0.884  1.00  0.00     0.038 C 
HETATM    3  N1  UNL     1      -0.399   1.692  -0.406  1.00  0.00    -0.072 NA
HETATM    4  C3  UNL     1       0.595   1.694  -1.209  1.00  0.00     0.720 C 
HETATM    5  N2  UNL     1       0.728   1.332  -2.602  1.00  0.00    -0.231 N 
HETATM    6  N3  UNL     1       1.457   2.148  -0.140  1.00  0.00    -0.073 NA
HETATM    7  C4  UNL     1       1.833   1.268   0.772  1.00  0.00     0.168 C 
HETATM    8  C5  UNL     1       1.224  -0.041   0.430  1.00  0.00     0.080 A 
HETATM    9  C6  UNL     1       2.035  -0.993  -0.208  1.00  0.00     0.075 A 
HETATM   10  N4  UNL     1       1.284  -2.117  -0.441  1.00  0.00    -0.245 NA
HETATM   11  C12 UNL     1       0.077  -1.801   0.057  1.00  0.00     0.210 A 
HETATM   12  N5  UNL     1      -0.017  -0.574   0.591  1.00  0.00    -0.333 N 
HETATM   13  C13 UNL     1      -1.226  -0.094   1.181  1.00  0.00     0.100 C 
HETATM   14  C14 UNL     1      -1.960  -1.170   1.987  1.00  0.00     0.026 C 
HETATM   15  C15 UNL     1      -3.432  -0.824   2.075  1.00  0.00     0.002 C 
HETATM   16  C16 UNL     1      -4.076  -0.965   0.739  1.00  0.00     0.001 C 
HETATM   17  C17 UNL     1      -3.150  -0.554  -0.379  1.00  0.00     0.013 C 
HETATM   18  C18 UNL     1      -2.191   0.475   0.210  1.00  0.00     0.057 C 
HETATM   19  H3  UNL     1       0.539   2.341  -2.786  1.00  0.00     0.174 HD
HETATM   20  H4  UNL     1       0.932   0.384  -3.017  1.00  0.00     0.174 HD
ENDROOT
BRANCH   9  21
HETATM   21  C7  UNL     1       3.474  -0.864  -0.575  1.00  0.00     0.088 A 
HETATM   22  C8  UNL     1       3.824   0.411  -1.203  1.00  0.00    -0.009 A 
HETATM   23  C9  UNL     1       4.717   1.110  -0.485  1.00  0.00     0.039 A 
HETATM   24  C10 UNL     1       5.025   0.309   0.711  1.00  0.00     0.113 A 
HETATM   25  F1  UNL     1       5.893   0.680   1.691  1.00  0.00    -0.206 F 
HETATM   26  C11 UNL     1       4.324  -0.812   0.668  1.00  0.00     0.030 A 
ENDBRANCH   9  21
TORSDOF 1
