REMARK  0 active torsions:
REMARK  status: ('A' for Active; 'I' for Inactive)
ROOT
HETATM    1  C1  UNL     1       0.339   4.015   1.767  1.00  0.00     0.017 C 
HETATM    2  C2  UNL     1       0.804   2.872   0.856  1.00  0.00    -0.018 C 
HETATM    3  C3  UNL     1       0.301   1.903   0.060  1.00  0.00     0.056 C 
HETATM    4  C4  UNL     1      -0.796   1.141  -0.584  1.00  0.00     0.028 C 
HETATM    5  C5  UNL     1      -1.281   1.749  -1.706  1.00  0.00     0.100 C 
HETATM    6  C6  UNL     1      -2.348   1.419  -2.690  1.00  0.00     0.247 C 
HETATM    7  O1  UNL     1      -2.168   1.725  -3.882  1.00  0.00    -0.268 OA
HETATM    8  N1  UNL     1      -3.537   0.771  -2.249  1.00  0.00    -0.322 N 
HETATM    9  C7  UNL     1      -3.794   0.053  -1.019  1.00  0.00     0.062 A 
HETATM   10  C8  UNL     1      -5.109  -0.262  -0.769  1.00  0.00     0.035 A 
HETATM   11  C9  UNL     1      -5.346  -0.940   0.404  1.00  0.00     0.044 A 
HETATM   12  C10 UNL     1      -4.424  -1.326   1.333  1.00  0.00     0.118 A 
HETATM   13  F1  UNL     1      -4.809  -1.993   2.448  1.00  0.00    -0.206 F 
HETATM   14  C11 UNL     1      -3.062  -1.018   1.108  1.00  0.00     0.074 A 
HETATM   15  C12 UNL     1      -2.807  -0.329  -0.085  1.00  0.00     0.069 A 
HETATM   16  N2  UNL     1      -1.379  -0.110  -0.162  1.00  0.00    -0.317 N 
HETATM   17  C13 UNL     1      -0.810  -1.389   0.272  1.00  0.00     0.009 C 
HETATM   18  C14 UNL     1      -1.603  -2.603   0.270  1.00  0.00     0.068 C 
HETATM   19  C15 UNL     1       0.358  -1.856   0.652  1.00  0.00    -0.002 C 
HETATM   20  C16 UNL     1       1.500  -2.637   1.103  1.00  0.00     0.029 C 
HETATM   21  C17 UNL     1       2.421  -3.033   0.008  1.00  0.00     0.004 C 
HETATM   22  C18 UNL     1       2.880  -1.932  -0.877  1.00  0.00     0.002 C 
HETATM   23  C19 UNL     1       3.517  -0.830  -0.123  1.00  0.00     0.020 C 
HETATM   24  C20 UNL     1       4.048   0.262  -1.045  1.00  0.00     0.122 C 
HETATM   25  N3  UNL     1       4.231   1.455  -0.256  1.00  0.00    -0.361 N 
HETATM   26  C21 UNL     1       3.008   2.000   0.226  1.00  0.00     0.218 C 
HETATM   27  O2  UNL     1       2.238   1.184  -0.292  1.00  0.00    -0.274 OA
HETATM   28  C22 UNL     1       2.257   3.011   1.001  1.00  0.00     0.113 C 
HETATM   29  H6  UNL     1      -4.346   0.811  -2.895  1.00  0.00     0.169 HD
HETATM   30  H24 UNL     1       4.691   2.241   0.231  1.00  0.00     0.162 HD
ENDROOT
TORSDOF 0
