REMARK  8 active torsions:
REMARK  status: ('A' for Active; 'I' for Inactive)
REMARK    1  A    between atoms: C2_2  and  N1_3 
REMARK    2  A    between atoms: N1_3  and  C3_4 
REMARK    3  A    between atoms: N1_3  and  C5_6 
REMARK    4  A    between atoms: C5_6  and  C6_7 
REMARK    5  A    between atoms: C6_7  and  N2_8 
REMARK       I    between atoms: N2_8  and  C7_9 
REMARK    6  A    between atoms: C7_9  and  C8_11 
REMARK    7  A    between atoms: C8_11  and  C10_13 
REMARK    8  A    between atoms: C12_15  and  C13_16 
ROOT
HETATM    1  C8  UNL     1       0.252  -2.061   0.825  1.00  0.00     0.102 C 
HETATM    2  C9  UNL     1       0.748  -1.732   2.214  1.00  0.00     0.025 C 
ENDROOT
BRANCH   1   3
HETATM    3  C7  UNL     1       0.916  -1.158  -0.130  1.00  0.00     0.225 C 
HETATM    4  N2  UNL     1       0.830   0.279  -0.030  1.00  0.00    -0.359 N 
HETATM    5  H15 UNL     1       0.236   0.574   0.804  1.00  0.00     0.162 HD
HETATM    6  O1  UNL     1       1.604  -1.584  -1.096  1.00  0.00    -0.273 OA
BRANCH   4   7
HETATM    7  C6  UNL     1       1.432   1.255  -0.893  1.00  0.00     0.152 C 
BRANCH   7   8
HETATM    8  C5  UNL     1       2.940   1.132  -0.908  1.00  0.00     0.292 C 
BRANCH   8   9
HETATM    9  N1  UNL     1       3.542   1.307   0.366  1.00  0.00     0.089 N 
BRANCH   9  10
HETATM   10  C2  UNL     1       3.492   2.604   0.933  1.00  0.00     0.268 C 
HETATM   11  C1  UNL     1       4.260   3.655   0.186  1.00  0.00     0.037 C 
ENDBRANCH   9  10
BRANCH   9  12
HETATM   12  C3  UNL     1       4.836   0.675   0.432  1.00  0.00     0.268 C 
HETATM   13  C4  UNL     1       5.201   0.346   1.852  1.00  0.00     0.037 C 
ENDBRANCH   9  12
ENDBRANCH   8   9
ENDBRANCH   7   8
ENDBRANCH   4   7
ENDBRANCH   1   3
BRANCH   1  14
HETATM   14  C10 UNL     1      -1.193  -2.174   0.694  1.00  0.00    -0.071 C 
HETATM   15  C11 UNL     1      -1.821  -3.224   1.539  1.00  0.00     0.044 C 
HETATM   16  C12 UNL     1      -2.057  -1.525  -0.033  1.00  0.00     0.004 C 
BRANCH  16  17
HETATM   17  C13 UNL     1      -3.499  -1.714  -0.096  1.00  0.00     0.006 C 
HETATM   18  C14 UNL     1      -4.238  -0.969  -0.892  1.00  0.00    -0.049 C 
HETATM   19  C15 UNL     1      -5.711  -1.077  -1.033  1.00  0.00     0.139 C 
HETATM   20  C17 UNL     1      -3.857   0.120  -1.817  1.00  0.00     0.110 C 
HETATM   21  C16 UNL     1      -5.895  -0.635  -2.460  1.00  0.00     0.222 C 
HETATM   22  O2  UNL     1      -6.998  -0.718  -3.080  1.00  0.00    -0.273 OA
HETATM   23  N3  UNL     1      -4.673  -0.121  -3.005  1.00  0.00    -0.353 N 
HETATM   24  H27 UNL     1      -4.442   0.035  -4.011  1.00  0.00     0.163 HD
HETATM   25  C18 UNL     1      -4.275   1.440  -1.229  1.00  0.00     0.037 C 
ENDBRANCH  16  17
ENDBRANCH   1  14
TORSDOF 8
