REMARK  4 active torsions:
REMARK  status: ('A' for Active; 'I' for Inactive)
REMARK    1  A    between atoms: O1_2  and  C2_3 
REMARK    2  A    between atoms: C2_3  and  C3_4 
REMARK    3  A    between atoms: C3_4  and  O2_5 
REMARK    4  A    between atoms: O2_5  and  C4_6 
ROOT
HETATM    1  C4  UNL     1       1.294  -0.974  -0.801  1.00  0.00     0.102 A 
HETATM    2  C5  UNL     1       0.965  -1.427   0.449  1.00  0.00     0.052 A 
HETATM    3  C6  UNL     1      -0.150  -2.139   0.686  1.00  0.00    -0.018 A 
HETATM    4  C7  UNL     1      -1.117  -2.564  -0.171  1.00  0.00    -0.027 A 
HETATM    5  C8  UNL     1      -0.782  -2.094  -1.436  1.00  0.00     0.049 A 
HETATM    6  C9  UNL     1       0.324  -1.342  -1.776  1.00  0.00     0.102 A 
HETATM    7  O3  UNL     1       0.581  -0.844  -3.094  1.00  0.00    -0.346 OA
HETATM    8  C10 UNL     1      -0.374   0.248  -3.464  1.00  0.00     0.202 C 
HETATM    9  C11 UNL     1      -0.285   1.290  -2.371  1.00  0.00     0.194 C 
HETATM   10  O4  UNL     1      -1.131   2.387  -2.501  1.00  0.00    -0.385 OA
HETATM   11  C12 UNL     1      -0.963   3.118  -1.214  1.00  0.00     0.195 C 
HETATM   12  C13 UNL     1      -1.233   1.968  -0.270  1.00  0.00    -0.000 C 
HETATM   13  C14 UNL     1      -0.612   1.308   0.668  1.00  0.00     0.004 C 
HETATM   14  C15 UNL     1      -1.091   0.152   1.464  1.00  0.00    -0.066 C 
HETATM   15  C16 UNL     1      -2.504   0.049   1.050  1.00  0.00     0.048 C 
HETATM   16  C17 UNL     1      -0.014  -0.176   2.201  1.00  0.00    -0.015 C 
HETATM   17  C18 UNL     1      -0.118  -1.410   3.108  1.00  0.00     0.068 C 
HETATM   18  C19 UNL     1      -0.737  -2.407   2.040  1.00  0.00    -0.029 C 
HETATM   19  C20 UNL     1      -1.819  -2.930   2.522  1.00  0.00     0.091 C 
HETATM   20  N1  UNL     1      -2.537  -3.570   1.435  1.00  0.00    -0.394 N 
HETATM   21  C21 UNL     1      -2.326  -3.364   0.035  1.00  0.00     0.158 C 
HETATM   22  H25 UNL     1      -3.298  -4.261   1.668  1.00  0.00     0.159 HD
ENDROOT
BRANCH   1  23
HETATM   23  O2  UNL     1       2.328  -0.283  -1.298  1.00  0.00    -0.346 OA
BRANCH  23  24
HETATM   24  C3  UNL     1       3.483   0.244  -0.824  1.00  0.00     0.201 C 
BRANCH  24  25
HETATM   25  C2  UNL     1       3.354   1.338   0.177  1.00  0.00     0.193 C 
BRANCH  25  26
HETATM   26  O1  UNL     1       2.673   2.409  -0.418  1.00  0.00    -0.394 OA
HETATM   27  C1  UNL     1       2.606   3.489   0.469  1.00  0.00     0.201 C 
ENDBRANCH  25  26
ENDBRANCH  24  25
ENDBRANCH  23  24
ENDBRANCH   1  23
TORSDOF 4
