REMARK  5 active torsions:
REMARK  status: ('A' for Active; 'I' for Inactive)
REMARK    1  A    between atoms: N1_1  and  C1_2 
REMARK    2  A    between atoms: C5_8  and  C6_9 
REMARK    3  A    between atoms: C6_9  and  N4_18 
REMARK    4  A    between atoms: C7_10  and  C8_11 
REMARK    5  A    between atoms: N4_18  and  P1_19 
ROOT
HETATM    1  C1  UNL     1       0.691  -3.967  -0.638  1.00  0.00     0.720 A 
HETATM    2  N2  UNL     1       1.980  -4.232  -0.347  1.00  0.00    -0.075 NA
HETATM    3  C2  UNL     1       2.710  -3.156   0.005  1.00  0.00     0.145 A 
HETATM    4  C3  UNL     1       2.126  -1.906   0.047  1.00  0.00    -0.008 A 
HETATM    5  C4  UNL     1       0.814  -1.640  -0.249  1.00  0.00     0.112 A 
HETATM    6  N3  UNL     1       0.149  -2.740  -0.589  1.00  0.00    -0.060 NA
HETATM    7  C5  UNL     1       0.180  -0.362  -0.210  1.00  0.00     0.087 C 
HETATM    8  N5  UNL     1       0.599   0.967  -0.327  1.00  0.00    -0.386 N 
HETATM    9  C13 UNL     1       0.993   2.229   0.093  1.00  0.00     0.120 C 
HETATM   10  C14 UNL     1       2.270   2.578   0.736  1.00  0.00     0.020 C 
HETATM   11  C15 UNL     1       3.518   2.438  -0.015  1.00  0.00     0.002 C 
HETATM   12  C16 UNL     1       4.237   1.202  -0.261  1.00  0.00     0.000 C 
HETATM   13  C17 UNL     1       3.559  -0.027  -0.744  1.00  0.00     0.005 C 
HETATM   14  C18 UNL     1       2.884  -0.671   0.420  1.00  0.00     0.042 C 
HETATM   15  H10 UNL     1       0.556   0.755  -1.377  1.00  0.00     0.159 HD
ENDROOT
BRANCH   7  16
HETATM   16  C6  UNL     1      -1.158  -0.419  -0.009  1.00  0.00     0.085 C 
HETATM   17  C7  UNL     1      -2.120   0.626   0.090  1.00  0.00     0.045 C 
BRANCH  17  18
HETATM   18  C8  UNL     1      -3.361   0.888   0.428  1.00  0.00    -0.034 A 
HETATM   19  C9  UNL     1      -4.210  -0.186   0.910  1.00  0.00    -0.004 A 
HETATM   20  C10 UNL     1      -5.462   0.062   1.218  1.00  0.00    -0.074 A 
HETATM   21  B1  UNL     1      -6.029   1.502   1.067  1.00  0.00     0.256 B 
HETATM   22  C11 UNL     1      -5.057   2.615   0.542  1.00  0.00     0.048 A 
HETATM   23  H7  UNL     1      -7.201   1.682   0.893  1.00  0.00    -0.014 HD
HETATM   24  F1  UNL     1      -5.494   3.879   0.392  1.00  0.00    -0.225 F 
HETATM   25  C12 UNL     1      -3.837   2.253   0.268  1.00  0.00     0.036 A 
ENDBRANCH  17  18
BRANCH  16  26
HETATM   26  N4  UNL     1      -1.913  -1.658   0.065  1.00  0.00    -0.256 NA
BRANCH  26  27
HETATM   27  P1  UNL     1      -2.546  -2.072  -1.421  1.00  0.00     0.047 P 
HETATM   28  H9  UNL     1      -3.339  -3.271  -1.591  1.00  0.00     0.088 HD
ENDBRANCH  26  27
ENDBRANCH  16  26
ENDBRANCH   7  16
BRANCH   1  29
HETATM   29  N1  UNL     1      -0.224  -5.007  -1.029  1.00  0.00    -0.231 N 
HETATM   30  H1  UNL     1      -0.071  -5.176  -2.057  1.00  0.00     0.174 HD
HETATM   31  H2  UNL     1      -0.710  -5.211  -0.123  1.00  0.00     0.174 HD
ENDBRANCH   1  29
TORSDOF 5
