REMARK  2 active torsions:
REMARK  status: ('A' for Active; 'I' for Inactive)
REMARK    1  A    between atoms: C6_7  and  N1_8 
REMARK    2  A    between atoms: C8_11  and  C9_12 
ROOT
HETATM    1  N1  UNL     1      -0.964  -1.025  -0.630  1.00  0.00    -0.358 N 
HETATM    2  C7  UNL     1       0.381  -0.757  -1.108  1.00  0.00     0.208 C 
HETATM    3  N2  UNL     1       1.015  -0.794  -0.017  1.00  0.00    -0.223 NA
HETATM    4  C8  UNL     1       2.409  -0.600   0.155  1.00  0.00     0.179 C 
HETATM    5  N3  UNL     1       2.593  -1.703   0.800  1.00  0.00    -0.040 NA
HETATM    6  C15 UNL     1       1.384  -2.473   0.983  1.00  0.00     0.749 C 
HETATM    7  N4  UNL     1       0.638  -2.504   2.064  1.00  0.00    -0.073 NA
HETATM    8  C16 UNL     1      -0.803  -2.386   2.043  1.00  0.00     0.135 C 
HETATM    9  C17 UNL     1      -1.653  -2.582   1.020  1.00  0.00     0.023 C 
HETATM   10  C18 UNL     1      -1.343  -2.386  -0.444  1.00  0.00     0.151 C 
HETATM   11  C19 UNL     1      -0.185  -3.321  -0.716  1.00  0.00     0.138 C 
HETATM   12  N5  UNL     1       1.008  -3.263  -0.168  1.00  0.00    -0.075 NA
ENDROOT
BRANCH   1  13
HETATM   13  C6  UNL     1      -1.650   0.172  -0.438  1.00  0.00     0.080 C 
HETATM   14  C2  UNL     1      -3.052   0.200   0.029  1.00  0.00    -0.039 C 
HETATM   15  C1  UNL     1      -4.030  -0.696  -0.639  1.00  0.00     0.001 C 
HETATM   16  B1  UNL     1      -3.592   1.688  -0.268  1.00  0.00     0.162 B 
HETATM   17  C3  UNL     1      -2.555   2.823   0.132  1.00  0.00    -0.052 C 
HETATM   18  H5  UNL     1      -4.271   1.937  -1.210  1.00  0.00    -0.026 HD
HETATM   19  C4  UNL     1      -1.728   2.107   1.202  1.00  0.00    -0.008 C 
HETATM   20  C5  UNL     1      -0.852   1.064   0.518  1.00  0.00     0.024 C 
ENDBRANCH   1  13
BRANCH   4  21
HETATM   21  C9  UNL     1       3.429   0.382  -0.183  1.00  0.00     0.013 A 
HETATM   22  C10 UNL     1       4.686   0.055   0.250  1.00  0.00     0.018 A 
HETATM   23  C11 UNL     1       5.665   1.001  -0.077  1.00  0.00     0.043 A 
HETATM   24  C12 UNL     1       5.369   2.170  -0.782  1.00  0.00     0.116 A 
HETATM   25  F1  UNL     1       6.350   3.063  -1.079  1.00  0.00    -0.206 F 
HETATM   26  C13 UNL     1       4.061   2.391  -1.166  1.00  0.00     0.043 A 
HETATM   27  C14 UNL     1       3.032   1.501  -0.881  1.00  0.00     0.018 A 
ENDBRANCH   4  21
TORSDOF 2
