REMARK  7 active torsions:
REMARK  status: ('A' for Active; 'I' for Inactive)
REMARK    1  A    between atoms: C2_2  and  N1_3 
REMARK    2  A    between atoms: N1_3  and  C3_4 
REMARK    3  A    between atoms: C3_4  and  C15_20 
REMARK    4  A    between atoms: C4_5  and  N2_6 
REMARK    5  A    between atoms: C4_5  and  C11_13 
REMARK    6  A    between atoms: N2_6  and  C5_7 
REMARK    7  A    between atoms: C14_17  and  N4_18 
ROOT
HETATM    1  C3  UNL     1       0.814  -0.768  -0.240  1.00  0.00     0.105 C 
HETATM    2  C4  UNL     1       0.167   0.357   0.112  1.00  0.00     0.088 C 
ENDROOT
BRANCH   2   3
HETATM    3  N2  UNL     1      -1.210   0.468  -0.190  1.00  0.00    -0.381 N 
HETATM    4  H3  UNL     1      -1.601   1.446  -0.009  1.00  0.00     0.160 HD
BRANCH   3   5
HETATM    5  C5  UNL     1      -2.302  -0.311  -0.673  1.00  0.00     0.085 C 
HETATM    6  C6  UNL     1      -2.655  -1.487   0.182  1.00  0.00     0.025 C 
HETATM    7  C7  UNL     1      -4.063  -1.280   0.721  1.00  0.00     0.002 C 
HETATM    8  C8  UNL     1      -4.386   0.160   0.400  1.00  0.00     0.006 C 
HETATM    9  C9  UNL     1      -3.582   0.438  -0.870  1.00  0.00     0.004 C 
HETATM   10  C10 UNL     1      -3.439   1.922  -0.991  1.00  0.00     0.012 C 
ENDBRANCH   3   5
ENDBRANCH   2   3
BRANCH   2  11
HETATM   11  C11 UNL     1       0.777   1.503   0.807  1.00  0.00     0.106 A 
HETATM   12  C12 UNL     1      -0.021   2.139   1.773  1.00  0.00     0.054 A 
HETATM   13  C13 UNL     1       0.362   3.226   2.516  1.00  0.00     0.139 A 
HETATM   14  N3  UNL     1       1.600   3.720   2.299  1.00  0.00    -0.075 NA
HETATM   15  C14 UNL     1       2.393   3.124   1.371  1.00  0.00     0.720 A 
HETATM   16  N5  UNL     1       1.978   2.070   0.674  1.00  0.00    -0.061 NA
BRANCH  15  17
HETATM   17  N4  UNL     1       3.698   3.574   1.084  1.00  0.00    -0.231 N 
HETATM   18  H17 UNL     1       4.708   3.466   1.294  1.00  0.00     0.174 HD
HETATM   19  H18 UNL     1       3.774   4.344   0.363  1.00  0.00     0.174 HD
ENDBRANCH  15  17
ENDBRANCH   2  11
BRANCH   1  20
HETATM   20  N1  UNL     1      -0.021  -1.717  -0.891  1.00  0.00    -0.208 NA
BRANCH  20  21
HETATM   21  C2  UNL     1       0.384  -2.296  -1.975  1.00  0.00    -0.043 C 
HETATM   22  C1  UNL     1       0.894  -2.531  -3.178  1.00  0.00     0.119 C 
ENDBRANCH  20  21
ENDBRANCH   1  20
BRANCH   1  23
HETATM   23  C15 UNL     1       2.177  -1.257  -0.157  1.00  0.00    -0.004 A 
HETATM   24  C16 UNL     1       2.377  -2.512   0.384  1.00  0.00     0.017 A 
HETATM   25  C17 UNL     1       3.595  -3.139   0.525  1.00  0.00     0.043 A 
HETATM   26  C18 UNL     1       4.665  -2.419   0.077  1.00  0.00     0.116 A 
HETATM   27  F1  UNL     1       5.895  -2.987   0.190  1.00  0.00    -0.206 F 
HETATM   28  C19 UNL     1       4.584  -1.173  -0.475  1.00  0.00     0.043 A 
HETATM   29  C20 UNL     1       3.328  -0.625  -0.576  1.00  0.00     0.017 A 
ENDBRANCH   1  23
TORSDOF 7
