REMARK  5 active torsions:
REMARK  status: ('A' for Active; 'I' for Inactive)
REMARK    1  A    between atoms: O1_1  and  C1_2 
REMARK    2  A    between atoms: C3_4  and  O2_5 
REMARK    3  A    between atoms: O2_5  and  C4_6 
REMARK    4  A    between atoms: C10_13  and  N2_14 
REMARK    5  A    between atoms: N2_14  and  C11_15 
ROOT
HETATM    1  C1  UNL     1      -1.675   3.382   1.275  1.00  0.00     0.070 A 
HETATM    2  C2  UNL     1      -1.787   2.070   0.829  1.00  0.00     0.074 A 
HETATM    3  C3  UNL     1      -0.750   1.224   0.499  1.00  0.00     0.088 A 
HETATM    4  C9  UNL     1       0.499   1.788   0.646  1.00  0.00     0.072 A 
HETATM    5  C10 UNL     1       1.641   1.107   0.374  1.00  0.00     0.144 A 
HETATM    6  N3  UNL     1       2.839   1.685   0.529  1.00  0.00    -0.223 NA
HETATM    7  C17 UNL     1       2.972   2.944   0.954  1.00  0.00     0.236 A 
HETATM    8  N4  UNL     1       1.874   3.665   1.240  1.00  0.00    -0.241 NA
HETATM    9  C18 UNL     1       0.672   3.081   1.083  1.00  0.00     0.077 A 
HETATM   10  C19 UNL     1      -0.393   3.888   1.400  1.00  0.00     0.069 A 
ENDROOT
BRANCH   5  11
HETATM   11  N2  UNL     1       1.651  -0.237  -0.059  1.00  0.00    -0.340 N 
HETATM   12  H13 UNL     1       0.997  -1.019  -0.246  1.00  0.00     0.167 HD
BRANCH  11  13
HETATM   13  C11 UNL     1       2.865  -0.926  -0.404  1.00  0.00     0.035 A 
HETATM   14  C12 UNL     1       3.842  -0.181  -1.068  1.00  0.00     0.032 A 
HETATM   15  C13 UNL     1       5.059  -0.729  -1.424  1.00  0.00     0.046 A 
HETATM   16  C14 UNL     1       5.356  -2.030  -1.140  1.00  0.00     0.138 A 
HETATM   17  F1  UNL     1       6.519  -2.650  -1.450  1.00  0.00    -0.204 F 
HETATM   18  C15 UNL     1       4.423  -2.802  -0.488  1.00  0.00     0.074 A 
HETATM   19 CL1  UNL     1       4.630  -4.477  -0.046  1.00  0.00    -0.081 Cl
HETATM   20  C16 UNL     1       3.226  -2.249  -0.141  1.00  0.00     0.056 A 
ENDBRANCH  11  13
ENDBRANCH   5  11
BRANCH   3  21
HETATM   21  O2  UNL     1      -0.892  -0.032   0.070  1.00  0.00    -0.345 OA
BRANCH  21  22
HETATM   22  C4  UNL     1      -1.917  -0.880  -0.222  1.00  0.00     0.132 C 
HETATM   23  C5  UNL     1      -2.916  -0.414  -1.259  1.00  0.00     0.051 C 
HETATM   24  C6  UNL     1      -3.734  -1.608  -1.687  1.00  0.00     0.116 C 
HETATM   25  N1  UNL     1      -3.884  -2.610  -0.694  1.00  0.00    -0.421 N 
HETATM   26  C7  UNL     1      -3.834  -2.175   0.676  1.00  0.00     0.116 C 
HETATM   27  H8  UNL     1      -3.393  -3.507  -0.869  1.00  0.00     0.153 HD
HETATM   28  C8  UNL     1      -2.609  -1.352   1.015  1.00  0.00     0.051 C 
ENDBRANCH  21  22
ENDBRANCH   3  21
BRANCH   1  29
HETATM   29  O1  UNL     1      -2.771   4.170   1.586  1.00  0.00    -0.361 OA
HETATM   30  H1  UNL     1      -2.822   5.113   1.207  1.00  0.00     0.217 HD
ENDBRANCH   1  29
TORSDOF 5
