REMARK  4 active torsions:
REMARK  status: ('A' for Active; 'I' for Inactive)
REMARK       I    between atoms: N1_2  and  C2_3 
REMARK       I    between atoms: C2_3  and  N2_4 
REMARK    1  A    between atoms: N3_5  and  C3_6 
REMARK    2  A    between atoms: C3_6  and  C4_7 
REMARK    3  A    between atoms: C4_7  and  C5_8 
REMARK    4  A    between atoms: C5_8  and  C6_9 
ROOT
HETATM    1  C5  UNL     1      -0.216   0.293   0.260  1.00  0.00     0.279 C 
HETATM    2  N4  UNL     1      -0.756  -0.371   1.386  1.00  0.00    -0.249 NA
HETATM    3  C12 UNL     1      -1.722  -1.138   1.027  1.00  0.00     0.048 C 
HETATM    4  C13 UNL     1      -2.780  -2.114   1.404  1.00  0.00     0.057 C 
HETATM    5  C14 UNL     1      -2.666  -3.166   0.325  1.00  0.00     0.009 C 
HETATM    6  C15 UNL     1      -2.077  -2.453  -0.885  1.00  0.00     0.048 C 
HETATM    7  C16 UNL     1      -1.890  -1.018  -0.454  1.00  0.00     0.197 C 
HETATM    8  C17 UNL     1      -3.084  -0.160  -0.731  1.00  0.00     0.056 C 
HETATM    9  N5  UNL     1      -0.684  -0.407  -0.898  1.00  0.00     0.134 N 
HETATM   10  H22 UNL     1      -0.005  -1.025  -1.346  1.00  0.00     0.321 HD
ENDROOT
BRANCH   1  11
HETATM   11  C4  UNL     1       1.255   0.457   0.343  1.00  0.00     0.093 C 
BRANCH  11  12
HETATM   12  C3  UNL     1       2.055  -0.815   0.430  1.00  0.00     0.157 C 
BRANCH  12  13
HETATM   13  N3  UNL     1       3.496  -0.525   0.508  1.00  0.00    -0.263 NA
HETATM   14  C2  UNL     1       4.250  -0.571  -0.535  1.00  0.00     0.161 C 
HETATM   15  N1  UNL     1       5.195  -0.584  -1.599  1.00  0.00    -0.373 NA
HETATM   16  N2  UNL     1       5.090  -0.207   0.573  1.00  0.00    -0.273 NA
HETATM   17  C1  UNL     1       6.143  -1.459  -1.665  1.00  0.00     0.319 C 
HETATM   18  H3  UNL     1       5.902   0.305   0.989  1.00  0.00     0.127 HD
HETATM   19  H4  UNL     1       5.934   0.381   0.781  1.00  0.00     0.127 HD
ENDBRANCH  12  13
ENDBRANCH  11  12
ENDBRANCH   1  11
BRANCH   1  20
HETATM   20  C6  UNL     1      -0.812   1.670   0.182  1.00  0.00     0.002 A 
HETATM   21  C7  UNL     1      -1.063   2.368  -0.989  1.00  0.00     0.014 A 
HETATM   22  C8  UNL     1      -1.615   3.631  -0.926  1.00  0.00     0.043 A 
HETATM   23  C9  UNL     1      -1.930   4.228   0.293  1.00  0.00     0.116 A 
HETATM   24  F1  UNL     1      -2.477   5.487   0.286  1.00  0.00    -0.206 F 
HETATM   25  C10 UNL     1      -1.695   3.566   1.472  1.00  0.00     0.043 A 
HETATM   26  C11 UNL     1      -1.143   2.309   1.363  1.00  0.00     0.014 A 
ENDBRANCH   1  20
TORSDOF 4
