REMARK  4 active torsions:
REMARK  status: ('A' for Active; 'I' for Inactive)
REMARK    1  A    between atoms: C3_4  and  N2_5 
REMARK    2  A    between atoms: C4_8  and  C5_9 
REMARK    3  A    between atoms: C6_10  and  C7_11 
REMARK    4  A    between atoms: N5_20  and  C14_21 
ROOT
HETATM    1  C5  UNL     1       0.032   0.365   0.184  1.00  0.00     0.098 A 
HETATM    2  C6  UNL     1       0.194   1.623   0.731  1.00  0.00     0.097 A 
HETATM    3  N4  UNL     1      -1.019   2.231   0.591  1.00  0.00    -0.241 NA
HETATM    4  C13 UNL     1      -1.862   1.363  -0.014  1.00  0.00     0.211 A 
HETATM    5  N5  UNL     1      -1.234   0.201  -0.276  1.00  0.00    -0.333 N 
ENDROOT
BRANCH   1   6
HETATM    6  C4  UNL     1       1.105  -0.619   0.132  1.00  0.00     0.122 A 
HETATM    7  C2  UNL     1       2.247  -0.504  -0.763  1.00  0.00     0.082 A 
HETATM    8  C1  UNL     1       2.225   0.573  -1.525  1.00  0.00     0.048 C 
HETATM    9  N1  UNL     1       3.314  -1.440  -0.846  1.00  0.00    -0.222 NA
HETATM   10  C3  UNL     1       3.364  -2.502  -0.115  1.00  0.00     0.183 A 
HETATM   11  S1  UNL     1       2.105  -2.918   1.082  1.00  0.00     0.050 SA
HETATM   12  N3  UNL     1       0.924  -1.609   0.975  1.00  0.00    -0.204 NA
BRANCH  10  13
HETATM   13  N2  UNL     1       4.486  -3.300  -0.337  1.00  0.00    -0.377 N 
HETATM   14  H3  UNL     1       3.955  -4.049  -0.870  1.00  0.00     0.158 HD
HETATM   15  H4  UNL     1       5.493  -3.553  -0.273  1.00  0.00     0.158 HD
ENDBRANCH  10  13
ENDBRANCH   1   6
BRANCH   2  16
HETATM   16  C7  UNL     1       1.357   2.247   1.341  1.00  0.00    -0.005 A 
HETATM   17  C8  UNL     1       2.128   1.552   2.249  1.00  0.00     0.017 A 
HETATM   18  C9  UNL     1       3.205   2.209   2.778  1.00  0.00     0.043 A 
HETATM   19  C10 UNL     1       3.611   3.496   2.505  1.00  0.00     0.116 A 
HETATM   20  F1  UNL     1       4.704   4.029   3.102  1.00  0.00    -0.206 F 
HETATM   21  C11 UNL     1       2.825   4.181   1.589  1.00  0.00     0.043 A 
HETATM   22  C12 UNL     1       1.710   3.561   1.015  1.00  0.00     0.017 A 
ENDBRANCH   2  16
BRANCH   5  23
HETATM   23  C14 UNL     1      -1.768  -0.987  -0.912  1.00  0.00     0.091 C 
HETATM   24  C15 UNL     1      -2.445  -1.932   0.042  1.00  0.00     0.026 C 
HETATM   25  C16 UNL     1      -3.848  -1.494   0.340  1.00  0.00     0.002 C 
HETATM   26  C17 UNL     1      -4.606  -1.683  -0.971  1.00  0.00     0.000 C 
HETATM   27  C18 UNL     1      -4.060  -0.626  -1.909  1.00  0.00     0.002 C 
HETATM   28  C19 UNL     1      -2.598  -0.715  -2.123  1.00  0.00     0.026 C 
ENDBRANCH   5  23
TORSDOF 4
