REMARK  5 active torsions:
REMARK  status: ('A' for Active; 'I' for Inactive)
REMARK    1  A    between atoms: C2_2  and  O1_3 
REMARK    2  A    between atoms: O1_3  and  C3_4 
REMARK    3  A    between atoms: C7_8  and  C8_9 
REMARK    4  A    between atoms: C8_9  and  C9_10 
REMARK    5  A    between atoms: C11_12  and  C12_13 
ROOT
HETATM    1  C3  UNL     1       3.807  -0.089  -0.267  1.00  0.00     0.146 C 
HETATM    2  C4  UNL     1       2.514   0.327  -0.864  1.00  0.00     0.001 C 
HETATM    3  C5  UNL     1       1.247   0.536  -0.563  1.00  0.00    -0.027 C 
HETATM    4  C6  UNL     1      -0.182   0.889  -0.741  1.00  0.00     0.043 C 
HETATM    5  C7  UNL     1      -1.075  -0.248  -0.417  1.00  0.00     0.039 C 
HETATM    6  C15 UNL     1      -0.165  -1.215  -0.102  1.00  0.00     0.033 C 
HETATM    7  C16 UNL     1      -0.356  -2.613   0.322  1.00  0.00     0.004 C 
HETATM    8  C17 UNL     1       0.829  -3.177   0.503  1.00  0.00     0.131 C 
HETATM    9  O3  UNL     1       1.865  -2.348   0.255  1.00  0.00    -0.363 OA
HETATM   10  C18 UNL     1       3.206  -2.402   0.580  1.00  0.00     0.177 C 
HETATM   11  C19 UNL     1       4.093  -1.543  -0.274  1.00  0.00     0.062 C 
ENDROOT
BRANCH   5  12
HETATM   12  C8  UNL     1      -2.559   0.047  -0.563  1.00  0.00     0.171 C 
HETATM   13  N2  UNL     1      -3.352  -1.148  -0.386  1.00  0.00    -0.349 N 
HETATM   14  C13 UNL     1      -4.678  -0.987  -0.934  1.00  0.00     0.201 C 
HETATM   15  H17 UNL     1      -3.136  -2.094   0.054  1.00  0.00     0.163 HD
HETATM   16  N3  UNL     1      -4.946  -0.045  -1.804  1.00  0.00    -0.259 NA
HETATM   17  C14 UNL     1      -3.918   0.869  -2.247  1.00  0.00     0.321 C 
HETATM   18  O2  UNL     1      -2.652   0.495  -1.900  1.00  0.00    -0.335 OA
BRANCH  12  19
HETATM   19  C9  UNL     1      -2.964   1.067   0.382  1.00  0.00    -0.027 C 
HETATM   20  C10 UNL     1      -2.720   2.549   0.360  1.00  0.00     0.048 C 
HETATM   21  C11 UNL     1      -3.642   0.820   1.517  1.00  0.00     0.026 C 
BRANCH  21  22
HETATM   22  C12 UNL     1      -4.294  -0.042   2.464  1.00  0.00     0.107 C 
HETATM   23  N1  UNL     1      -4.942  -0.396   3.516  1.00  0.00    -0.312 NA
HETATM   24  H16 UNL     1      -5.175  -1.382   3.708  1.00  0.00     0.186 HD
ENDBRANCH  21  22
ENDBRANCH  12  19
ENDBRANCH   5  12
BRANCH   1  25
HETATM   25  O1  UNL     1       4.774   0.510  -1.117  1.00  0.00    -0.382 OA
BRANCH  25  26
HETATM   26  C2  UNL     1       5.528   1.442  -0.411  1.00  0.00     0.164 C 
HETATM   27  C1  UNL     1       4.696   2.551   0.165  1.00  0.00     0.033 C 
ENDBRANCH  25  26
ENDBRANCH   1  25
TORSDOF 5
