REMARK  8 active torsions:
REMARK  status: ('A' for Active; 'I' for Inactive)
REMARK    1  A    between atoms: C2_2  and  C3_3 
REMARK    2  A    between atoms: C4_4  and  N1_5 
REMARK    3  A    between atoms: C4_4  and  C5_6 
REMARK    4  A    between atoms: C6_7  and  C8_9 
REMARK    5  A    between atoms: C17_22  and  O3_23 
REMARK    6  A    between atoms: O3_23  and  C18_24 
REMARK    7  A    between atoms: C18_24  and  C19_25 
REMARK    8  A    between atoms: C19_25  and  O4_26 
ROOT
HETATM    1  C8  UNL     1       1.419  -0.325  -1.531  1.00  0.00     0.116 A 
HETATM    2  N2  UNL     1       1.945  -0.252  -2.781  1.00  0.00    -0.264 NA
HETATM    3  C9  UNL     1       0.996  -0.151  -3.717  1.00  0.00     0.223 A 
HETATM    4  N3  UNL     1      -0.312  -0.147  -3.240  1.00  0.00    -0.265 NA
HETATM    5  C10 UNL     1      -0.194  -0.258  -1.833  1.00  0.00     0.114 A 
HETATM    6  C11 UNL     1       0.578  -0.370  -0.516  1.00  0.00     0.023 A 
HETATM    7  C12 UNL     1      -0.526   0.026   0.182  1.00  0.00     0.068 C 
HETATM    8  C13 UNL     1      -1.400   1.182  -0.398  1.00  0.00     0.173 C 
HETATM    9  O1  UNL     1      -2.697   1.013  -0.306  1.00  0.00    -0.389 OA
HETATM   10  C14 UNL     1      -3.621   1.424  -1.183  1.00  0.00     0.194 C 
HETATM   11  C15 UNL     1      -3.622   0.839  -2.569  1.00  0.00     0.200 C 
HETATM   12  O2  UNL     1      -3.781  -0.577  -2.677  1.00  0.00    -0.358 OA
HETATM   13  C16 UNL     1      -4.147  -1.334  -1.526  1.00  0.00     0.171 C 
HETATM   14  C17 UNL     1      -2.868  -1.257  -1.029  1.00  0.00     0.089 C 
HETATM   15  C21 UNL     1      -1.451  -0.733  -1.417  1.00  0.00     0.048 C 
ENDROOT
BRANCH   1  16
HETATM   16  C6  UNL     1       2.478  -0.298  -0.440  1.00  0.00    -0.048 C 
HETATM   17  C5  UNL     1       3.573   0.409  -0.859  1.00  0.00     0.034 C 
HETATM   18  C7  UNL     1       2.936  -0.749   0.896  1.00  0.00     0.046 C 
BRANCH  17  19
HETATM   19  C4  UNL     1       4.619   0.423   0.076  1.00  0.00     0.025 C 
HETATM   20  C3  UNL     1       5.610   0.548   0.858  1.00  0.00     0.025 C 
BRANCH  20  21
HETATM   21  C2  UNL     1       6.694   1.232   1.553  1.00  0.00    -0.024 C 
HETATM   22  C1  UNL     1       7.636   0.762   2.437  1.00  0.00     0.031 C 
ENDBRANCH  20  21
BRANCH  19  23
HETATM   23  N1  UNL     1       4.868   1.868  -0.167  1.00  0.00    -0.399 N 
HETATM   24  H5  UNL     1       5.369   2.382  -0.933  1.00  0.00     0.156 HD
HETATM   25  H6  UNL     1       5.085   2.824  -0.419  1.00  0.00     0.156 HD
ENDBRANCH  19  23
ENDBRANCH  17  19
ENDBRANCH   1  16
BRANCH  14  26
HETATM   26  O3  UNL     1      -2.420  -1.807   0.220  1.00  0.00    -0.347 OA
BRANCH  26  27
HETATM   27  C18 UNL     1      -3.247  -2.262   1.231  1.00  0.00     0.201 C 
BRANCH  27  28
HETATM   28  C19 UNL     1      -3.520  -1.167   2.279  1.00  0.00     0.193 C 
BRANCH  28  29
HETATM   29  O4  UNL     1      -4.376  -1.691   3.254  1.00  0.00    -0.394 OA
HETATM   30  C20 UNL     1      -4.690  -0.722   4.212  1.00  0.00     0.201 C 
ENDBRANCH  28  29
ENDBRANCH  27  28
ENDBRANCH  26  27
ENDBRANCH  14  26
TORSDOF 8
