REMARK  4 active torsions:
REMARK  status: ('A' for Active; 'I' for Inactive)
REMARK    1  A    between atoms: C10_12  and  O2_13 
REMARK    2  A    between atoms: O2_13  and  C11_14 
REMARK    3  A    between atoms: C11_14  and  C12_15 
REMARK    4  A    between atoms: C12_15  and  O3_16 
ROOT
HETATM    1  C1  UNL     1      -4.481  -4.210   0.691  1.00  0.00     0.017 C 
HETATM    2  C2  UNL     1      -3.952  -3.139   0.368  1.00  0.00    -0.082 C 
HETATM    3  C3  UNL     1      -3.343  -1.851  -0.016  1.00  0.00    -0.004 C 
HETATM    4  C4  UNL     1      -4.062  -0.801   0.433  1.00  0.00    -0.005 C 
HETATM    5  C5  UNL     1      -3.523   0.514   0.032  1.00  0.00     0.023 C 
HETATM    6  C6  UNL     1      -3.606   1.846   0.112  1.00  0.00     0.028 C 
HETATM    7  C7  UNL     1      -2.751   2.812  -0.588  1.00  0.00     0.278 C 
HETATM    8  N1  UNL     1      -1.634   3.347   0.242  1.00  0.00     0.106 N 
HETATM    9  C8  UNL     1      -0.627   2.240   0.066  1.00  0.00     0.437 C 
HETATM   10  O1  UNL     1       0.433   2.324   0.839  1.00  0.00    -0.360 OA
HETATM   11  C9  UNL     1       1.451   1.430   0.543  1.00  0.00     0.210 C 
HETATM   12  C10 UNL     1       1.202  -0.028   0.580  1.00  0.00     0.113 C 
HETATM   13  C14 UNL     1       0.309  -0.548  -0.453  1.00  0.00     0.097 C 
HETATM   14  C15 UNL     1      -0.907  -1.271   0.020  1.00  0.00     0.018 C 
HETATM   15  N2  UNL     1      -1.307  -1.106   1.248  1.00  0.00    -0.257 NA
HETATM   16  C16 UNL     1      -0.654  -0.259   2.175  1.00  0.00     0.215 A 
HETATM   17  N3  UNL     1       0.234   0.436   2.930  1.00  0.00    -0.277 NA
HETATM   18  C17 UNL     1       0.809  -0.400   1.999  1.00  0.00     0.199 A 
HETATM   19  C18 UNL     1      -1.965  -2.282  -0.411  1.00  0.00     0.102 C 
HETATM   20  H7  UNL     1      -2.002   3.321   1.225  1.00  0.00     0.318 HD
ENDROOT
BRANCH  12  21
HETATM   21  O2  UNL     1       2.462  -0.722   0.462  1.00  0.00    -0.373 OA
BRANCH  21  22
HETATM   22  C11 UNL     1       3.157  -0.412  -0.665  1.00  0.00     0.195 C 
BRANCH  22  23
HETATM   23  C12 UNL     1       4.437  -1.247  -0.600  1.00  0.00     0.193 C 
BRANCH  23  24
HETATM   24  O3  UNL     1       5.167  -0.958   0.521  1.00  0.00    -0.394 OA
HETATM   25  C13 UNL     1       5.579   0.334   0.637  1.00  0.00     0.201 C 
ENDBRANCH  23  24
ENDBRANCH  22  23
ENDBRANCH  21  22
ENDBRANCH  12  21
TORSDOF 4
