REMARK  3 active torsions:
REMARK  status: ('A' for Active; 'I' for Inactive)
REMARK    1  A    between atoms: C8_10  and  O2_11 
REMARK    2  A    between atoms: O2_11  and  C9_12 
REMARK    3  A    between atoms: C17_22  and  S1_23 
ROOT
HETATM    1  C1  UNL     1      -2.006  -3.064   0.824  1.00  0.00     0.019 C 
HETATM    2  C2  UNL     1      -2.062  -2.109  -0.322  1.00  0.00     0.061 C 
HETATM    3  C3  UNL     1      -3.540  -1.685  -0.572  1.00  0.00     0.043 C 
HETATM    4 CL1  UNL     1      -5.225  -1.716  -0.960  1.00  0.00    -0.086 Cl
HETATM    5  C4  UNL     1      -3.696  -0.344  -0.341  1.00  0.00     0.053 C 
HETATM    6  C5  UNL     1      -3.356  -0.319   1.125  1.00  0.00     0.227 C 
HETATM    7  O1  UNL     1      -1.982  -0.221   0.978  1.00  0.00    -0.375 OA
HETATM    8  C6  UNL     1      -1.482  -0.826  -0.186  1.00  0.00     0.156 C 
HETATM    9  C7  UNL     1      -0.168  -0.259  -0.187  1.00  0.00     0.042 C 
HETATM   10  C8  UNL     1       0.224   0.860  -0.819  1.00  0.00     0.069 C 
HETATM   11  C14 UNL     1       0.246   2.072  -1.621  1.00  0.00     0.050 C 
HETATM   12  C15 UNL     1      -0.021   3.242  -1.053  1.00  0.00    -0.004 C 
HETATM   13  C16 UNL     1      -1.154   3.242  -0.363  1.00  0.00     0.132 C 
HETATM   14  N2  UNL     1      -1.966   2.215  -0.852  1.00  0.00    -0.236 NA
HETATM   15  C17 UNL     1      -3.157   2.043  -0.402  1.00  0.00     0.163 C 
HETATM   16  N3  UNL     1      -4.010   0.969  -0.892  1.00  0.00    -0.336 N 
HETATM   17  H22 UNL     1      -4.801   1.039  -1.577  1.00  0.00     0.168 HD
ENDROOT
BRANCH  10  18
HETATM   18  O2  UNL     1       1.599   1.100  -0.581  1.00  0.00    -0.346 OA
BRANCH  18  19
HETATM   19  C9  UNL     1       2.460   0.354   0.178  1.00  0.00     0.132 C 
HETATM   20  C10 UNL     1       3.821   1.037   0.388  1.00  0.00     0.062 C 
HETATM   21  C11 UNL     1       4.741   0.055   1.080  1.00  0.00     0.272 C 
HETATM   22  N1  UNL     1       5.173  -1.001   0.187  1.00  0.00     0.083 N 
HETATM   23  C12 UNL     1       4.204  -1.052  -0.890  1.00  0.00     0.272 C 
HETATM   24  H14 UNL     1       5.173  -1.939   0.640  1.00  0.00     0.315 HD
HETATM   25  C13 UNL     1       2.787  -1.017  -0.347  1.00  0.00     0.062 C 
ENDBRANCH  18  19
ENDBRANCH  10  18
BRANCH  15  26
HETATM   26  S1  UNL     1      -3.882   3.082   0.870  1.00  0.00    -0.105 SA
HETATM   27  H21 UNL     1      -4.367   4.281   0.272  1.00  0.00     0.110 HD
ENDBRANCH  15  26
TORSDOF 3
