REMARK  4 active torsions:
REMARK  status: ('A' for Active; 'I' for Inactive)
REMARK    1  A    between atoms: O1_2  and  C2_3 
REMARK    2  A    between atoms: C5_6  and  N1_7 
REMARK    3  A    between atoms: N1_7  and  C6_8 
REMARK    4  A    between atoms: C16_20  and  O2_21 
ROOT
HETATM    1  C2  UNL     1      -1.474  -0.795   0.173  1.00  0.00     0.101 A 
HETATM    2  C3  UNL     1      -0.459  -0.477  -0.613  1.00  0.00     0.051 A 
HETATM    3  C4  UNL     1      -0.195   0.934  -0.705  1.00  0.00     0.002 A 
HETATM    4  C5  UNL     1       0.858   1.413  -1.399  1.00  0.00     0.136 C 
HETATM    5  N2  UNL     1       1.055   2.849  -1.410  1.00  0.00    -0.229 NA
HETATM    6  C12 UNL     1       0.869   3.430  -0.267  1.00  0.00     0.085 C 
HETATM    7  C13 UNL     1       0.035   2.885   0.610  1.00  0.00     0.021 C 
HETATM    8  C14 UNL     1      -0.983   2.056  -0.075  1.00  0.00     0.073 A 
HETATM    9  C15 UNL     1      -2.043   1.511   0.760  1.00  0.00     0.026 A 
HETATM   10  C16 UNL     1      -2.280   0.194   0.878  1.00  0.00     0.098 A 
ENDROOT
BRANCH   4  11
HETATM   11  N1  UNL     1       1.700   0.464  -2.041  1.00  0.00    -0.341 N 
HETATM   12  H5  UNL     1       1.572   0.246  -3.064  1.00  0.00     0.167 HD
BRANCH  11  13
HETATM   13  C6  UNL     1       2.741  -0.220  -1.320  1.00  0.00     0.035 A 
HETATM   14  C7  UNL     1       3.597  -1.161  -1.899  1.00  0.00     0.029 A 
HETATM   15  C8  UNL     1       4.552  -1.737  -1.080  1.00  0.00     0.004 A 
HETATM   16  C9  UNL     1       4.697  -1.430   0.260  1.00  0.00     0.019 A 
HETATM   17  C10 UNL     1       3.866  -0.508   0.846  1.00  0.00     0.013 A 
HETATM   18 BR1  UNL     1       4.025  -0.053   2.685  1.00  0.00    -0.051 Br
HETATM   19  C11 UNL     1       2.897   0.080   0.028  1.00  0.00     0.048 A 
ENDBRANCH  11  13
ENDBRANCH   4  11
BRANCH   1  20
HETATM   20  O1  UNL     1      -1.723  -2.157   0.271  1.00  0.00    -0.353 OA
HETATM   21  C1  UNL     1      -2.997  -2.624  -0.133  1.00  0.00     0.210 C 
ENDBRANCH   1  20
BRANCH  10  22
HETATM   22  O2  UNL     1      -3.333  -0.249   1.702  1.00  0.00    -0.353 OA
HETATM   23  C17 UNL     1      -4.607   0.364   1.578  1.00  0.00     0.210 C 
ENDBRANCH  10  22
TORSDOF 4
