REMARK  8 active torsions:
REMARK  status: ('A' for Active; 'I' for Inactive)
REMARK    1  A    between atoms: C3_3  and  O1_4 
REMARK    2  A    between atoms: C3_3  and  C11_14 
REMARK    3  A    between atoms: O1_4  and  C4_5 
REMARK    4  A    between atoms: C4_5  and  C5_6 
REMARK    5  A    between atoms: C5_6  and  C6_7 
REMARK    6  A    between atoms: C6_7  and  N1_8 
REMARK    7  A    between atoms: C15_20  and  N4_21 
REMARK    8  A    between atoms: N4_21  and  C16_22 
ROOT
HETATM    1  C11 UNL     1       1.647   0.698  -0.553  1.00  0.00     0.020 C 
HETATM    2  C12 UNL     1       1.206   0.915  -1.805  1.00  0.00     0.033 C 
HETATM    3  C13 UNL     1       1.945   1.124  -3.037  1.00  0.00     0.118 C 
HETATM    4  N2  UNL     1       3.151   1.552  -3.078  1.00  0.00    -0.255 NA
HETATM    5  C14 UNL     1       4.024   1.910  -2.022  1.00  0.00     0.229 C 
HETATM    6  N3  UNL     1       3.901   1.486  -0.850  1.00  0.00    -0.252 NA
HETATM    7  C15 UNL     1       3.041   0.631  -0.111  1.00  0.00     0.244 C 
ENDROOT
BRANCH   1   8
HETATM    8  C3  UNL     1       0.542   0.534   0.415  1.00  0.00     0.074 C 
HETATM    9  C2  UNL     1       0.511   0.298   1.739  1.00  0.00     0.006 C 
HETATM   10  C1  UNL     1       1.533   0.092   2.796  1.00  0.00     0.039 C 
BRANCH   8  11
HETATM   11  O1  UNL     1      -0.662   0.624  -0.009  1.00  0.00    -0.351 OA
BRANCH  11  12
HETATM   12  C4  UNL     1      -1.890   0.716  -0.441  1.00  0.00     0.177 C 
BRANCH  12  13
HETATM   13  C5  UNL     1      -2.971   1.038   0.590  1.00  0.00     0.057 C 
BRANCH  13  14
HETATM   14  C6  UNL     1      -4.274   1.092  -0.196  1.00  0.00     0.274 C 
BRANCH  14  15
HETATM   15  N1  UNL     1      -4.605  -0.130  -0.863  1.00  0.00     0.092 N 
HETATM   16  C7  UNL     1      -5.745   0.045  -1.747  1.00  0.00     0.298 C 
HETATM   17  C8  UNL     1      -6.959   0.366  -0.916  1.00  0.00     0.198 C 
HETATM   18  O2  UNL     1      -7.236  -0.749  -0.121  1.00  0.00    -0.388 OA
HETATM   19  C9  UNL     1      -6.210  -1.019   0.762  1.00  0.00     0.198 C 
HETATM   20  C10 UNL     1      -4.886  -1.225   0.058  1.00  0.00     0.298 C 
ENDBRANCH  14  15
ENDBRANCH  13  14
ENDBRANCH  12  13
ENDBRANCH  11  12
ENDBRANCH   8  11
ENDBRANCH   1   8
BRANCH   7  21
HETATM   21  N4  UNL     1       3.568  -0.724  -0.080  1.00  0.00    -0.363 N 
HETATM   22  H23 UNL     1       2.915  -1.466  -0.412  1.00  0.00     0.162 HD
BRANCH  21  23
HETATM   23  C16 UNL     1       4.879  -1.035   0.371  1.00  0.00     0.031 A 
HETATM   24  C17 UNL     1       5.717  -0.031   0.813  1.00  0.00     0.032 A 
HETATM   25  C18 UNL     1       7.009  -0.352   1.252  1.00  0.00     0.046 A 
HETATM   26  C19 UNL     1       7.418  -1.668   1.233  1.00  0.00     0.138 A 
HETATM   27  F1  UNL     1       8.691  -1.945   1.669  1.00  0.00    -0.204 F 
HETATM   28  C20 UNL     1       6.564  -2.680   0.784  1.00  0.00     0.074 A 
HETATM   29 CL1  UNL     1       7.125  -4.342   0.780  1.00  0.00    -0.081 Cl
HETATM   30  C21 UNL     1       5.280  -2.376   0.346  1.00  0.00     0.056 A 
ENDBRANCH  21  23
ENDBRANCH   7  21
TORSDOF 8
