REMARK  6 active torsions:
REMARK  status: ('A' for Active; 'I' for Inactive)
REMARK    1  A    between atoms: C3_3  and  N1_4 
REMARK    2  A    between atoms: N1_4  and  C4_5 
REMARK    3  A    between atoms: C4_5  and  C5_6 
REMARK    4  A    between atoms: C5_6  and  O1_7 
REMARK    5  A    between atoms: O1_7  and  C6_8 
REMARK    6  A    between atoms: C16_21  and  O2_22 
ROOT
HETATM    1  C6  UNL     1      -0.188  -0.460   0.501  1.00  0.00     0.094 C 
HETATM    2  C7  UNL     1      -0.084   0.725  -0.078  1.00  0.00     0.123 C 
HETATM    3  N2  UNL     1      -0.959   1.541  -0.835  1.00  0.00    -0.363 N 
HETATM    4  C8  UNL     1      -2.387   1.744  -0.869  1.00  0.00     0.047 A 
HETATM    5  C9  UNL     1      -2.660   2.936  -1.502  1.00  0.00     0.057 A 
HETATM    6  C10 UNL     1      -3.960   3.356  -1.658  1.00  0.00     0.077 A 
HETATM    7 CL1  UNL     1      -4.297   4.875  -2.464  1.00  0.00    -0.081 Cl
HETATM    8  C11 UNL     1      -4.948   2.535  -1.159  1.00  0.00     0.165 A 
HETATM    9  F1  UNL     1      -6.223   3.011  -1.348  1.00  0.00    -0.202 F 
HETATM   10  C12 UNL     1      -4.715   1.336  -0.521  1.00  0.00     0.082 A 
HETATM   11  C13 UNL     1      -3.409   0.926  -0.370  1.00  0.00     0.028 A 
HETATM   12  C14 UNL     1      -3.513  -0.369   0.338  1.00  0.00    -0.027 A 
HETATM   13  C15 UNL     1      -2.552  -1.211   0.687  1.00  0.00     0.021 C 
HETATM   14  C16 UNL     1      -1.133  -1.554   0.717  1.00  0.00     0.202 C 
HETATM   15  C18 UNL     1      -4.935  -0.664   0.650  1.00  0.00     0.159 A 
HETATM   16  N3  UNL     1      -5.647   0.414   0.031  1.00  0.00    -0.382 N 
HETATM   17  H12 UNL     1      -0.529   2.156  -1.543  1.00  0.00     0.165 HD
HETATM   18  H21 UNL     1      -6.690   0.484   0.004  1.00  0.00     0.160 HD
ENDROOT
BRANCH   1  19
HETATM   19  O1  UNL     1       1.055  -0.700   1.095  1.00  0.00    -0.349 OA
BRANCH  19  20
HETATM   20  C5  UNL     1       2.245  -0.926   0.402  1.00  0.00     0.195 C 
BRANCH  20  21
HETATM   21  C4  UNL     1       3.415  -1.203   1.327  1.00  0.00     0.145 C 
BRANCH  21  22
HETATM   22  N1  UNL     1       4.579  -1.418   0.495  1.00  0.00    -0.397 N 
HETATM   23  H6  UNL     1       5.150  -2.283   0.313  1.00  0.00     0.158 HD
BRANCH  22  24
HETATM   24  C3  UNL     1       5.111  -0.310  -0.243  1.00  0.00     0.078 C 
HETATM   25  C2  UNL     1       5.839   0.624   0.377  1.00  0.00    -0.014 C 
HETATM   26  C1  UNL     1       6.401   1.778  -0.359  1.00  0.00     0.037 C 
ENDBRANCH  22  24
ENDBRANCH  21  22
ENDBRANCH  20  21
ENDBRANCH  19  20
ENDBRANCH   1  19
BRANCH  14  27
HETATM   27  O2  UNL     1      -0.894  -2.544  -0.264  1.00  0.00    -0.380 OA
HETATM   28  C17 UNL     1      -0.395  -3.641   0.458  1.00  0.00     0.202 C 
ENDBRANCH  14  27
TORSDOF 6
