REMARK  3 active torsions:
REMARK  status: ('A' for Active; 'I' for Inactive)
REMARK    1  A    between atoms: O1_2  and  C2_3 
REMARK    2  A    between atoms: C6_9  and  N3_10 
REMARK    3  A    between atoms: C22_29  and  O3_30 
ROOT
HETATM    1  C2  UNL     1      -2.860   1.995   0.195  1.00  0.00     0.076 C 
HETATM    2  C3  UNL     1      -1.634   2.283   0.124  1.00  0.00     0.067 C 
HETATM    3  C4  UNL     1      -0.294   2.616  -0.019  1.00  0.00     0.074 A 
HETATM    4  N1  UNL     1       0.184   3.840  -0.262  1.00  0.00    -0.241 NA
HETATM    5  C5  UNL     1       1.541   3.943  -0.489  1.00  0.00     0.236 A 
HETATM    6  N2  UNL     1       2.392   2.928  -0.483  1.00  0.00    -0.224 NA
HETATM    7  C6  UNL     1       1.972   1.691  -0.245  1.00  0.00     0.140 A 
HETATM    8  C13 UNL     1       0.631   1.530  -0.008  1.00  0.00     0.041 A 
HETATM    9  C14 UNL     1       0.142   0.229   0.398  1.00  0.00     0.045 C 
HETATM   10  C15 UNL     1      -0.395  -0.924   0.634  1.00  0.00     0.032 C 
HETATM   11  C16 UNL     1       0.182  -1.570   1.789  1.00  0.00     0.224 C 
HETATM   12  O2  UNL     1       0.710  -2.841   1.441  1.00  0.00    -0.384 OA
HETATM   13  C17 UNL     1      -0.284  -3.690   0.999  1.00  0.00     0.187 C 
HETATM   14  C18 UNL     1      -1.125  -3.094  -0.102  1.00  0.00     0.149 C 
HETATM   15  N4  UNL     1      -1.513  -1.749   0.142  1.00  0.00    -0.380 N 
HETATM   16  C19 UNL     1      -2.520  -0.738   0.144  1.00  0.00     0.123 C 
HETATM   17  C20 UNL     1      -3.945  -1.002   0.391  1.00  0.00     0.023 C 
HETATM   18  C21 UNL     1      -4.675   0.307   0.197  1.00  0.00     0.040 C 
HETATM   19  C22 UNL     1      -4.078   1.531   0.849  1.00  0.00     0.174 C 
ENDROOT
BRANCH   7  20
HETATM   20  N3  UNL     1       2.524   0.380  -0.219  1.00  0.00    -0.361 N 
HETATM   21  C7  UNL     1       2.253  -0.684  -1.167  1.00  0.00     0.153 C 
HETATM   22  C8  UNL     1       3.490  -0.980  -1.988  1.00  0.00     0.013 C 
HETATM   23  C9  UNL     1       4.519  -0.708  -1.241  1.00  0.00     0.015 C 
HETATM   24 CL1  UNL     1       6.095  -0.975  -1.988  1.00  0.00    -0.089 Cl
HETATM   25  C10 UNL     1       4.780  -0.213   0.129  1.00  0.00     0.044 C 
HETATM   26  C11 UNL     1       5.678  -1.162   0.898  1.00  0.00     0.017 C 
HETATM   27  C12 UNL     1       3.457  -0.008   0.822  1.00  0.00     0.134 C 
ENDBRANCH   7  20
BRANCH   1  28
HETATM   28  O1  UNL     1      -3.321   2.271  -1.061  1.00  0.00    -0.357 OA
HETATM   29  C1  UNL     1      -2.661   2.342  -2.282  1.00  0.00     0.209 C 
ENDBRANCH   1  28
BRANCH  19  30
HETATM   30  O3  UNL     1      -5.050   2.527   0.818  1.00  0.00    -0.389 OA
HETATM   31  H29 UNL     1      -5.464   2.664  -0.059  1.00  0.00     0.210 HD
ENDBRANCH  19  30
TORSDOF 3
