REMARK  5 active torsions:
REMARK  status: ('A' for Active; 'I' for Inactive)
REMARK    1  A    between atoms: C1_2  and  C2_3 
REMARK    2  A    between atoms: C2_3  and  P1_4 
REMARK    3  A    between atoms: C5_7  and  C6_8 
REMARK    4  A    between atoms: C6_8  and  C7_9 
REMARK    5  A    between atoms: C7_9  and  C8_10 
ROOT
HETATM    1  C6  UNL     1       0.381  -0.073   0.044  1.00  0.00     0.032 C 
ENDROOT
BRANCH   1   2
HETATM    2  C5  UNL     1       1.750   0.177  -0.366  1.00  0.00     0.052 C 
HETATM    3  C4  UNL     1       2.085   1.420  -1.005  1.00  0.00     0.043 C 
HETATM    4  C3  UNL     1       3.331   1.861  -1.020  1.00  0.00    -0.024 C 
HETATM    5  P1  UNL     1       4.373   0.994  -0.145  1.00  0.00    -0.096 P 
HETATM    6  C15 UNL     1       3.886  -0.733  -0.417  1.00  0.00     0.180 C 
HETATM    7  H5  UNL     1       4.113   1.266   1.218  1.00  0.00     0.059 HD
HETATM    8  N2  UNL     1       2.488  -0.837  -0.066  1.00  0.00    -0.286 NA
BRANCH   5   9
HETATM    9  C2  UNL     1       6.082   1.316  -0.554  1.00  0.00     0.048 C 
BRANCH   9  10
HETATM   10  C1  UNL     1       6.918   0.057  -0.624  1.00  0.00     0.119 C 
HETATM   11 CL1  UNL     1       6.879  -0.750   0.944  1.00  0.00    -0.130 Cl
ENDBRANCH   9  10
ENDBRANCH   5   9
ENDBRANCH   1   2
BRANCH   1  12
HETATM   12  C7  UNL     1      -0.863   0.301   0.145  1.00  0.00     0.013 C 
BRANCH  12  13
HETATM   13  C8  UNL     1      -2.273   0.269   0.466  1.00  0.00    -0.008 C 
HETATM   14  C9  UNL     1      -2.539  -0.884   1.051  1.00  0.00     0.069 C 
HETATM   15  C10 UNL     1      -2.135  -2.188   1.559  1.00  0.00     0.261 C 
HETATM   16  N1  UNL     1      -3.826  -1.347   1.515  1.00  0.00    -0.259 N 
HETATM   17  O1  UNL     1      -3.168  -1.976   2.510  1.00  0.00    -0.272 OA
HETATM   18  C11 UNL     1      -5.190  -1.212   1.115  1.00  0.00     0.158 C 
HETATM   19  C12 UNL     1      -5.419   0.076   0.355  1.00  0.00     0.048 C 
HETATM   20  C13 UNL     1      -4.606   0.124  -0.904  1.00  0.00     0.169 C 
HETATM   21  O2  UNL     1      -3.860   1.292  -1.020  1.00  0.00    -0.387 OA
HETATM   22  C14 UNL     1      -3.020   1.496   0.068  1.00  0.00     0.208 C 
ENDBRANCH  12  13
ENDBRANCH   1  12
TORSDOF 5
