REMARK  4 active torsions:
REMARK  status: ('A' for Active; 'I' for Inactive)
REMARK    1  A    between atoms: N1_1  and  C1_2 
REMARK    2  A    between atoms: C1_2  and  O1_3 
REMARK    3  A    between atoms: O1_3  and  C2_4 
REMARK    4  A    between atoms: C5_9  and  C6_10 
ROOT
HETATM    1  C2  UNL     1      -1.796  -0.454   0.801  1.00  0.00     0.075 C 
HETATM    2  C3  UNL     1      -0.591  -0.007   0.610  1.00  0.00     0.069 C 
HETATM    3  C4  UNL     1       0.721   0.591   0.408  1.00  0.00     0.091 A 
HETATM    4  N2  UNL     1       1.406   0.667   1.497  1.00  0.00    -0.174 NA
HETATM    5  N3  UNL     1       2.695   1.210   1.539  1.00  0.00    -0.277 N 
HETATM    6  C5  UNL     1       3.185   1.669   0.285  1.00  0.00     0.061 A 
HETATM    7  C12 UNL     1       2.500   1.598  -0.834  1.00  0.00     0.047 A 
HETATM    8  C13 UNL     1       1.172   1.041  -0.894  1.00  0.00     0.018 A 
HETATM    9  C14 UNL     1       0.430   0.901  -1.972  1.00  0.00     0.148 C 
HETATM   10  O2  UNL     1      -0.826   0.337  -2.085  1.00  0.00    -0.362 OA
HETATM   11  C15 UNL     1      -0.842  -1.002  -2.586  1.00  0.00     0.176 C 
HETATM   12  C16 UNL     1      -2.223  -1.536  -2.774  1.00  0.00     0.046 C 
HETATM   13  C17 UNL     1      -2.993  -1.585  -1.446  1.00  0.00     0.120 C 
HETATM   14  N4  UNL     1      -2.294  -2.406  -0.538  1.00  0.00    -0.398 N 
HETATM   15  C18 UNL     1      -2.737  -3.755  -0.555  1.00  0.00     0.144 C 
HETATM   16  C19 UNL     1      -3.557  -4.188   0.636  1.00  0.00     0.187 C 
HETATM   17  O3  UNL     1      -2.973  -3.777   1.834  1.00  0.00    -0.387 OA
HETATM   18  C20 UNL     1      -2.921  -2.389   1.860  1.00  0.00     0.199 C 
HETATM   19  C21 UNL     1      -2.001  -1.938   0.751  1.00  0.00     0.160 C 
HETATM   20  H6  UNL     1       3.149   1.219   2.471  1.00  0.00     0.189 HD
ENDROOT
BRANCH   6  21
HETATM   21  C6  UNL     1       4.519   2.242   0.298  1.00  0.00    -0.006 A 
HETATM   22  C7  UNL     1       5.285   2.364   1.438  1.00  0.00     0.017 A 
HETATM   23  C8  UNL     1       6.559   2.905   1.479  1.00  0.00     0.045 A 
HETATM   24  C9  UNL     1       7.114   3.359   0.309  1.00  0.00     0.138 A 
HETATM   25  F1  UNL     1       8.352   3.883   0.333  1.00  0.00    -0.204 F 
HETATM   26  C10 UNL     1       6.402   3.268  -0.867  1.00  0.00     0.073 A 
HETATM   27 CL1  UNL     1       7.167   3.862  -2.338  1.00  0.00    -0.081 Cl
HETATM   28  C11 UNL     1       5.145   2.720  -0.834  1.00  0.00     0.040 A 
ENDBRANCH   6  21
BRANCH   1  29
HETATM   29  O1  UNL     1      -3.106   0.052   1.067  1.00  0.00    -0.324 OA
BRANCH  29  30
HETATM   30  C1  UNL     1      -3.242   1.387   1.523  1.00  0.00     0.441 C 
BRANCH  30  31
HETATM   31  N1  UNL     1      -4.581   1.741   1.868  1.00  0.00     0.101 N 
HETATM   32  H1  UNL     1      -5.289   0.999   1.640  1.00  0.00     0.315 HD
HETATM   33  H2  UNL     1      -4.641   1.900   2.893  1.00  0.00     0.315 HD
ENDBRANCH  30  31
ENDBRANCH  29  30
ENDBRANCH   1  29
TORSDOF 4
