REMARK  8 active torsions:
REMARK  status: ('A' for Active; 'I' for Inactive)
REMARK    1  A    between atoms: O1_2  and  C2_3 
REMARK    2  A    between atoms: C5_8  and  N3_9 
REMARK    3  A    between atoms: N3_9  and  C6_10 
REMARK    4  A    between atoms: C13_19  and  O2_20 
REMARK    5  A    between atoms: O2_20  and  C14_21 
REMARK    6  A    between atoms: C14_21  and  C15_22 
REMARK    7  A    between atoms: C15_22  and  C16_23 
REMARK    8  A    between atoms: C16_23  and  N4_24 
ROOT
HETATM    1  C2  UNL     1       0.770  -3.755   0.929  1.00  0.00     0.103 C 
HETATM    2  C3  UNL     1       2.030  -4.250   0.811  1.00  0.00     0.068 C 
HETATM    3  C4  UNL     1       2.941  -3.164   0.454  1.00  0.00     0.061 C 
HETATM    4  N1  UNL     1       4.030  -2.486   0.794  1.00  0.00    -0.182 NA
HETATM    5  N2  UNL     1       3.643  -1.078   1.179  1.00  0.00    -0.286 N 
HETATM    6  C5  UNL     1       2.305  -0.443   0.746  1.00  0.00     0.233 C 
HETATM    7  C12 UNL     1       1.501  -1.630   0.358  1.00  0.00     0.005 C 
HETATM    8  C13 UNL     1       0.428  -2.315   0.696  1.00  0.00     0.108 C 
HETATM    9  C21 UNL     1       2.400  -2.301  -0.723  1.00  0.00     0.102 C 
HETATM   10  H5  UNL     1       4.356  -0.626   1.758  1.00  0.00     0.185 HD
ENDROOT
BRANCH   6  11
HETATM   11  N3  UNL     1       2.508   0.365  -0.410  1.00  0.00    -0.364 N 
HETATM   12  H7  UNL     1       2.036   0.097  -1.327  1.00  0.00     0.162 HD
BRANCH  11  13
HETATM   13  C6  UNL     1       3.282   1.545  -0.559  1.00  0.00     0.031 A 
HETATM   14  C7  UNL     1       3.434   2.252  -1.750  1.00  0.00     0.032 A 
HETATM   15  C8  UNL     1       4.191   3.398  -1.836  1.00  0.00     0.046 A 
HETATM   16  C9  UNL     1       4.844   3.912  -0.740  1.00  0.00     0.138 A 
HETATM   17  F1  UNL     1       5.567   5.044  -0.912  1.00  0.00    -0.204 F 
HETATM   18  C10 UNL     1       4.717   3.241   0.456  1.00  0.00     0.074 A 
HETATM   19 CL1  UNL     1       5.561   3.923   1.828  1.00  0.00    -0.081 Cl
HETATM   20  C11 UNL     1       3.954   2.099   0.508  1.00  0.00     0.056 A 
ENDBRANCH  11  13
ENDBRANCH   6  11
BRANCH   8  21
HETATM   21  O2  UNL     1      -0.647  -1.545   0.745  1.00  0.00    -0.348 OA
BRANCH  21  22
HETATM   22  C14 UNL     1      -1.172  -0.735   1.742  1.00  0.00     0.177 C 
BRANCH  22  23
HETATM   23  C15 UNL     1      -2.527  -0.170   1.289  1.00  0.00     0.046 C 
BRANCH  23  24
HETATM   24  C16 UNL     1      -2.374   0.653   0.030  1.00  0.00     0.119 C 
BRANCH  24  25
HETATM   25  N4  UNL     1      -3.669   1.150  -0.353  1.00  0.00    -0.408 N 
HETATM   26  C17 UNL     1      -4.222   2.118   0.525  1.00  0.00     0.143 C 
HETATM   27  C18 UNL     1      -5.584   2.546  -0.012  1.00  0.00     0.187 C 
HETATM   28  O3  UNL     1      -5.435   3.117  -1.264  1.00  0.00    -0.388 OA
HETATM   29  C19 UNL     1      -4.920   2.236  -2.200  1.00  0.00     0.187 C 
HETATM   30  C20 UNL     1      -3.784   1.406  -1.755  1.00  0.00     0.143 C 
ENDBRANCH  24  25
ENDBRANCH  23  24
ENDBRANCH  22  23
ENDBRANCH  21  22
ENDBRANCH   8  21
BRANCH   1  31
HETATM   31  O1  UNL     1      -0.239  -4.592   1.276  1.00  0.00    -0.353 OA
HETATM   32  C1  UNL     1      -0.341  -5.826   0.569  1.00  0.00     0.210 C 
ENDBRANCH   1  31
TORSDOF 8
