REMARK  4 active torsions:
REMARK  status: ('A' for Active; 'I' for Inactive)
REMARK    1  A    between atoms: C6_7  and  C7_8 
REMARK    2  A    between atoms: C7_8  and  C8_9 
REMARK    3  A    between atoms: C9_10  and  C10_11 
REMARK    4  A    between atoms: C10_11  and  N1_12 
ROOT
HETATM    1  C10 UNL     1      -2.209   0.027  -0.058  1.00  0.00     0.263 C 
HETATM    2  N2  UNL     1      -2.075  -0.020  -1.499  1.00  0.00    -0.220 NA
HETATM    3  C16 UNL     1      -1.853  -0.796  -2.479  1.00  0.00     0.232 C 
HETATM    4  N3  UNL     1      -1.602  -2.200  -2.539  1.00  0.00    -0.254 NA
HETATM    5  C17 UNL     1      -1.946  -3.206  -1.783  1.00  0.00     0.120 C 
HETATM    6  C18 UNL     1      -2.739  -3.278  -0.562  1.00  0.00     0.043 C 
HETATM    7  C19 UNL     1      -3.160  -2.403   0.335  1.00  0.00     0.141 C 
HETATM    8  O2  UNL     1      -2.996  -1.045   0.448  1.00  0.00    -0.308 OA
ENDROOT
BRANCH   1   9
HETATM    9  C9  UNL     1      -0.875   0.062   0.583  1.00  0.00     0.056 C 
HETATM   10  C8  UNL     1       0.325   0.338   0.124  1.00  0.00    -0.023 C 
BRANCH  10  11
HETATM   11  C7  UNL     1       1.576   0.323   0.926  1.00  0.00     0.034 C 
BRANCH  11  12
HETATM   12  C6  UNL     1       2.590  -0.648   0.416  1.00  0.00     0.018 C 
HETATM   13  C2  UNL     1       3.812  -0.587   1.289  1.00  0.00     0.121 C 
HETATM   14  C1  UNL     1       4.510  -1.929   1.324  1.00  0.00     0.040 C 
HETATM   15  O1  UNL     1       4.660   0.460   0.978  1.00  0.00    -0.386 OA
HETATM   16  C3  UNL     1       4.953   0.580  -0.353  1.00  0.00     0.168 C 
HETATM   17  C4  UNL     1       3.695   0.835  -1.163  1.00  0.00     0.027 C 
HETATM   18  C5  UNL     1       2.867  -0.444  -1.032  1.00  0.00     0.009 C 
ENDBRANCH  11  12
ENDBRANCH  10  11
ENDBRANCH   1   9
BRANCH   1  19
HETATM   19  N1  UNL     1      -2.945   1.241   0.237  1.00  0.00    -0.331 N 
HETATM   20  C11 UNL     1      -4.241   1.318  -0.327  1.00  0.00     0.118 A 
HETATM   21  C12 UNL     1      -4.972   2.405  -0.097  1.00  0.00     0.087 A 
HETATM   22 CL1  UNL     1      -6.581   2.540  -0.777  1.00  0.00    -0.080 Cl
HETATM   23  C13 UNL     1      -4.438   3.486   0.720  1.00  0.00     0.137 A 
HETATM   24  F1  UNL     1      -5.221   4.582   0.931  1.00  0.00    -0.205 F 
HETATM   25  C14 UNL     1      -3.229   3.420   1.249  1.00  0.00     0.037 A 
HETATM   26  C15 UNL     1      -2.335   2.252   1.052  1.00  0.00     0.158 A 
ENDBRANCH   1  19
TORSDOF 4
