REMARK  5 active torsions:
REMARK  status: ('A' for Active; 'I' for Inactive)
REMARK    1  A    between atoms: C4_6  and  B1_7 
REMARK    2  A    between atoms: B1_7  and  C5_8 
REMARK    3  A    between atoms: C8_11  and  O1_12 
REMARK    4  A    between atoms: O1_12  and  N3_13 
REMARK    5  A    between atoms: N3_13  and  C9_14 
ROOT
HETATM    1  C5  UNL     1       1.781  -0.324  -0.005  1.00  0.00    -0.096 A 
HETATM    2  C6  UNL     1       1.196  -0.262   1.238  1.00  0.00    -0.002 A 
HETATM    3  C7  UNL     1      -0.149  -0.575   1.373  1.00  0.00     0.040 A 
HETATM    4  C8  UNL     1      -0.918  -0.951   0.269  1.00  0.00     0.120 A 
HETATM    5  C15 UNL     1      -0.308  -1.004  -0.962  1.00  0.00     0.069 A 
HETATM    6 CL1  UNL     1      -1.361  -1.485  -2.266  1.00  0.00    -0.081 Cl
HETATM    7  C16 UNL     1       1.028  -0.694  -1.096  1.00  0.00     0.021 A 
ENDROOT
BRANCH   4   8
HETATM    8  O1  UNL     1      -2.225  -1.218   0.619  1.00  0.00    -0.236 OA
BRANCH   8   9
HETATM    9  N3  UNL     1      -3.213  -1.605  -0.231  1.00  0.00    -0.261 N 
HETATM   10  H7  UNL     1      -3.225  -2.472  -0.832  1.00  0.00     0.195 HD
BRANCH   9  11
HETATM   11  C9  UNL     1      -4.384  -0.803  -0.372  1.00  0.00     0.057 A 
HETATM   12  C10 UNL     1      -5.460  -1.101  -1.212  1.00  0.00     0.031 A 
HETATM   13  C11 UNL     1      -6.548  -0.259  -1.277  1.00  0.00     0.005 A 
HETATM   14  C12 UNL     1      -6.635   0.897  -0.536  1.00  0.00     0.042 A 
HETATM   15  C13 UNL     1      -5.581   1.236   0.319  1.00  0.00     0.118 A 
HETATM   16  F1  UNL     1      -5.594   2.356   1.079  1.00  0.00    -0.206 F 
HETATM   17  C14 UNL     1      -4.517   0.366   0.350  1.00  0.00     0.073 A 
ENDBRANCH   9  11
ENDBRANCH   8   9
ENDBRANCH   4   8
BRANCH   1  18
HETATM   18  B1  UNL     1       3.485   0.045  -0.331  1.00  0.00     0.253 B 
BRANCH  18  19
HETATM   19  C4  UNL     1       5.236   0.329  -0.353  1.00  0.00     0.013 A 
HETATM   20  C2  UNL     1       6.298   0.189   0.648  1.00  0.00     0.044 A 
HETATM   21  C1  UNL     1       5.957  -0.286   2.015  1.00  0.00     0.071 C 
HETATM   22  N1  UNL     1       7.404   0.544   0.061  1.00  0.00    -0.246 NA
HETATM   23  C3  UNL     1       7.172   0.923  -1.287  1.00  0.00     0.232 A 
HETATM   24  N2  UNL     1       5.896   0.799  -1.541  1.00  0.00    -0.257 NA
ENDBRANCH  18  19
ENDBRANCH   1  18
TORSDOF 5
