REMARK  8 active torsions:
REMARK  status: ('A' for Active; 'I' for Inactive)
REMARK    1  A    between atoms: C4_6  and  N3_7 
REMARK    2  A    between atoms: C7_11  and  O1_12 
REMARK    3  A    between atoms: O1_12  and  C8_13 
REMARK    4  A    between atoms: C12_18  and  C13_19 
REMARK    5  A    between atoms: C14_20  and  C15_21 
REMARK    6  A    between atoms: C18_24  and  C19_25 
REMARK    7  A    between atoms: C19_25  and  N5_26 
REMARK    8  A    between atoms: N5_26  and  C20_27 
ROOT
HETATM    1  C8  UNL     1       6.414   2.019   2.736  1.00  0.00     0.299 C 
HETATM    2  C9  UNL     1       6.630   2.539   4.085  1.00  0.00     0.085 C 
HETATM    3  N4  UNL     1       6.795   2.943   5.140  1.00  0.00    -0.195 NA
ENDROOT
BRANCH   1   4
HETATM    4  O1  UNL     1       5.190   1.293   2.693  1.00  0.00    -0.336 OA
BRANCH   4   5
HETATM    5  C7  UNL     1       4.746   0.692   1.523  1.00  0.00     0.090 A 
HETATM    6  C6  UNL     1       5.017  -0.713   1.186  1.00  0.00     0.082 A 
HETATM    7  C5  UNL     1       4.568  -1.235   0.054  1.00  0.00     0.119 A 
HETATM    8 CL1  UNL     1       5.947  -1.636   2.346  1.00  0.00    -0.080 Cl
HETATM    9  N3  UNL     1       3.804  -0.460  -0.890  1.00  0.00    -0.335 N 
HETATM   10  C11 UNL     1       3.491   0.921  -0.641  1.00  0.00     0.160 A 
HETATM   11  C10 UNL     1       4.050   1.378   0.654  1.00  0.00     0.032 A 
BRANCH   9  12
HETATM   12  C4  UNL     1       3.437  -1.228  -2.023  1.00  0.00     0.152 A 
HETATM   13  N2  UNL     1       4.488  -1.694  -2.723  1.00  0.00    -0.223 NA
HETATM   14  C3  UNL     1       4.294  -2.443  -3.833  1.00  0.00     0.235 A 
HETATM   15  N1  UNL     1       3.046  -2.750  -4.280  1.00  0.00    -0.245 NA
HETATM   16  C2  UNL     1       1.979  -2.298  -3.601  1.00  0.00     0.054 A 
HETATM   17  C1  UNL     1       0.613  -2.615  -4.060  1.00  0.00     0.072 C 
HETATM   18  C12 UNL     1       2.179  -1.546  -2.485  1.00  0.00     0.088 A 
BRANCH  18  19
HETATM   19  C13 UNL     1       1.090  -1.031  -1.705  1.00  0.00    -0.055 C 
HETATM   20  C14 UNL     1       0.156  -0.609  -1.055  1.00  0.00    -0.061 C 
BRANCH  20  21
HETATM   21  C15 UNL     1      -0.945  -0.100  -0.282  1.00  0.00     0.018 A 
HETATM   22  C16 UNL     1      -1.960   0.602  -0.933  1.00  0.00     0.021 A 
HETATM   23  C17 UNL     1      -3.049   1.120  -0.257  1.00  0.00     0.010 A 
HETATM   24  C18 UNL     1      -3.172   0.959   1.108  1.00  0.00    -0.041 A 
HETATM   25  C23 UNL     1      -2.146   0.252   1.750  1.00  0.00     0.010 A 
HETATM   26  C24 UNL     1      -1.055  -0.268   1.083  1.00  0.00     0.021 A 
BRANCH  24  27
HETATM   27  C19 UNL     1      -4.260   1.437   1.996  1.00  0.00     0.153 C 
BRANCH  27  28
HETATM   28  N5  UNL     1      -5.318   0.513   2.168  1.00  0.00    -0.414 N 
HETATM   29  H15 UNL     1      -5.865   0.595   3.025  1.00  0.00     0.153 HD
BRANCH  28  30
HETATM   30  C20 UNL     1      -6.040   0.142   0.987  1.00  0.00     0.068 C 
HETATM   31  C21 UNL     1      -6.727   1.284   0.315  1.00  0.00     0.031 C 
HETATM   32  C22 UNL     1      -7.065  -0.933   1.282  1.00  0.00     0.031 C 
ENDBRANCH  28  30
ENDBRANCH  27  28
ENDBRANCH  24  27
ENDBRANCH  20  21
ENDBRANCH  18  19
ENDBRANCH   9  12
ENDBRANCH   4   5
ENDBRANCH   1   4
TORSDOF 8
