REMARK  7 active torsions:
REMARK  status: ('A' for Active; 'I' for Inactive)
REMARK    1  A    between atoms: O1_2  and  C2_3 
REMARK    2  A    between atoms: C2_3  and  C3_4 
REMARK    3  A    between atoms: C2_3  and  C14_20 
REMARK    4  A    between atoms: C6_7  and  N1_8 
REMARK    5  A    between atoms: N1_8  and  C7_9 
REMARK    6  A    between atoms: C14_20  and  O2_21 
REMARK    7  A    between atoms: O2_21  and  C15_22 
ROOT
HETATM    1  C3  UNL     1      -1.053   0.719   0.725  1.00  0.00     0.034 C 
HETATM    2  C4  UNL     1       0.068   0.372   0.125  1.00  0.00     0.041 A 
HETATM    3  C5  UNL     1       1.280   1.211   0.410  1.00  0.00     0.137 A 
HETATM    4  C6  UNL     1       2.446   0.681  -0.339  1.00  0.00     0.111 A 
HETATM    5  N2  UNL     1       2.480  -0.338  -1.129  1.00  0.00    -0.228 NA
HETATM    6  C13 UNL     1       1.290  -1.083  -1.348  1.00  0.00     0.235 A 
HETATM    7  N3  UNL     1       0.205  -0.726  -0.755  1.00  0.00    -0.246 NA
ENDROOT
BRANCH   1   8
HETATM    8  C2  UNL     1      -2.419   0.107   0.660  1.00  0.00     0.169 C 
BRANCH   8   9
HETATM    9  O1  UNL     1      -2.759  -0.342   1.914  1.00  0.00    -0.385 OA
HETATM   10  C1  UNL     1      -3.799   0.378   2.487  1.00  0.00     0.202 C 
ENDBRANCH   8   9
BRANCH   8  11
HETATM   11  C14 UNL     1      -2.511  -0.946  -0.390  1.00  0.00     0.207 C 
BRANCH  11  12
HETATM   12  O2  UNL     1      -3.740  -1.509  -0.596  1.00  0.00    -0.358 OA
BRANCH  12  13
HETATM   13  C15 UNL     1      -4.741  -0.671  -1.011  1.00  0.00     0.261 C 
HETATM   14  C16 UNL     1      -6.076  -0.761  -0.352  1.00  0.00     0.087 C 
HETATM   15  C17 UNL     1      -6.570  -0.745  -1.787  1.00  0.00     0.175 C 
HETATM   16  O3  UNL     1      -5.292  -0.995  -2.263  1.00  0.00    -0.361 OA
ENDBRANCH  12  13
ENDBRANCH  11  12
ENDBRANCH   8  11
ENDBRANCH   1   8
BRANCH   4  17
HETATM   17  N1  UNL     1       3.681   1.359  -0.188  1.00  0.00    -0.344 N 
HETATM   18  H8  UNL     1       3.692   2.424  -0.149  1.00  0.00     0.167 HD
BRANCH  17  19
HETATM   19  C7  UNL     1       4.953   0.736  -0.075  1.00  0.00     0.035 A 
HETATM   20  C8  UNL     1       6.125   1.483   0.033  1.00  0.00     0.032 A 
HETATM   21  C9  UNL     1       7.365   0.945   0.148  1.00  0.00     0.046 A 
HETATM   22  C10 UNL     1       7.530  -0.423   0.163  1.00  0.00     0.138 A 
HETATM   23  F1  UNL     1       8.786  -0.915   0.280  1.00  0.00    -0.204 F 
HETATM   24  C11 UNL     1       6.412  -1.223   0.060  1.00  0.00     0.074 A 
HETATM   25 CL1  UNL     1       6.587  -2.965   0.077  1.00  0.00    -0.081 Cl
HETATM   26  C12 UNL     1       5.183  -0.614  -0.054  1.00  0.00     0.056 A 
ENDBRANCH  17  19
ENDBRANCH   4  17
TORSDOF 7
