REMARK  7 active torsions:
REMARK  status: ('A' for Active; 'I' for Inactive)
REMARK    1  A    between atoms: C2_3  and  C3_4 
REMARK    2  A    between atoms: C3_4  and  C4_5 
REMARK    3  A    between atoms: C5_6  and  N2_7 
REMARK    4  A    between atoms: N2_7  and  C6_8 
REMARK    5  A    between atoms: C9_11  and  O1_12 
REMARK    6  A    between atoms: O1_12  and  C10_13 
REMARK    7  A    between atoms: C10_13  and  C11_14 
ROOT
HETATM    1  C6  UNL     1       0.848  -0.148   0.231  1.00  0.00     0.035 A 
HETATM    2  C7  UNL     1      -0.093   0.713   0.739  1.00  0.00     0.032 A 
HETATM    3  C8  UNL     1      -1.322   0.256   1.152  1.00  0.00     0.041 A 
HETATM    4  C9  UNL     1      -1.693  -1.069   1.086  1.00  0.00     0.091 A 
HETATM    5  C17 UNL     1      -0.735  -1.956   0.567  1.00  0.00     0.069 A 
HETATM    6 CL1  UNL     1      -0.849  -3.692   0.332  1.00  0.00    -0.081 Cl
HETATM    7  C18 UNL     1       0.526  -1.509   0.141  1.00  0.00     0.056 A 
ENDROOT
BRANCH   1   8
HETATM    8  N2  UNL     1       2.104   0.374  -0.181  1.00  0.00    -0.341 N 
HETATM    9  H7  UNL     1       2.546   0.758   0.701  1.00  0.00     0.167 HD
BRANCH   8  10
HETATM   10  C5  UNL     1       2.602   0.354  -1.511  1.00  0.00     0.129 A 
HETATM   11  C4  UNL     1       3.878   0.499  -2.007  1.00  0.00     0.060 A 
HETATM   12  N3  UNL     1       2.782   0.287  -2.875  1.00  0.00    -0.341 N 
HETATM   13  H17 UNL     1       2.321   0.160  -3.799  1.00  0.00     0.167 HD
BRANCH  11  14
HETATM   14  C3  UNL     1       5.362   0.705  -2.044  1.00  0.00     0.107 C 
BRANCH  14  15
HETATM   15  C2  UNL     1       5.867   0.887  -0.634  1.00  0.00     0.088 C 
HETATM   16  N1  UNL     1       6.620   0.773   0.378  1.00  0.00    -0.310 NA
HETATM   17  C1  UNL     1       7.834   0.024   0.414  1.00  0.00     0.176 C 
ENDBRANCH  14  15
ENDBRANCH  11  14
ENDBRANCH   8  10
ENDBRANCH   1   8
BRANCH   4  18
HETATM   18  O1  UNL     1      -2.763  -1.825   1.390  1.00  0.00    -0.345 OA
BRANCH  18  19
HETATM   19  C10 UNL     1      -3.995  -1.490   1.923  1.00  0.00     0.214 C 
BRANCH  19  20
HETATM   20  C11 UNL     1      -4.807  -0.551   1.122  1.00  0.00    -0.031 A 
HETATM   21  C12 UNL     1      -4.947   0.804   1.196  1.00  0.00     0.009 A 
HETATM   22  C13 UNL     1      -5.739   1.555   0.361  1.00  0.00     0.004 A 
HETATM   23  C14 UNL     1      -6.463   0.964  -0.632  1.00  0.00     0.042 A 
HETATM   24  C15 UNL     1      -6.380  -0.411  -0.778  1.00  0.00     0.117 A 
HETATM   25  F1  UNL     1      -7.102  -0.988  -1.764  1.00  0.00    -0.206 F 
HETATM   26  C16 UNL     1      -5.564  -1.114   0.094  1.00  0.00     0.051 A 
ENDBRANCH  19  20
ENDBRANCH  18  19
ENDBRANCH   4  18
TORSDOF 7
