REMARK  7 active torsions:
REMARK  status: ('A' for Active; 'I' for Inactive)
REMARK    1  A    between atoms: C5_6  and  C6_7 
REMARK    2  A    between atoms: C6_7  and  O1_8 
REMARK    3  A    between atoms: O1_8  and  C7_9 
REMARK    4  A    between atoms: C9_12  and  N1_13 
REMARK    5  A    between atoms: N1_13  and  C10_14 
REMARK    6  A    between atoms: C15_19  and  C16_20 
REMARK    7  A    between atoms: C17_21  and  C18_22 
ROOT
HETATM    1  C7  UNL     1       1.056  -0.495   0.810  1.00  0.00     0.112 A 
HETATM    2  C8  UNL     1       0.457  -1.592   1.397  1.00  0.00     0.176 A 
HETATM    3  O2  UNL     1      -0.798  -1.519   1.904  1.00  0.00    -0.332 OA
HETATM    4  C9  UNL     1      -1.658  -0.346   1.785  1.00  0.00     0.252 A 
HETATM    5  C20 UNL     1      -0.856   0.720   1.166  1.00  0.00     0.053 A 
HETATM    6  C21 UNL     1       0.379   0.824   0.664  1.00  0.00     0.069 A 
HETATM    7 CL1  UNL     1       1.613   1.767  -0.081  1.00  0.00    -0.081 Cl
ENDROOT
BRANCH   4   8
HETATM    8  N1  UNL     1      -2.825  -0.668   1.053  1.00  0.00    -0.359 N 
HETATM    9  H8  UNL     1      -2.900  -1.466   1.759  1.00  0.00     0.162 HD
BRANCH   8  10
HETATM   10  C10 UNL     1      -3.991  -0.989   0.322  1.00  0.00     0.049 A 
HETATM   11  C11 UNL     1      -4.883  -1.990   0.478  1.00  0.00     0.031 A 
HETATM   12  C12 UNL     1      -5.955  -2.345  -0.287  1.00  0.00     0.002 A 
HETATM   13  C13 UNL     1      -6.047  -1.464  -1.391  1.00  0.00     0.002 A 
HETATM   14  C14 UNL     1      -5.193  -0.460  -1.581  1.00  0.00     0.023 A 
HETATM   15  C15 UNL     1      -4.117  -0.119  -0.784  1.00  0.00     0.044 A 
BRANCH  15  16
HETATM   16  C16 UNL     1      -3.420   1.041  -1.129  1.00  0.00    -0.062 C 
HETATM   17  C17 UNL     1      -2.827   2.064  -1.421  1.00  0.00    -0.068 C 
BRANCH  17  18
HETATM   18  C18 UNL     1      -2.111   3.267  -1.783  1.00  0.00     0.226 A 
HETATM   19  C19 UNL     1      -1.291   3.993  -0.918  1.00  0.00     0.125 A 
HETATM   20  N2  UNL     1      -2.610   4.384  -0.933  1.00  0.00    -0.280 NA
ENDBRANCH  17  18
ENDBRANCH  15  16
ENDBRANCH   8  10
ENDBRANCH   4   8
BRANCH   1  21
HETATM   21  O1  UNL     1       2.261  -0.968   0.457  1.00  0.00    -0.343 OA
BRANCH  21  22
HETATM   22  C6  UNL     1       3.474  -1.172   1.069  1.00  0.00     0.214 C 
BRANCH  22  23
HETATM   23  C5  UNL     1       4.604  -0.535   0.284  1.00  0.00    -0.031 A 
HETATM   24  C4  UNL     1       5.023  -1.306  -0.770  1.00  0.00     0.009 A 
HETATM   25  C3  UNL     1       5.995  -0.629  -1.433  1.00  0.00     0.004 A 
HETATM   26  C2  UNL     1       6.641   0.564  -1.333  1.00  0.00     0.042 A 
HETATM   27  C1  UNL     1       6.094   1.253  -0.178  1.00  0.00     0.117 A 
HETATM   28  F1  UNL     1       6.638   2.476   0.065  1.00  0.00    -0.206 F 
HETATM   29  C22 UNL     1       5.085   0.725   0.635  1.00  0.00     0.051 A 
ENDBRANCH  22  23
ENDBRANCH  21  22
ENDBRANCH   1  21
TORSDOF 7
