REMARK  2 active torsions:
REMARK  status: ('A' for Active; 'I' for Inactive)
REMARK    1  A    between atoms: C2_2  and  N1_3 
REMARK    2  A    between atoms: C8_9  and  C9_10 
ROOT
HETATM    1  C1  UNL     1      -3.286  -1.251  -0.234  1.00  0.00     0.050 C 
HETATM    2  C2  UNL     1      -2.370  -0.084  -0.600  1.00  0.00     0.171 C 
HETATM    3  C3  UNL     1      -1.377  -0.560  -1.620  1.00  0.00     0.056 C 
HETATM    4  C4  UNL     1      -0.585  -1.725  -1.203  1.00  0.00    -0.011 A 
HETATM    5  C5  UNL     1      -1.085  -2.954  -1.552  1.00  0.00    -0.036 A 
HETATM    6  C6  UNL     1       0.067  -3.204  -0.891  1.00  0.00     0.027 A 
HETATM    7  C7  UNL     1       0.607  -1.964  -0.519  1.00  0.00    -0.001 A 
HETATM    8  C8  UNL     1       1.304  -2.947  -0.157  1.00  0.00     0.027 A 
HETATM    9  C9  UNL     1       0.576  -1.668  -0.523  1.00  0.00     0.030 A 
HETATM   10  C10 UNL     1       1.906  -1.744   0.245  1.00  0.00     0.036 A 
HETATM   11  C11 UNL     1       2.874  -1.591   0.793  1.00  0.00    -0.141 C 
HETATM   12  C12 UNL     1       4.042  -1.428   1.461  1.00  0.00     0.087 C 
HETATM   13  C13 UNL     1       4.860  -1.055   0.509  1.00  0.00     0.117 C 
HETATM   14  N2  UNL     1       4.655   0.070  -0.087  1.00  0.00    -0.146 NA
HETATM   15  N3  UNL     1       3.369   0.618   0.137  1.00  0.00    -0.143 NA
HETATM   16  C14 UNL     1       3.354   1.755   0.767  1.00  0.00     0.256 C 
HETATM   17  N4  UNL     1       2.137   2.417   1.060  1.00  0.00    -0.255 NA
HETATM   18  C15 UNL     1       1.528   3.146   0.194  1.00  0.00     0.120 C 
HETATM   19  C16 UNL     1       0.314   3.644   0.899  1.00  0.00     0.316 C 
HETATM   20  N5  UNL     1      -0.460   2.519   1.379  1.00  0.00     0.089 N 
HETATM   21  C17 UNL     1      -0.991   1.846   0.193  1.00  0.00     0.292 C 
HETATM   22  C18 UNL     1      -1.812   0.642   0.563  1.00  0.00     0.148 C 
HETATM   23 CL1  UNL     1      -3.182   1.193   1.569  1.00  0.00    -0.120 Cl
HETATM   24  H17 UNL     1       0.233   1.888   1.880  1.00  0.00     0.316 HD
ENDROOT
BRANCH   2  25
HETATM   25  N1  UNL     1      -3.253   0.860  -1.306  1.00  0.00     0.089 N 
HETATM   26  H4  UNL     1      -3.944   1.148  -0.567  1.00  0.00     0.313 HD
HETATM   27  H5  UNL     1      -3.702   0.421  -2.133  1.00  0.00     0.313 HD
ENDBRANCH   2  25
TORSDOF 2
