REMARK  10 active torsions:
REMARK  status: ('A' for Active; 'I' for Inactive)
REMARK    1  A    between atoms: C2_2  and  C3_3 
REMARK    2  A    between atoms: C2_2  and  C7_9 
REMARK    3  A    between atoms: C3_3  and  C4_4 
REMARK    4  A    between atoms: C4_4  and  C5_5 
REMARK    5  A    between atoms: C5_5  and  C6_7 
REMARK    6  A    between atoms: C7_9  and  N1_10 
REMARK    7  A    between atoms: N1_10  and  C8_11 
REMARK    8  A    between atoms: C12_17  and  O1_18 
REMARK    9  A    between atoms: C15_21  and  O2_22 
REMARK   10  A    between atoms: O2_22  and  C16_23 
ROOT
HETATM    1  C8  UNL     1       0.143   0.065  -1.278  1.00  0.00     0.140 A 
HETATM    2  N2  UNL     1       0.670   0.108  -2.510  1.00  0.00    -0.224 NA
HETATM    3  C9  UNL     1       0.223   0.898  -3.470  1.00  0.00     0.236 A 
HETATM    4  N3  UNL     1      -0.815   1.725  -3.255  1.00  0.00    -0.241 NA
HETATM    5  C10 UNL     1      -1.419   1.761  -2.053  1.00  0.00     0.077 A 
HETATM    6  C11 UNL     1      -2.465   2.617  -1.889  1.00  0.00     0.069 A 
HETATM    7  C12 UNL     1      -3.089   2.662  -0.657  1.00  0.00     0.073 A 
HETATM    8  C14 UNL     1      -2.614   1.834   0.335  1.00  0.00     0.074 A 
HETATM    9  C15 UNL     1      -1.552   0.980   0.134  1.00  0.00     0.088 A 
HETATM   10  C20 UNL     1      -0.918   0.922  -1.087  1.00  0.00     0.072 A 
ENDROOT
BRANCH   1  11
HETATM   11  N1  UNL     1       0.659  -0.816  -0.290  1.00  0.00    -0.370 N 
HETATM   12  H8  UNL     1       0.476  -1.079   0.687  1.00  0.00     0.161 HD
BRANCH  11  13
HETATM   13  C7  UNL     1       1.788  -1.625  -0.705  1.00  0.00     0.156 C 
BRANCH  13  14
HETATM   14  C2  UNL     1       2.930  -0.713  -0.953  1.00  0.00    -0.054 C 
HETATM   15  C1  UNL     1       2.941   0.603  -0.806  1.00  0.00     0.041 C 
BRANCH  14  16
HETATM   16  C3  UNL     1       4.213  -1.132  -1.402  1.00  0.00     0.061 C 
BRANCH  16  17
HETATM   17  C4  UNL     1       4.472  -2.417  -1.629  1.00  0.00    -0.106 C 
BRANCH  17  18
HETATM   18  C5  UNL     1       4.419  -3.746  -1.649  1.00  0.00     0.085 C 
HETATM   19 CL1  UNL     1       3.887  -4.314  -3.177  1.00  0.00    -0.077 Cl
BRANCH  18  20
HETATM   20  C6  UNL     1       4.796  -4.442  -0.429  1.00  0.00     0.282 C 
HETATM   21  F1  UNL     1       3.695  -5.189   0.001  1.00  0.00    -0.249 F 
ENDBRANCH  18  20
ENDBRANCH  17  18
ENDBRANCH  16  17
ENDBRANCH  14  16
ENDBRANCH  13  14
ENDBRANCH  11  13
ENDBRANCH   1  11
BRANCH   9  22
HETATM   22  O2  UNL     1      -1.174   0.215   1.183  1.00  0.00    -0.343 OA
BRANCH  22  23
HETATM   23  C16 UNL     1      -1.600   0.068   2.461  1.00  0.00     0.154 C 
HETATM   24  C17 UNL     1      -0.574   0.333   3.540  1.00  0.00     0.061 C 
HETATM   25  C18 UNL     1      -1.297  -0.288   4.720  1.00  0.00     0.170 C 
HETATM   26  O3  UNL     1      -1.866  -1.434   4.218  1.00  0.00    -0.389 OA
HETATM   27  C19 UNL     1      -2.035  -1.323   2.860  1.00  0.00     0.200 C 
ENDBRANCH  22  23
ENDBRANCH   9  22
BRANCH   7  28
HETATM   28  O1  UNL     1      -4.153   3.541  -0.512  1.00  0.00    -0.356 OA
HETATM   29  C13 UNL     1      -4.553   4.336  -1.586  1.00  0.00     0.210 C 
ENDBRANCH   7  28
TORSDOF 10
