REMARK  4 active torsions:
REMARK  status: ('A' for Active; 'I' for Inactive)
REMARK    1  A    between atoms: C3_3  and  C4_4 
REMARK    2  A    between atoms: C5_6  and  C8_9 
REMARK    3  A    between atoms: C10_11  and  C11_12 
REMARK    4  A    between atoms: C11_12  and  N1_13 
ROOT
HETATM    1  C4  UNL     1       1.233   1.201   1.929  1.00  0.00     0.138 C 
HETATM    2  F1  UNL     1       2.452   1.272   2.320  1.00  0.00    -0.237 F 
HETATM    3  C5  UNL     1       1.490   0.099   0.424  1.00  0.00     0.020 A 
HETATM    4  C6  UNL     1       1.209  -0.295  -0.879  1.00  0.00     0.077 A 
HETATM    5  C7  UNL     1       0.384  -0.198  -1.865  1.00  0.00     0.014 A 
HETATM    6  C8  UNL     1       0.328   0.448  -0.501  1.00  0.00     0.026 A 
HETATM    7  C9  UNL     1       1.435   0.096   0.338  1.00  0.00    -0.005 A 
HETATM    8  C10 UNL     1       2.611  -0.411   0.930  1.00  0.00     0.018 A 
HETATM    9  C14 UNL     1       0.327   0.143   1.856  1.00  0.00     0.063 C 
HETATM   10  C15 UNL     1       0.180  -1.217   1.937  1.00  0.00    -0.020 C 
HETATM   11  C16 UNL     1      -0.868  -1.843   1.306  1.00  0.00    -0.011 C 
HETATM   12  C17 UNL     1      -1.940  -1.275   0.505  1.00  0.00     0.144 C 
HETATM   13  N2  UNL     1      -2.045  -1.732  -0.873  1.00  0.00    -0.389 N 
HETATM   14  C18 UNL     1      -3.163  -0.938  -1.451  1.00  0.00     0.154 A 
HETATM   15  N3  UNL     1      -4.076  -1.934  -1.135  1.00  0.00    -0.247 NA
HETATM   16  C19 UNL     1      -5.418  -1.781  -1.307  1.00  0.00     0.225 A 
HETATM   17  N4  UNL     1      -5.778  -0.450  -1.853  1.00  0.00    -0.267 N 
HETATM   18  C20 UNL     1      -4.418   0.066  -1.952  1.00  0.00     0.116 A 
HETATM   19  C21 UNL     1      -4.808   1.478  -2.524  1.00  0.00     0.047 C 
HETATM   20  C22 UNL     1      -3.333   0.515  -2.046  1.00  0.00     0.094 A 
HETATM   21  C23 UNL     1      -2.032   0.289  -1.993  1.00  0.00     0.028 A 
HETATM   22  C24 UNL     1      -0.935   0.078  -1.941  1.00  0.00    -0.141 C 
HETATM   23  H21 UNL     1      -1.597  -2.398  -1.527  1.00  0.00     0.156 HD
ENDROOT
BRANCH   1  24
HETATM   24  C3  UNL     1       1.007   2.458   1.140  1.00  0.00     0.013 C 
HETATM   25  C2  UNL     1       0.263   3.501   1.406  1.00  0.00    -0.032 C 
HETATM   26  C1  UNL     1      -0.625   3.902   2.507  1.00  0.00     0.036 C 
ENDBRANCH   1  24
BRANCH   8  27
HETATM   27  C11 UNL     1       3.757  -1.356   1.304  1.00  0.00     0.283 C 
BRANCH  27  28
HETATM   28  N1  UNL     1       4.655  -1.606   0.244  1.00  0.00     0.080 N 
HETATM   29  C12 UNL     1       4.054  -2.242  -0.906  1.00  0.00     0.309 C 
HETATM   30  C13 UNL     1       5.550  -0.553  -0.121  1.00  0.00     0.309 C 
ENDBRANCH  27  28
ENDBRANCH   8  27
TORSDOF 4
