REMARK  0 active torsions:
REMARK  status: ('A' for Active; 'I' for Inactive)
ROOT
HETATM    1  C1  UNL     1      -5.009   1.112  -0.290  1.00  0.00     0.019 C 
HETATM    2  C2  UNL     1      -3.759   0.899  -0.667  1.00  0.00    -0.058 C 
HETATM    3  C3  UNL     1      -2.938   2.030  -0.292  1.00  0.00     0.049 C 
HETATM    4  C4  UNL     1      -1.901   2.759  -0.159  1.00  0.00     0.116 C 
HETATM    5  F1  UNL     1      -1.508   3.939   0.332  1.00  0.00    -0.206 F 
HETATM    6  C5  UNL     1      -0.525   2.687  -0.488  1.00  0.00     0.039 C 
HETATM    7  C6  UNL     1       0.732   2.922  -0.644  1.00  0.00    -0.009 C 
HETATM    8  C7  UNL     1       2.127   2.842  -0.982  1.00  0.00     0.078 C 
HETATM    9  C8  UNL     1       2.562   1.436  -0.746  1.00  0.00     0.017 C 
HETATM   10  C9  UNL     1       2.584   1.529   0.575  1.00  0.00     0.034 C 
HETATM   11  C10 UNL     1       2.822   2.874   1.092  1.00  0.00     0.050 C 
HETATM   12  C11 UNL     1       2.944   3.637   0.000  1.00  0.00     0.025 C 
HETATM   13 CL1  UNL     1       3.880   5.121   0.057  1.00  0.00    -0.088 Cl
HETATM   14  N1  UNL     1       2.377   0.333   1.309  1.00  0.00    -0.333 N 
HETATM   15  C12 UNL     1       1.408  -0.660   1.566  1.00  0.00     0.107 C 
HETATM   16  C13 UNL     1       1.820  -1.598   0.687  1.00  0.00     0.003 C 
HETATM   17  C14 UNL     1       0.827  -2.291  -0.156  1.00  0.00     0.011 C 
HETATM   18  C15 UNL     1      -0.411  -2.090  -0.658  1.00  0.00    -0.020 C 
HETATM   19  C16 UNL     1      -1.318  -0.854  -0.459  1.00  0.00     0.059 C 
HETATM   20  C17 UNL     1      -2.467  -1.233  -1.229  1.00  0.00    -0.007 C 
HETATM   21  C18 UNL     1      -3.158  -2.318  -2.142  1.00  0.00     0.276 C 
HETATM   22  N2  UNL     1      -4.346  -2.604  -1.404  1.00  0.00     0.084 N 
HETATM   23  C19 UNL     1      -4.774  -1.324  -0.859  1.00  0.00     0.279 C 
HETATM   24  C20 UNL     1      -3.652  -0.380  -1.338  1.00  0.00     0.053 C 
HETATM   25  C21 UNL     1       3.258  -1.916   0.576  1.00  0.00     0.039 C 
HETATM   26  C22 UNL     1       3.752  -2.945  -0.404  1.00  0.00     0.071 C 
HETATM   27  N3  UNL     1       4.057  -1.239   1.380  1.00  0.00    -0.268 NA
HETATM   28  C23 UNL     1       3.551  -0.059   2.075  1.00  0.00     0.209 C 
HETATM   29  C24 UNL     1       3.249  -0.330   3.524  1.00  0.00     0.058 C 
HETATM   30  H15 UNL     1      -4.190  -3.332  -0.706  1.00  0.00     0.315 HD
ENDROOT
TORSDOF 0
