REMARK  4 active torsions:
REMARK  status: ('A' for Active; 'I' for Inactive)
REMARK    1  A    between atoms: C3_3  and  C4_4 
REMARK    2  A    between atoms: C5_5  and  C6_6 
REMARK    3  A    between atoms: C9_9  and  C10_10 
REMARK    4  A    between atoms: C10_10  and  N1_11 
ROOT
HETATM    1  C1  UNL     1       3.400  -1.477   0.519  1.00  0.00     0.020 C 
HETATM    2  C2  UNL     1       3.596   0.016   0.481  1.00  0.00     0.058 A 
HETATM    3  C3  UNL     1       2.831   0.619  -0.624  1.00  0.00     0.019 A 
HETATM    4  C15 UNL     1       3.305   1.350  -1.607  1.00  0.00     0.105 A 
HETATM    5  N2  UNL     1       4.711   1.574  -1.587  1.00  0.00    -0.365 N 
HETATM    6  C16 UNL     1       5.579   1.056  -0.585  1.00  0.00     0.036 A 
HETATM    7  C17 UNL     1       5.046   0.316   0.397  1.00  0.00    -0.022 A 
HETATM    8  C18 UNL     1       6.119  -0.113   1.318  1.00  0.00     0.137 A 
HETATM    9 CL1  UNL     1       5.840   0.440   2.981  1.00  0.00    -0.116 Cl
HETATM   10  C19 UNL     1       7.340   0.487   0.723  1.00  0.00     0.000 A 
HETATM   11  C20 UNL     1       7.037   1.169  -0.383  1.00  0.00     0.027 A 
HETATM   12  H18 UNL     1       5.114   2.156  -2.364  1.00  0.00     0.165 HD
ENDROOT
BRANCH   3  13
HETATM   13  C4  UNL     1       1.416   0.365  -0.600  1.00  0.00    -0.064 C 
HETATM   14  C5  UNL     1       0.207   0.154  -0.600  1.00  0.00    -0.062 C 
BRANCH  14  15
HETATM   15  C6  UNL     1      -1.206  -0.117  -0.602  1.00  0.00     0.018 A 
HETATM   16  C7  UNL     1      -1.979   0.748  -1.358  1.00  0.00     0.021 A 
HETATM   17  C8  UNL     1      -3.340   0.520  -1.384  1.00  0.00     0.010 A 
HETATM   18  C9  UNL     1      -3.903  -0.544  -0.672  1.00  0.00    -0.030 A 
HETATM   19  C13 UNL     1      -3.097  -1.383   0.069  1.00  0.00     0.010 A 
HETATM   20  C14 UNL     1      -1.735  -1.177   0.112  1.00  0.00     0.021 A 
BRANCH  18  21
HETATM   21  C10 UNL     1      -5.399  -0.676  -0.790  1.00  0.00     0.309 C 
BRANCH  21  22
HETATM   22  N1  UNL     1      -5.991   0.104   0.275  1.00  0.00     0.084 N 
HETATM   23  C11 UNL     1      -7.415   0.076   0.292  1.00  0.00     0.309 C 
HETATM   24  C12 UNL     1      -5.337  -0.054   1.530  1.00  0.00     0.309 C 
ENDBRANCH  21  22
ENDBRANCH  18  21
ENDBRANCH  14  15
ENDBRANCH   3  13
TORSDOF 4
