REMARK  5 active torsions:
REMARK  status: ('A' for Active; 'I' for Inactive)
REMARK    1  A    between atoms: C4_6  and  N3_7 
REMARK    2  A    between atoms: C5_9  and  C6_10 
REMARK    3  A    between atoms: C7_11  and  C8_12 
REMARK    4  A    between atoms: C11_15  and  C12_16 
REMARK    5  A    between atoms: C12_16  and  N4_17 
ROOT
HETATM    1  C8  UNL     1       1.047   0.315   0.114  1.00  0.00     0.021 A 
HETATM    2  C9  UNL     1       0.369  -0.616   0.887  1.00  0.00     0.021 A 
HETATM    3  C10 UNL     1      -0.957  -0.470   1.218  1.00  0.00     0.013 A 
HETATM    4  C11 UNL     1      -1.668   0.629   0.783  1.00  0.00     0.009 A 
HETATM    5  C17 UNL     1      -1.003   1.579   0.002  1.00  0.00     0.125 A 
HETATM    6  F1  UNL     1      -1.585   2.707  -0.493  1.00  0.00    -0.205 F 
HETATM    7  C18 UNL     1       0.341   1.416  -0.324  1.00  0.00     0.063 A 
ENDROOT
BRANCH   1   8
HETATM    8  C7  UNL     1       2.443   0.094  -0.189  1.00  0.00    -0.061 C 
HETATM    9  C6  UNL     1       3.609  -0.080  -0.424  1.00  0.00    -0.055 C 
BRANCH   9  10
HETATM   10  C5  UNL     1       5.004  -0.282  -0.681  1.00  0.00     0.092 A 
HETATM   11  C2  UNL     1       5.681  -1.278   0.033  1.00  0.00     0.054 A 
HETATM   12  C1  UNL     1       4.909  -2.080   1.025  1.00  0.00     0.072 C 
HETATM   13  N1  UNL     1       6.990  -1.477  -0.197  1.00  0.00    -0.245 NA
HETATM   14  C3  UNL     1       7.706  -0.767  -1.087  1.00  0.00     0.235 A 
HETATM   15  N2  UNL     1       7.050   0.206  -1.785  1.00  0.00    -0.219 NA
HETATM   16  C4  UNL     1       5.743   0.444  -1.593  1.00  0.00     0.201 A 
BRANCH  16  17
HETATM   17  N3  UNL     1       5.027   1.450  -2.300  1.00  0.00    -0.076 NA
HETATM   18  O1  UNL     1       4.463   2.315  -1.588  1.00  0.00    -0.059 OA
ENDBRANCH  16  17
ENDBRANCH   9  10
ENDBRANCH   1   8
BRANCH   4  19
HETATM   19  C12 UNL     1      -3.089   0.986   1.018  1.00  0.00     0.314 C 
BRANCH  19  20
HETATM   20  N4  UNL     1      -3.953   0.757  -0.100  1.00  0.00     0.092 N 
HETATM   21  C13 UNL     1      -5.285   1.163   0.298  1.00  0.00     0.273 C 
HETATM   22  C14 UNL     1      -6.274   0.242  -0.356  1.00  0.00     0.032 C 
HETATM   23  C15 UNL     1      -5.420  -0.672  -1.214  1.00  0.00     0.032 C 
HETATM   24  C16 UNL     1      -4.116  -0.635  -0.442  1.00  0.00     0.273 C 
ENDBRANCH  19  20
ENDBRANCH   4  19
TORSDOF 5
