REMARK  6 active torsions:
REMARK  status: ('A' for Active; 'I' for Inactive)
REMARK    1  A    between atoms: C3_3  and  C4_4 
REMARK    2  A    between atoms: C5_6  and  C6_7 
REMARK    3  A    between atoms: C6_7  and  C7_8 
REMARK    4  A    between atoms: C7_8  and  C8_9 
REMARK    5  A    between atoms: C9_10  and  C10_11 
REMARK    6  A    between atoms: C13_14  and  C14_15 
ROOT
HETATM    1  C10 UNL     1       1.384   0.659  -0.285  1.00  0.00     0.017 A 
HETATM    2  C11 UNL     1       2.364   1.626  -0.215  1.00  0.00     0.021 A 
HETATM    3  C12 UNL     1       3.687   1.227  -0.332  1.00  0.00     0.011 A 
HETATM    4  C13 UNL     1       4.051  -0.070  -0.511  1.00  0.00    -0.022 A 
HETATM    5  C18 UNL     1       3.033  -1.026  -0.577  1.00  0.00     0.011 A 
HETATM    6  C19 UNL     1       1.684  -0.695  -0.468  1.00  0.00     0.021 A 
ENDROOT
BRANCH   1   7
HETATM    7  C9  UNL     1      -0.027   0.998  -0.169  1.00  0.00    -0.067 C 
HETATM    8  C8  UNL     1      -1.194   1.258  -0.066  1.00  0.00    -0.098 C 
BRANCH   8   9
HETATM    9  C7  UNL     1      -2.609   1.563   0.081  1.00  0.00     0.137 C 
BRANCH   9  10
HETATM   10  C6  UNL     1      -3.382   0.298  -0.269  1.00  0.00     0.137 A 
HETATM   11  N2  UNL     1      -2.977  -0.305  -1.547  1.00  0.00    -0.275 NA
HETATM   12  C20 UNL     1      -2.614  -0.916  -0.444  1.00  0.00     0.038 A 
HETATM   13  C21 UNL     1      -1.912  -2.053   0.208  1.00  0.00     0.068 C 
BRANCH  10  14
HETATM   14  C5  UNL     1      -4.851   0.349  -0.187  1.00  0.00     0.230 A 
HETATM   15  C4  UNL     1      -6.000   0.243   0.415  1.00  0.00     0.086 A 
HETATM   16  F1  UNL     1      -6.177   0.613  -0.907  1.00  0.00    -0.357 F 
BRANCH  15  17
HETATM   17  C3  UNL     1      -7.176   0.080   1.224  1.00  0.00     0.033 C 
HETATM   18  C2  UNL     1      -8.353   0.282   0.708  1.00  0.00    -0.028 C 
HETATM   19  C1  UNL     1      -9.049   0.652  -0.509  1.00  0.00     0.036 C 
ENDBRANCH  15  17
ENDBRANCH  10  14
ENDBRANCH   9  10
ENDBRANCH   8   9
ENDBRANCH   1   7
BRANCH   4  20
HETATM   20  C14 UNL     1       5.429  -0.526  -0.637  1.00  0.00     0.287 C 
HETATM   21  N1  UNL     1       6.260   0.255  -1.527  1.00  0.00     0.095 N 
HETATM   22  C15 UNL     1       7.611  -0.213  -1.228  1.00  0.00     0.273 C 
HETATM   23  H12 UNL     1       6.225   1.248  -1.198  1.00  0.00     0.316 HD
HETATM   24  C16 UNL     1       7.593  -0.796   0.160  1.00  0.00     0.069 C 
HETATM   25  C17 UNL     1       6.228  -0.369   0.664  1.00  0.00     0.209 C 
HETATM   26  F2  UNL     1       5.734  -1.152   1.661  1.00  0.00    -0.247 F 
ENDBRANCH   4  20
TORSDOF 6
