REMARK  7 active torsions:
REMARK  status: ('A' for Active; 'I' for Inactive)
REMARK    1  A    between atoms: C1_2  and  C2_3 
REMARK    2  A    between atoms: C3_4  and  N2_5 
REMARK    3  A    between atoms: N2_5  and  N3_6 
REMARK    4  A    between atoms: N3_6  and  C4_7 
REMARK    5  A    between atoms: C7_10  and  O1_11 
REMARK    6  A    between atoms: O1_11  and  C8_12 
REMARK    7  A    between atoms: C8_12  and  C9_13 
ROOT
HETATM    1  C4  UNL     1       2.055  -0.529  -0.899  1.00  0.00     0.049 A 
HETATM    2  C5  UNL     1       1.539   0.070   0.231  1.00  0.00     0.034 A 
HETATM    3  C6  UNL     1       0.168   0.171   0.353  1.00  0.00     0.041 A 
HETATM    4  C7  UNL     1      -0.675  -0.308  -0.617  1.00  0.00     0.091 A 
HETATM    5  C15 UNL     1      -0.200  -0.913  -1.761  1.00  0.00     0.069 A 
HETATM    6 CL1  UNL     1      -1.276  -1.526  -3.000  1.00  0.00    -0.081 Cl
HETATM    7  C16 UNL     1       1.178  -1.007  -1.868  1.00  0.00     0.057 A 
ENDROOT
BRANCH   1   8
HETATM    8  N3  UNL     1       3.453  -0.724  -1.201  1.00  0.00    -0.301 N 
HETATM    9  H6  UNL     1       3.582   0.201  -1.711  1.00  0.00     0.187 HD
BRANCH   8  10
HETATM   10  N2  UNL     1       4.418  -1.732  -0.962  1.00  0.00    -0.311 N 
HETATM   11  H5  UNL     1       3.920  -2.222  -1.723  1.00  0.00     0.186 HD
BRANCH  10  12
HETATM   12  C3  UNL     1       5.087  -1.045   0.080  1.00  0.00     0.108 C 
HETATM   13  C2  UNL     1       6.035  -0.190  -0.258  1.00  0.00     0.037 C 
BRANCH  13  14
HETATM   14  C1  UNL     1       6.714   0.509   0.823  1.00  0.00     0.108 C 
HETATM   15  N1  UNL     1       7.649   1.368   0.745  1.00  0.00    -0.312 NA
HETATM   16  H1  UNL     1       8.017   1.647  -0.211  1.00  0.00     0.186 HD
ENDBRANCH  13  14
ENDBRANCH  10  12
ENDBRANCH   8  10
ENDBRANCH   1   8
BRANCH   4  17
HETATM   17  O1  UNL     1      -2.054  -0.201  -0.484  1.00  0.00    -0.345 OA
BRANCH  17  18
HETATM   18  C8  UNL     1      -2.671   0.397   0.638  1.00  0.00     0.214 C 
BRANCH  18  19
HETATM   19  C9  UNL     1      -4.141   0.389   0.546  1.00  0.00    -0.031 A 
HETATM   20  C10 UNL     1      -4.649   1.521  -0.076  1.00  0.00     0.009 A 
HETATM   21  C11 UNL     1      -6.024   1.664  -0.240  1.00  0.00     0.004 A 
HETATM   22  C12 UNL     1      -6.938   0.707   0.197  1.00  0.00     0.042 A 
HETATM   23  C13 UNL     1      -6.391  -0.410   0.813  1.00  0.00     0.117 A 
HETATM   24  F1  UNL     1      -7.220  -1.382   1.263  1.00  0.00    -0.206 F 
HETATM   25  C14 UNL     1      -5.039  -0.562   0.980  1.00  0.00     0.051 A 
ENDBRANCH  18  19
ENDBRANCH  17  18
ENDBRANCH   4  17
TORSDOF 7
