REMARK  5 active torsions:
REMARK  status: ('A' for Active; 'I' for Inactive)
REMARK    1  A    between atoms: C2_2  and  B1_3 
REMARK    2  A    between atoms: B1_3  and  C3_4 
REMARK    3  A    between atoms: C8_10  and  O1_11 
REMARK    4  A    between atoms: O1_11  and  C9_12 
REMARK    5  A    between atoms: C9_12  and  C10_13 
ROOT
HETATM    1  C3  UNL     1      -1.781   0.733   0.776  1.00  0.00    -0.047 A 
HETATM    2  C4  UNL     1      -2.916   1.412   0.921  1.00  0.00     0.085 A 
HETATM    3  N1  UNL     1      -3.238   2.800   1.063  1.00  0.00    -0.376 N 
HETATM    4  C5  UNL     1      -2.296   3.861   1.176  1.00  0.00     0.087 A 
HETATM    5  C6  UNL     1      -0.975   3.807   1.091  1.00  0.00     0.020 A 
HETATM    6  C7  UNL     1      -0.112   2.632   0.856  1.00  0.00     0.037 A 
HETATM    7  C8  UNL     1      -0.436   1.338   0.722  1.00  0.00     0.066 A 
HETATM    8  H6  UNL     1      -4.272   2.954   1.075  1.00  0.00     0.164 HD
ENDROOT
BRANCH   7   9
HETATM    9  O1  UNL     1       0.712   0.598   0.514  1.00  0.00    -0.347 OA
BRANCH   9  10
HETATM   10  C9  UNL     1       1.056   0.162  -0.786  1.00  0.00     0.214 C 
BRANCH  10  11
HETATM   11  C10 UNL     1       2.344  -0.606  -0.658  1.00  0.00    -0.031 A 
HETATM   12  C11 UNL     1       2.455  -1.961  -0.426  1.00  0.00     0.009 A 
HETATM   13  C12 UNL     1       3.704  -2.539  -0.330  1.00  0.00     0.004 A 
HETATM   14  C13 UNL     1       4.875  -1.798  -0.461  1.00  0.00     0.042 A 
HETATM   15  C14 UNL     1       4.777  -0.435  -0.695  1.00  0.00     0.117 A 
HETATM   16  F1  UNL     1       5.907   0.317  -0.827  1.00  0.00    -0.206 F 
HETATM   17  C15 UNL     1       3.517   0.113  -0.785  1.00  0.00     0.051 A 
ENDBRANCH  10  11
ENDBRANCH   9  10
ENDBRANCH   7   9
BRANCH   1  18
HETATM   18  B1  UNL     1      -1.703  -0.812   0.640  1.00  0.00     0.257 B 
HETATM   19  H4  UNL     1      -0.874  -1.416   1.266  1.00  0.00    -0.014 HD
BRANCH  18  20
HETATM   20  C2  UNL     1      -2.779  -1.690  -0.054  1.00  0.00    -0.001 C 
HETATM   21  C1  UNL     1      -2.376  -2.852  -0.906  1.00  0.00     0.054 C 
HETATM   22  N2  UNL     1      -4.042  -1.479   0.059  1.00  0.00    -0.109 NA
HETATM   23  F2  UNL     1      -4.848  -2.319  -0.597  1.00  0.00    -0.075 F 
ENDBRANCH  18  20
ENDBRANCH   1  18
TORSDOF 5
