REMARK  9 active torsions:
REMARK  status: ('A' for Active; 'I' for Inactive)
REMARK    1  A    between atoms: C5_7  and  O1_8 
REMARK    2  A    between atoms: O1_8  and  C6_9 
REMARK    3  A    between atoms: C6_9  and  C7_10 
REMARK    4  A    between atoms: C8_11  and  C9_12 
REMARK    5  A    between atoms: C10_13  and  C11_14 
REMARK    6  A    between atoms: C12_16  and  C13_17 
REMARK    7  A    between atoms: C14_18  and  C15_19 
REMARK    8  A    between atoms: C18_22  and  C19_23 
REMARK    9  A    between atoms: C19_23  and  N3_24 
ROOT
HETATM    1  C1  UNL     1      -1.177  -1.929  -2.885  1.00  0.00     0.072 C 
HETATM    2  C2  UNL     1       0.171  -2.550  -2.710  1.00  0.00     0.053 C 
HETATM    3  N1  UNL     1       0.529  -3.477  -3.563  1.00  0.00    -0.246 NA
HETATM    4  C3  UNL     1       1.765  -4.211  -3.596  1.00  0.00     0.227 C 
HETATM    5  N2  UNL     1       2.900  -3.916  -3.070  1.00  0.00    -0.276 NA
HETATM    6  C4  UNL     1       3.350  -2.808  -2.295  1.00  0.00     0.216 C 
HETATM    7  C5  UNL     1       2.306  -2.205  -1.467  1.00  0.00     0.087 C 
HETATM    8  C12 UNL     1       0.997  -2.075  -1.594  1.00  0.00     0.073 C 
ENDROOT
BRANCH   8   9
HETATM    9  C13 UNL     1       0.238  -1.408  -0.570  1.00  0.00    -0.055 C 
HETATM   10  C14 UNL     1      -0.415  -0.861   0.284  1.00  0.00    -0.036 C 
BRANCH  10  11
HETATM   11  C15 UNL     1      -1.213  -0.222   1.293  1.00  0.00     0.129 A 
HETATM   12  C16 UNL     1      -1.235  -0.439   2.660  1.00  0.00     0.049 A 
HETATM   13  C17 UNL     1      -2.188   0.456   3.104  1.00  0.00     0.038 A 
HETATM   14  C18 UNL     1      -2.703   1.166   2.042  1.00  0.00     0.083 A 
HETATM   15  O2  UNL     1      -2.082   0.718   0.977  1.00  0.00    -0.304 OA
BRANCH  14  16
HETATM   16  C19 UNL     1      -3.751   2.239   2.018  1.00  0.00     0.337 C 
BRANCH  16  17
HETATM   17  N3  UNL     1      -5.050   1.587   1.833  1.00  0.00     0.094 N 
HETATM   18  C20 UNL     1      -6.113   2.543   1.800  1.00  0.00     0.273 C 
HETATM   19  C21 UNL     1      -7.145   1.947   0.892  1.00  0.00     0.032 C 
HETATM   20  C22 UNL     1      -6.551   0.632   0.376  1.00  0.00     0.032 C 
HETATM   21  C23 UNL     1      -5.082   0.836   0.599  1.00  0.00     0.273 C 
ENDBRANCH  16  17
ENDBRANCH  14  16
ENDBRANCH  10  11
ENDBRANCH   8   9
BRANCH   7  22
HETATM   22  O1  UNL     1       2.798  -1.644  -0.285  1.00  0.00    -0.348 OA
BRANCH  22  23
HETATM   23  C6  UNL     1       3.117  -0.290  -0.154  1.00  0.00     0.203 C 
BRANCH  23  24
HETATM   24  C7  UNL     1       3.784   0.051   1.127  1.00  0.00    -0.000 C 
HETATM   25  C8  UNL     1       4.983   0.582   1.240  1.00  0.00    -0.002 C 
BRANCH  25  26
HETATM   26  C9  UNL     1       5.989   0.989   0.277  1.00  0.00    -0.002 C 
HETATM   27  C10 UNL     1       7.181   1.523   0.488  1.00  0.00     0.004 C 
BRANCH  27  28
HETATM   28  C11 UNL     1       8.027   1.852  -0.683  1.00  0.00     0.249 C 
HETATM   29  F1  UNL     1       7.415   1.530  -1.861  1.00  0.00    -0.251 F 
ENDBRANCH  27  28
ENDBRANCH  25  26
ENDBRANCH  23  24
ENDBRANCH  22  23
ENDBRANCH   7  22
TORSDOF 9
