REMARK  3 active torsions:
REMARK  status: ('A' for Active; 'I' for Inactive)
REMARK    1  A    between atoms: O1_1  and  C1_2 
REMARK    2  A    between atoms: C9_12  and  C10_13 
REMARK    3  A    between atoms: C10_13  and  C11_14 
ROOT
HETATM    1  C1  UNL     1      -4.876   1.593   1.465  1.00  0.00     0.175 A 
HETATM    2  N1  UNL     1      -5.992   0.885   1.618  1.00  0.00    -0.218 NA
HETATM    3  C2  UNL     1      -6.108  -0.371   1.211  1.00  0.00     0.233 A 
HETATM    4  N2  UNL     1      -5.020  -0.896   0.626  1.00  0.00    -0.240 NA
HETATM    5  C3  UNL     1      -3.862  -0.192   0.457  1.00  0.00     0.197 A 
HETATM    6  C4  UNL     1      -3.763   1.224   0.928  1.00  0.00     0.070 A 
HETATM    7  C5  UNL     1      -2.644   0.900   0.406  1.00  0.00     0.066 A 
HETATM    8  C6  UNL     1      -1.712   0.609  -0.036  1.00  0.00    -0.060 A 
HETATM    9  C7  UNL     1      -0.641   0.248  -0.550  1.00  0.00    -0.065 A 
HETATM   10  C8  UNL     1       0.261  -0.079  -0.989  1.00  0.00     0.011 A 
HETATM   11  C9  UNL     1       1.381  -0.511  -1.536  1.00  0.00    -0.047 A 
HETATM   12  C17 UNL     1       0.539  -1.581  -1.585  1.00  0.00     0.082 A 
HETATM   13  C18 UNL     1      -0.827  -1.919  -1.210  1.00  0.00     0.004 A 
HETATM   14  C19 UNL     1      -2.078  -2.021  -0.802  1.00  0.00     0.083 A 
HETATM   15  N3  UNL     1      -2.953  -1.123  -0.223  1.00  0.00    -0.364 N 
HETATM   16  H12 UNL     1      -3.239  -0.785  -1.209  1.00  0.00     0.162 HD
ENDROOT
BRANCH  11  17
HETATM   17  C10 UNL     1       2.701  -0.257  -1.931  1.00  0.00     0.075 C 
BRANCH  17  18
HETATM   18  C11 UNL     1       3.638   0.151  -0.845  1.00  0.00    -0.051 A 
HETATM   19  C12 UNL     1       3.731   1.524  -0.598  1.00  0.00     0.007 A 
HETATM   20  C13 UNL     1       4.572   1.999   0.387  1.00  0.00     0.004 A 
HETATM   21  C14 UNL     1       5.330   1.136   1.142  1.00  0.00     0.042 A 
HETATM   22  C15 UNL     1       5.227  -0.218   0.887  1.00  0.00     0.116 A 
HETATM   23  F1  UNL     1       5.960  -1.089   1.612  1.00  0.00    -0.206 F 
HETATM   24  C16 UNL     1       4.398  -0.719  -0.089  1.00  0.00     0.049 A 
ENDBRANCH  17  18
ENDBRANCH  11  17
BRANCH   1  25
HETATM   25  O1  UNL     1      -4.414   2.887   1.760  1.00  0.00    -0.344 OA
HETATM   26  H1  UNL     1      -4.622   3.246   2.703  1.00  0.00     0.219 HD
ENDBRANCH   1  25
TORSDOF 3
