REMARK  3 active torsions:
REMARK  status: ('A' for Active; 'I' for Inactive)
REMARK    1  A    between atoms: C4_6  and  C5_7 
REMARK    2  A    between atoms: C6_8  and  C7_9 
REMARK    3  A    between atoms: C8_10  and  C9_11 
ROOT
HETATM    1  C7  UNL     1      -1.822   1.586   0.206  1.00  0.00     0.029 C 
HETATM    2  C8  UNL     1      -2.903   0.878  -0.094  1.00  0.00     0.089 C 
HETATM    3  O2  UNL     1      -4.168   1.362   0.209  1.00  0.00    -0.350 OA
HETATM    4  C15 UNL     1      -4.289   2.409   1.141  1.00  0.00     0.196 C 
HETATM    5  C16 UNL     1      -3.288   3.475   0.829  1.00  0.00     0.111 C 
HETATM    6 CL1  UNL     1      -3.627   4.105  -0.800  1.00  0.00    -0.122 Cl
HETATM    7  C17 UNL     1      -1.870   2.932   0.866  1.00  0.00     0.073 C 
ENDROOT
BRANCH   1   8
HETATM    8  C6  UNL     1      -0.491   1.139  -0.082  1.00  0.00    -0.061 C 
HETATM    9  C5  UNL     1       0.623   0.770  -0.344  1.00  0.00    -0.036 C 
BRANCH   9  10
HETATM   10  C4  UNL     1       1.960   0.308  -0.649  1.00  0.00     0.131 A 
HETATM   11  O1  UNL     1       2.481  -0.018  -1.798  1.00  0.00    -0.302 OA
HETATM   12  C3  UNL     1       3.746  -0.390  -1.629  1.00  0.00     0.099 A 
HETATM   13  C2  UNL     1       5.158  -0.862  -1.841  1.00  0.00     0.190 A 
HETATM   14  C19 UNL     1       4.050  -0.294  -0.280  1.00  0.00     0.065 A 
HETATM   15  N1  UNL     1       5.394  -0.736  -0.425  1.00  0.00    -0.377 N 
HETATM   16  C1  UNL     1       6.514  -0.960   0.467  1.00  0.00     0.150 C 
HETATM   17  C18 UNL     1       2.909   0.154   0.362  1.00  0.00     0.078 A 
ENDBRANCH   9  10
ENDBRANCH   1   8
BRANCH   2  18
HETATM   18  C9  UNL     1      -2.942  -0.433  -0.747  1.00  0.00     0.188 C 
HETATM   19  C10 UNL     1      -1.704  -1.063  -1.148  1.00  0.00     0.007 C 
HETATM   20  C11 UNL     1      -0.937  -2.111  -0.787  1.00  0.00    -0.001 C 
HETATM   21  C12 UNL     1      -1.237  -3.015   0.287  1.00  0.00     0.001 C 
HETATM   22  C13 UNL     1      -2.361  -3.155   0.961  1.00  0.00     0.019 C 
HETATM   23  C14 UNL     1      -3.558  -2.370   0.716  1.00  0.00     0.111 C 
HETATM   24  N2  UNL     1      -3.806  -1.305   0.052  1.00  0.00    -0.286 NA
ENDBRANCH   2  18
TORSDOF 3
