REMARK  3 active torsions:
REMARK  status: ('A' for Active; 'I' for Inactive)
REMARK    1  A    between atoms: C2_2  and  C3_3 
REMARK    2  A    between atoms: C3_3  and  C4_4 
REMARK    3  A    between atoms: C5_5  and  C6_6 
ROOT
HETATM    1  C6  UNL     1       0.681  -0.031   0.473  1.00  0.00     0.145 C 
HETATM    2  C7  UNL     1      -0.144  -0.727  -0.551  1.00  0.00     0.025 C 
HETATM    3  C8  UNL     1       0.156  -0.043  -1.868  1.00  0.00     0.067 C 
HETATM    4  N1  UNL     1      -0.961  -1.742  -0.422  1.00  0.00    -0.278 NA
HETATM    5  C9  UNL     1      -1.732  -2.381  -1.389  1.00  0.00     0.266 C 
HETATM    6  N2  UNL     1      -3.110  -2.631  -0.840  1.00  0.00    -0.391 N 
HETATM    7  C10 UNL     1      -3.713  -1.390  -0.313  1.00  0.00     0.070 A 
HETATM    8  C11 UNL     1      -3.921  -0.828  -1.523  1.00  0.00    -0.010 A 
HETATM    9  C12 UNL     1      -3.703   0.149  -0.588  1.00  0.00     0.080 A 
HETATM   10  C13 UNL     1      -3.480  -0.277   0.681  1.00  0.00     0.109 A 
HETATM   11  C14 UNL     1      -3.284  -0.877   1.871  1.00  0.00     0.035 A 
HETATM   12 CL1  UNL     1      -2.966  -0.405   3.501  1.00  0.00    -0.090 Cl
HETATM   13  C15 UNL     1      -3.496  -1.860   0.933  1.00  0.00     0.102 A 
HETATM   14  O1  UNL     1      -3.158   1.137   1.147  1.00  0.00    -0.369 OA
HETATM   15  C16 UNL     1      -1.721   1.145   0.827  1.00  0.00     0.208 C 
HETATM   16  C17 UNL     1      -0.821   2.178   0.990  1.00  0.00    -0.024 A 
HETATM   17  C18 UNL     1      -0.869   3.509   1.256  1.00  0.00     0.052 A 
HETATM   18  C19 UNL     1       0.301   4.226   1.276  1.00  0.00     0.117 A 
HETATM   19  F1  UNL     1       0.129   5.535   1.550  1.00  0.00    -0.206 F 
HETATM   20  C20 UNL     1       1.489   3.581   1.028  1.00  0.00     0.043 A 
HETATM   21  C21 UNL     1       1.451   2.229   0.768  1.00  0.00     0.012 A 
HETATM   22  C22 UNL     1       0.341   1.375   0.716  1.00  0.00    -0.028 A 
HETATM   23  H12 UNL     1      -3.450  -3.644  -0.913  1.00  0.00     0.156 HD
ENDROOT
BRANCH   1  24
HETATM   24  C5  UNL     1       2.094  -0.177   0.034  1.00  0.00    -0.091 C 
HETATM   25  C4  UNL     1       3.239  -0.276  -0.331  1.00  0.00    -0.102 C 
BRANCH  25  26
HETATM   26  C3  UNL     1       4.631  -0.417  -0.762  1.00  0.00     0.120 C 
BRANCH  26  27
HETATM   27  C2  UNL     1       5.155  -1.695  -0.212  1.00  0.00    -0.025 C 
HETATM   28  C1  UNL     1       6.157  -1.962   0.602  1.00  0.00     0.008 C 
ENDBRANCH  26  27
ENDBRANCH  25  26
ENDBRANCH   1  24
TORSDOF 3
