REMARK  0 active torsions:
REMARK  status: ('A' for Active; 'I' for Inactive)
ROOT
HETATM    1  C1  UNL     1      -0.196   3.641  -2.654  1.00  0.00     0.066 C 
HETATM    2  C2  UNL     1       0.162   2.711  -1.551  1.00  0.00     0.013 A 
HETATM    3  N1  UNL     1      -0.674   1.699  -1.474  1.00  0.00    -0.255 NA
HETATM    4  C3  UNL     1      -0.412   0.755  -0.447  1.00  0.00     0.086 A 
HETATM    5  C4  UNL     1      -1.249  -0.263  -0.380  1.00  0.00     0.034 C 
HETATM    6  C5  UNL     1      -2.326  -0.998   0.312  1.00  0.00     0.063 C 
HETATM    7  C6  UNL     1      -2.449  -0.661   1.777  1.00  0.00     0.033 C 
HETATM    8  C7  UNL     1      -1.206  -0.220   2.434  1.00  0.00    -0.029 C 
HETATM    9  C8  UNL     1       0.070   0.124   2.709  1.00  0.00    -0.016 C 
HETATM   10  C9  UNL     1       1.111  -0.014   1.621  1.00  0.00     0.087 C 
HETATM   11  C10 UNL     1       0.736   0.903   0.484  1.00  0.00    -0.018 A 
HETATM   12  C11 UNL     1       1.524   1.943   0.336  1.00  0.00    -0.011 A 
HETATM   13  C12 UNL     1       1.347   2.977  -0.697  1.00  0.00     0.082 A 
HETATM   14  C13 UNL     1       1.246  -1.396   1.166  1.00  0.00     0.015 C 
HETATM   15 CL1  UNL     1       1.176  -2.479   2.537  1.00  0.00    -0.089 Cl
HETATM   16  C14 UNL     1       1.407  -2.172   0.135  1.00  0.00    -0.104 C 
HETATM   17  C15 UNL     1       1.512  -3.672   0.011  1.00  0.00     0.031 C 
HETATM   18  B1  UNL     1       1.622  -1.833  -1.805  1.00  0.00     0.224 B 
HETATM   19  C16 UNL     1      -0.105  -1.251  -2.434  1.00  0.00     0.026 C 
HETATM   20  N2  UNL     1      -1.115  -1.185  -1.451  1.00  0.00    -0.395 N 
HETATM   21  H18 UNL     1      -1.555  -2.008  -1.893  1.00  0.00     0.158 HD
ENDROOT
TORSDOF 0
