REMARK  4 active torsions:
REMARK  status: ('A' for Active; 'I' for Inactive)
REMARK    1  A    between atoms: N1_5  and  O1_6 
REMARK    2  A    between atoms: O1_6  and  C5_7 
REMARK    3  A    between atoms: C16_21  and  C17_22 
REMARK    4  A    between atoms: C17_22  and  C18_23 
ROOT
HETATM    1  C5  UNL     1       1.248  -0.714  -0.471  1.00  0.00     0.078 C 
HETATM    2  C6  UNL     1       1.360  -1.876  -1.149  1.00  0.00     0.036 C 
HETATM    3  C7  UNL     1       0.632  -3.004  -1.723  1.00  0.00     0.020 C 
HETATM    4  C8  UNL     1      -0.606  -3.414  -1.844  1.00  0.00     0.090 C 
HETATM    5  N2  UNL     1      -1.976  -3.202  -1.603  1.00  0.00    -0.350 N 
HETATM    6  C9  UNL     1      -3.009  -3.238  -0.641  1.00  0.00     0.141 A 
HETATM    7  N3  UNL     1      -3.780  -4.297  -0.414  1.00  0.00    -0.224 NA
HETATM    8  C10 UNL     1      -4.756  -4.187   0.535  1.00  0.00     0.235 A 
HETATM    9  N4  UNL     1      -4.999  -3.088   1.258  1.00  0.00    -0.246 NA
HETATM   10  C11 UNL     1      -4.242  -2.003   1.055  1.00  0.00     0.046 A 
HETATM   11  C12 UNL     1      -4.272  -0.645   1.678  1.00  0.00     0.071 C 
HETATM   12  C13 UNL     1      -3.254  -2.103   0.103  1.00  0.00     0.034 A 
HETATM   13  C14 UNL     1      -2.360  -0.985  -0.155  1.00  0.00     0.014 C 
HETATM   14  C15 UNL     1      -1.141  -0.541   0.023  1.00  0.00    -0.014 C 
HETATM   15  C16 UNL     1       0.176   0.121   0.126  1.00  0.00     0.071 C 
HETATM   16  H10 UNL     1      -2.626  -2.860  -2.380  1.00  0.00     0.166 HD
ENDROOT
BRANCH   1  17
HETATM   17  O1  UNL     1       2.385   0.057  -0.149  1.00  0.00    -0.262 OA
BRANCH  17  18
HETATM   18  N1  UNL     1       3.484  -0.061  -0.947  1.00  0.00    -0.150 NA
HETATM   19  C4  UNL     1       4.483  -0.951  -0.387  1.00  0.00     0.152 C 
HETATM   20  C3  UNL     1       5.429  -0.049   0.342  1.00  0.00    -0.004 C 
HETATM   21  C2  UNL     1       5.209   1.191  -0.058  1.00  0.00    -0.037 C 
HETATM   22  C1  UNL     1       5.940   2.415   0.421  1.00  0.00     0.048 C 
HETATM   23  C24 UNL     1       4.116   1.224  -1.074  1.00  0.00     0.299 C 
HETATM   24  F1  UNL     1       4.674   1.289  -2.343  1.00  0.00    -0.226 F 
ENDBRANCH  17  18
ENDBRANCH   1  17
BRANCH  15  25
HETATM   25  C17 UNL     1       0.134   1.509  -0.489  1.00  0.00     0.053 C 
BRANCH  25  26
HETATM   26  C18 UNL     1      -0.931   2.366   0.089  1.00  0.00    -0.057 A 
HETATM   27  C19 UNL     1      -0.516   3.084   1.213  1.00  0.00     0.007 A 
HETATM   28  C20 UNL     1      -1.351   3.934   1.887  1.00  0.00     0.001 A 
HETATM   29  C21 UNL     1      -2.656   4.109   1.466  1.00  0.00     0.000 A 
HETATM   30  C22 UNL     1      -3.068   3.393   0.348  1.00  0.00     0.001 A 
HETATM   31  C23 UNL     1      -2.230   2.536  -0.335  1.00  0.00     0.007 A 
ENDBRANCH  25  26
ENDBRANCH  15  25
TORSDOF 4
