REMARK  7 active torsions:
REMARK  status: ('A' for Active; 'I' for Inactive)
REMARK    1  A    between atoms: C4_6  and  C5_7 
REMARK    2  A    between atoms: C8_12  and  O1_13 
REMARK    3  A    between atoms: O1_13  and  C9_14 
REMARK    4  A    between atoms: C15_21  and  C16_22 
REMARK    5  A    between atoms: C17_23  and  C18_24 
REMARK    6  A    between atoms: C22_28  and  C23_29 
REMARK    7  A    between atoms: C23_29  and  N4_30 
ROOT
HETATM    1  C1  UNL     1      -0.166  -4.823   0.541  1.00  0.00     0.072 C 
HETATM    2  C2  UNL     1       0.978  -3.879   0.477  1.00  0.00     0.052 A 
HETATM    3  N1  UNL     1       2.243  -4.271   0.711  1.00  0.00    -0.245 NA
HETATM    4  C3  UNL     1       3.220  -3.340   0.629  1.00  0.00     0.233 A 
HETATM    5  N2  UNL     1       2.996  -2.062   0.329  1.00  0.00    -0.244 NA
HETATM    6  C4  UNL     1       1.743  -1.579   0.076  1.00  0.00     0.074 A 
HETATM    7  C15 UNL     1       0.782  -2.552   0.171  1.00  0.00     0.068 A 
ENDROOT
BRANCH   6   8
HETATM    8  C5  UNL     1       1.645  -0.171  -0.303  1.00  0.00     0.162 A 
HETATM    9  C6  UNL     1       0.968  -0.043  -1.620  1.00  0.00     0.047 A 
HETATM   10 CL1  UNL     1      -0.378  -0.195  -2.763  1.00  0.00    -0.086 Cl
HETATM   11  C7  UNL     1       1.867   0.516  -2.484  1.00  0.00     0.139 A 
HETATM   12  N3  UNL     1       3.132   0.775  -1.812  1.00  0.00    -0.238 NA
HETATM   13  C8  UNL     1       2.991   0.379  -0.570  1.00  0.00     0.156 A 
BRANCH  13  14
HETATM   14  O1  UNL     1       3.888   0.397   0.501  1.00  0.00    -0.324 OA
BRANCH  14  15
HETATM   15  C9  UNL     1       5.224   0.816   0.242  1.00  0.00     0.191 A 
HETATM   16  C10 UNL     1       5.927   0.766   1.537  1.00  0.00     0.008 A 
HETATM   17  C11 UNL     1       6.537   1.634   2.295  1.00  0.00    -0.002 A 
HETATM   18  C12 UNL     1       6.553   2.994   1.779  1.00  0.00    -0.001 A 
HETATM   19  C13 UNL     1       5.940   3.123   0.617  1.00  0.00     0.013 A 
HETATM   20  C14 UNL     1       5.231   2.206  -0.301  1.00  0.00     0.226 A 
HETATM   21  F1  UNL     1       5.782   2.243  -1.568  1.00  0.00    -0.242 F 
ENDBRANCH  14  15
ENDBRANCH  13  14
ENDBRANCH   6   8
BRANCH   7  22
HETATM   22  C16 UNL     1      -0.576  -2.123  -0.002  1.00  0.00    -0.057 C 
HETATM   23  C17 UNL     1      -1.719  -1.765  -0.127  1.00  0.00    -0.061 C 
BRANCH  23  24
HETATM   24  C18 UNL     1      -3.084  -1.318  -0.284  1.00  0.00     0.018 A 
HETATM   25  C19 UNL     1      -3.816  -1.979  -1.257  1.00  0.00     0.020 A 
HETATM   26  C20 UNL     1      -5.140  -1.618  -1.479  1.00  0.00     0.002 A 
HETATM   27  C21 UNL     1      -5.725  -0.610  -0.740  1.00  0.00     0.009 A 
HETATM   28  C22 UNL     1      -4.979   0.035   0.224  1.00  0.00    -0.029 A 
HETATM   29  C26 UNL     1      -3.646  -0.307   0.469  1.00  0.00     0.029 A 
BRANCH  28  30
HETATM   30  C23 UNL     1      -5.512   1.144   1.086  1.00  0.00     0.309 C 
BRANCH  30  31
HETATM   31  N4  UNL     1      -5.304   2.428   0.487  1.00  0.00     0.084 N 
HETATM   32  C24 UNL     1      -5.952   2.560  -0.798  1.00  0.00     0.309 C 
HETATM   33  C25 UNL     1      -3.899   2.776   0.412  1.00  0.00     0.309 C 
ENDBRANCH  30  31
ENDBRANCH  28  30
ENDBRANCH  23  24
ENDBRANCH   7  22
TORSDOF 7
