REMARK  6 active torsions:
REMARK  status: ('A' for Active; 'I' for Inactive)
REMARK    1  A    between atoms: C4_5  and  N1_6 
REMARK    2  A    between atoms: N1_6  and  C5_7 
REMARK    3  A    between atoms: N2_8  and  C6_9 
REMARK    4  A    between atoms: N3_10  and  C7_11 
REMARK    5  A    between atoms: C11_15  and  O1_16 
REMARK    6  A    between atoms: O1_16  and  C12_17 
ROOT
HETATM    1  C6  UNL     1       1.330   0.912  -0.009  1.00  0.00     0.234 C 
HETATM    2  N3  UNL     1       0.126   1.149  -0.333  1.00  0.00    -0.245 NA
ENDROOT
BRANCH   1   3
HETATM    3  N2  UNL     1       2.475   0.175  -0.392  1.00  0.00    -0.237 NA
HETATM    4  C5  UNL     1       2.457  -0.928  -1.061  1.00  0.00     0.208 C 
BRANCH   4   5
HETATM    5  N1  UNL     1       3.781  -1.447  -1.302  1.00  0.00    -0.351 N 
HETATM    6  H3  UNL     1       4.051  -2.012  -2.157  1.00  0.00     0.166 HD
BRANCH   5   7
HETATM    7  C4  UNL     1       4.814  -1.194  -0.335  1.00  0.00     0.034 A 
HETATM    8  C3  UNL     1       5.643  -0.090  -0.367  1.00  0.00     0.032 A 
HETATM    9  C2  UNL     1       6.615   0.091   0.593  1.00  0.00     0.046 A 
HETATM   10  C1  UNL     1       6.750  -0.852   1.596  1.00  0.00     0.138 A 
HETATM   11  F1  UNL     1       7.726  -0.594   2.493  1.00  0.00    -0.204 F 
HETATM   12  C18 UNL     1       5.917  -1.952   1.620  1.00  0.00     0.074 A 
HETATM   13  C17 UNL     1       4.932  -2.156   0.666  1.00  0.00     0.056 A 
HETATM   14 CL1  UNL     1       6.234  -3.036   2.960  1.00  0.00    -0.081 Cl
ENDBRANCH   5   7
ENDBRANCH   4   5
ENDBRANCH   1   3
BRANCH   2  15
HETATM   15  C7  UNL     1      -0.597   0.634  -1.416  1.00  0.00     0.058 A 
HETATM   16  C8  UNL     1      -0.384   0.134  -2.695  1.00  0.00     0.037 A 
HETATM   17  C9  UNL     1      -1.752  -0.043  -2.787  1.00  0.00    -0.031 A 
HETATM   18  C10 UNL     1      -3.092  -0.274  -3.020  1.00  0.00     0.042 A 
HETATM   19  C16 UNL     1      -1.988   0.480  -1.447  1.00  0.00     0.104 A 
HETATM   20  C11 UNL     1      -3.322   0.226  -1.735  1.00  0.00     0.069 A 
BRANCH  20  21
HETATM   21  O1  UNL     1      -4.470   0.405  -1.008  1.00  0.00    -0.346 OA
BRANCH  21  22
HETATM   22  C12 UNL     1      -4.516   0.935   0.300  1.00  0.00     0.154 C 
HETATM   23  C13 UNL     1      -5.217  -0.001   1.263  1.00  0.00     0.061 C 
HETATM   24  C14 UNL     1      -5.811   0.967   2.240  1.00  0.00     0.170 C 
HETATM   25  O2  UNL     1      -5.897   2.207   1.673  1.00  0.00    -0.389 OA
HETATM   26  C15 UNL     1      -5.501   2.110   0.345  1.00  0.00     0.200 C 
ENDBRANCH  21  22
ENDBRANCH  20  21
ENDBRANCH   2  15
TORSDOF 6
