REMARK  6 active torsions:
REMARK  status: ('A' for Active; 'I' for Inactive)
REMARK    1  A    between atoms: C4_5  and  N2_6 
REMARK    2  A    between atoms: N2_6  and  C5_7 
REMARK    3  A    between atoms: C5_7  and  C6_8 
REMARK    4  A    between atoms: C7_9  and  O1_11 
REMARK    5  A    between atoms: O1_11  and  C8_12 
REMARK    6  A    between atoms: C8_12  and  C9_13 
ROOT
HETATM    1  N2  UNL     1       0.824  -0.550  -0.394  1.00  0.00    -0.391 N 
HETATM    2  H5  UNL     1       0.530  -1.180  -1.182  1.00  0.00     0.159 HD
ENDROOT
BRANCH   1   3
HETATM    3  C4  UNL     1       2.149  -0.505   0.078  1.00  0.00     0.011 C 
HETATM    4  C3  UNL     1       2.784   0.213  -0.908  1.00  0.00     0.183 C 
HETATM    5  N1  UNL     1       3.958   0.756  -1.366  1.00  0.00    -0.280 NA
HETATM    6  C2  UNL     1       5.184   0.864  -1.013  1.00  0.00     0.037 C 
HETATM    7  C1  UNL     1       6.157   1.584  -1.881  1.00  0.00     0.071 C 
HETATM    8  C19 UNL     1       5.824   0.333   0.233  1.00  0.00     0.000 C 
HETATM    9  C18 UNL     1       5.501   0.345   1.702  1.00  0.00     0.022 C 
HETATM   10  C20 UNL     1       6.966  -0.340   0.185  1.00  0.00    -0.001 C 
HETATM   11  C17 UNL     1       4.835  -0.890   1.866  1.00  0.00    -0.051 C 
HETATM   12  C16 UNL     1       3.488  -1.479   2.332  1.00  0.00     0.068 C 
HETATM   13  C22 UNL     1       5.936  -1.820   1.382  1.00  0.00     0.020 C 
HETATM   14  C15 UNL     1       2.442  -1.217   1.439  1.00  0.00     0.028 C 
HETATM   15  C21 UNL     1       7.132  -1.440   0.879  1.00  0.00    -0.012 C 
ENDBRANCH   1   3
BRANCH   1  16
HETATM   16  C5  UNL     1       0.091   0.402   0.420  1.00  0.00     0.151 C 
BRANCH  16  17
HETATM   17  C6  UNL     1      -1.311   0.408  -0.022  1.00  0.00     0.061 C 
HETATM   18  C7  UNL     1      -2.249   0.088   0.836  1.00  0.00     0.223 C 
HETATM   19  F1  UNL     1      -1.747  -0.215   2.063  1.00  0.00    -0.179 F 
BRANCH  18  20
HETATM   20  O1  UNL     1      -3.600   0.031   0.632  1.00  0.00    -0.323 OA
BRANCH  20  21
HETATM   21  C8  UNL     1      -4.248   0.050  -0.601  1.00  0.00     0.216 C 
BRANCH  21  22
HETATM   22  C9  UNL     1      -5.729  -0.025  -0.511  1.00  0.00    -0.034 A 
HETATM   23  C10 UNL     1      -6.519  -1.155  -0.503  1.00  0.00     0.009 A 
HETATM   24  C11 UNL     1      -7.893  -1.037  -0.412  1.00  0.00     0.001 A 
HETATM   25  C12 UNL     1      -8.522   0.196  -0.327  1.00  0.00     0.000 A 
HETATM   26  C13 UNL     1      -7.706   1.312  -0.336  1.00  0.00     0.001 A 
HETATM   27  C14 UNL     1      -6.317   1.233  -0.427  1.00  0.00     0.009 A 
ENDBRANCH  21  22
ENDBRANCH  20  21
ENDBRANCH  18  20
ENDBRANCH  16  17
ENDBRANCH   1  16
TORSDOF 6
