REMARK  7 active torsions:
REMARK  status: ('A' for Active; 'I' for Inactive)
REMARK    1  A    between atoms: C5_6  and  C6_7 
REMARK    2  A    between atoms: C6_7  and  O1_8 
REMARK    3  A    between atoms: O1_8  and  C7_9 
REMARK    4  A    between atoms: C7_9  and  C8_10 
REMARK    5  A    between atoms: C9_12  and  C10_13 
REMARK    6  A    between atoms: C10_13  and  N1_15 
REMARK    7  A    between atoms: N1_15  and  C11_16 
ROOT
HETATM    1  C8  UNL     1      -0.076   1.092   0.064  1.00  0.00     0.036 C 
HETATM    2 CL1  UNL     1      -0.882   2.595  -0.284  1.00  0.00    -0.087 Cl
HETATM    3  C9  UNL     1       0.709   0.917   1.118  1.00  0.00     0.052 C 
ENDROOT
BRANCH   1   4
HETATM    4  C7  UNL     1      -0.469   0.182  -1.022  1.00  0.00     0.219 C 
BRANCH   4   5
HETATM    5  O1  UNL     1      -1.857   0.044  -1.003  1.00  0.00    -0.381 OA
BRANCH   5   6
HETATM    6  C6  UNL     1      -2.203  -0.483   0.232  1.00  0.00     0.206 C 
BRANCH   6   7
HETATM    7  C5  UNL     1      -3.669  -0.673   0.372  1.00  0.00    -0.032 A 
HETATM    8  C4  UNL     1      -4.444   0.363   0.887  1.00  0.00     0.009 A 
HETATM    9  C3  UNL     1      -5.821   0.221   1.032  1.00  0.00     0.004 A 
HETATM   10  C2  UNL     1      -6.461  -0.951   0.670  1.00  0.00     0.042 A 
HETATM   11  C1  UNL     1      -5.679  -1.979   0.157  1.00  0.00     0.117 A 
HETATM   12  F1  UNL     1      -6.187  -3.181  -0.236  1.00  0.00    -0.206 F 
HETATM   13  C16 UNL     1      -4.329  -1.839   0.015  1.00  0.00     0.051 A 
ENDBRANCH   6   7
ENDBRANCH   5   6
ENDBRANCH   4   5
ENDBRANCH   1   4
BRANCH   3  14
HETATM   14  C10 UNL     1       1.396  -0.369   1.405  1.00  0.00     0.295 C 
HETATM   15  F2  UNL     1       0.462  -1.276   1.817  1.00  0.00    -0.222 F 
BRANCH  14  16
HETATM   16  N1  UNL     1       2.185  -0.856   0.285  1.00  0.00    -0.342 N 
HETATM   17  H10 UNL     1       2.032  -1.784  -0.196  1.00  0.00     0.164 HD
BRANCH  16  18
HETATM   18  C11 UNL     1       3.235  -0.070  -0.226  1.00  0.00     0.123 C 
HETATM   19  C12 UNL     1       4.180   0.498   0.507  1.00  0.00     0.028 C 
HETATM   20  C13 UNL     1       5.381   1.354   0.285  1.00  0.00     0.077 C 
HETATM   21  C14 UNL     1       5.978   1.057  -1.034  1.00  0.00     0.095 C 
HETATM   22  N2  UNL     1       5.492   0.669  -2.151  1.00  0.00    -0.258 NA
HETATM   23  C15 UNL     1       4.124   0.380  -2.506  1.00  0.00     0.234 C 
HETATM   24  N3  UNL     1       3.198   0.071  -1.662  1.00  0.00    -0.225 NA
ENDBRANCH  16  18
ENDBRANCH  14  16
ENDBRANCH   3  14
TORSDOF 7
