REMARK  10 active torsions:
REMARK  status: ('A' for Active; 'I' for Inactive)
REMARK    1  A    between atoms: C2_2  and  C3_3 
REMARK    2  A    between atoms: C2_2  and  N1_5 
REMARK    3  A    between atoms: C3_3  and  O1_4 
REMARK    4  A    between atoms: N1_5  and  C4_6 
REMARK    5  A    between atoms: C4_6  and  C5_7 
REMARK    6  A    between atoms: C8_10  and  C9_11 
REMARK    7  A    between atoms: C9_11  and  C10_12 
REMARK    8  A    between atoms: C16_18  and  O2_19 
REMARK    9  A    between atoms: C20_23  and  N2_24 
REMARK   10  A    between atoms: C23_27  and  N3_28 
ROOT
HETATM    1  C10 UNL     1      -2.823   0.272  -0.653  1.00  0.00     0.075 A 
HETATM    2  C11 UNL     1      -2.605   1.442   0.209  1.00  0.00    -0.037 A 
HETATM    3  C12 UNL     1      -2.603   2.862   0.010  1.00  0.00    -0.026 A 
HETATM    4  C13 UNL     1      -2.912   3.439  -1.201  1.00  0.00     0.012 A 
HETATM    5  C14 UNL     1      -2.910   4.794  -1.446  1.00  0.00     0.004 A 
HETATM    6  C15 UNL     1      -2.584   5.663  -0.441  1.00  0.00     0.036 A 
HETATM    7  C16 UNL     1      -2.265   5.151   0.793  1.00  0.00     0.066 A 
HETATM    8  C17 UNL     1      -2.284   3.788   0.976  1.00  0.00     0.048 A 
HETATM    9  C18 UNL     1      -2.368   0.967   1.437  1.00  0.00     0.011 A 
HETATM   10  C19 UNL     1      -2.410  -0.479   1.506  1.00  0.00     0.028 A 
HETATM   11  C20 UNL     1      -2.679  -0.897   0.284  1.00  0.00     0.044 A 
ENDROOT
BRANCH   1  12
HETATM   12  C9  UNL     1      -1.745   0.167  -1.725  1.00  0.00     0.054 C 
BRANCH  12  13
HETATM   13  C8  UNL     1      -0.388   0.039  -1.173  1.00  0.00    -0.057 A 
HETATM   14  C7  UNL     1       0.336   1.200  -0.913  1.00  0.00     0.007 A 
HETATM   15  C6  UNL     1       1.615   1.181  -0.398  1.00  0.00     0.009 A 
HETATM   16  C5  UNL     1       2.241  -0.009  -0.114  1.00  0.00    -0.030 A 
HETATM   17  C26 UNL     1       1.560  -1.182  -0.356  1.00  0.00     0.009 A 
HETATM   18  C25 UNL     1       0.284  -1.119  -0.871  1.00  0.00     0.007 A 
BRANCH  16  19
HETATM   19  C4  UNL     1       3.618  -0.081   0.441  1.00  0.00     0.308 C 
BRANCH  19  20
HETATM   20  N1  UNL     1       4.519  -0.137  -0.670  1.00  0.00     0.093 N 
HETATM   21  H8  UNL     1       4.287  -1.004  -1.206  1.00  0.00     0.316 HD
BRANCH  20  22
HETATM   22  C2  UNL     1       5.917  -0.211  -0.306  1.00  0.00     0.240 C 
HETATM   23  C1  UNL     1       6.274  -1.406   0.516  1.00  0.00     0.045 C 
BRANCH  22  24
HETATM   24  C3  UNL     1       6.411   1.035   0.359  1.00  0.00     0.199 C 
BRANCH  24  25
HETATM   25  O1  UNL     1       6.271   2.146  -0.476  1.00  0.00    -0.399 OA
HETATM   26  H7  UNL     1       6.986   2.194  -1.154  1.00  0.00     0.209 HD
ENDBRANCH  24  25
ENDBRANCH  22  24
ENDBRANCH  20  22
ENDBRANCH  19  20
ENDBRANCH  16  19
ENDBRANCH  12  13
ENDBRANCH   1  12
BRANCH  11  27
HETATM   27  N2  UNL     1      -2.827  -2.266  -0.107  1.00  0.00    -0.249 N 
HETATM   28  C21 UNL     1      -2.831  -3.291   0.878  1.00  0.00     0.117 A 
HETATM   29  C22 UNL     1      -2.962  -4.555   0.584  1.00  0.00     0.033 A 
HETATM   30  C23 UNL     1      -3.118  -5.001  -0.817  1.00  0.00     0.284 A 
HETATM   31  C24 UNL     1      -3.107  -3.904  -1.789  1.00  0.00     0.151 A 
HETATM   32  N4  UNL     1      -2.973  -2.676  -1.422  1.00  0.00    -0.182 NA
BRANCH  30  33
HETATM   33  N3  UNL     1      -4.358  -5.764  -0.914  1.00  0.00     0.091 N 
HETATM   34  H26 UNL     1      -4.224  -6.778  -0.761  1.00  0.00     0.314 HD
HETATM   35  H27 UNL     1      -5.117  -5.377  -0.323  1.00  0.00     0.314 HD
ENDBRANCH  30  33
ENDBRANCH  11  27
BRANCH   7  36
HETATM   36  O2  UNL     1      -1.931   6.010   1.828  1.00  0.00    -0.361 OA
HETATM   37  H19 UNL     1      -2.644   6.417   2.428  1.00  0.00     0.217 HD
ENDBRANCH   7  36
TORSDOF 10
