REMARK  6 active torsions:
REMARK  status: ('A' for Active; 'I' for Inactive)
REMARK    1  A    between atoms: C2_2  and  N1_3 
REMARK    2  A    between atoms: C5_7  and  N3_8 
REMARK    3  A    between atoms: N3_8  and  C6_9 
REMARK    4  A    between atoms: C12_17  and  N5_18 
REMARK    5  A    between atoms: N5_18  and  C13_19 
REMARK    6  A    between atoms: C18_24  and  N6_25 
ROOT
HETATM    1  N1  UNL     1       1.417   3.095  -0.703  1.00  0.00    -0.324 N 
HETATM    2  C3  UNL     1       2.773   3.206  -0.450  1.00  0.00     0.212 A 
HETATM    3  N2  UNL     1       3.194   1.955  -0.138  1.00  0.00    -0.236 NA
HETATM    4  C4  UNL     1       2.101   1.160  -0.216  1.00  0.00     0.151 A 
HETATM    5  C5  UNL     1       2.093  -0.183  -0.066  1.00  0.00     0.180 A 
HETATM    6  N4  UNL     1       0.885  -0.799  -0.281  1.00  0.00    -0.043 NA
HETATM    7  C12 UNL     1      -0.263  -0.182  -0.610  1.00  0.00     0.726 A 
HETATM    8  N7  UNL     1      -0.157   1.164  -0.742  1.00  0.00    -0.042 NA
HETATM    9  C19 UNL     1       0.954   1.871  -0.570  1.00  0.00     0.182 A 
ENDROOT
BRANCH   7  10
HETATM   10  N5  UNL     1      -1.443  -0.952  -0.808  1.00  0.00    -0.216 N 
HETATM   11  H12 UNL     1      -1.323  -1.984  -0.896  1.00  0.00     0.178 HD
BRANCH  10  12
HETATM   12  C13 UNL     1      -2.782  -0.366  -0.929  1.00  0.00     0.132 C 
HETATM   13  C14 UNL     1      -3.773  -1.394  -1.357  1.00  0.00     0.028 C 
HETATM   14  C15 UNL     1      -5.182  -0.908  -1.250  1.00  0.00     0.002 C 
HETATM   15  C16 UNL     1      -5.521  -0.441   0.159  1.00  0.00     0.002 C 
HETATM   16  C17 UNL     1      -4.501   0.591   0.615  1.00  0.00     0.037 C 
HETATM   17  C18 UNL     1      -3.140   0.012   0.528  1.00  0.00     0.240 C 
BRANCH  17  18
HETATM   18  N6  UNL     1      -3.086  -1.198   1.343  1.00  0.00     0.085 N 
HETATM   19  H23 UNL     1      -2.587  -1.956   0.826  1.00  0.00     0.313 HD
HETATM   20  H24 UNL     1      -2.712  -1.024   2.278  1.00  0.00     0.313 HD
ENDBRANCH  17  18
ENDBRANCH  10  12
ENDBRANCH   7  10
BRANCH   5  21
HETATM   21  N3  UNL     1       2.999  -1.151   0.271  1.00  0.00    -0.338 N 
HETATM   22  H7  UNL     1       3.511  -0.931  -0.643  1.00  0.00     0.167 HD
BRANCH  21  23
HETATM   23  C6  UNL     1       3.914  -2.135   0.624  1.00  0.00     0.035 A 
HETATM   24  C7  UNL     1       4.063  -3.333  -0.122  1.00  0.00     0.029 A 
HETATM   25  C8  UNL     1       5.035  -4.242   0.322  1.00  0.00     0.004 A 
HETATM   26  C9  UNL     1       5.768  -3.883   1.464  1.00  0.00     0.024 A 
HETATM   27  C10 UNL     1       5.631  -2.739   2.181  1.00  0.00     0.036 A 
HETATM   28 CL1  UNL     1       6.616  -2.464   3.585  1.00  0.00    -0.084 Cl
HETATM   29  C11 UNL     1       4.664  -1.826   1.742  1.00  0.00     0.053 A 
ENDBRANCH  21  23
ENDBRANCH   5  21
BRANCH   1  30
HETATM   30  C2  UNL     1       0.706   4.255  -1.099  1.00  0.00     0.127 C 
HETATM   31  C1  UNL     1       0.344   5.197   0.026  1.00  0.00     0.027 C 
ENDBRANCH   1  30
TORSDOF 6
