REMARK  0 active torsions:
REMARK  status: ('A' for Active; 'I' for Inactive)
ROOT
HETATM    1  C1  UNL     1      -2.179   0.719   1.935  1.00  0.00     0.066 C 
HETATM    2  C2  UNL     1      -2.359  -0.195   0.774  1.00  0.00     0.321 C 
HETATM    3  N1  UNL     1      -2.751   0.591  -0.380  1.00  0.00     0.106 N 
HETATM    4  C3  UNL     1      -1.839   1.677  -0.579  1.00  0.00     0.276 C 
HETATM    5  C4  UNL     1      -0.397   1.255  -0.531  1.00  0.00     0.080 C 
HETATM    6  C5  UNL     1      -0.249  -0.231  -0.550  1.00  0.00     0.168 C 
HETATM    7  C6  UNL     1      -0.721  -0.677  -1.888  1.00  0.00     0.094 C 
HETATM    8  N2  UNL     1      -1.115  -1.031  -2.944  1.00  0.00    -0.194 NA
HETATM    9  N3  UNL     1      -1.139  -0.899   0.379  1.00  0.00    -0.295 N 
HETATM   10  C7  UNL     1      -0.929  -2.190   0.942  1.00  0.00     0.251 C 
HETATM   11  O1  UNL     1      -1.744  -2.635   1.811  1.00  0.00    -0.271 OA
HETATM   12  C8  UNL     1       0.315  -2.787   0.328  1.00  0.00     0.377 C 
HETATM   13  N4  UNL     1       1.375  -1.836   0.350  1.00  0.00     0.119 N 
HETATM   14  C9  UNL     1       1.388  -1.028   1.551  1.00  0.00     0.313 C 
HETATM   15  C10 UNL     1       1.932   0.069   0.682  1.00  0.00     0.014 C 
HETATM   16  C11 UNL     1       2.538   1.214   0.419  1.00  0.00     0.062 C 
HETATM   17 CL1  UNL     1       3.157   2.251   1.719  1.00  0.00    -0.082 Cl
HETATM   18  C12 UNL     1       2.876   1.659  -0.914  1.00  0.00     0.052 C 
HETATM   19 CL2  UNL     1       3.657   3.167  -1.299  1.00  0.00    -0.083 Cl
HETATM   20  C13 UNL     1       2.538   0.808  -1.875  1.00  0.00     0.002 C 
HETATM   21  C14 UNL     1       1.870  -0.533  -1.748  1.00  0.00     0.079 C 
HETATM   22  C15 UNL     1       1.198  -0.657  -0.429  1.00  0.00     0.229 C 
HETATM   23  H5  UNL     1      -3.704   0.943  -0.238  1.00  0.00     0.318 HD
ENDROOT
TORSDOF 0
