REMARK  0 active torsions:
REMARK  status: ('A' for Active; 'I' for Inactive)
ROOT
HETATM    1  C1  UNL     1       2.356   1.823  -2.596  1.00  0.00     0.151 C 
HETATM    2  N1  UNL     1       1.584   1.102  -1.601  1.00  0.00    -0.369 N 
HETATM    3  C2  UNL     1       1.823   1.392  -0.229  1.00  0.00     0.108 C 
HETATM    4  C3  UNL     1       2.475   0.975   0.846  1.00  0.00     0.049 C 
HETATM    5 CL1  UNL     1       2.433   1.746   2.418  1.00  0.00    -0.086 Cl
HETATM    6  C4  UNL     1       3.343  -0.227   0.851  1.00  0.00     0.151 C 
HETATM    7 CL2  UNL     1       5.029   0.140   1.289  1.00  0.00    -0.115 Cl
HETATM    8  C5  UNL     1       2.834  -1.304   1.706  1.00  0.00    -0.001 C 
HETATM    9  C6  UNL     1       1.698  -1.883   1.346  1.00  0.00     0.006 C 
HETATM   10  C7  UNL     1       0.879  -1.578   0.187  1.00  0.00    -0.038 C 
HETATM   11  C8  UNL     1       1.150  -1.158  -1.061  1.00  0.00     0.027 C 
HETATM   12  C9  UNL     1       0.550   0.084  -1.569  1.00  0.00     0.203 C 
HETATM   13  N2  UNL     1      -0.635   0.504  -0.909  1.00  0.00    -0.388 N 
HETATM   14  C10 UNL     1      -1.248  -0.353   0.032  1.00  0.00     0.051 C 
HETATM   15  C11 UNL     1      -1.312   0.268   1.405  1.00  0.00     0.062 C 
HETATM   16  C12 UNL     1      -2.238   1.443   1.486  1.00  0.00     0.272 C 
HETATM   17  N3  UNL     1      -3.294   1.410   0.504  1.00  0.00     0.083 N 
HETATM   18  C13 UNL     1      -3.705   0.040   0.341  1.00  0.00     0.272 C 
HETATM   19  C14 UNL     1      -2.657  -0.649  -0.498  1.00  0.00     0.062 C 
HETATM   20  C15 UNL     1      -0.593  -1.706   0.219  1.00  0.00     0.153 C 
HETATM   21  C16 UNL     1      -1.082  -2.565  -0.861  1.00  0.00     0.071 C 
HETATM   22  N4  UNL     1      -1.459  -3.230  -1.721  1.00  0.00    -0.196 NA
HETATM   23  H10 UNL     1      -1.327   0.963  -1.574  1.00  0.00     0.156 HD
HETATM   24  H15 UNL     1      -4.119   1.932   0.885  1.00  0.00     0.315 HD
ENDROOT
TORSDOF 0
