REMARK  2 active torsions:
REMARK  status: ('A' for Active; 'I' for Inactive)
REMARK    1  A    between atoms: C2_2  and  N1_3 
REMARK    2  A    between atoms: N3_6  and  C4_7 
ROOT
HETATM    1  N1  UNL     1       0.529   1.583   0.454  1.00  0.00    -0.342 N 
HETATM    2  C3  UNL     1       0.134   1.509   1.817  1.00  0.00     0.229 C 
HETATM    3  N2  UNL     1      -0.886   0.851   2.223  1.00  0.00    -0.164 NA
HETATM    4  N3  UNL     1      -1.725   0.129   1.375  1.00  0.00    -0.225 N 
HETATM    5  C8  UNL     1      -0.892  -0.739   0.611  1.00  0.00     0.231 C 
HETATM    6  N5  UNL     1      -0.602  -0.339  -0.612  1.00  0.00    -0.247 NA
HETATM    7  C9  UNL     1       0.227  -1.227  -1.328  1.00  0.00     0.039 C 
HETATM    8  C10 UNL     1       1.127  -0.354  -0.971  1.00  0.00     0.057 C 
HETATM    9  C11 UNL     1       1.511   0.905  -0.263  1.00  0.00     0.348 C 
HETATM   10  N6  UNL     1       2.770   0.592   0.462  1.00  0.00     0.113 N 
HETATM   11  C12 UNL     1       2.619  -0.791   0.925  1.00  0.00     0.301 C 
HETATM   12  C13 UNL     1       3.927  -1.417   1.097  1.00  0.00     0.026 C 
HETATM   13  C14 UNL     1       3.995  -2.411   0.190  1.00  0.00     0.031 C 
HETATM   14 CL1  UNL     1       5.572  -3.068   0.503  1.00  0.00    -0.085 Cl
HETATM   15  C15 UNL     1       3.108  -2.877  -0.856  1.00  0.00     0.020 C 
HETATM   16  C16 UNL     1       2.026  -2.899  -1.617  1.00  0.00    -0.019 C 
HETATM   17  C17 UNL     1       0.678  -2.443  -2.108  1.00  0.00     0.086 C 
HETATM   18  H16 UNL     1       3.592   0.717  -0.130  1.00  0.00     0.319 HD
ENDROOT
BRANCH   4  19
HETATM   19  C4  UNL     1      -3.040  -0.135   0.930  1.00  0.00     0.367 C 
HETATM   20  C5  UNL     1      -4.093   0.712   1.567  1.00  0.00     0.029 C 
HETATM   21  C6  UNL     1      -5.130   0.720   0.698  1.00  0.00     0.003 C 
HETATM   22  C7  UNL     1      -4.742  -0.120  -0.495  1.00  0.00     0.300 C 
HETATM   23  N4  UNL     1      -3.287   0.129  -0.481  1.00  0.00     0.115 N 
HETATM   24  H12 UNL     1      -3.191   1.168  -0.598  1.00  0.00     0.319 HD
ENDBRANCH   4  19
BRANCH   1  25
HETATM   25  C2  UNL     1      -0.353   2.569  -0.128  1.00  0.00     0.122 C 
HETATM   26  C1  UNL     1       0.464   3.835  -0.483  1.00  0.00     0.026 C 
ENDBRANCH   1  25
TORSDOF 2
