REMARK  6 active torsions:
REMARK  status: ('A' for Active; 'I' for Inactive)
REMARK    1  A    between atoms: C2_2  and  N1_3 
REMARK    2  A    between atoms: C5_7  and  N3_8 
REMARK    3  A    between atoms: N3_8  and  C6_9 
REMARK    4  A    between atoms: C12_17  and  N5_18 
REMARK    5  A    between atoms: N5_18  and  C13_19 
REMARK    6  A    between atoms: C15_21  and  N6_22 
ROOT
HETATM    1  N1  UNL     1       0.871   2.767   0.559  1.00  0.00    -0.324 N 
HETATM    2  C3  UNL     1       2.073   2.281   0.227  1.00  0.00     0.212 A 
HETATM    3  N2  UNL     1       1.976   0.963  -0.023  1.00  0.00    -0.236 NA
HETATM    4  C4  UNL     1       0.724   0.574   0.141  1.00  0.00     0.151 A 
HETATM    5  C5  UNL     1       0.134  -0.638  -0.000  1.00  0.00     0.180 A 
HETATM    6  N4  UNL     1      -1.202  -0.663   0.244  1.00  0.00    -0.043 NA
HETATM    7  C12 UNL     1      -1.891   0.422   0.598  1.00  0.00     0.727 A 
HETATM    8  N7  UNL     1      -1.276   1.623   0.733  1.00  0.00    -0.042 NA
HETATM    9  C16 UNL     1       0.048   1.714   0.504  1.00  0.00     0.182 A 
ENDROOT
BRANCH   5  10
HETATM   10  N3  UNL     1       0.736  -1.849  -0.340  1.00  0.00    -0.338 N 
HETATM   11  H7  UNL     1       0.131  -2.694  -0.550  1.00  0.00     0.167 HD
BRANCH  10  12
HETATM   12  C6  UNL     1       2.036  -2.332  -0.504  1.00  0.00     0.035 A 
HETATM   13  C7  UNL     1       2.521  -3.201  -1.478  1.00  0.00     0.029 A 
HETATM   14  C8  UNL     1       3.821  -3.615  -1.506  1.00  0.00     0.004 A 
HETATM   15  C9  UNL     1       4.750  -3.205  -0.575  1.00  0.00     0.024 A 
HETATM   16  C10 UNL     1       4.299  -2.345   0.402  1.00  0.00     0.036 A 
HETATM   17 CL1  UNL     1       5.534  -1.861   1.563  1.00  0.00    -0.084 Cl
HETATM   18  C11 UNL     1       2.972  -1.919   0.435  1.00  0.00     0.053 A 
ENDBRANCH  10  12
ENDBRANCH   5  10
BRANCH   7  19
HETATM   19  N5  UNL     1      -3.310   0.318   0.845  1.00  0.00    -0.209 N 
HETATM   20  H12 UNL     1      -3.835   1.171   1.123  1.00  0.00     0.179 HD
BRANCH  19  21
HETATM   21  C13 UNL     1      -3.878  -0.990   0.676  1.00  0.00     0.174 A 
HETATM   22  C14 UNL     1      -3.752  -1.540  -0.675  1.00  0.00     0.032 A 
HETATM   23  C15 UNL     1      -5.024  -1.263  -0.172  1.00  0.00     0.028 A 
BRANCH  23  24
HETATM   24  N6  UNL     1      -6.443  -1.181  -0.176  1.00  0.00    -0.401 N 
HETATM   25  H15 UNL     1      -6.991  -1.938   0.318  1.00  0.00     0.156 HD
HETATM   26  H16 UNL     1      -7.009  -0.419  -0.635  1.00  0.00     0.156 HD
ENDBRANCH  23  24
ENDBRANCH  19  21
ENDBRANCH   7  19
BRANCH   1  27
HETATM   27  C2  UNL     1       0.499   4.114   0.907  1.00  0.00     0.127 C 
HETATM   28  C1  UNL     1       0.080   4.941  -0.274  1.00  0.00     0.027 C 
ENDBRANCH   1  27
TORSDOF 6
