REMARK  6 active torsions:
REMARK  status: ('A' for Active; 'I' for Inactive)
REMARK    1  A    between atoms: C3_3  and  C4_4 
REMARK    2  A    between atoms: C3_3  and  N1_8 
REMARK    3  A    between atoms: N1_8  and  C6_9 
REMARK    4  A    between atoms: C10_15  and  O1_16 
REMARK    5  A    between atoms: C13_19  and  O2_20 
REMARK    6  A    between atoms: O2_20  and  C14_21 
ROOT
HETATM    1  C6  UNL     1       0.428  -1.286  -0.629  1.00  0.00     0.144 A 
HETATM    2  N2  UNL     1       0.934  -2.383  -1.216  1.00  0.00    -0.223 NA
HETATM    3  C7  UNL     1       0.049  -3.391  -1.465  1.00  0.00     0.236 A 
HETATM    4  N3  UNL     1      -1.252  -3.306  -1.150  1.00  0.00    -0.241 NA
HETATM    5  C8  UNL     1      -1.693  -2.182  -0.566  1.00  0.00     0.077 A 
HETATM    6  C9  UNL     1      -3.041  -2.123  -0.253  1.00  0.00     0.069 A 
HETATM    7  C10 UNL     1      -3.602  -0.995   0.357  1.00  0.00     0.073 A 
HETATM    8  C12 UNL     1      -2.714   0.031   0.614  1.00  0.00     0.074 A 
HETATM    9  C13 UNL     1      -1.367   0.021   0.323  1.00  0.00     0.088 A 
HETATM   10  C18 UNL     1      -0.877  -1.118  -0.277  1.00  0.00     0.072 A 
ENDROOT
BRANCH   1  11
HETATM   11  N1  UNL     1       1.377  -0.271  -0.391  1.00  0.00    -0.340 N 
HETATM   12  H6  UNL     1       1.645   0.665  -0.036  1.00  0.00     0.167 HD
BRANCH  11  13
HETATM   13  C3  UNL     1       2.755  -0.461  -0.780  1.00  0.00     0.033 C 
HETATM   14  C2  UNL     1       3.636  -1.002   0.079  1.00  0.00    -0.002 C 
HETATM   15  C1  UNL     1       5.024  -1.178  -0.355  1.00  0.00     0.038 C 
BRANCH  13  16
HETATM   16  C4  UNL     1       3.161  -0.056  -2.113  1.00  0.00     0.084 C 
HETATM   17  C5  UNL     1       2.300   0.475  -2.962  1.00  0.00     0.188 C 
HETATM   18  F1  UNL     1       0.989   0.702  -2.715  1.00  0.00    -0.193 F 
HETATM   19 CL1  UNL     1       2.768   0.972  -4.574  1.00  0.00    -0.051 Cl
ENDBRANCH  13  16
ENDBRANCH  11  13
ENDBRANCH   1  11
BRANCH   9  20
HETATM   20  O2  UNL     1      -0.515   1.049   0.588  1.00  0.00    -0.343 OA
BRANCH  20  21
HETATM   21  C14 UNL     1      -0.761   2.281   1.174  1.00  0.00     0.154 C 
HETATM   22  C15 UNL     1       0.131   2.388   2.417  1.00  0.00     0.061 C 
HETATM   23  C16 UNL     1       0.951   3.631   2.258  1.00  0.00     0.170 C 
HETATM   24  O3  UNL     1       0.301   4.370   1.277  1.00  0.00    -0.389 OA
HETATM   25  C17 UNL     1      -0.222   3.447   0.370  1.00  0.00     0.200 C 
ENDBRANCH  20  21
ENDBRANCH   9  20
BRANCH   7  26
HETATM   26  O1  UNL     1      -4.947  -0.895   0.687  1.00  0.00    -0.356 OA
HETATM   27  C11 UNL     1      -5.773  -2.003   0.381  1.00  0.00     0.210 C 
ENDBRANCH   7  26
TORSDOF 6
