REMARK  3 active torsions:
REMARK  status: ('A' for Active; 'I' for Inactive)
REMARK    1  A    between atoms: C4_4  and  N1_5 
REMARK    2  A    between atoms: N5_19  and  C14_20 
REMARK    3  A    between atoms: C14_20  and  N6_21 
ROOT
HETATM    1  N1  UNL     1       0.731  -0.449  -0.318  1.00  0.00    -0.257 N 
HETATM    2  C5  UNL     1       0.799   0.977  -0.083  1.00  0.00     0.224 C 
HETATM    3  N2  UNL     1       1.218   1.061   1.158  1.00  0.00    -0.253 NA
HETATM    4  C6  UNL     1       1.375   2.425   1.666  1.00  0.00     0.419 C 
HETATM    5  N3  UNL     1       0.259   3.253   1.160  1.00  0.00     0.106 N 
HETATM    6  C7  UNL     1      -0.975   2.596   1.618  1.00  0.00     0.300 C 
HETATM    7  C8  UNL     1      -2.147   3.291   1.049  1.00  0.00     0.022 C 
HETATM    8  C9  UNL     1      -3.033   2.725   0.212  1.00  0.00     0.012 A 
HETATM    9 CL1  UNL     1      -4.451   2.691  -0.800  1.00  0.00    -0.176 Cl
HETATM   10  C10 UNL     1      -2.930   1.393  -0.327  1.00  0.00     0.121 A 
HETATM   11  C11 UNL     1      -2.890   0.195  -0.845  1.00  0.00     0.049 C 
HETATM   12  C12 UNL     1      -2.442  -1.195  -1.186  1.00  0.00     0.187 A 
HETATM   13  N4  UNL     1      -3.501  -2.141  -0.942  1.00  0.00    -0.271 NA
HETATM   14  C13 UNL     1      -3.176  -3.039  -0.106  1.00  0.00     0.207 A 
HETATM   15  N5  UNL     1      -1.823  -2.847   0.361  1.00  0.00    -0.300 N 
HETATM   16  C15 UNL     1      -1.330  -1.665  -0.321  1.00  0.00     0.154 A 
HETATM   17  N7  UNL     1      -0.140  -1.431   0.040  1.00  0.00    -0.155 NA
HETATM   18  H11 UNL     1       0.302   4.148   1.720  1.00  0.00     0.318 HD
ENDROOT
BRANCH   1  19
HETATM   19  C4  UNL     1       1.884  -0.650  -1.074  1.00  0.00     0.112 C 
HETATM   20  C3  UNL     1       3.234  -0.284  -0.443  1.00  0.00     0.031 C 
HETATM   21  C2  UNL     1       3.717  -0.275  -1.902  1.00  0.00    -0.015 C 
HETATM   22  C1  UNL     1       4.790   0.721  -2.195  1.00  0.00     0.010 C 
HETATM   23  C16 UNL     1       2.285   0.187  -2.219  1.00  0.00     0.031 C 
ENDBRANCH   1  19
BRANCH  15  24
HETATM   24  C14 UNL     1      -1.413  -3.872   1.336  1.00  0.00     0.398 C 
BRANCH  24  25
HETATM   25  N6  UNL     1      -2.326  -3.810   2.453  1.00  0.00     0.096 N 
HETATM   26  H21 UNL     1      -2.833  -4.702   2.589  1.00  0.00     0.314 HD
HETATM   27  H22 UNL     1      -3.053  -3.072   2.321  1.00  0.00     0.314 HD
ENDBRANCH  24  25
ENDBRANCH  15  24
TORSDOF 3
