REMARK  2 active torsions:
REMARK  status: ('A' for Active; 'I' for Inactive)
REMARK    1  A    between atoms: C2_2  and  N1_3 
REMARK    2  A    between atoms: C11_16  and  C12_17 
ROOT
HETATM    1  N1  UNL     1      -3.223  -0.097  -0.637  1.00  0.00    -0.349 N 
HETATM    2  C3  UNL     1      -3.209  -1.548  -0.769  1.00  0.00     0.226 C 
HETATM    3  N2  UNL     1      -1.931  -1.481  -0.724  1.00  0.00    -0.058 NA
HETATM    4  C4  UNL     1      -1.137  -2.640  -0.807  1.00  0.00     0.723 C 
HETATM    5  N3  UNL     1      -0.526  -2.306  -1.833  1.00  0.00    -0.066 NA
HETATM    6  C5  UNL     1      -0.539  -1.212  -2.662  1.00  0.00     0.071 C 
HETATM    7  C6  UNL     1      -1.348  -1.128  -3.687  1.00  0.00     0.017 C 
HETATM    8  P1  UNL     1      -2.721  -0.361  -3.213  1.00  0.00     0.002 P 
HETATM    9  C7  UNL     1      -2.796   0.803  -1.725  1.00  0.00     0.222 C 
HETATM   10  N4  UNL     1      -1.464   1.317  -1.450  1.00  0.00    -0.367 N 
HETATM   11  C8  UNL     1      -0.090   0.878  -1.351  1.00  0.00     0.013 C 
HETATM   12  C9  UNL     1       0.677   1.534  -0.484  1.00  0.00     0.032 C 
HETATM   13  C10 UNL     1       1.873   1.909   0.290  1.00  0.00    -0.059 C 
HETATM   14  C11 UNL     1       1.754   2.979   1.153  1.00  0.00    -0.005 C 
HETATM   15  C13 UNL     1       3.230   1.389   0.210  1.00  0.00     0.038 C 
HETATM   16  C14 UNL     1       3.679   0.105   0.742  1.00  0.00     0.005 C 
HETATM   17  C15 UNL     1       3.087  -1.207   0.405  1.00  0.00     0.000 C 
HETATM   18  C16 UNL     1       1.759  -1.485   0.993  1.00  0.00     0.002 C 
HETATM   19  C17 UNL     1       1.072  -2.708   0.413  1.00  0.00     0.020 C 
HETATM   20  C18 UNL     1      -0.298  -2.874   0.983  1.00  0.00     0.138 C 
HETATM   21  N5  UNL     1      -1.178  -3.684   0.164  1.00  0.00    -0.222 N 
HETATM   22  C19 UNL     1       0.438  -0.191  -2.239  1.00  0.00     0.117 C 
HETATM   23  H8  UNL     1      -1.498   2.365  -1.250  1.00  0.00     0.161 HD
HETATM   24  H25 UNL     1      -1.803  -4.276  -0.402  1.00  0.00     0.177 HD
ENDROOT
BRANCH  14  25
HETATM   25  C12 UNL     1       1.089   4.106   1.851  1.00  0.00     0.142 C 
HETATM   26 CL1  UNL     1      -0.590   4.255   1.276  1.00  0.00    -0.126 Cl
ENDBRANCH  14  25
BRANCH   1  27
HETATM   27  C2  UNL     1      -3.685   0.332   0.641  1.00  0.00     0.121 C 
HETATM   28  C1  UNL     1      -2.613   0.959   1.496  1.00  0.00     0.026 C 
ENDBRANCH   1  27
TORSDOF 2
