REMARK  2 active torsions:
REMARK  status: ('A' for Active; 'I' for Inactive)
REMARK    1  A    between atoms: C3_4  and  O1_5 
REMARK    2  A    between atoms: C11_16  and  C12_17 
ROOT
HETATM    1  C1  UNL     1       0.488   3.637  -1.914  1.00  0.00     0.057 C 
HETATM    2  S1  UNL     1       0.668   2.493  -0.787  1.00  0.00    -0.175 SA
HETATM    3  C2  UNL     1       0.077   3.218   0.746  1.00  0.00     0.095 C 
HETATM    4  C3  UNL     1      -0.790   2.736   1.646  1.00  0.00     0.161 C 
HETATM    5  N1  UNL     1      -1.491   1.505   1.643  1.00  0.00    -0.260 N 
HETATM    6  N2  UNL     1      -1.202   0.299   1.000  1.00  0.00    -0.190 N 
HETATM    7  N3  UNL     1      -1.752  -0.714   1.841  1.00  0.00    -0.171 NA
HETATM    8  C4  UNL     1      -2.056  -1.932   1.520  1.00  0.00     0.126 C 
HETATM    9  C5  UNL     1      -2.265  -2.653   0.269  1.00  0.00     0.073 C 
HETATM   10  C6  UNL     1      -3.536  -2.259  -0.453  1.00  0.00    -0.017 C 
HETATM   11  C7  UNL     1      -3.462  -1.673  -1.671  1.00  0.00    -0.025 C 
HETATM   12  C8  UNL     1      -2.343  -0.654  -1.813  1.00  0.00     0.063 C 
HETATM   13  C9  UNL     1      -1.241  -1.084  -0.850  1.00  0.00    -0.042 C 
HETATM   14  C10 UNL     1      -1.158  -2.442  -0.720  1.00  0.00    -0.007 C 
HETATM   15  C11 UNL     1      -0.502   0.067  -0.242  1.00  0.00     0.131 C 
HETATM   16  C19 UNL     1      -0.507   1.200  -1.194  1.00  0.00     0.116 C 
HETATM   17  H5  UNL     1      -2.393   1.433   2.206  1.00  0.00     0.191 HD
ENDROOT
BRANCH  15  18
HETATM   18  C12 UNL     1       0.913  -0.209   0.075  1.00  0.00    -0.021 A 
HETATM   19  C13 UNL     1       1.630   0.075   1.186  1.00  0.00     0.011 A 
HETATM   20  C14 UNL     1       2.962  -0.250   1.330  1.00  0.00     0.007 A 
HETATM   21  C15 UNL     1       3.599  -0.886   0.315  1.00  0.00    -0.062 A 
HETATM   22  C16 UNL     1       5.045  -1.204   0.549  1.00  0.00     0.048 C 
HETATM   23  C17 UNL     1       2.917  -1.199  -0.844  1.00  0.00     0.007 A 
HETATM   24  C18 UNL     1       1.566  -0.865  -0.977  1.00  0.00     0.011 A 
ENDBRANCH  15  18
BRANCH   4  25
HETATM   25  O1  UNL     1      -1.051   3.544   2.748  1.00  0.00    -0.345 OA
HETATM   26  H4  UNL     1      -0.292   3.944   3.267  1.00  0.00     0.219 HD
ENDBRANCH   4  25
TORSDOF 2
