REMARK  4 active torsions:
REMARK  status: ('A' for Active; 'I' for Inactive)
REMARK    1  A    between atoms: N1_1  and  C1_2 
REMARK    2  A    between atoms: C6_7  and  N2_8 
REMARK    3  A    between atoms: N2_8  and  C7_9 
REMARK    4  A    between atoms: N5_15  and  C11_16 
ROOT
HETATM    1  C7  UNL     1      -0.239   2.080  -0.628  1.00  0.00     0.724 A 
HETATM    2  N3  UNL     1      -0.013   3.416  -0.695  1.00  0.00    -0.073 NA
HETATM    3  C8  UNL     1       1.165   3.979  -0.415  1.00  0.00     0.172 A 
HETATM    4  C9  UNL     1       2.162   3.117  -0.048  1.00  0.00     0.124 A 
HETATM    5  C10 UNL     1       1.995   1.752   0.039  1.00  0.00     0.199 A 
HETATM    6  N4  UNL     1       0.775   1.282  -0.262  1.00  0.00    -0.041 NA
HETATM    7  N5  UNL     1       3.018   0.846   0.413  1.00  0.00    -0.235 N 
HETATM    8  N6  UNL     1       4.233   1.473   0.692  1.00  0.00    -0.285 N 
HETATM    9  C17 UNL     1       4.430   2.878   0.610  1.00  0.00     0.224 A 
HETATM   10  N7  UNL     1       3.442   3.665   0.257  1.00  0.00    -0.237 NA
HETATM   11  H19 UNL     1       5.111   1.015   0.985  1.00  0.00     0.188 HD
ENDROOT
BRANCH   1  12
HETATM   12  N2  UNL     1      -1.562   1.617  -0.972  1.00  0.00    -0.216 N 
HETATM   13  H13 UNL     1      -2.278   2.309  -1.278  1.00  0.00     0.178 HD
BRANCH  12  14
HETATM   14  C6  UNL     1      -2.009   0.256  -0.936  1.00  0.00     0.132 C 
HETATM   15  C1  UNL     1      -3.429   0.087  -1.477  1.00  0.00     0.240 C 
HETATM   16  C2  UNL     1      -3.763  -1.389  -1.359  1.00  0.00     0.037 C 
HETATM   17  C3  UNL     1      -3.858  -1.793   0.083  1.00  0.00     0.002 C 
HETATM   18  C4  UNL     1      -2.492  -1.565   0.712  1.00  0.00     0.002 C 
HETATM   19  C5  UNL     1      -2.107  -0.139   0.533  1.00  0.00     0.028 C 
BRANCH  15  20
HETATM   20  N1  UNL     1      -4.347   0.811  -0.627  1.00  0.00     0.085 N 
HETATM   21  H1  UNL     1      -4.486   1.752  -1.072  1.00  0.00     0.313 HD
HETATM   22  H2  UNL     1      -5.303   0.369  -0.585  1.00  0.00     0.313 HD
ENDBRANCH  15  20
ENDBRANCH  12  14
ENDBRANCH   1  12
BRANCH   7  23
HETATM   23  C11 UNL     1       2.913  -0.553   0.527  1.00  0.00     0.060 A 
HETATM   24  C12 UNL     1       1.788  -1.329   0.599  1.00  0.00     0.032 A 
HETATM   25  C13 UNL     1       1.746  -2.697   0.694  1.00  0.00     0.004 A 
HETATM   26  C14 UNL     1       2.923  -3.397   0.723  1.00  0.00     0.024 A 
HETATM   27  C15 UNL     1       4.108  -2.670   0.654  1.00  0.00     0.036 A 
HETATM   28 CL1  UNL     1       5.564  -3.642   0.696  1.00  0.00    -0.084 Cl
HETATM   29  C16 UNL     1       4.079  -1.305   0.560  1.00  0.00     0.055 A 
ENDBRANCH   7  23
TORSDOF 4
