REMARK  6 active torsions:
REMARK  status: ('A' for Active; 'I' for Inactive)
REMARK    1  A    between atoms: C2_2  and  N1_3 
REMARK    2  A    between atoms: C7_9  and  N3_10 
REMARK    3  A    between atoms: C11_15  and  N5_16 
REMARK    4  A    between atoms: N5_16  and  C12_17 
REMARK    5  A    between atoms: C12_17  and  C13_18 
REMARK    6  A    between atoms: C14_19  and  P1_20 
ROOT
HETATM    1  N1  UNL     1      -0.998   2.242   0.296  1.00  0.00    -0.337 N 
HETATM    2  C3  UNL     1      -2.276   1.657   0.669  1.00  0.00     0.204 C 
HETATM    3  N2  UNL     1      -2.024   1.053  -0.406  1.00  0.00    -0.279 NA
HETATM    4  C4  UNL     1      -2.998   0.082  -0.848  1.00  0.00     0.111 C 
HETATM    5  C5  UNL     1      -3.490  -0.751   0.321  1.00  0.00     0.029 C 
HETATM    6  C6  UNL     1      -3.320  -2.222   0.107  1.00  0.00     0.039 C 
HETATM    7  C7  UNL     1      -1.946  -2.704  -0.233  1.00  0.00     0.240 C 
HETATM    8  C8  UNL     1      -1.216  -1.511  -0.844  1.00  0.00     0.111 C 
HETATM    9  C9  UNL     1      -2.236  -0.906  -1.784  1.00  0.00     0.054 C 
HETATM   10  N4  UNL     1       0.037  -1.774  -1.421  1.00  0.00    -0.411 N 
HETATM   11  C10 UNL     1       1.162  -1.222  -0.704  1.00  0.00     0.173 C 
HETATM   12  C11 UNL     1       1.320   0.245  -0.703  1.00  0.00     0.360 C 
HETATM   13  N6  UNL     1       0.218   1.016  -0.167  1.00  0.00    -0.247 NA
HETATM   14  C15 UNL     1       0.157   2.245  -0.537  1.00  0.00     0.206 C 
HETATM   15  H18 UNL     1       0.216  -2.730  -1.781  1.00  0.00     0.153 HD
ENDROOT
BRANCH  12  16
HETATM   16  N5  UNL     1       2.500   0.641   0.067  1.00  0.00     0.113 N 
HETATM   17  H22 UNL     1       2.522   1.637   0.303  1.00  0.00     0.319 HD
BRANCH  16  18
HETATM   18  C12 UNL     1       3.744   0.200  -0.507  1.00  0.00     0.301 C 
BRANCH  18  19
HETATM   19  C13 UNL     1       4.854   0.645   0.381  1.00  0.00     0.027 C 
HETATM   20  C14 UNL     1       5.672  -0.234   0.937  1.00  0.00     0.030 C 
HETATM   21 CL1  UNL     1       7.009   0.153   1.996  1.00  0.00    -0.084 Cl
BRANCH  20  22
HETATM   22  P1  UNL     1       5.759  -2.061   0.852  1.00  0.00    -0.094 P 
HETATM   23  H26 UNL     1       4.673  -2.561   0.039  1.00  0.00     0.060 HD
HETATM   24  H27 UNL     1       7.005  -2.527   0.257  1.00  0.00     0.060 HD
ENDBRANCH  20  22
ENDBRANCH  18  19
ENDBRANCH  16  18
ENDBRANCH  12  16
BRANCH   1  25
HETATM   25  C2  UNL     1      -0.911   3.293   1.221  1.00  0.00     0.126 C 
HETATM   26  C1  UNL     1      -1.969   4.376   0.946  1.00  0.00     0.027 C 
ENDBRANCH   1  25
BRANCH   7  27
HETATM   27  N3  UNL     1      -1.191  -3.116   0.933  1.00  0.00     0.085 N 
HETATM   28  H13 UNL     1      -1.872  -3.312   1.697  1.00  0.00     0.313 HD
HETATM   29  H14 UNL     1      -0.693  -4.037   0.776  1.00  0.00     0.313 HD
ENDBRANCH   7  27
TORSDOF 6
