REMARK  9 active torsions:
REMARK  status: ('A' for Active; 'I' for Inactive)
REMARK    1  A    between atoms: C2_2  and  C3_3 
REMARK    2  A    between atoms: C4_4  and  C6_6 
REMARK    3  A    between atoms: C7_7  and  C8_8 
REMARK    4  A    between atoms: N2_10  and  C9_11 
REMARK    5  A    between atoms: C10_13  and  O1_14 
REMARK    6  A    between atoms: C12_17  and  C13_18 
REMARK    7  A    between atoms: C13_18  and  C15_20 
REMARK    8  A    between atoms: C15_20  and  C16_21 
REMARK    9  A    between atoms: C16_21  and  C17_22 
ROOT
HETATM    1  C8  UNL     1      -0.239   0.509  -0.276  1.00  0.00     0.057 C 
HETATM    2  N1  UNL     1       0.175   0.919   0.854  1.00  0.00    -0.175 NA
HETATM    3  N2  UNL     1       1.337   1.683   0.788  1.00  0.00    -0.240 N 
HETATM    4  C12 UNL     1       1.952   1.172  -0.402  1.00  0.00     0.125 C 
HETATM    5  C18 UNL     1       0.698   1.022  -1.284  1.00  0.00     0.089 C 
ENDROOT
BRANCH   1   6
HETATM    6  C7  UNL     1      -1.436  -0.251   0.013  1.00  0.00     0.029 C 
HETATM    7  C6  UNL     1      -2.274  -0.692   0.916  1.00  0.00     0.008 C 
BRANCH   7   8
HETATM    8  C4  UNL     1      -3.350  -1.482   0.375  1.00  0.00    -0.066 C 
HETATM    9  C3  UNL     1      -4.221  -1.945   1.238  1.00  0.00    -0.020 C 
HETATM   10  C5  UNL     1      -3.435  -1.734  -1.082  1.00  0.00     0.048 C 
BRANCH   9  11
HETATM   11  C2  UNL     1      -5.434  -2.770   1.099  1.00  0.00     0.023 C 
HETATM   12  C1  UNL     1      -6.662  -2.041   1.589  1.00  0.00     0.009 C 
ENDBRANCH   9  11
ENDBRANCH   7   8
ENDBRANCH   1   6
BRANCH   3  13
HETATM   13  C9  UNL     1       1.920   2.743   1.589  1.00  0.00     0.192 A 
HETATM   14  N3  UNL     1       2.565   3.023   2.528  1.00  0.00    -0.198 NA
HETATM   15  C10 UNL     1       2.890   4.256   2.914  1.00  0.00     0.171 A 
HETATM   16  C11 UNL     1       2.387   5.375   2.078  1.00  0.00     0.111 A 
HETATM   17  S1  UNL     1       1.467   4.440   0.785  1.00  0.00    -0.058 SA
BRANCH  15  18
HETATM   18  O1  UNL     1       3.678   4.244   4.082  1.00  0.00    -0.344 OA
HETATM   19  H12 UNL     1       3.467   4.970   4.753  1.00  0.00     0.219 HD
ENDBRANCH  15  18
ENDBRANCH   3  13
BRANCH   4  20
HETATM   20  C13 UNL     1       2.436  -0.264  -0.207  1.00  0.00     0.029 C 
HETATM   21  C14 UNL     1       3.467  -0.335   0.920  1.00  0.00     0.016 C 
BRANCH  20  22
HETATM   22  C15 UNL     1       2.960  -0.788  -1.466  1.00  0.00    -0.022 C 
BRANCH  22  23
HETATM   23  C16 UNL     1       3.409  -1.159  -2.625  1.00  0.00     0.000 C 
BRANCH  23  24
HETATM   24  C17 UNL     1       3.940  -1.745  -3.846  1.00  0.00     0.249 C 
HETATM   25  F1  UNL     1       3.040  -1.706  -4.893  1.00  0.00    -0.251 F 
ENDBRANCH  23  24
ENDBRANCH  22  23
ENDBRANCH  20  22
ENDBRANCH   4  20
TORSDOF 9
