REMARK  8 active torsions:
REMARK  status: ('A' for Active; 'I' for Inactive)
REMARK    1  A    between atoms: C2_2  and  C3_3 
REMARK    2  A    between atoms: C3_3  and  C4_5 
REMARK    3  A    between atoms: C4_5  and  C5_6 
REMARK    4  A    between atoms: C5_6  and  C6_7 
REMARK    5  A    between atoms: C6_7  and  C7_8 
REMARK    6  A    between atoms: C9_10  and  C10_11 
REMARK    7  A    between atoms: N2_19  and  C17_20 
REMARK    8  A    between atoms: C18_22  and  O1_23 
ROOT
HETATM    1  C7  UNL     1       0.820   0.716  -0.971  1.00  0.00     0.122 C 
HETATM    2  C8  UNL     1       0.370  -0.571  -0.334  1.00  0.00     0.089 C 
HETATM    3  C9  UNL     1      -1.105  -0.298  -0.212  1.00  0.00     0.067 C 
HETATM    4  N1  UNL     1      -1.316   0.958  -0.295  1.00  0.00    -0.174 NA
HETATM    5  N2  UNL     1      -0.105   1.678  -0.473  1.00  0.00    -0.240 N 
ENDROOT
BRANCH   1   6
HETATM    6  C6  UNL     1       2.261   1.013  -0.771  1.00  0.00     0.055 C 
BRANCH   6   7
HETATM    7  C5  UNL     1       2.686   1.133   0.621  1.00  0.00    -0.021 C 
BRANCH   7   8
HETATM    8  C4  UNL     1       3.613   0.316   1.100  1.00  0.00     0.047 C 
BRANCH   8   9
HETATM    9  C3  UNL     1       4.253  -0.718   0.319  1.00  0.00     0.157 C 
HETATM   10  F1  UNL     1       3.750  -1.700  -0.450  1.00  0.00    -0.197 F 
BRANCH   9  11
HETATM   11  C2  UNL     1       5.575  -0.796   0.291  1.00  0.00    -0.114 C 
HETATM   12  C1  UNL     1       6.875  -0.760   0.501  1.00  0.00     0.100 C 
ENDBRANCH   9  11
ENDBRANCH   8   9
ENDBRANCH   7   8
ENDBRANCH   6   7
ENDBRANCH   1   6
BRANCH   5  13
HETATM   13  C17 UNL     1      -0.228   3.065  -0.116  1.00  0.00     0.192 A 
HETATM   14  N3  UNL     1      -0.472   4.037  -0.748  1.00  0.00    -0.198 NA
HETATM   15  C18 UNL     1      -0.562   5.268  -0.296  1.00  0.00     0.171 A 
HETATM   16  C19 UNL     1      -0.342   5.428   1.085  1.00  0.00     0.111 A 
HETATM   17  S1  UNL     1      -0.007   3.655   1.607  1.00  0.00    -0.058 SA
BRANCH  15  18
HETATM   18  O1  UNL     1      -0.864   6.279  -1.231  1.00  0.00    -0.344 OA
HETATM   19  H17 UNL     1      -1.842   6.317  -1.523  1.00  0.00     0.219 HD
ENDBRANCH  15  18
ENDBRANCH   5  13
BRANCH   3  20
HETATM   20  C10 UNL     1      -2.067  -1.384  -0.028  1.00  0.00    -0.010 A 
HETATM   21  C11 UNL     1      -1.722  -2.703   0.048  1.00  0.00     0.014 A 
HETATM   22  C12 UNL     1      -2.614  -3.732   0.222  1.00  0.00     0.007 A 
HETATM   23  C13 UNL     1      -3.964  -3.420   0.330  1.00  0.00    -0.062 A 
HETATM   24  C14 UNL     1      -4.985  -4.474   0.519  1.00  0.00     0.048 C 
HETATM   25  C15 UNL     1      -4.387  -2.107   0.264  1.00  0.00     0.007 A 
HETATM   26  C16 UNL     1      -3.421  -1.148   0.088  1.00  0.00     0.014 A 
ENDBRANCH   3  20
TORSDOF 8
