REMARK  1 active torsions:
REMARK  status: ('A' for Active; 'I' for Inactive)
REMARK    1  A    between atoms: C11_13  and  C12_14 
ROOT
HETATM    1  N1  UNL     1      -0.331   1.179   1.118  1.00  0.00    -0.285 NA
HETATM    2  C1  UNL     1      -0.110  -0.115   1.112  1.00  0.00     0.127 C 
HETATM    3  N2  UNL     1      -0.563  -0.311   2.470  1.00  0.00    -0.245 NA
HETATM    4  C2  UNL     1      -1.875  -0.511   2.517  1.00  0.00     0.130 C 
HETATM    5  C3  UNL     1      -2.381  -0.456   1.145  1.00  0.00    -0.019 C 
HETATM    6  C4  UNL     1      -2.203  -1.306   0.088  1.00  0.00     0.013 C 
HETATM    7  C5  UNL     1      -1.863  -0.906  -1.316  1.00  0.00     0.004 C 
HETATM    8  C6  UNL     1      -1.423   0.377  -1.404  1.00  0.00    -0.075 C 
HETATM    9  C7  UNL     1      -2.478   1.410  -1.508  1.00  0.00     0.061 C 
HETATM   10  C8  UNL     1      -3.294   1.488  -0.251  1.00  0.00    -0.021 C 
HETATM   11  C9  UNL     1      -3.213   0.755   0.884  1.00  0.00     0.009 C 
HETATM   12  C10 UNL     1       0.053   0.280  -1.325  1.00  0.00     0.051 C 
HETATM   13  C11 UNL     1       0.460  -0.627  -0.162  1.00  0.00     0.093 C 
HETATM   14  H1  UNL     1      -0.713   1.687   1.946  1.00  0.00     0.188 HD
ENDROOT
BRANCH  13  15
HETATM   15  C12 UNL     1       1.941  -0.510  -0.106  1.00  0.00    -0.046 A 
HETATM   16  C13 UNL     1       2.690  -1.664  -0.330  1.00  0.00     0.011 A 
HETATM   17  C14 UNL     1       4.075  -1.540  -0.275  1.00  0.00     0.043 A 
HETATM   18  C15 UNL     1       4.677  -0.306  -0.005  1.00  0.00     0.116 A 
HETATM   19  F1  UNL     1       6.028  -0.249   0.035  1.00  0.00    -0.206 F 
HETATM   20  C16 UNL     1       3.902   0.818   0.212  1.00  0.00     0.043 A 
HETATM   21  C17 UNL     1       2.530   0.708   0.160  1.00  0.00     0.011 A 
ENDBRANCH  13  15
TORSDOF 1
