REMARK  4 active torsions:
REMARK  status: ('A' for Active; 'I' for Inactive)
REMARK    1  A    between atoms: C5_5  and  C6_6 
REMARK    2  A    between atoms: N1_7  and  N2_8 
REMARK    3  A    between atoms: C8_11  and  O1_12 
REMARK    4  A    between atoms: C10_14  and  C11_15 
ROOT
HETATM    1  N2  UNL     1      -1.487  -0.772  -1.049  1.00  0.00    -0.255 N 
HETATM    2  C7  UNL     1      -1.867  -1.988  -1.694  1.00  0.00     0.226 C 
HETATM    3  N3  UNL     1      -3.040  -2.500  -1.561  1.00  0.00    -0.252 NA
HETATM    4  C8  UNL     1      -4.085  -1.922  -0.763  1.00  0.00     0.244 C 
HETATM    5  C9  UNL     1      -3.679  -0.720   0.021  1.00  0.00     0.087 C 
HETATM    6  C10 UNL     1      -2.577   0.080  -0.586  1.00  0.00     0.148 C 
ENDROOT
BRANCH   1   7
HETATM    7  N1  UNL     1      -0.103  -0.587  -0.962  1.00  0.00    -0.182 NA
HETATM    8  C6  UNL     1       0.675  -1.248  -0.178  1.00  0.00     0.150 C 
BRANCH   8   9
HETATM    9  C5  UNL     1       2.097  -0.929  -0.211  1.00  0.00    -0.017 A 
HETATM   10  C4  UNL     1       3.035  -1.552   0.566  1.00  0.00     0.013 A 
HETATM   11  C3  UNL     1       4.384  -1.264   0.548  1.00  0.00     0.007 A 
HETATM   12  C2  UNL     1       4.850  -0.289  -0.298  1.00  0.00    -0.062 A 
HETATM   13  C1  UNL     1       6.315  -0.024  -0.272  1.00  0.00     0.048 C 
HETATM   14  C18 UNL     1       3.954   0.375  -1.107  1.00  0.00     0.007 A 
HETATM   15  C17 UNL     1       2.618   0.039  -1.040  1.00  0.00     0.013 A 
ENDBRANCH   8   9
ENDBRANCH   1   7
BRANCH   6  16
HETATM   16  C11 UNL     1      -2.156   1.141   0.334  1.00  0.00    -0.033 A 
HETATM   17  C12 UNL     1      -1.029   1.918   0.088  1.00  0.00     0.011 A 
HETATM   18  C13 UNL     1      -0.581   2.928   0.913  1.00  0.00     0.024 A 
HETATM   19  C14 UNL     1      -1.303   3.190   2.068  1.00  0.00     0.034 A 
HETATM   20 CL1  UNL     1      -0.811   4.454   3.177  1.00  0.00    -0.084 Cl
HETATM   21  C15 UNL     1      -2.425   2.445   2.351  1.00  0.00     0.024 A 
HETATM   22  C16 UNL     1      -2.844   1.440   1.502  1.00  0.00     0.011 A 
ENDBRANCH   6  16
BRANCH   4  23
HETATM   23  O1  UNL     1      -5.167  -1.670  -1.607  1.00  0.00    -0.375 OA
HETATM   24  H9  UNL     1      -5.951  -1.283  -1.165  1.00  0.00     0.212 HD
ENDBRANCH   4  23
TORSDOF 4
