REMARK  6 active torsions:
REMARK  status: ('A' for Active; 'I' for Inactive)
REMARK    1  A    between atoms: C5_5  and  C6_6 
REMARK    2  A    between atoms: C6_6  and  N1_8 
REMARK    3  A    between atoms: N1_8  and  C8_9 
REMARK    4  A    between atoms: N1_8  and  C14_16 
REMARK    5  A    between atoms: C8_9  and  C9_10 
REMARK    6  A    between atoms: C15_18  and  N3_19 
ROOT
HETATM    1  N1  UNL     1      -0.876  -0.057  -0.694  1.00  0.00    -0.347 N 
ENDROOT
BRANCH   1   2
HETATM    2  C6  UNL     1       0.261   0.698  -1.188  1.00  0.00     0.116 C 
HETATM    3  C7  UNL     1       0.024   2.181  -1.256  1.00  0.00     0.037 C 
BRANCH   2   4
HETATM    4  C5  UNL     1       1.506   0.451  -0.421  1.00  0.00    -0.030 A 
HETATM    5  C4  UNL     1       1.504   0.418   0.981  1.00  0.00     0.010 A 
HETATM    6  C3  UNL     1       2.708   0.176   1.640  1.00  0.00     0.007 A 
HETATM    7  C2  UNL     1       3.894  -0.030   0.932  1.00  0.00    -0.061 A 
HETATM    8  C1  UNL     1       5.164  -0.302   1.661  1.00  0.00     0.048 C 
HETATM    9  C19 UNL     1       3.876   0.008  -0.447  1.00  0.00     0.014 A 
HETATM   10  C17 UNL     1       2.691   0.246  -1.106  1.00  0.00    -0.053 A 
HETATM   11  C18 UNL     1       2.748   0.259  -2.578  1.00  0.00     0.049 C 
ENDBRANCH   2   4
ENDBRANCH   1   2
BRANCH   1  12
HETATM   12  C8  UNL     1      -0.536  -1.417  -0.552  1.00  0.00     0.160 C 
BRANCH  12  13
HETATM   13  C9  UNL     1      -1.516  -2.302   0.076  1.00  0.00    -0.057 A 
HETATM   14  C10 UNL     1      -2.250  -3.374  -0.162  1.00  0.00     0.006 A 
HETATM   15  C11 UNL     1      -3.074  -3.783   0.967  1.00  0.00     0.020 A 
HETATM   16  C12 UNL     1      -2.797  -2.898   1.907  1.00  0.00     0.015 A 
HETATM   17 CL1  UNL     1      -3.593  -3.026   3.476  1.00  0.00    -0.089 Cl
HETATM   18  C13 UNL     1      -1.802  -1.887   1.473  1.00  0.00     0.087 A 
ENDBRANCH  12  13
ENDBRANCH   1  12
BRANCH   1  19
HETATM   19  C14 UNL     1      -2.030   0.730  -0.501  1.00  0.00     0.171 A 
HETATM   20  N2  UNL     1      -2.212   1.926   0.101  1.00  0.00    -0.207 NA
HETATM   21  C15 UNL     1      -3.478   2.343   0.022  1.00  0.00     0.130 A 
HETATM   22  C16 UNL     1      -4.620   1.661  -0.618  1.00  0.00     0.103 A 
HETATM   23  S1  UNL     1      -3.692   0.143  -1.214  1.00  0.00    -0.060 SA
BRANCH  21  24
HETATM   24  N3  UNL     1      -3.542   3.623   0.697  1.00  0.00    -0.384 N 
HETATM   25  H16 UNL     1      -3.112   4.496   0.264  1.00  0.00     0.157 HD
HETATM   26  H17 UNL     1      -3.971   3.889   1.616  1.00  0.00     0.157 HD
ENDBRANCH  21  24
ENDBRANCH   1  19
TORSDOF 6
