REMARK  5 active torsions:
REMARK  status: ('A' for Active; 'I' for Inactive)
REMARK    1  A    between atoms: N1_1  and  C1_2 
REMARK    2  A    between atoms: C1_2  and  O1_3 
REMARK    3  A    between atoms: C1_2  and  S1_4 
REMARK    4  A    between atoms: S1_4  and  C2_5 
REMARK    5  A    between atoms: C2_5  and  N2_6 
ROOT
HETATM    1  N2  UNL     1       1.080   0.195   0.806  1.00  0.00    -0.202 N 
HETATM    2  N3  UNL     1       1.002   1.514   1.292  1.00  0.00    -0.168 NA
HETATM    3  C3  UNL     1       0.225   2.401   0.835  1.00  0.00     0.147 C 
HETATM    4  C4  UNL     1      -0.710   2.204  -0.261  1.00  0.00    -0.039 C 
HETATM    5  C5  UNL     1      -0.831   1.312  -1.239  1.00  0.00     0.009 C 
HETATM    6  C6  UNL     1      -2.009   0.413  -1.200  1.00  0.00     0.003 C 
HETATM    7  C7  UNL     1      -2.579   0.877  -0.078  1.00  0.00    -0.079 C 
HETATM    8  C8  UNL     1      -3.158   2.262  -0.291  1.00  0.00     0.039 C 
HETATM    9  C9  UNL     1      -1.885   3.118  -0.492  1.00  0.00     0.044 C 
HETATM   10  C10 UNL     1      -2.686   0.229   1.251  1.00  0.00     0.039 C 
HETATM   11  C11 UNL     1      -2.926  -1.232   1.223  1.00  0.00     0.045 C 
HETATM   12  C12 UNL     1      -1.891  -2.043   0.549  1.00  0.00    -0.028 A 
HETATM   13  C13 UNL     1      -2.360  -3.121  -0.175  1.00  0.00     0.033 A 
HETATM   14  C14 UNL     1      -1.587  -4.023  -0.878  1.00  0.00     0.034 A 
HETATM   15 CL1  UNL     1      -2.274  -5.362  -1.769  1.00  0.00    -0.084 Cl
HETATM   16  C15 UNL     1      -0.219  -3.798  -0.833  1.00  0.00     0.026 A 
HETATM   17  C16 UNL     1       0.273  -2.725  -0.114  1.00  0.00     0.033 A 
HETATM   18  C17 UNL     1      -0.536  -1.829   0.588  1.00  0.00     0.056 A 
HETATM   19  N4  UNL     1       0.215  -0.838   1.223  1.00  0.00    -0.281 N 
HETATM   20  H21 UNL     1       0.176  -0.794   2.264  1.00  0.00     0.189 HD
ENDROOT
BRANCH   1  21
HETATM   21  C2  UNL     1       2.203   0.329  -0.115  1.00  0.00     0.249 C 
BRANCH  21  22
HETATM   22  S1  UNL     1       3.605   0.916   0.894  1.00  0.00    -0.084 SA
BRANCH  22  23
HETATM   23  C1  UNL     1       5.088   1.131  -0.120  1.00  0.00     0.417 C 
BRANCH  23  24
HETATM   24  N1  UNL     1       5.574  -0.139  -0.629  1.00  0.00     0.117 N 
HETATM   25  H1  UNL     1       6.544   0.011  -0.968  1.00  0.00     0.317 HD
HETATM   26  H2  UNL     1       4.911  -0.454  -1.356  1.00  0.00     0.317 HD
ENDBRANCH  23  24
BRANCH  23  27
HETATM   27  O1  UNL     1       6.033   1.807   0.641  1.00  0.00    -0.360 OA
HETATM   28  H4  UNL     1       6.705   1.193   1.073  1.00  0.00     0.213 HD
ENDBRANCH  23  27
ENDBRANCH  22  23
ENDBRANCH  21  22
ENDBRANCH   1  21
TORSDOF 5
