REMARK  6 active torsions:
REMARK  status: ('A' for Active; 'I' for Inactive)
REMARK    1  A    between atoms: N1_2  and  C2_3 
REMARK    2  A    between atoms: C2_3  and  C3_4 
REMARK    3  A    between atoms: C3_4  and  S1_5 
REMARK    4  A    between atoms: S1_5  and  C4_6 
REMARK    5  A    between atoms: C4_6  and  N2_7 
REMARK    6  A    between atoms: C13_16  and  C14_17 
ROOT
HETATM    1  N2  UNL     1      -0.628   0.516  -1.057  1.00  0.00    -0.367 N 
HETATM    2  C5  UNL     1      -0.404   0.008  -2.383  1.00  0.00     0.008 C 
HETATM    3  C6  UNL     1       0.115   0.890  -3.224  1.00  0.00     0.063 C 
HETATM    4  C7  UNL     1      -0.652  -1.329  -2.968  1.00  0.00     0.025 C 
HETATM    5  C8  UNL     1      -0.924  -2.536  -2.448  1.00  0.00     0.008 C 
HETATM    6  C9  UNL     1      -1.084  -3.015  -1.079  1.00  0.00    -0.066 C 
HETATM    7  C10 UNL     1      -1.325  -4.495  -1.053  1.00  0.00     0.048 C 
HETATM    8  C11 UNL     1      -1.059  -2.419   0.104  1.00  0.00    -0.018 C 
HETATM    9  C12 UNL     1      -0.890  -1.110   0.786  1.00  0.00     0.058 C 
HETATM   10  C13 UNL     1      -1.473   0.044   0.047  1.00  0.00     0.121 C 
ENDROOT
BRANCH   1  11
HETATM   11  C4  UNL     1       0.188   1.712  -0.908  1.00  0.00     0.183 C 
BRANCH  11  12
HETATM   12  S1  UNL     1       1.945   1.360  -1.126  1.00  0.00    -0.196 SA
BRANCH  12  13
HETATM   13  C3  UNL     1       2.583   0.326   0.152  1.00  0.00     0.159 C 
BRANCH  13  14
HETATM   14  C2  UNL     1       3.140  -0.417   1.112  1.00  0.00     0.089 C 
BRANCH  14  15
HETATM   15  N1  UNL     1       4.498  -0.245   1.496  1.00  0.00    -0.403 N 
HETATM   16  C1  UNL     1       5.480   0.315   2.423  1.00  0.00     0.145 C 
HETATM   17  H4  UNL     1       4.935  -0.798   0.712  1.00  0.00     0.158 HD
ENDBRANCH  14  15
ENDBRANCH  13  14
ENDBRANCH  12  13
ENDBRANCH  11  12
ENDBRANCH   1  11
BRANCH  10  18
HETATM   18  C14 UNL     1      -1.894   1.175   0.908  1.00  0.00    -0.035 A 
HETATM   19  C15 UNL     1      -2.378   2.207   0.091  1.00  0.00     0.011 A 
HETATM   20  C16 UNL     1      -2.842   3.403   0.650  1.00  0.00     0.024 A 
HETATM   21  C17 UNL     1      -2.832   3.589   2.018  1.00  0.00     0.034 A 
HETATM   22 CL1  UNL     1      -3.405   5.073   2.749  1.00  0.00    -0.084 Cl
HETATM   23  C18 UNL     1      -2.351   2.556   2.794  1.00  0.00     0.024 A 
HETATM   24  C19 UNL     1      -1.891   1.376   2.272  1.00  0.00     0.011 A 
ENDBRANCH  10  18
TORSDOF 6
