REMARK  6 active torsions:
REMARK  status: ('A' for Active; 'I' for Inactive)
REMARK    1  A    between atoms: C5_5  and  C6_6 
REMARK    2  A    between atoms: C6_6  and  C7_8 
REMARK    3  A    between atoms: C7_8  and  C8_9 
REMARK    4  A    between atoms: C8_9  and  C9_10 
REMARK    5  A    between atoms: C10_12  and  O1_13 
REMARK    6  A    between atoms: C16_21  and  N3_22 
ROOT
HETATM    1  C8  UNL     1      -1.695   0.476   0.063  1.00  0.00     0.070 A 
HETATM    2  C12 UNL     1      -2.020   0.964   1.412  1.00  0.00    -0.007 A 
HETATM    3  C13 UNL     1      -2.762   1.975   1.828  1.00  0.00    -0.001 A 
HETATM    4  C14 UNL     1      -3.407   2.800   0.829  1.00  0.00     0.021 A 
HETATM    5  C15 UNL     1      -3.164   2.426  -0.408  1.00  0.00     0.046 A 
HETATM    6 CL1  UNL     1      -3.870   3.321  -1.726  1.00  0.00    -0.087 Cl
HETATM    7  C16 UNL     1      -2.356   1.323  -1.002  1.00  0.00     0.281 A 
ENDROOT
BRANCH   1   8
HETATM    8  C7  UNL     1      -0.224   0.480  -0.259  1.00  0.00     0.082 C 
BRANCH   8   9
HETATM    9  C6  UNL     1       0.608  -0.384   0.579  1.00  0.00     0.037 C 
HETATM   10  N1  UNL     1       0.079  -1.094   1.509  1.00  0.00    -0.304 NA
HETATM   11  H6  UNL     1       0.641  -1.716   2.115  1.00  0.00     0.186 HD
BRANCH   9  12
HETATM   12  C5  UNL     1       2.038  -0.387   0.294  1.00  0.00    -0.012 A 
HETATM   13  C4  UNL     1       2.949  -1.149   0.991  1.00  0.00     0.014 A 
HETATM   14  C3  UNL     1       4.303  -1.174   0.746  1.00  0.00     0.007 A 
HETATM   15  C2  UNL     1       4.813  -0.393  -0.262  1.00  0.00    -0.062 A 
HETATM   16  C1  UNL     1       6.253  -0.332  -0.624  1.00  0.00     0.048 C 
HETATM   17  C18 UNL     1       3.957   0.395  -1.001  1.00  0.00     0.007 A 
HETATM   18  C17 UNL     1       2.611   0.372  -0.701  1.00  0.00     0.014 A 
ENDBRANCH   9  12
ENDBRANCH   8   9
ENDBRANCH   1   8
BRANCH   1  19
HETATM   19  C9  UNL     1      -2.265  -0.920  -0.083  1.00  0.00     0.093 A 
HETATM   20  N2  UNL     1      -3.294  -1.399   0.194  1.00  0.00    -0.221 NA
HETATM   21  C10 UNL     1      -3.653  -2.654   0.004  1.00  0.00     0.169 A 
HETATM   22  C11 UNL     1      -2.710  -3.484  -0.584  1.00  0.00     0.109 A 
HETATM   23  S1  UNL     1      -1.324  -2.367  -0.832  1.00  0.00    -0.081 SA
BRANCH  21  24
HETATM   24  O1  UNL     1      -4.937  -3.083   0.394  1.00  0.00    -0.344 OA
HETATM   25  H9  UNL     1      -5.780  -2.581   0.147  1.00  0.00     0.219 HD
ENDBRANCH  21  24
ENDBRANCH   1  19
BRANCH   7  26
HETATM   26  N3  UNL     1      -1.386   1.921  -1.915  1.00  0.00     0.089 N 
HETATM   27  H15 UNL     1      -0.946   2.717  -1.411  1.00  0.00     0.313 HD
HETATM   28  H16 UNL     1      -1.928   2.247  -2.748  1.00  0.00     0.313 HD
ENDBRANCH   7  26
TORSDOF 6
