REMARK  7 active torsions:
REMARK  status: ('A' for Active; 'I' for Inactive)
REMARK    1  A    between atoms: C5_5  and  C6_6 
REMARK    2  A    between atoms: N2_8  and  C7_9 
REMARK    3  A    between atoms: C7_9  and  S1_10 
REMARK    4  A    between atoms: S1_10  and  C8_11 
REMARK    5  A    between atoms: C9_12  and  N3_13 
REMARK    6  A    between atoms: C9_12  and  O1_14 
REMARK    7  A    between atoms: C10_15  and  C11_16 
ROOT
HETATM    1  C6  UNL     1      -1.208  -0.301  -0.788  1.00  0.00     0.067 C 
HETATM    2  N1  UNL     1      -0.151  -0.848  -0.271  1.00  0.00    -0.179 NA
HETATM    3  N2  UNL     1       0.998  -0.250  -0.757  1.00  0.00    -0.286 N 
HETATM    4  C10 UNL     1       0.635   0.981  -1.417  1.00  0.00     0.144 C 
HETATM    5  C17 UNL     1      -0.832   0.778  -1.721  1.00  0.00     0.093 C 
ENDROOT
BRANCH   3   6
HETATM    6  C7  UNL     1       2.338  -0.831  -0.589  1.00  0.00     0.223 C 
BRANCH   6   7
HETATM    7  S1  UNL     1       2.619  -0.960   1.204  1.00  0.00    -0.116 SA
BRANCH   7   8
HETATM    8  C8  UNL     1       4.192  -1.644   1.599  1.00  0.00     0.101 C 
HETATM    9  C9  UNL     1       5.081  -2.202   0.804  1.00  0.00     0.139 C 
BRANCH   9  10
HETATM   10  N3  UNL     1       6.269  -2.662   1.433  1.00  0.00    -0.380 N 
HETATM   11  H9  UNL     1       6.998  -1.914   1.376  1.00  0.00     0.158 HD
HETATM   12  H10 UNL     1       6.272  -3.629   1.848  1.00  0.00     0.158 HD
ENDBRANCH   9  10
BRANCH   9  13
HETATM   13  O1  UNL     1       4.709  -2.250  -0.532  1.00  0.00    -0.346 OA
HETATM   14  H11 UNL     1       4.816  -3.141  -1.009  1.00  0.00     0.219 HD
ENDBRANCH   9  13
ENDBRANCH   7   8
ENDBRANCH   6   7
ENDBRANCH   3   6
BRANCH   4  15
HETATM   15  C11 UNL     1       0.898   2.186  -0.595  1.00  0.00    -0.033 A 
HETATM   16  C12 UNL     1       0.581   2.310   0.739  1.00  0.00     0.011 A 
HETATM   17  C13 UNL     1       0.841   3.449   1.477  1.00  0.00     0.024 A 
HETATM   18  C14 UNL     1       1.449   4.541   0.879  1.00  0.00     0.034 A 
HETATM   19 CL1  UNL     1       1.829   6.035   1.703  1.00  0.00    -0.084 Cl
HETATM   20  C15 UNL     1       1.792   4.479  -0.461  1.00  0.00     0.024 A 
HETATM   21  C16 UNL     1       1.507   3.319  -1.135  1.00  0.00     0.011 A 
ENDBRANCH   4  15
BRANCH   1  22
HETATM   22  C5  UNL     1      -2.563  -0.738  -0.452  1.00  0.00    -0.010 A 
HETATM   23  C4  UNL     1      -2.715  -1.784   0.461  1.00  0.00     0.014 A 
HETATM   24  C3  UNL     1      -4.008  -2.184   0.766  1.00  0.00     0.007 A 
HETATM   25  C2  UNL     1      -5.108  -1.578   0.197  1.00  0.00    -0.062 A 
HETATM   26  C1  UNL     1      -6.415  -2.140   0.645  1.00  0.00     0.048 C 
HETATM   27  C19 UNL     1      -4.934  -0.543  -0.705  1.00  0.00     0.007 A 
HETATM   28  C18 UNL     1      -3.664  -0.151  -1.004  1.00  0.00     0.014 A 
ENDBRANCH   1  22
TORSDOF 7
