REMARK  8 active torsions:
REMARK  status: ('A' for Active; 'I' for Inactive)
REMARK    1  A    between atoms: O1_2  and  C2_3 
REMARK    2  A    between atoms: C4_5  and  O2_6 
REMARK    3  A    between atoms: O2_6  and  C5_7 
REMARK    4  A    between atoms: C10_13  and  N1_14 
REMARK    5  A    between atoms: N1_14  and  C11_15 
REMARK    6  A    between atoms: C11_15  and  C12_16 
REMARK    7  A    between atoms: C12_16  and  C13_17 
REMARK    8  A    between atoms: C13_17  and  C14_19 
ROOT
HETATM    1  C2  UNL     1      -2.509   2.399   0.089  1.00  0.00     0.073 A 
HETATM    2  C3  UNL     1      -2.401   1.031   0.221  1.00  0.00     0.074 A 
HETATM    3  C4  UNL     1      -1.253   0.281   0.267  1.00  0.00     0.088 A 
HETATM    4  C9  UNL     1      -0.088   1.050   0.162  1.00  0.00     0.072 A 
HETATM    5  C10 UNL     1       1.182   0.516   0.204  1.00  0.00     0.144 A 
HETATM    6  N2  UNL     1       2.303   1.257   0.120  1.00  0.00    -0.223 NA
HETATM    7  C16 UNL     1       2.217   2.592  -0.014  1.00  0.00     0.236 A 
HETATM    8  N3  UNL     1       1.011   3.181  -0.061  1.00  0.00    -0.241 NA
HETATM    9  C17 UNL     1      -0.101   2.436   0.025  1.00  0.00     0.077 A 
HETATM   10  C18 UNL     1      -1.320   3.064  -0.007  1.00  0.00     0.069 A 
ENDROOT
BRANCH   5  11
HETATM   11  N1  UNL     1       1.382  -0.884   0.336  1.00  0.00    -0.349 N 
HETATM   12  H12 UNL     1       1.167  -1.299   1.277  1.00  0.00     0.167 HD
BRANCH  11  13
HETATM   13  C11 UNL     1       1.840  -1.720  -0.706  1.00  0.00     0.105 C 
BRANCH  13  14
HETATM   14  C12 UNL     1       2.962  -1.464  -1.387  1.00  0.00     0.030 C 
BRANCH  14  15
HETATM   15  C13 UNL     1       4.070  -0.787  -1.679  1.00  0.00     0.124 C 
HETATM   16  F1  UNL     1       3.968   0.025  -2.714  1.00  0.00    -0.208 F 
BRANCH  15  17
HETATM   17  C14 UNL     1       5.228  -1.017  -0.818  1.00  0.00     0.141 C 
HETATM   18  C15 UNL     1       5.591   0.161   0.042  1.00  0.00     0.034 C 
HETATM   19 CL1  UNL     1       5.043  -2.442   0.209  1.00  0.00    -0.118 Cl
ENDBRANCH  15  17
ENDBRANCH  14  15
ENDBRANCH  13  14
ENDBRANCH  11  13
ENDBRANCH   5  11
BRANCH   3  20
HETATM   20  O2  UNL     1      -0.982  -1.013   0.390  1.00  0.00    -0.343 OA
BRANCH  20  21
HETATM   21  C5  UNL     1      -1.589  -2.204   0.581  1.00  0.00     0.154 C 
HETATM   22  C6  UNL     1      -2.271  -2.697  -0.663  1.00  0.00     0.061 C 
HETATM   23  C7  UNL     1      -3.368  -3.572  -0.094  1.00  0.00     0.170 C 
HETATM   24  O3  UNL     1      -3.209  -3.564   1.305  1.00  0.00    -0.389 OA
HETATM   25  C8  UNL     1      -2.736  -2.250   1.578  1.00  0.00     0.200 C 
ENDBRANCH  20  21
ENDBRANCH   3  20
BRANCH   1  26
HETATM   26  O1  UNL     1      -3.776   2.924   0.067  1.00  0.00    -0.356 OA
HETATM   27  C1  UNL     1      -4.121   4.263  -0.058  1.00  0.00     0.210 C 
ENDBRANCH   1  26
TORSDOF 8
