REMARK  6 active torsions:
REMARK  status: ('A' for Active; 'I' for Inactive)
REMARK    1  A    between atoms: C2_2  and  C3_3 
REMARK    2  A    between atoms: C3_3  and  C4_4 
REMARK    3  A    between atoms: C4_4  and  C5_5 
REMARK    4  A    between atoms: N2_7  and  C6_8 
REMARK    5  A    between atoms: C7_10  and  O1_11 
REMARK    6  A    between atoms: C9_14  and  C10_15 
ROOT
HETATM    1  C5  UNL     1       1.594   0.207   0.448  1.00  0.00     0.035 C 
HETATM    2  N1  UNL     1       0.974   1.268  -0.027  1.00  0.00    -0.179 NA
HETATM    3  N2  UNL     1      -0.384   0.981  -0.170  1.00  0.00    -0.237 N 
HETATM    4  C9  UNL     1      -0.394  -0.429  -0.438  1.00  0.00     0.151 C 
HETATM    5  C16 UNL     1       0.569  -0.909   0.628  1.00  0.00     0.088 C 
ENDROOT
BRANCH   3   6
HETATM    6  C6  UNL     1      -1.300   2.106  -0.009  1.00  0.00     0.192 A 
HETATM    7  N3  UNL     1      -1.158   3.275   0.150  1.00  0.00    -0.198 NA
HETATM    8  C7  UNL     1      -2.183   4.104   0.297  1.00  0.00     0.171 A 
HETATM    9  C8  UNL     1      -3.485   3.631   0.271  1.00  0.00     0.111 A 
HETATM   10  S1  UNL     1      -3.126   1.865   0.014  1.00  0.00    -0.058 SA
BRANCH   8  11
HETATM   11  O1  UNL     1      -1.879   5.471   0.477  1.00  0.00    -0.344 OA
HETATM   12  H8  UNL     1      -1.234   5.806   1.182  1.00  0.00     0.219 HD
ENDBRANCH   8  11
ENDBRANCH   3   6
BRANCH   4  13
HETATM   13  C10 UNL     1      -1.661  -1.095  -0.535  1.00  0.00    -0.033 A 
HETATM   14  C11 UNL     1      -2.157  -2.154   0.196  1.00  0.00     0.011 A 
HETATM   15  C12 UNL     1      -3.383  -2.752   0.011  1.00  0.00     0.019 A 
HETATM   16  C13 UNL     1      -4.172  -2.238  -0.994  1.00  0.00     0.011 A 
HETATM   17 BR1  UNL     1      -5.882  -3.082  -1.241  1.00  0.00    -0.051 Br
HETATM   18  C14 UNL     1      -3.734  -1.179  -1.760  1.00  0.00     0.019 A 
HETATM   19  C15 UNL     1      -2.486  -0.609  -1.536  1.00  0.00     0.011 A 
ENDBRANCH   4  13
BRANCH   1  20
HETATM   20  C4  UNL     1       3.040   0.072   0.753  1.00  0.00     0.057 C 
BRANCH  20  21
HETATM   21  C3  UNL     1       3.666  -1.023  -0.089  1.00  0.00     0.011 C 
BRANCH  21  22
HETATM   22  C2  UNL     1       5.093  -1.124   0.236  1.00  0.00    -0.010 C 
HETATM   23  C1  UNL     1       6.413  -1.138   0.188  1.00  0.00     0.005 C 
ENDBRANCH  21  22
ENDBRANCH  20  21
ENDBRANCH   1  20
TORSDOF 6
