REMARK  4 active torsions:
REMARK  status: ('A' for Active; 'I' for Inactive)
REMARK    1  A    between atoms: C6_7  and  C7_8 
REMARK    2  A    between atoms: C7_8  and  N1_9 
REMARK    3  A    between atoms: N1_9  and  C8_10 
REMARK    4  A    between atoms: C12_16  and  C13_17 
ROOT
HETATM    1  C7  UNL     1      -0.603   0.257   1.139  1.00  0.00     0.117 C 
HETATM    2  C11 UNL     1       0.379   0.154   0.011  1.00  0.00     0.055 C 
HETATM    3  C12 UNL     1       1.436  -0.805   0.518  1.00  0.00     0.002 C 
HETATM    4  B1  UNL     1       1.775   0.013   2.134  1.00  0.00     0.310 B 
HETATM    5  N3  UNL     1      -0.156   0.791   2.310  1.00  0.00    -0.370 NA
ENDROOT
BRANCH   1   6
HETATM    6  C6  UNL     1      -1.647   1.270   0.642  1.00  0.00     0.097 C 
HETATM    7  C1  UNL     1      -0.982   2.639   0.646  1.00  0.00    -0.003 C 
HETATM    8 BR1  UNL     1       0.765   3.207   1.197  1.00  0.00    -0.055 Br
HETATM    9  C2  UNL     1      -1.679   3.673   0.210  1.00  0.00    -0.007 C 
HETATM   10  C3  UNL     1      -3.066   3.268  -0.236  1.00  0.00     0.055 C 
HETATM   11  C4  UNL     1      -2.803   2.115  -1.181  1.00  0.00    -0.026 C 
HETATM   12  C5  UNL     1      -2.066   1.066  -0.744  1.00  0.00    -0.016 C 
ENDBRANCH   1   6
BRANCH   1  13
HETATM   13  N1  UNL     1      -1.319  -1.014   1.292  1.00  0.00    -0.342 N 
HETATM   14  H7  UNL     1      -1.334  -1.228   2.341  1.00  0.00     0.164 HD
BRANCH  13  15
HETATM   15  C8  UNL     1      -1.931  -1.906   0.355  1.00  0.00     0.168 A 
HETATM   16  N2  UNL     1      -2.162  -2.123  -0.751  1.00  0.00    -0.236 NA
HETATM   17  C9  UNL     1      -2.807  -3.133  -1.292  1.00  0.00     0.126 A 
HETATM   18  C10 UNL     1      -3.297  -4.103  -0.429  1.00  0.00     0.072 A 
HETATM   19  S1  UNL     1      -2.743  -3.416   1.168  1.00  0.00    -0.063 SA
ENDBRANCH  13  15
ENDBRANCH   1  13
BRANCH   3  20
HETATM   20  C13 UNL     1       2.708  -0.757  -0.194  1.00  0.00    -0.061 A 
HETATM   21  C14 UNL     1       3.314   0.453  -0.508  1.00  0.00     0.007 A 
HETATM   22  C15 UNL     1       4.513   0.578  -1.178  1.00  0.00     0.001 A 
HETATM   23  C16 UNL     1       5.163  -0.564  -1.566  1.00  0.00     0.000 A 
HETATM   24  C17 UNL     1       4.633  -1.810  -1.294  1.00  0.00     0.001 A 
HETATM   25  C18 UNL     1       3.423  -1.876  -0.617  1.00  0.00     0.007 A 
ENDBRANCH   3  20
TORSDOF 4
