REMARK  4 active torsions:
REMARK  status: ('A' for Active; 'I' for Inactive)
REMARK    1  A    between atoms: C5_5  and  C6_6 
REMARK    2  A    between atoms: C8_9  and  C9_10 
REMARK    3  A    between atoms: N1_17  and  C15_18 
REMARK    4  A    between atoms: C16_20  and  O2_21 
ROOT
HETATM    1  C6  UNL     1       0.851  -0.299   1.285  1.00  0.00     0.260 C 
HETATM    2  O1  UNL     1       0.973   0.712   2.201  1.00  0.00    -0.360 OA
HETATM    3  C7  UNL     1      -0.232   1.390   2.265  1.00  0.00     0.201 C 
HETATM    4  C8  UNL     1      -0.834   1.270   0.908  1.00  0.00     0.146 C 
HETATM    5  N1  UNL     1      -0.367  -0.037   0.503  1.00  0.00    -0.318 N 
ENDROOT
BRANCH   1   6
HETATM    6  C5  UNL     1       2.044  -0.263   0.397  1.00  0.00    -0.010 A 
HETATM    7  C4  UNL     1       2.543   0.916  -0.145  1.00  0.00     0.012 A 
HETATM    8  C3  UNL     1       3.647   0.972  -0.970  1.00  0.00     0.007 A 
HETATM    9  C2  UNL     1       4.306  -0.198  -1.288  1.00  0.00    -0.062 A 
HETATM   10  C1  UNL     1       5.493  -0.060  -2.186  1.00  0.00     0.048 C 
HETATM   11  C19 UNL     1       3.855  -1.394  -0.779  1.00  0.00     0.007 A 
HETATM   12  C18 UNL     1       2.748  -1.418   0.044  1.00  0.00     0.012 A 
ENDBRANCH   1   6
BRANCH   5  13
HETATM   13  C15 UNL     1      -0.845  -1.002  -0.428  1.00  0.00     0.174 A 
HETATM   14  N2  UNL     1      -0.382  -2.203  -0.772  1.00  0.00    -0.200 NA
HETATM   15  C16 UNL     1      -1.116  -2.822  -1.699  1.00  0.00     0.171 A 
HETATM   16  C17 UNL     1      -2.411  -2.178  -2.318  1.00  0.00     0.111 A 
HETATM   17  S1  UNL     1      -2.316  -0.576  -1.310  1.00  0.00    -0.060 SA
BRANCH  15  18
HETATM   18  O2  UNL     1      -0.479  -4.063  -1.933  1.00  0.00    -0.344 OA
HETATM   19  H14 UNL     1      -0.983  -4.862  -2.249  1.00  0.00     0.219 HD
ENDBRANCH  15  18
ENDBRANCH   5  13
BRANCH   4  20
HETATM   20  C9  UNL     1      -2.301   1.393   0.882  1.00  0.00    -0.033 A 
HETATM   21  C10 UNL     1      -2.978   2.474   0.352  1.00  0.00     0.011 A 
HETATM   22  C11 UNL     1      -4.358   2.555   0.345  1.00  0.00     0.024 A 
HETATM   23  C12 UNL     1      -5.051   1.490   0.901  1.00  0.00     0.034 A 
HETATM   24 CL1  UNL     1      -6.809   1.616   0.881  1.00  0.00    -0.084 Cl
HETATM   25  C13 UNL     1      -4.393   0.405   1.434  1.00  0.00     0.024 A 
HETATM   26  C14 UNL     1      -3.002   0.326   1.440  1.00  0.00     0.011 A 
ENDBRANCH   4  20
TORSDOF 4
