REMARK  2 active torsions:
REMARK  status: ('A' for Active; 'I' for Inactive)
REMARK    1  A    between atoms: C4_5  and  O1_6 
REMARK    2  A    between atoms: C11_16  and  C13_18 
ROOT
HETATM    1  C1  UNL     1       3.312  -0.395   2.215  1.00  0.00     0.049 C 
HETATM    2  C2  UNL     1       2.127  -0.627   1.370  1.00  0.00    -0.047 C 
HETATM    3  C3  UNL     1       1.826   0.663   1.142  1.00  0.00     0.096 C 
HETATM    4  N1  UNL     1       2.172   2.012   1.372  1.00  0.00    -0.349 N 
HETATM    5  C4  UNL     1       1.902   2.519   0.094  1.00  0.00     0.131 C 
HETATM    6  C5  UNL     1       1.757   2.243  -1.158  1.00  0.00     0.145 C 
HETATM    7  S1  UNL     1       1.660   1.387  -2.701  1.00  0.00    -0.133 SA
HETATM    8  C6  UNL     1       0.033   0.685  -2.937  1.00  0.00     0.220 C 
HETATM    9  N2  UNL     1      -0.248  -0.460  -2.068  1.00  0.00    -0.282 N 
HETATM   10  N3  UNL     1       0.594  -1.565  -2.054  1.00  0.00    -0.191 NA
HETATM   11  C7  UNL     1      -0.022  -2.716  -1.971  1.00  0.00     0.123 C 
HETATM   12  C8  UNL     1      -0.530  -2.229  -0.628  1.00  0.00     0.084 C 
HETATM   13  C9  UNL     1       0.619  -2.164   0.239  1.00  0.00    -0.013 C 
HETATM   14  C10 UNL     1       1.661  -1.942   1.025  1.00  0.00     0.005 C 
HETATM   15  C11 UNL     1      -1.172  -0.968  -1.111  1.00  0.00     0.086 C 
HETATM   16  C12 UNL     1      -2.365  -1.499  -1.973  1.00  0.00     0.047 C 
HETATM   17  H5  UNL     1       2.380   1.720   2.288  1.00  0.00     0.167 HD
ENDROOT
BRANCH  15  18
HETATM   18  C13 UNL     1      -1.729  -0.106  -0.102  1.00  0.00    -0.028 A 
HETATM   19  C14 UNL     1      -1.664  -0.338   1.277  1.00  0.00     0.011 A 
HETATM   20  C15 UNL     1      -2.194   0.438   2.285  1.00  0.00     0.019 A 
HETATM   21  C16 UNL     1      -2.869   1.578   1.907  1.00  0.00     0.011 A 
HETATM   22 BR1  UNL     1      -3.622   2.689   3.259  1.00  0.00    -0.051 Br
HETATM   23  C17 UNL     1      -2.982   1.884   0.567  1.00  0.00     0.019 A 
HETATM   24  C18 UNL     1      -2.421   1.050  -0.372  1.00  0.00     0.011 A 
ENDBRANCH  15  18
BRANCH   5  25
HETATM   25  O1  UNL     1       1.770   3.794   0.533  1.00  0.00    -0.348 OA
HETATM   26  H6  UNL     1       2.512   4.482   0.460  1.00  0.00     0.219 HD
ENDBRANCH   5  25
TORSDOF 2
