REMARK  5 active torsions:
REMARK  status: ('A' for Active; 'I' for Inactive)
REMARK    1  A    between atoms: O1_2  and  C2_3 
REMARK    2  A    between atoms: C4_5  and  O2_6 
REMARK    3  A    between atoms: O2_6  and  C5_7 
REMARK    4  A    between atoms: C10_13  and  N1_14 
REMARK    5  A    between atoms: N1_14  and  C11_15 
ROOT
HETATM    1  C2  UNL     1       2.887  -1.600  -1.134  1.00  0.00     0.073 A 
HETATM    2  C3  UNL     1       2.253  -0.396  -0.906  1.00  0.00     0.074 A 
HETATM    3  C4  UNL     1       1.205  -0.265  -0.015  1.00  0.00     0.088 A 
HETATM    4  C9  UNL     1       0.845  -1.431   0.626  1.00  0.00     0.072 A 
HETATM    5  C10 UNL     1      -0.176  -1.473   1.544  1.00  0.00     0.144 A 
HETATM    6  N2  UNL     1      -0.563  -2.605   2.202  1.00  0.00    -0.223 NA
HETATM    7  C17 UNL     1       0.089  -3.746   1.940  1.00  0.00     0.236 A 
HETATM    8  N3  UNL     1       1.103  -3.781   1.050  1.00  0.00    -0.241 NA
HETATM    9  C18 UNL     1       1.469  -2.642   0.409  1.00  0.00     0.077 A 
HETATM   10  C19 UNL     1       2.504  -2.748  -0.478  1.00  0.00     0.069 A 
ENDROOT
BRANCH   5  11
HETATM   11  N1  UNL     1      -0.923  -0.308   1.881  1.00  0.00    -0.340 N 
HETATM   12  H12 UNL     1      -0.660   0.383   2.647  1.00  0.00     0.167 HD
BRANCH  11  13
HETATM   13  C11 UNL     1      -2.119  -0.046   1.134  1.00  0.00     0.035 A 
HETATM   14  C12 UNL     1      -2.475  -0.912   0.125  1.00  0.00     0.032 A 
HETATM   15  C13 UNL     1      -3.627  -0.649  -0.582  1.00  0.00     0.046 A 
HETATM   16  C14 UNL     1      -4.401   0.465  -0.277  1.00  0.00     0.138 A 
HETATM   17  F1  UNL     1      -5.529   0.663  -1.018  1.00  0.00    -0.204 F 
HETATM   18  C15 UNL     1      -4.059   1.327   0.719  1.00  0.00     0.074 A 
HETATM   19 CL1  UNL     1      -5.081   2.725   1.062  1.00  0.00    -0.081 Cl
HETATM   20  C16 UNL     1      -2.907   1.058   1.421  1.00  0.00     0.056 A 
ENDBRANCH  11  13
ENDBRANCH   5  11
BRANCH   3  21
HETATM   21  O2  UNL     1       0.521   0.896   0.269  1.00  0.00    -0.343 OA
BRANCH  21  22
HETATM   22  C5  UNL     1       0.748   2.155  -0.270  1.00  0.00     0.154 C 
HETATM   23  C6  UNL     1      -0.506   2.629  -0.967  1.00  0.00     0.061 C 
HETATM   24  C7  UNL     1      -0.906   3.879  -0.212  1.00  0.00     0.170 C 
HETATM   25  O3  UNL     1       0.309   4.388   0.182  1.00  0.00    -0.389 OA
HETATM   26  C8  UNL     1       0.928   3.253   0.758  1.00  0.00     0.200 C 
ENDBRANCH  21  22
ENDBRANCH   3  21
BRANCH   1  27
HETATM   27  O1  UNL     1       3.916  -1.609  -2.042  1.00  0.00    -0.356 OA
HETATM   28  C1  UNL     1       4.614  -2.807  -2.327  1.00  0.00     0.210 C 
ENDBRANCH   1  27
TORSDOF 5
