REMARK  4 active torsions:
REMARK  status: ('A' for Active; 'I' for Inactive)
REMARK    1  A    between atoms: C5_5  and  C6_6 
REMARK    2  A    between atoms: N2_8  and  C7_9 
REMARK    3  A    between atoms: C8_11  and  O1_12 
REMARK    4  A    between atoms: C10_15  and  C11_16 
ROOT
HETATM    1  C6  UNL     1       1.093  -0.078   0.151  1.00  0.00     0.067 C 
HETATM    2  N1  UNL     1       0.417   0.823   0.784  1.00  0.00    -0.173 NA
HETATM    3  N2  UNL     1      -0.963   0.536   0.750  1.00  0.00    -0.236 N 
HETATM    4  C10 UNL     1      -1.057  -0.882   0.532  1.00  0.00     0.151 C 
HETATM    5  C17 UNL     1       0.152  -1.095  -0.386  1.00  0.00     0.094 C 
ENDROOT
BRANCH   1   6
HETATM    6  C5  UNL     1       2.563  -0.081  -0.006  1.00  0.00    -0.010 A 
HETATM    7  C4  UNL     1       3.254   0.964   0.574  1.00  0.00     0.014 A 
HETATM    8  C3  UNL     1       4.610   1.052   0.487  1.00  0.00     0.007 A 
HETATM    9  C2  UNL     1       5.286   0.069  -0.198  1.00  0.00    -0.062 A 
HETATM   10  C1  UNL     1       6.762   0.134  -0.312  1.00  0.00     0.048 C 
HETATM   11  C19 UNL     1       4.568  -0.966  -0.769  1.00  0.00     0.007 A 
HETATM   12  C18 UNL     1       3.177  -1.086  -0.697  1.00  0.00     0.014 A 
ENDBRANCH   1   6
BRANCH   3  13
HETATM   13  C7  UNL     1      -1.856   1.640   0.928  1.00  0.00     0.192 A 
HETATM   14  N3  UNL     1      -2.414   2.201   1.951  1.00  0.00    -0.198 NA
HETATM   15  C8  UNL     1      -3.209   3.243   1.689  1.00  0.00     0.171 A 
HETATM   16  C9  UNL     1      -3.515   3.813   0.399  1.00  0.00     0.111 A 
HETATM   17  S1  UNL     1      -2.444   2.603  -0.610  1.00  0.00    -0.058 SA
BRANCH  15  18
HETATM   18  O1  UNL     1      -3.745   3.748   2.895  1.00  0.00    -0.344 OA
HETATM   19  H6  UNL     1      -4.739   3.859   2.954  1.00  0.00     0.219 HD
ENDBRANCH  15  18
ENDBRANCH   3  13
BRANCH   4  20
HETATM   20  C11 UNL     1      -2.302  -1.334  -0.095  1.00  0.00    -0.033 A 
HETATM   21  C12 UNL     1      -3.530  -0.883   0.299  1.00  0.00     0.011 A 
HETATM   22  C13 UNL     1      -4.657  -1.360  -0.346  1.00  0.00     0.019 A 
HETATM   23  C14 UNL     1      -4.574  -2.286  -1.383  1.00  0.00     0.011 A 
HETATM   24 BR1  UNL     1      -6.111  -2.960  -2.289  1.00  0.00    -0.051 Br
HETATM   25  C15 UNL     1      -3.331  -2.726  -1.765  1.00  0.00     0.019 A 
HETATM   26  C16 UNL     1      -2.201  -2.255  -1.127  1.00  0.00     0.011 A 
ENDBRANCH   4  20
TORSDOF 4
