REMARK  5 active torsions:
REMARK  status: ('A' for Active; 'I' for Inactive)
REMARK    1  A    between atoms: C3_3  and  C6_7 
REMARK    2  A    between atoms: C4_4  and  C5_5 
REMARK    3  A    between atoms: C8_9  and  C9_10 
REMARK    4  A    between atoms: N2_18  and  C16_19 
REMARK    5  A    between atoms: C17_21  and  O1_22 
ROOT
HETATM    1  C1  UNL     1      -1.430   0.874   2.332  1.00  0.00     0.017 C 
HETATM    2  C2  UNL     1      -1.728   1.258   1.213  1.00  0.00    -0.080 C 
HETATM    3  C3  UNL     1      -2.075   1.728  -0.132  1.00  0.00     0.017 C 
HETATM    4  C4  UNL     1      -2.973   2.701  -0.315  1.00  0.00     0.002 C 
ENDROOT
BRANCH   3   5
HETATM    5  C6  UNL     1      -1.229   0.901  -1.087  1.00  0.00     0.160 C 
HETATM    6  C7  UNL     1       0.196   1.239  -0.695  1.00  0.00     0.095 C 
HETATM    7  C8  UNL     1       0.847  -0.019  -0.323  1.00  0.00     0.067 C 
HETATM    8  N1  UNL     1      -0.032  -0.995  -0.338  1.00  0.00    -0.173 NA
HETATM    9  N2  UNL     1      -1.285  -0.489  -0.698  1.00  0.00    -0.226 N 
BRANCH   7  10
HETATM   10  C9  UNL     1       2.262  -0.185   0.055  1.00  0.00    -0.010 A 
HETATM   11  C10 UNL     1       2.637  -1.492   0.394  1.00  0.00     0.014 A 
HETATM   12  C11 UNL     1       3.938  -1.734   0.819  1.00  0.00     0.007 A 
HETATM   13  C12 UNL     1       4.819  -0.658   0.889  1.00  0.00    -0.062 A 
HETATM   14  C13 UNL     1       6.189  -0.960   1.366  1.00  0.00     0.048 C 
HETATM   15  C14 UNL     1       4.348   0.565   0.534  1.00  0.00     0.007 A 
HETATM   16  C15 UNL     1       3.093   0.914   0.104  1.00  0.00     0.014 A 
ENDBRANCH   7  10
BRANCH   9  17
HETATM   17  C16 UNL     1      -2.311  -1.508  -0.533  1.00  0.00     0.244 A 
HETATM   18  N3  UNL     1      -3.012  -2.266  -0.292  1.00  0.00    -0.354 NA
HETATM   19  C17 UNL     1      -3.928  -3.096  -0.283  1.00  0.00     0.224 A 
HETATM   20  C18 UNL     1      -4.415  -2.820  -1.666  1.00  0.00     0.126 A 
HETATM   21  S1  UNL     1      -3.214  -1.470  -2.187  1.00  0.00    -0.044 SA
BRANCH  19  22
HETATM   22  O1  UNL     1      -4.262  -3.939   0.780  1.00  0.00    -0.335 OA
HETATM   23  H15 UNL     1      -4.921  -3.629   1.510  1.00  0.00     0.220 HD
ENDBRANCH  19  22
ENDBRANCH   9  17
ENDBRANCH   3   5
BRANCH   4  24
HETATM   24  C5  UNL     1      -3.562   3.414  -1.439  1.00  0.00     0.113 C 
HETATM   25 BR1  UNL     1      -3.157   5.307  -1.267  1.00  0.00    -0.092 Br
ENDBRANCH   4  24
TORSDOF 5
