REMARK  4 active torsions:
REMARK  status: ('A' for Active; 'I' for Inactive)
REMARK    1  A    between atoms: C5_5  and  C6_6 
REMARK    2  A    between atoms: N2_8  and  C7_9 
REMARK    3  A    between atoms: C8_11  and  O1_12 
REMARK    4  A    between atoms: C10_15  and  C11_16 
ROOT
HETATM    1  C6  UNL     1       0.860   0.154  -0.294  1.00  0.00     0.067 C 
HETATM    2  N1  UNL     1       0.252   0.969   0.500  1.00  0.00    -0.173 NA
HETATM    3  N2  UNL     1      -1.053   1.189   0.080  1.00  0.00    -0.237 N 
HETATM    4  C10 UNL     1      -1.398   0.215  -0.943  1.00  0.00     0.148 C 
HETATM    5  C16 UNL     1      -0.051  -0.269  -1.385  1.00  0.00     0.094 C 
ENDROOT
BRANCH   1   6
HETATM    6  C5  UNL     1       2.242  -0.294  -0.147  1.00  0.00    -0.010 A 
HETATM    7  C4  UNL     1       2.835  -1.172  -1.035  1.00  0.00     0.014 A 
HETATM    8  C3  UNL     1       4.160  -1.562  -0.840  1.00  0.00     0.007 A 
HETATM    9  C2  UNL     1       4.884  -1.093   0.214  1.00  0.00    -0.062 A 
HETATM   10  C1  UNL     1       6.297  -1.541   0.379  1.00  0.00     0.048 C 
HETATM   11  C18 UNL     1       4.333  -0.217   1.123  1.00  0.00     0.007 A 
HETATM   12  C17 UNL     1       3.015   0.162   0.917  1.00  0.00     0.014 A 
ENDBRANCH   1   6
BRANCH   3  13
HETATM   13  C7  UNL     1      -1.985   2.182   0.517  1.00  0.00     0.192 A 
HETATM   14  N3  UNL     1      -3.300   2.389   0.078  1.00  0.00    -0.198 NA
HETATM   15  C8  UNL     1      -3.830   3.425   0.743  1.00  0.00     0.171 A 
HETATM   16  C9  UNL     1      -3.165   4.255   1.791  1.00  0.00     0.111 A 
HETATM   17  S1  UNL     1      -1.542   3.359   1.767  1.00  0.00    -0.058 SA
BRANCH  15  18
HETATM   18  O1  UNL     1      -5.145   3.559   0.239  1.00  0.00    -0.344 OA
HETATM   19  H6  UNL     1      -5.307   4.068  -0.634  1.00  0.00     0.219 HD
ENDBRANCH  15  18
ENDBRANCH   3  13
BRANCH   4  20
HETATM   20  C11 UNL     1      -2.297  -0.826  -0.441  1.00  0.00    -0.049 C 
HETATM   21  C12 UNL     1      -3.472  -1.047  -1.038  1.00  0.00     0.025 C 
HETATM   22  C13 UNL     1      -4.418  -2.080  -0.578  1.00  0.00     0.023 C 
HETATM   23 BR1  UNL     1      -6.281  -1.741  -0.668  1.00  0.00    -0.050 Br
HETATM   24  C14 UNL     1      -3.927  -3.217  -0.116  1.00  0.00     0.004 C 
HETATM   25  P1  UNL     1      -2.875  -2.925   1.137  1.00  0.00    -0.043 P 
HETATM   26  C15 UNL     1      -1.712  -1.508   0.727  1.00  0.00     0.080 C 
ENDBRANCH   4  20
TORSDOF 4
