REMARK  3 active torsions:
REMARK  status: ('A' for Active; 'I' for Inactive)
REMARK    1  A    between atoms: C10_10  and  C11_11 
REMARK    2  A    between atoms: N1_18  and  C18_19 
REMARK    3  A    between atoms: C19_21  and  O1_22 
ROOT
HETATM    1  C1  UNL     1      -5.348  -2.334   0.524  1.00  0.00     0.048 C 
HETATM    2  C2  UNL     1      -4.044  -1.669   0.331  1.00  0.00    -0.062 C 
HETATM    3  C3  UNL     1      -4.324  -0.517  -0.286  1.00  0.00     0.009 C 
HETATM    4  C4  UNL     1      -3.436   0.599  -0.733  1.00  0.00     0.027 C 
HETATM    5  C5  UNL     1      -2.104   0.569  -0.731  1.00  0.00     0.026 C 
HETATM    6  C6  UNL     1      -1.096  -0.580  -0.909  1.00  0.00     0.069 C 
HETATM    7  C7  UNL     1      -0.819  -0.744   0.636  1.00  0.00     0.043 C 
HETATM    8  C8  UNL     1      -1.464  -1.940   0.974  1.00  0.00    -0.019 C 
HETATM    9  C9  UNL     1      -2.783  -2.277   0.789  1.00  0.00     0.003 C 
HETATM   10  C10 UNL     1       0.307   0.047   0.779  1.00  0.00     0.151 C 
HETATM   11  N1  UNL     1      -0.082   1.394   0.193  1.00  0.00    -0.259 N 
HETATM   12  N3  UNL     1      -1.360   1.752  -0.405  1.00  0.00    -0.300 N 
HETATM   13  H21 UNL     1      -1.988   2.519  -0.691  1.00  0.00     0.187 HD
ENDROOT
BRANCH  10  14
HETATM   14  C11 UNL     1       1.583  -0.358   0.177  1.00  0.00    -0.033 A 
HETATM   15  C12 UNL     1       1.495  -1.648  -0.371  1.00  0.00     0.010 A 
HETATM   16  C13 UNL     1       2.615  -2.229  -0.982  1.00  0.00     0.007 A 
HETATM   17  C14 UNL     1       3.783  -1.506  -1.027  1.00  0.00    -0.062 A 
HETATM   18  C15 UNL     1       4.977  -2.103  -1.671  1.00  0.00     0.048 C 
HETATM   19  C16 UNL     1       3.862  -0.242  -0.490  1.00  0.00     0.007 A 
HETATM   20  C17 UNL     1       2.768   0.336   0.113  1.00  0.00     0.010 A 
ENDBRANCH  10  14
BRANCH  11  21
HETATM   21  C18 UNL     1       0.674   2.608   0.086  1.00  0.00     0.190 A 
HETATM   22  N2  UNL     1       0.852   3.400   0.874  1.00  0.00    -0.198 NA
HETATM   23  C19 UNL     1       1.518   4.537   0.862  1.00  0.00     0.171 A 
HETATM   24  C20 UNL     1       2.131   4.803  -0.407  1.00  0.00     0.111 A 
HETATM   25  S1  UNL     1       1.626   3.321  -1.401  1.00  0.00    -0.058 SA
BRANCH  23  26
HETATM   26  O1  UNL     1       1.819   5.591   1.738  1.00  0.00    -0.344 OA
HETATM   27  H19 UNL     1       2.066   5.486   2.695  1.00  0.00     0.219 HD
ENDBRANCH  23  26
ENDBRANCH  11  21
TORSDOF 3
