REMARK  4 active torsions:
REMARK  status: ('A' for Active; 'I' for Inactive)
REMARK    1  A    between atoms: O1_2  and  C2_3 
REMARK    2  A    between atoms: C4_5  and  C5_6 
REMARK    3  A    between atoms: C10_12  and  N1_13 
REMARK    4  A    between atoms: N1_13  and  C11_14 
ROOT
HETATM    1  C2  UNL     1      -2.804  -1.396   0.401  1.00  0.00     0.071 A 
HETATM    2  C3  UNL     1      -2.077  -0.207   0.555  1.00  0.00     0.045 A 
HETATM    3  C4  UNL     1      -0.876   0.069  -0.133  1.00  0.00    -0.033 A 
HETATM    4  C9  UNL     1      -0.483  -0.940  -0.970  1.00  0.00     0.046 A 
HETATM    5  C10 UNL     1       0.689  -0.592  -1.583  1.00  0.00     0.142 A 
HETATM    6  N2  UNL     1       1.268  -1.449  -2.457  1.00  0.00    -0.223 NA
HETATM    7  C17 UNL     1       0.632  -2.638  -2.677  1.00  0.00     0.236 A 
HETATM    8  N3  UNL     1      -0.538  -2.971  -2.054  1.00  0.00    -0.241 NA
HETATM    9  C18 UNL     1      -1.122  -2.130  -1.186  1.00  0.00     0.075 A 
HETATM   10  C19 UNL     1      -2.285  -2.332  -0.484  1.00  0.00     0.069 A 
ENDROOT
BRANCH   5  11
HETATM   11  N1  UNL     1       1.565   0.528  -1.526  1.00  0.00    -0.340 N 
HETATM   12  H12 UNL     1       1.495   1.417  -2.118  1.00  0.00     0.167 HD
BRANCH  11  13
HETATM   13  C11 UNL     1       2.690   0.422  -0.588  1.00  0.00     0.035 A 
HETATM   14  C12 UNL     1       3.570   1.481  -0.485  1.00  0.00     0.032 A 
HETATM   15  C13 UNL     1       4.654   1.460   0.373  1.00  0.00     0.046 A 
HETATM   16  C14 UNL     1       4.837   0.343   1.133  1.00  0.00     0.138 A 
HETATM   17  F1  UNL     1       5.900   0.293   1.992  1.00  0.00    -0.204 F 
HETATM   18  C15 UNL     1       3.963  -0.701   1.028  1.00  0.00     0.074 A 
HETATM   19 CL1  UNL     1       4.252  -2.101   2.028  1.00  0.00    -0.081 Cl
HETATM   20  C16 UNL     1       2.869  -0.710   0.178  1.00  0.00     0.056 A 
ENDBRANCH  11  13
ENDBRANCH   5  11
BRANCH   3  21
HETATM   21  C5  UNL     1      -0.423   1.397   0.218  1.00  0.00     0.045 C 
HETATM   22  C6  UNL     1      -1.541   2.350  -0.339  1.00  0.00     0.037 C 
HETATM   23  C7  UNL     1      -1.265   3.509   0.606  1.00  0.00     0.168 C 
HETATM   24  O2  UNL     1      -1.508   2.776   1.763  1.00  0.00    -0.390 OA
HETATM   25  C8  UNL     1      -0.587   1.759   1.669  1.00  0.00     0.177 C 
ENDBRANCH   3  21
BRANCH   1  26
HETATM   26  O1  UNL     1      -3.975  -1.673   1.067  1.00  0.00    -0.356 OA
HETATM   27  C1  UNL     1      -4.625  -2.904   0.837  1.00  0.00     0.210 C 
ENDBRANCH   1  26
TORSDOF 4
