REMARK  4 active torsions:
REMARK  status: ('A' for Active; 'I' for Inactive)
REMARK    1  A    between atoms: C5_5  and  C6_6 
REMARK    2  A    between atoms: N2_8  and  C7_9 
REMARK    3  A    between atoms: C8_11  and  O1_12 
REMARK    4  A    between atoms: C10_15  and  C11_16 
ROOT
HETATM    1  C6  UNL     1      -1.589   0.071   0.275  1.00  0.00     0.067 C 
HETATM    2  N1  UNL     1      -1.140   1.251   0.047  1.00  0.00    -0.173 NA
HETATM    3  N2  UNL     1       0.257   1.270   0.025  1.00  0.00    -0.236 N 
HETATM    4  C10 UNL     1       0.612   0.179   0.885  1.00  0.00     0.151 C 
HETATM    5  C18 UNL     1      -0.435  -0.852   0.434  1.00  0.00     0.094 C 
ENDROOT
BRANCH   1   6
HETATM    6  C5  UNL     1      -3.017  -0.245   0.354  1.00  0.00    -0.010 A 
HETATM    7  C4  UNL     1      -3.913   0.799   0.171  1.00  0.00     0.014 A 
HETATM    8  C3  UNL     1      -5.283   0.566   0.236  1.00  0.00     0.007 A 
HETATM    9  C2  UNL     1      -5.701  -0.725   0.486  1.00  0.00    -0.062 A 
HETATM   10  C1  UNL     1      -7.181  -0.989   0.560  1.00  0.00     0.048 C 
HETATM   11  C20 UNL     1      -4.811  -1.788   0.674  1.00  0.00     0.007 A 
HETATM   12  C19 UNL     1      -3.449  -1.533   0.605  1.00  0.00     0.014 A 
ENDBRANCH   1   6
BRANCH   3  13
HETATM   13  C7  UNL     1       1.215   2.148  -0.676  1.00  0.00     0.192 A 
HETATM   14  N3  UNL     1       1.858   2.293  -1.637  1.00  0.00    -0.198 NA
HETATM   15  C8  UNL     1       2.647   3.328  -1.870  1.00  0.00     0.171 A 
HETATM   16  C9  UNL     1       2.734   4.337  -0.909  1.00  0.00     0.111 A 
HETATM   17  S1  UNL     1       1.585   3.700   0.393  1.00  0.00    -0.058 SA
BRANCH  15  18
HETATM   18  O1  UNL     1       3.359   3.350  -3.088  1.00  0.00    -0.344 OA
HETATM   19  H6  UNL     1       3.317   4.149  -3.701  1.00  0.00     0.219 HD
ENDBRANCH  15  18
ENDBRANCH   3  13
BRANCH   4  20
HETATM   20  C11 UNL     1       1.935  -0.423   0.616  1.00  0.00    -0.033 A 
HETATM   21  C12 UNL     1       2.862  -0.742   1.588  1.00  0.00     0.010 A 
HETATM   22  C13 UNL     1       4.092  -1.308   1.277  1.00  0.00     0.007 A 
HETATM   23  C14 UNL     1       4.402  -1.562  -0.040  1.00  0.00    -0.062 A 
HETATM   24  C15 UNL     1       5.740  -2.168  -0.252  1.00  0.00     0.048 C 
HETATM   25  C16 UNL     1       3.484  -1.248  -1.020  1.00  0.00     0.007 A 
HETATM   26  C17 UNL     1       2.262  -0.683  -0.690  1.00  0.00     0.010 A 
ENDBRANCH   4  20
TORSDOF 4
