REMARK  0 active torsions:
REMARK  status: ('A' for Active; 'I' for Inactive)
ROOT
HETATM    1  C1  UNL     1       2.536  -3.294  -0.227  1.00  0.00     0.048 C 
HETATM    2  C2  UNL     1       1.960  -1.990  -0.735  1.00  0.00    -0.064 C 
HETATM    3  C3  UNL     1       0.637  -2.024  -0.802  1.00  0.00    -0.014 C 
HETATM    4  C4  UNL     1      -0.488  -1.184  -1.178  1.00  0.00     0.084 C 
HETATM    5  C5  UNL     1      -1.394  -0.849  -0.049  1.00  0.00     0.037 C 
HETATM    6  N1  UNL     1      -0.646  -0.224   0.844  1.00  0.00    -0.179 NA
HETATM    7  N2  UNL     1      -0.783   1.159   0.999  1.00  0.00    -0.242 N 
HETATM    8  C6  UNL     1      -1.792   2.044   1.491  1.00  0.00     0.188 C 
HETATM    9  C7  UNL     1      -3.041   1.186   1.541  1.00  0.00    -0.055 A 
HETATM   10  C8  UNL     1      -4.200   0.512   1.823  1.00  0.00    -0.012 A 
HETATM   11  C9  UNL     1      -3.505   0.329   0.522  1.00  0.00     0.044 A 
HETATM   12  C10 UNL     1      -2.821  -1.004   0.327  1.00  0.00     0.069 C 
HETATM   13  C11 UNL     1       0.286   2.011   0.593  1.00  0.00     0.192 A 
HETATM   14  N3  UNL     1       0.972   1.689  -0.333  1.00  0.00    -0.198 NA
HETATM   15  C12 UNL     1       1.988   2.424  -0.776  1.00  0.00     0.178 A 
HETATM   16  C13 UNL     1       2.308   3.667  -0.141  1.00  0.00     0.111 A 
HETATM   17  S1  UNL     1       0.926   3.644   1.211  1.00  0.00    -0.058 SA
HETATM   18  O1  UNL     1       2.225   1.451  -1.758  1.00  0.00    -0.304 OA
HETATM   19  C14 UNL     1       2.973   0.321  -1.382  1.00  0.00     0.145 C 
HETATM   20  C15 UNL     1       2.942  -0.947  -1.001  1.00  0.00     0.031 C 
ENDROOT
TORSDOF 0
