REMARK  3 active torsions:
REMARK  status: ('A' for Active; 'I' for Inactive)
REMARK    1  A    between atoms: N2_9  and  C8_10 
REMARK    2  A    between atoms: C9_12  and  O1_13 
REMARK    3  A    between atoms: C11_16  and  C12_17 
ROOT
HETATM    1  C1  UNL     1      -4.102  -2.268   1.916  1.00  0.00     0.050 C 
HETATM    2  C2  UNL     1      -2.931  -2.206   0.968  1.00  0.00    -0.038 C 
HETATM    3  C3  UNL     1      -2.235  -3.243   0.453  1.00  0.00    -0.013 C 
HETATM    4  C4  UNL     1      -1.161  -2.652  -0.440  1.00  0.00     0.017 C 
HETATM    5  C5  UNL     1       0.050  -3.545  -0.286  1.00  0.00     0.015 C 
HETATM    6  C6  UNL     1      -0.965  -1.278   0.160  1.00  0.00     0.077 C 
HETATM    7  C7  UNL     1      -2.389  -0.923   0.457  1.00  0.00     0.068 C 
HETATM    8  N1  UNL     1      -2.528   0.321   0.153  1.00  0.00    -0.173 NA
HETATM    9  N2  UNL     1      -1.392   0.912  -0.340  1.00  0.00    -0.236 N 
HETATM   10  C11 UNL     1      -0.602  -0.203  -0.816  1.00  0.00     0.156 C 
ENDROOT
BRANCH   9  11
HETATM   11  C8  UNL     1      -0.993   2.270  -0.412  1.00  0.00     0.192 A 
HETATM   12  N3  UNL     1      -1.851   3.423   0.111  1.00  0.00    -0.198 NA
HETATM   13  C9  UNL     1      -1.106   4.502  -0.158  1.00  0.00     0.171 A 
HETATM   14  C10 UNL     1       0.265   4.701  -0.813  1.00  0.00     0.111 A 
HETATM   15  S1  UNL     1       0.519   2.839  -1.103  1.00  0.00    -0.058 SA
BRANCH  13  16
HETATM   16  O1  UNL     1      -2.013   5.467   0.372  1.00  0.00    -0.344 OA
HETATM   17  H10 UNL     1      -2.614   5.977  -0.273  1.00  0.00     0.219 HD
ENDBRANCH  13  16
ENDBRANCH   9  11
BRANCH  10  18
HETATM   18  C12 UNL     1       0.867   0.046  -0.613  1.00  0.00    -0.033 A 
HETATM   19  C13 UNL     1       1.270   0.543   0.618  1.00  0.00     0.010 A 
HETATM   20  C14 UNL     1       2.565   0.836   1.000  1.00  0.00     0.007 A 
HETATM   21  C15 UNL     1       3.525   0.597   0.035  1.00  0.00    -0.062 A 
HETATM   22  C16 UNL     1       4.950   0.880   0.347  1.00  0.00     0.048 C 
HETATM   23  C17 UNL     1       3.168   0.099  -1.213  1.00  0.00     0.007 A 
HETATM   24  C18 UNL     1       1.857  -0.175  -1.538  1.00  0.00     0.010 A 
ENDBRANCH  10  18
TORSDOF 3
