REMARK  0 active torsions:
REMARK  status: ('A' for Active; 'I' for Inactive)
ROOT
HETATM    1  C1  UNL     1      -2.713  -2.291   0.187  1.00  0.00     0.044 C 
HETATM    2  C2  UNL     1      -1.288  -1.968  -0.133  1.00  0.00    -0.076 C 
HETATM    3  C3  UNL     1      -0.373  -2.602  -0.848  1.00  0.00     0.003 C 
HETATM    4  C4  UNL     1       1.002  -2.528  -1.318  1.00  0.00    -0.002 C 
HETATM    5  C5  UNL     1       2.044  -1.704  -1.254  1.00  0.00    -0.000 C 
HETATM    6  C6  UNL     1       2.825  -0.533  -0.907  1.00  0.00     0.128 C 
HETATM    7  C7  UNL     1       2.169   0.773  -1.309  1.00  0.00     0.058 C 
HETATM    8  C8  UNL     1       1.536   1.291  -0.062  1.00  0.00     0.128 C 
HETATM    9  C9  UNL     1       0.054   1.425  -0.192  1.00  0.00    -0.030 A 
HETATM   10  C10 UNL     1      -0.348   2.707  -0.617  1.00  0.00     0.010 A 
HETATM   11  C11 UNL     1      -1.650   3.115  -0.825  1.00  0.00     0.007 A 
HETATM   12  C12 UNL     1      -2.654   2.211  -0.606  1.00  0.00    -0.061 A 
HETATM   13  C13 UNL     1      -4.074   2.555  -0.801  1.00  0.00     0.048 C 
HETATM   14  C14 UNL     1      -2.277   0.959  -0.192  1.00  0.00     0.015 A 
HETATM   15  C15 UNL     1      -0.990   0.531   0.021  1.00  0.00    -0.042 A 
HETATM   16  C16 UNL     1      -0.619  -0.807   0.463  1.00  0.00     0.043 C 
HETATM   17  C17 UNL     1      -1.014  -0.920   1.985  1.00  0.00     0.020 C 
HETATM   18  N1  UNL     1       2.003   0.525   1.029  1.00  0.00    -0.155 NA
HETATM   19  S1  UNL     1       3.067   1.388   2.151  1.00  0.00    -0.031 SA
HETATM   20  C18 UNL     1       4.066  -0.080   2.560  1.00  0.00     0.082 C 
HETATM   21  C19 UNL     1       3.850  -0.877   1.523  1.00  0.00     0.114 C 
HETATM   22  N2  UNL     1       2.985  -0.377   0.512  1.00  0.00    -0.302 N 
ENDROOT
TORSDOF 0
