REMARK  4 active torsions:
REMARK  status: ('A' for Active; 'I' for Inactive)
REMARK    1  A    between atoms: C5_5  and  C6_6 
REMARK    2  A    between atoms: N2_8  and  C7_9 
REMARK    3  A    between atoms: C8_11  and  O1_12 
REMARK    4  A    between atoms: C10_15  and  C11_16 
ROOT
HETATM    1  C6  UNL     1      -1.534  -0.699   0.006  1.00  0.00     0.068 C 
HETATM    2  N1  UNL     1      -1.381   0.576  -0.111  1.00  0.00    -0.173 NA
HETATM    3  N2  UNL     1      -0.028   0.927  -0.129  1.00  0.00    -0.236 N 
HETATM    4  C10 UNL     1       0.589  -0.252  -0.652  1.00  0.00     0.151 C 
HETATM    5  C18 UNL     1      -0.184  -1.318   0.088  1.00  0.00     0.094 C 
ENDROOT
BRANCH   1   6
HETATM    6  C5  UNL     1      -2.756  -1.515   0.068  1.00  0.00    -0.003 A 
HETATM    7  C4  UNL     1      -2.889  -2.970   0.199  1.00  0.00     0.015 A 
HETATM    8  C3  UNL     1      -4.179  -3.272   0.216  1.00  0.00     0.012 A 
HETATM    9  C2  UNL     1      -4.938  -2.011   0.097  1.00  0.00    -0.039 A 
HETATM   10  C1  UNL     1      -6.275  -2.008   0.087  1.00  0.00     0.024 C 
HETATM   11  C19 UNL     1      -3.965  -0.931   0.006  1.00  0.00    -0.040 A 
HETATM   12  C20 UNL     1      -4.441   0.447  -0.121  1.00  0.00     0.050 C 
ENDBRANCH   1   6
BRANCH   3  13
HETATM   13  C7  UNL     1       0.306   2.238   0.323  1.00  0.00     0.192 A 
HETATM   14  N3  UNL     1       0.449   3.225  -0.316  1.00  0.00    -0.198 NA
HETATM   15  C8  UNL     1       0.757   4.424   0.155  1.00  0.00     0.171 A 
HETATM   16  C9  UNL     1       0.936   4.509   1.648  1.00  0.00     0.111 A 
HETATM   17  S1  UNL     1       0.602   2.713   2.131  1.00  0.00    -0.058 SA
BRANCH  15  18
HETATM   18  O1  UNL     1       0.892   5.497  -0.738  1.00  0.00    -0.344 OA
HETATM   19  H5  UNL     1       0.161   5.710  -1.408  1.00  0.00     0.219 HD
ENDBRANCH  15  18
ENDBRANCH   3  13
BRANCH   4  20
HETATM   20  C11 UNL     1       2.043  -0.356  -0.459  1.00  0.00    -0.033 A 
HETATM   21  C12 UNL     1       2.799  -0.715  -1.573  1.00  0.00     0.010 A 
HETATM   22  C13 UNL     1       4.165  -0.801  -1.346  1.00  0.00     0.007 A 
HETATM   23  C14 UNL     1       4.802  -0.564  -0.133  1.00  0.00    -0.062 A 
HETATM   24  C15 UNL     1       6.268  -0.680   0.010  1.00  0.00     0.048 C 
HETATM   25  C16 UNL     1       3.996  -0.214   0.928  1.00  0.00     0.007 A 
HETATM   26  C17 UNL     1       2.610  -0.108   0.773  1.00  0.00     0.010 A 
ENDBRANCH   4  20
TORSDOF 4
