REMARK  7 active torsions:
REMARK  status: ('A' for Active; 'I' for Inactive)
REMARK    1  A    between atoms: O1_1  and  C1_2 
REMARK    2  A    between atoms: C3_5  and  N1_6 
REMARK    3  A    between atoms: C4_8  and  C5_9 
REMARK    4  A    between atoms: C4_8  and  C13_18 
REMARK    5  A    between atoms: C6_10  and  C7_11 
REMARK    6  A    between atoms: C13_18  and  C14_19 
REMARK    7  A    between atoms: C14_19  and  C15_20 
ROOT
HETATM    1  N1  UNL     1      -0.157   2.081  -1.076  1.00  0.00    -0.258 N 
HETATM    2  N2  UNL     1       0.001   1.187  -2.245  1.00  0.00    -0.200 NA
HETATM    3  C4  UNL     1       0.228   0.688  -0.916  1.00  0.00     0.139 A 
HETATM    4  H3  UNL     1       0.796   1.407  -2.858  1.00  0.00     0.150 HD
ENDROOT
BRANCH   3   5
HETATM    5  C5  UNL     1      -0.833  -0.225  -0.409  1.00  0.00     0.024 C 
HETATM    6  C6  UNL     1      -2.110   0.063  -0.453  1.00  0.00     0.011 C 
BRANCH   6   7
HETATM    7  C7  UNL     1      -3.222  -0.752   0.016  1.00  0.00    -0.040 C 
HETATM    8  C8  UNL     1      -3.070  -1.943   0.572  1.00  0.00    -0.015 C 
HETATM    9  C9  UNL     1      -3.746  -3.079   1.161  1.00  0.00     0.038 C 
HETATM   10  C10 UNL     1      -5.218  -3.063   1.291  1.00  0.00     0.082 C 
HETATM   11  S2  UNL     1      -6.098  -2.473  -0.148  1.00  0.00    -0.141 SA
HETATM   12  C11 UNL     1      -5.794  -0.696  -0.237  1.00  0.00     0.045 C 
HETATM   13  C12 UNL     1      -4.556  -0.200  -0.150  1.00  0.00     0.018 C 
ENDBRANCH   6   7
ENDBRANCH   3   5
BRANCH   3  14
HETATM   14  C13 UNL     1       1.638   0.532  -0.414  1.00  0.00     0.056 C 
BRANCH  14  15
HETATM   15  C14 UNL     1       2.068  -0.906  -0.240  1.00  0.00     0.016 C 
BRANCH  15  16
HETATM   16  C15 UNL     1       3.513  -1.005   0.269  1.00  0.00     0.030 C 
HETATM   17  C16 UNL     1       4.479  -0.377  -0.660  1.00  0.00    -0.022 C 
HETATM   18  C17 UNL     1       5.751  -0.757  -0.613  1.00  0.00    -0.026 C 
HETATM   19  C18 UNL     1       6.141  -1.793   0.368  1.00  0.00     0.053 C 
HETATM   20  C19 UNL     1       5.078  -2.836   0.397  1.00  0.00    -0.026 C 
HETATM   21  C20 UNL     1       3.799  -2.483   0.350  1.00  0.00    -0.022 C 
ENDBRANCH  15  16
ENDBRANCH  14  15
ENDBRANCH   3  14
BRANCH   1  22
HETATM   22  C3  UNL     1      -0.533   3.465  -0.955  1.00  0.00     0.188 A 
HETATM   23  S1  UNL     1       0.988   4.597  -0.939  1.00  0.00    -0.058 SA
HETATM   24  C2  UNL     1      -0.119   6.115  -0.768  1.00  0.00     0.111 A 
HETATM   25  C1  UNL     1      -1.451   5.482  -0.754  1.00  0.00     0.171 A 
HETATM   26  N3  UNL     1      -1.461   4.171  -0.856  1.00  0.00    -0.199 NA
BRANCH  25  27
HETATM   27  O1  UNL     1      -2.742   6.039  -0.648  1.00  0.00    -0.344 OA
HETATM   28  H1  UNL     1      -2.873   6.864  -0.066  1.00  0.00     0.219 HD
ENDBRANCH  25  27
ENDBRANCH   1  22
TORSDOF 7
