REMARK  8 active torsions:
REMARK  status: ('A' for Active; 'I' for Inactive)
REMARK    1  A    between atoms: C2_2  and  C19_23 
REMARK    2  A    between atoms: C3_3  and  C4_4 
REMARK    3  A    between atoms: C5_5  and  C6_6 
REMARK    4  A    between atoms: C6_6  and  C8_9 
REMARK    5  A    between atoms: C6_6  and  C16_17 
REMARK    6  A    between atoms: C8_9  and  C9_10 
REMARK    7  A    between atoms: C17_19  and  O1_20 
REMARK    8  A    between atoms: C19_23  and  N3_24 
ROOT
HETATM    1  C6  UNL     1      -0.486   0.425   0.928  1.00  0.00     0.121 C 
HETATM    2  C7  UNL     1      -1.206   0.489   2.206  1.00  0.00     0.081 C 
HETATM    3  N1  UNL     1      -1.765   0.536   3.224  1.00  0.00    -0.196 NA
ENDROOT
BRANCH   1   4
HETATM    4  C5  UNL     1       0.886   1.012   1.187  1.00  0.00     0.005 C 
HETATM    5  C4  UNL     1       1.918   0.528   0.514  1.00  0.00    -0.002 C 
BRANCH   5   6
HETATM    6  C3  UNL     1       3.244   1.085   0.755  1.00  0.00     0.004 C 
HETATM    7  C2  UNL     1       4.336   0.671   0.134  1.00  0.00    -0.056 C 
HETATM    8  C1  UNL     1       5.696   1.215   0.356  1.00  0.00     0.045 C 
BRANCH   7   9
HETATM    9  C19 UNL     1       4.488  -0.381  -0.884  1.00  0.00     0.300 C 
BRANCH   9  10
HETATM   10  N3  UNL     1       5.028   0.135  -2.133  1.00  0.00     0.082 N 
HETATM   11  H20 UNL     1       6.059   0.234  -2.019  1.00  0.00     0.313 HD
HETATM   12  H21 UNL     1       4.618   1.061  -2.386  1.00  0.00     0.313 HD
ENDBRANCH   9  10
ENDBRANCH   7   9
ENDBRANCH   5   6
ENDBRANCH   1   4
BRANCH   1  13
HETATM   13  C8  UNL     1      -1.092   1.283  -0.118  1.00  0.00     0.074 C 
BRANCH  13  14
HETATM   14  C9  UNL     1      -2.455   0.893  -0.527  1.00  0.00    -0.056 A 
HETATM   15  C10 UNL     1      -2.942   0.147  -1.566  1.00  0.00     0.007 A 
HETATM   16  C11 UNL     1      -4.292  -0.092  -1.701  1.00  0.00     0.007 A 
HETATM   17  C12 UNL     1      -5.225   0.397  -0.816  1.00  0.00    -0.062 A 
HETATM   18  C13 UNL     1      -6.667   0.102  -1.021  1.00  0.00     0.048 C 
HETATM   19  C14 UNL     1      -4.757   1.153   0.239  1.00  0.00     0.007 A 
HETATM   20  C15 UNL     1      -3.388   1.391   0.371  1.00  0.00     0.007 A 
ENDBRANCH  13  14
ENDBRANCH   1  13
BRANCH   1  21
HETATM   21  C16 UNL     1      -0.287  -0.990   0.577  1.00  0.00     0.104 A 
HETATM   22  N2  UNL     1       0.447  -1.611   1.251  1.00  0.00    -0.220 NA
HETATM   23  C17 UNL     1       0.765  -2.894   1.118  1.00  0.00     0.169 A 
HETATM   24  C18 UNL     1       0.201  -3.590   0.108  1.00  0.00     0.109 A 
HETATM   25  S1  UNL     1      -0.837  -2.242  -0.649  1.00  0.00    -0.080 SA
BRANCH  23  26
HETATM   26  O1  UNL     1       1.607  -3.788   1.815  1.00  0.00    -0.344 OA
HETATM   27  H16 UNL     1       1.231  -4.456   2.482  1.00  0.00     0.219 HD
ENDBRANCH  23  26
ENDBRANCH   1  21
TORSDOF 8
