REMARK  5 active torsions:
REMARK  status: ('A' for Active; 'I' for Inactive)
REMARK    1  A    between atoms: O1_2  and  C2_3 
REMARK    2  A    between atoms: C5_6  and  C6_7 
REMARK    3  A    between atoms: N1_14  and  N2_15 
REMARK    4  A    between atoms: N2_15  and  C13_16 
REMARK    5  A    between atoms: C14_18  and  O2_19 
ROOT
HETATM    1  C6  UNL     1       0.613  -1.373   0.739  1.00  0.00     0.076 C 
HETATM    2  C7  UNL     1       1.363  -2.584   0.250  1.00  0.00     0.043 C 
HETATM    3  C8  UNL     1       1.400  -2.729  -1.212  1.00  0.00    -0.026 C 
HETATM    4  C9  UNL     1       0.448  -2.664  -2.127  1.00  0.00    -0.004 C 
HETATM    5  C10 UNL     1      -0.979  -2.416  -1.928  1.00  0.00     0.002 C 
HETATM    6  C11 UNL     1      -1.504  -1.857  -0.842  1.00  0.00     0.029 C 
HETATM    7  C12 UNL     1      -0.797  -1.380   0.364  1.00  0.00     0.063 C 
HETATM    8  N1  UNL     1      -1.632  -0.907   1.228  1.00  0.00    -0.177 NA
ENDROOT
BRANCH   1   9
HETATM    9  C5  UNL     1       1.366  -0.123   0.613  1.00  0.00    -0.048 A 
HETATM   10  C4  UNL     1       2.638  -0.228   0.037  1.00  0.00     0.011 A 
HETATM   11  C3  UNL     1       3.519   0.831  -0.101  1.00  0.00     0.037 A 
HETATM   12  C2  UNL     1       3.177   2.086   0.334  1.00  0.00     0.068 A 
HETATM   13  C17 UNL     1       1.905   2.212   0.910  1.00  0.00     0.037 A 
HETATM   14  C16 UNL     1       1.037   1.139   1.039  1.00  0.00     0.011 A 
BRANCH  12  15
HETATM   15  O1  UNL     1       3.983   3.221   0.253  1.00  0.00    -0.356 OA
HETATM   16  C1  UNL     1       5.274   3.087  -0.304  1.00  0.00     0.210 C 
ENDBRANCH  12  15
ENDBRANCH   1   9
BRANCH   8  17
HETATM   17  N2  UNL     1      -2.995  -0.845   1.034  1.00  0.00    -0.255 N 
HETATM   18  H13 UNL     1      -3.150  -1.865   1.290  1.00  0.00     0.191 HD
BRANCH  17  19
HETATM   19  C13 UNL     1      -4.016   0.019   0.653  1.00  0.00     0.189 A 
HETATM   20  N3  UNL     1      -4.351   0.842  -0.197  1.00  0.00    -0.198 NA
HETATM   21  C14 UNL     1      -5.515   1.478  -0.128  1.00  0.00     0.171 A 
HETATM   22  C15 UNL     1      -6.447   1.189   1.001  1.00  0.00     0.111 A 
HETATM   23  S1  UNL     1      -5.414  -0.088   1.910  1.00  0.00    -0.058 SA
BRANCH  21  24
HETATM   24  O2  UNL     1      -5.635   2.358  -1.226  1.00  0.00    -0.344 OA
HETATM   25  H14 UNL     1      -5.497   3.345  -1.111  1.00  0.00     0.219 HD
ENDBRANCH  21  24
ENDBRANCH  17  19
ENDBRANCH   8  17
TORSDOF 5
