REMARK  8 active torsions:
REMARK  status: ('A' for Active; 'I' for Inactive)
REMARK    1  A    between atoms: C2_2  and  O1_3 
REMARK    2  A    between atoms: C3_4  and  B1_5 
REMARK    3  A    between atoms: B1_5  and  C4_6 
REMARK    4  A    between atoms: C4_6  and  C5_7 
REMARK    5  A    between atoms: C5_7  and  O2_8 
REMARK    6  A    between atoms: O2_8  and  C6_9 
REMARK    7  A    between atoms: C13_19  and  N3_20 
REMARK    8  A    between atoms: N3_20  and  C14_21 
ROOT
HETATM    1  C4  UNL     1       0.166  -0.051  -0.551  1.00  0.00    -0.084 C 
HETATM    2  C10 UNL     1      -0.567  -0.274  -1.656  1.00  0.00     0.001 A 
HETATM    3  C11 UNL     1       0.154  -0.766  -2.856  1.00  0.00     0.192 A 
HETATM    4  N1  UNL     1      -0.791  -0.974  -3.912  1.00  0.00    -0.278 NA
HETATM    5  C12 UNL     1      -2.040  -0.776  -3.888  1.00  0.00     0.229 A 
HETATM    6  N2  UNL     1      -2.691  -0.291  -2.721  1.00  0.00    -0.224 NA
HETATM    7  C13 UNL     1      -2.005  -0.039  -1.630  1.00  0.00     0.136 A 
ENDROOT
BRANCH   1   8
HETATM    8  B1  UNL     1       0.001   0.433   0.916  1.00  0.00     0.220 B 
HETATM    9  H6  UNL     1      -0.123  -0.376   1.768  1.00  0.00    -0.016 HD
BRANCH   8  10
HETATM   10  C3  UNL     1       0.476   1.858   1.324  1.00  0.00    -0.046 C 
HETATM   11  C2  UNL     1       1.470   2.687   1.597  1.00  0.00     0.025 C 
HETATM   12  C1  UNL     1       1.264   4.128   1.976  1.00  0.00     0.074 C 
BRANCH  11  13
HETATM   13  O1  UNL     1       2.826   2.422   1.592  1.00  0.00    -0.367 OA
HETATM   14  H4  UNL     1       3.461   2.627   2.368  1.00  0.00     0.217 HD
ENDBRANCH  11  13
ENDBRANCH   8  10
ENDBRANCH   1   8
BRANCH   1  15
HETATM   15  C5  UNL     1       1.630  -0.293  -0.548  1.00  0.00     0.191 C 
BRANCH  15  16
HETATM   16  O2  UNL     1       2.017  -1.255   0.408  1.00  0.00    -0.380 OA
BRANCH  16  17
HETATM   17  C6  UNL     1       3.397  -1.373   0.294  1.00  0.00     0.147 C 
HETATM   18  C7  UNL     1       3.813  -2.824   0.071  1.00  0.00     0.060 C 
HETATM   19  C8  UNL     1       5.178  -2.844   0.691  1.00  0.00     0.170 C 
HETATM   20  O3  UNL     1       5.358  -1.657   1.382  1.00  0.00    -0.389 OA
HETATM   21  C9  UNL     1       4.117  -1.092   1.607  1.00  0.00     0.199 C 
ENDBRANCH  16  17
ENDBRANCH  15  16
ENDBRANCH   1  15
BRANCH   7  22
HETATM   22  N3  UNL     1      -2.688   0.456  -0.485  1.00  0.00    -0.340 N 
HETATM   23  H19 UNL     1      -2.158   1.154   0.053  1.00  0.00     0.167 HD
BRANCH  22  24
HETATM   24  C14 UNL     1      -3.991  -0.033  -0.194  1.00  0.00     0.046 A 
HETATM   25  C15 UNL     1      -4.504  -1.250  -0.265  1.00  0.00     0.030 A 
HETATM   26  C16 UNL     1      -5.901  -1.249   0.142  1.00  0.00     0.003 A 
HETATM   27  C17 UNL     1      -6.304  -0.027   0.480  1.00  0.00     0.016 A 
HETATM   28  C18 UNL     1      -5.107   0.781   0.278  1.00  0.00     0.017 A 
HETATM   29  C19 UNL     1      -5.024   2.089   0.491  1.00  0.00     0.202 C 
HETATM   30  F1  UNL     1      -3.867   2.756   0.276  1.00  0.00    -0.218 F 
ENDBRANCH  22  24
ENDBRANCH   7  22
TORSDOF 8
