REMARK  3 active torsions:
REMARK  status: ('A' for Active; 'I' for Inactive)
REMARK    1  A    between atoms: C2_2  and  O1_3 
REMARK    2  A    between atoms: O1_3  and  C3_4 
REMARK    3  A    between atoms: C6_7  and  C7_8 
ROOT
HETATM    1  C7  UNL     1       0.817   0.080   0.853  1.00  0.00     0.070 C 
HETATM    2  N1  UNL     1      -0.177   0.261   1.570  1.00  0.00    -0.175 NA
HETATM    3  N2  UNL     1      -1.407  -0.250   1.196  1.00  0.00    -0.264 N 
HETATM    4  C8  UNL     1      -2.447  -0.039   2.153  1.00  0.00     0.229 C 
HETATM    5  S1  UNL     1      -3.765   1.109   1.773  1.00  0.00    -0.120 SA
HETATM    6  C9  UNL     1      -4.966   0.523   0.641  1.00  0.00     0.043 C 
HETATM    7  C10 UNL     1      -5.814  -0.039  -0.169  1.00  0.00    -0.016 C 
HETATM    8  C11 UNL     1      -6.842  -0.423  -1.129  1.00  0.00     0.054 C 
HETATM    9  C12 UNL     1      -6.302  -1.113  -2.316  1.00  0.00    -0.023 C 
HETATM   10  C13 UNL     1      -5.174  -1.519  -2.777  1.00  0.00    -0.007 C 
HETATM   11  C14 UNL     1      -3.769  -1.763  -2.836  1.00  0.00     0.009 C 
HETATM   12  C15 UNL     1      -2.824  -1.484  -1.955  1.00  0.00     0.023 C 
HETATM   13  C16 UNL     1      -1.693  -1.237  -1.085  1.00  0.00     0.005 C 
HETATM   14  C17 UNL     1      -1.043  -0.840  -0.022  1.00  0.00     0.034 C 
HETATM   15  C18 UNL     1       0.422  -0.913  -0.177  1.00  0.00     0.120 C 
ENDROOT
BRANCH   1  16
HETATM   16  C6  UNL     1       2.230   0.451   0.881  1.00  0.00    -0.009 A 
HETATM   17  C5  UNL     1       2.569   1.221   1.994  1.00  0.00     0.016 A 
HETATM   18  C4  UNL     1       3.903   1.615   2.093  1.00  0.00     0.037 A 
HETATM   19  C3  UNL     1       4.882   1.294   1.178  1.00  0.00     0.068 A 
HETATM   20  C20 UNL     1       4.466   0.530   0.110  1.00  0.00     0.037 A 
HETATM   21  C19 UNL     1       3.170   0.108  -0.054  1.00  0.00     0.016 A 
BRANCH  19  22
HETATM   22  O1  UNL     1       6.184   1.722   1.347  1.00  0.00    -0.352 OA
BRANCH  22  23
HETATM   23  C2  UNL     1       7.209   1.394   0.442  1.00  0.00     0.171 C 
HETATM   24  C1  UNL     1       7.407  -0.127   0.371  1.00  0.00     0.034 C 
ENDBRANCH  22  23
ENDBRANCH  19  22
ENDBRANCH   1  16
TORSDOF 3
