REMARK  8 active torsions:
REMARK  status: ('A' for Active; 'I' for Inactive)
REMARK    1  A    between atoms: C3_3  and  C4_4 
REMARK    2  A    between atoms: C4_4  and  N1_5 
REMARK    3  A    between atoms: N1_5  and  C5_6 
REMARK    4  A    between atoms: C5_6  and  C6_7 
REMARK    5  A    between atoms: C7_8  and  C8_9 
REMARK    6  A    between atoms: C8_9  and  N2_10 
REMARK    7  A    between atoms: C10_13  and  C11_14 
REMARK    8  A    between atoms: C19_23  and  O1_24 
ROOT
HETATM    1  N2  UNL     1       0.240  -0.524   0.128  1.00  0.00     0.120 NA
HETATM    2  C9  UNL     1      -0.960  -0.949  -0.461  1.00  0.00     0.422 C 
HETATM    3  N3  UNL     1      -2.157  -0.308  -0.168  1.00  0.00    -0.258 NA
HETATM    4  C10 UNL     1      -3.050  -0.395   0.698  1.00  0.00     0.080 C 
HETATM    5  C18 UNL     1      -3.232  -1.230   1.908  1.00  0.00     0.146 C 
HETATM    6  N4  UNL     1      -2.192  -1.792   1.803  1.00  0.00    -0.258 NA
HETATM    7  C19 UNL     1      -1.255  -2.712   2.242  1.00  0.00     0.306 C 
HETATM    8  S1  UNL     1       0.364  -1.857   2.489  1.00  0.00    -0.085 SA
HETATM    9  C20 UNL     1       0.344  -0.310   1.519  1.00  0.00     0.353 C 
ENDROOT
BRANCH   1  10
HETATM   10  C8  UNL     1       1.379  -1.331  -0.316  1.00  0.00     0.302 C 
BRANCH  10  11
HETATM   11  C7  UNL     1       1.723  -1.125  -1.729  1.00  0.00     0.001 C 
HETATM   12  C6  UNL     1       2.934  -0.693  -2.059  1.00  0.00    -0.011 C 
BRANCH  12  13
HETATM   13  C5  UNL     1       4.186  -0.315  -1.365  1.00  0.00     0.135 C 
BRANCH  13  14
HETATM   14  N1  UNL     1       5.302  -1.123  -1.775  1.00  0.00    -0.418 NA
BRANCH  14  15
HETATM   15  C4  UNL     1       6.476  -0.885  -1.386  1.00  0.00     0.274 C 
BRANCH  15  16
HETATM   16  C3  UNL     1       7.656  -0.344  -0.768  1.00  0.00     0.014 C 
HETATM   17  C2  UNL     1       7.814   0.665   0.024  1.00  0.00    -0.029 C 
HETATM   18  C1  UNL     1       6.828   1.614   0.571  1.00  0.00     0.036 C 
ENDBRANCH  15  16
ENDBRANCH  14  15
ENDBRANCH  13  14
ENDBRANCH  12  13
ENDBRANCH  10  11
ENDBRANCH   1  10
BRANCH   4  19
HETATM   19  C11 UNL     1      -4.162   0.555   0.546  1.00  0.00    -0.006 A 
HETATM   20  C12 UNL     1      -4.113   1.452  -0.502  1.00  0.00     0.014 A 
HETATM   21  C13 UNL     1      -5.094   2.405  -0.791  1.00  0.00     0.007 A 
HETATM   22  C14 UNL     1      -6.203   2.477   0.016  1.00  0.00    -0.062 A 
HETATM   23  C15 UNL     1      -7.339   3.416  -0.147  1.00  0.00     0.048 C 
HETATM   24  C16 UNL     1      -6.265   1.580   1.074  1.00  0.00     0.007 A 
HETATM   25  C17 UNL     1      -5.284   0.646   1.341  1.00  0.00     0.014 A 
ENDBRANCH   4  19
BRANCH   7  26
HETATM   26  O1  UNL     1      -1.064  -3.834   1.470  1.00  0.00    -0.366 OA
HETATM   27  H24 UNL     1      -1.864  -4.211   1.079  1.00  0.00     0.213 HD
ENDBRANCH   7  26
TORSDOF 8
