REMARK  7 active torsions:
REMARK  status: ('A' for Active; 'I' for Inactive)
REMARK    1  A    between atoms: C7_7  and  C8_8 
REMARK    2  A    between atoms: N2_15  and  C14_16 
REMARK    3  A    between atoms: C14_16  and  S1_17 
REMARK    4  A    between atoms: S1_17  and  C15_18 
REMARK    5  A    between atoms: C15_18  and  N3_19 
REMARK    6  A    between atoms: C15_18  and  O1_20 
REMARK    7  A    between atoms: O1_20  and  P1_21 
ROOT
HETATM    1  C1  UNL     1      -4.128  -3.236   1.844  1.00  0.00     0.048 C 
HETATM    2  C2  UNL     1      -2.940  -2.403   1.530  1.00  0.00    -0.062 C 
HETATM    3  C3  UNL     1      -3.200  -1.330   0.795  1.00  0.00     0.014 C 
HETATM    4  C4  UNL     1      -2.295  -0.302   0.304  1.00  0.00    -0.050 C 
HETATM    5  C5  UNL     1      -2.727   0.590  -0.822  1.00  0.00     0.049 C 
HETATM    6  C6  UNL     1      -1.054  -0.168   0.714  1.00  0.00     0.007 C 
HETATM    7  C7  UNL     1      -0.113   0.871   0.248  1.00  0.00     0.096 C 
HETATM    8  N1  UNL     1       1.046   0.264   0.120  1.00  0.00    -0.174 NA
HETATM    9  N2  UNL     1       0.970  -1.065   0.464  1.00  0.00    -0.283 N 
HETATM   10  C16 UNL     1      -0.037  -0.902   1.541  1.00  0.00     0.164 C 
HETATM   11  C17 UNL     1      -0.530  -2.202   2.031  1.00  0.00     0.005 C 
HETATM   12  C18 UNL     1      -1.666  -2.867   2.063  1.00  0.00     0.005 C 
ENDROOT
BRANCH   9  13
HETATM   13  C14 UNL     1       1.637  -2.239  -0.043  1.00  0.00     0.224 C 
BRANCH  13  14
HETATM   14  S1  UNL     1       3.411  -2.103   0.176  1.00  0.00    -0.086 SA
BRANCH  14  15
HETATM   15  C15 UNL     1       4.146  -0.794  -0.835  1.00  0.00     0.423 C 
BRANCH  15  16
HETATM   16  N3  UNL     1       3.685   0.498  -0.381  1.00  0.00     0.117 N 
HETATM   17  H16 UNL     1       4.118   1.255  -0.956  1.00  0.00     0.317 HD
HETATM   18  H17 UNL     1       3.958   0.666   0.621  1.00  0.00     0.317 HD
ENDBRANCH  15  16
BRANCH  15  19
HETATM   19  O1  UNL     1       3.727  -0.904  -2.165  1.00  0.00    -0.327 OA
BRANCH  19  20
HETATM   20  P1  UNL     1       5.116  -1.006  -3.214  1.00  0.00     0.005 P 
HETATM   21  H18 UNL     1       5.741  -2.307  -2.964  1.00  0.00     0.084 HD
HETATM   22  H19 UNL     1       6.078   0.003  -2.787  1.00  0.00     0.084 HD
ENDBRANCH  19  20
ENDBRANCH  15  19
ENDBRANCH  14  15
ENDBRANCH  13  14
ENDBRANCH   9  13
BRANCH   7  23
HETATM   23  C8  UNL     1      -0.431   2.257  -0.048  1.00  0.00    -0.005 A 
HETATM   24  C9  UNL     1      -1.472   3.102   0.167  1.00  0.00     0.014 A 
HETATM   25  C10 UNL     1      -1.591   4.382  -0.287  1.00  0.00     0.001 A 
HETATM   26  C11 UNL     1      -0.593   4.951  -1.046  1.00  0.00     0.000 A 
HETATM   27  C12 UNL     1       0.500   4.167  -1.311  1.00  0.00     0.001 A 
HETATM   28  C13 UNL     1       0.569   2.884  -0.831  1.00  0.00     0.014 A 
ENDBRANCH   7  23
TORSDOF 7
