REMARK  5 active torsions:
REMARK  status: ('A' for Active; 'I' for Inactive)
REMARK    1  A    between atoms: O1_2  and  C2_3 
REMARK    2  A    between atoms: C5_6  and  C6_7 
REMARK    3  A    between atoms: C8_9  and  C9_10 
REMARK    4  A    between atoms: N2_18  and  C16_19 
REMARK    5  A    between atoms: C18_23  and  O2_24 
ROOT
HETATM    1  C6  UNL     1       0.819  -0.066   0.827  1.00  0.00     0.151 C 
HETATM    2  C7  UNL     1       0.063  -1.180   0.110  1.00  0.00     0.094 C 
HETATM    3  C8  UNL     1      -1.321  -0.787   0.533  1.00  0.00     0.067 C 
HETATM    4  N1  UNL     1      -1.297   0.466   0.724  1.00  0.00    -0.173 NA
HETATM    5  N2  UNL     1      -0.047   1.049   0.490  1.00  0.00    -0.236 N 
ENDROOT
BRANCH   5   6
HETATM    6  C16 UNL     1       0.011   2.420   0.038  1.00  0.00     0.190 C 
HETATM    7  N3  UNL     1      -0.101   3.245   1.028  1.00  0.00    -0.234 NA
HETATM    8  P1  UNL     1      -0.021   4.950   0.412  1.00  0.00     0.044 P 
HETATM    9  C17 UNL     1      -0.769   4.706  -1.263  1.00  0.00     0.054 C 
HETATM   10  H16 UNL     1      -0.915   5.806   1.155  1.00  0.00     0.088 HD
HETATM   11  C18 UNL     1      -1.669   5.364  -1.980  1.00  0.00     0.152 C 
HETATM   12  S1  UNL     1       0.200   3.227  -1.548  1.00  0.00    -0.047 SA
BRANCH  11  13
HETATM   13  O2  UNL     1      -2.156   6.495  -1.306  1.00  0.00    -0.371 OA
HETATM   14  H18 UNL     1      -1.962   7.447  -1.605  1.00  0.00     0.216 HD
ENDBRANCH  11  13
ENDBRANCH   5   6
BRANCH   1  15
HETATM   15  C5  UNL     1       2.194   0.069   0.352  1.00  0.00    -0.033 A 
HETATM   16  C4  UNL     1       2.893   1.251   0.495  1.00  0.00     0.012 A 
HETATM   17  C3  UNL     1       4.209   1.332   0.024  1.00  0.00     0.037 A 
HETATM   18  C2  UNL     1       4.816   0.228  -0.587  1.00  0.00     0.068 A 
HETATM   19  C20 UNL     1       4.092  -0.940  -0.716  1.00  0.00     0.037 A 
HETATM   20  C19 UNL     1       2.795  -1.017  -0.250  1.00  0.00     0.012 A 
BRANCH  18  21
HETATM   21  O1  UNL     1       6.120   0.467  -0.999  1.00  0.00    -0.356 OA
HETATM   22  C1  UNL     1       6.817  -0.591  -1.629  1.00  0.00     0.210 C 
ENDBRANCH  18  21
ENDBRANCH   1  15
BRANCH   3  23
HETATM   23  C9  UNL     1      -2.443  -1.710   0.680  1.00  0.00    -0.010 A 
HETATM   24  C10 UNL     1      -2.270  -3.074   0.419  1.00  0.00     0.014 A 
HETATM   25  C11 UNL     1      -3.405  -3.874   0.589  1.00  0.00     0.007 A 
HETATM   26  C12 UNL     1      -4.624  -3.400   0.982  1.00  0.00    -0.062 A 
HETATM   27  C13 UNL     1      -5.807  -4.275   1.153  1.00  0.00     0.048 C 
HETATM   28  C14 UNL     1      -4.719  -2.061   1.219  1.00  0.00     0.007 A 
HETATM   29  C15 UNL     1      -3.669  -1.191   1.082  1.00  0.00     0.014 A 
ENDBRANCH   3  23
TORSDOF 5
