REMARK  1 active torsions:
REMARK  status: ('A' for Active; 'I' for Inactive)
REMARK    1  A    between atoms: C3_4  and  C4_5 
ROOT
HETATM    1  F1  UNL     1      -0.444   1.518   0.224  1.00  0.00    -0.344 F 
HETATM    2  C1  UNL     1       0.507   0.727  -0.062  1.00  0.00     0.080 A 
HETATM    3  C2  UNL     1       0.181   0.995  -1.361  1.00  0.00     0.067 A 
HETATM    4  C3  UNL     1      -0.978   1.901  -1.245  1.00  0.00     0.244 A 
HETATM    5  N1  UNL     1      -2.132   1.137  -0.725  1.00  0.00    -0.314 N 
HETATM    6  C6  UNL     1      -3.418   1.654  -0.966  1.00  0.00     0.206 C 
HETATM    7  N2  UNL     1      -4.576   1.161  -0.579  1.00  0.00    -0.284 NA
HETATM    8  C7  UNL     1      -4.554  -0.087   0.209  1.00  0.00     0.156 C 
HETATM    9  C8  UNL     1      -3.276   0.049   1.040  1.00  0.00     0.079 C 
HETATM   10  C9  UNL     1      -2.180  -0.118   0.057  1.00  0.00     0.014 C 
HETATM   11  C10 UNL     1      -1.775  -1.406   0.343  1.00  0.00     0.005 C 
HETATM   12  C11 UNL     1      -1.936  -2.561   1.203  1.00  0.00     0.070 C 
HETATM   13  C12 UNL     1      -1.639  -2.227   2.469  1.00  0.00    -0.005 C 
HETATM   14  P1  UNL     1       0.027  -2.281   2.769  1.00  0.00    -0.055 P 
HETATM   15  C13 UNL     1       1.117  -2.349   1.268  1.00  0.00     0.207 C 
HETATM   16  O1  UNL     1       2.254  -1.524   1.470  1.00  0.00    -0.374 OA
HETATM   17  C14 UNL     1       3.052  -1.603   0.368  1.00  0.00     0.180 C 
HETATM   18  C15 UNL     1       4.404  -0.995   0.344  1.00  0.00     0.065 C 
HETATM   19  C16 UNL     1       4.679  -1.234  -1.180  1.00  0.00     0.178 C 
HETATM   20  O2  UNL     1       3.305  -1.556  -1.552  1.00  0.00    -0.353 OA
HETATM   21  C17 UNL     1       2.450  -0.879  -0.812  1.00  0.00     0.078 C 
HETATM   22  C18 UNL     1       1.549  -0.140  -0.359  1.00  0.00     0.073 C 
ENDROOT
BRANCH   4  23
HETATM   23  C4  UNL     1      -0.782   3.211  -0.672  1.00  0.00     0.040 C 
HETATM   24  C5  UNL     1       0.302   3.867  -1.050  1.00  0.00     0.085 C 
HETATM   25 CL1  UNL     1       1.796   4.076  -1.942  1.00  0.00    -0.097 Cl
ENDBRANCH   4  23
TORSDOF 1
