REMARK  4 active torsions:
REMARK  status: ('A' for Active; 'I' for Inactive)
REMARK    1  A    between atoms: O1_2  and  C2_3 
REMARK    2  A    between atoms: C5_6  and  C6_7 
REMARK    3  A    between atoms: C8_9  and  C9_10 
REMARK    4  A    between atoms: N2_18  and  C16_19 
ROOT
HETATM    1  C6  UNL     1       0.691   0.750   1.207  1.00  0.00     0.151 C 
HETATM    2  C7  UNL     1      -0.601   0.149   1.653  1.00  0.00     0.094 C 
HETATM    3  C8  UNL     1      -1.433   0.229   0.417  1.00  0.00     0.067 C 
HETATM    4  N1  UNL     1      -0.908   1.089  -0.394  1.00  0.00    -0.173 NA
HETATM    5  N2  UNL     1       0.244   1.645   0.154  1.00  0.00    -0.237 N 
ENDROOT
BRANCH   1   6
HETATM    6  C5  UNL     1       1.697  -0.214   0.738  1.00  0.00    -0.033 A 
HETATM    7  C4  UNL     1       1.577  -0.903  -0.434  1.00  0.00     0.012 A 
HETATM    8  C3  UNL     1       2.559  -1.793  -0.813  1.00  0.00     0.037 A 
HETATM    9  C2  UNL     1       3.702  -2.050  -0.064  1.00  0.00     0.068 A 
HETATM   10  C20 UNL     1       3.822  -1.351   1.124  1.00  0.00     0.037 A 
HETATM   11  C19 UNL     1       2.841  -0.463   1.501  1.00  0.00     0.012 A 
BRANCH   9  12
HETATM   12  O1  UNL     1       4.652  -2.955  -0.499  1.00  0.00    -0.356 OA
HETATM   13  C1  UNL     1       5.800  -3.180   0.305  1.00  0.00     0.210 C 
ENDBRANCH   9  12
ENDBRANCH   1   6
BRANCH   5  14
HETATM   14  C16 UNL     1       0.747   2.877  -0.355  1.00  0.00     0.185 C 
HETATM   15  N3  UNL     1       1.093   3.197  -1.536  1.00  0.00    -0.239 NA
HETATM   16  C17 UNL     1       1.578   4.556  -1.758  1.00  0.00     0.320 C 
HETATM   17  O2  UNL     1       0.623   5.503  -1.475  1.00  0.00    -0.360 OA
HETATM   18  C18 UNL     1       0.509   5.759  -0.116  1.00  0.00     0.252 C 
HETATM   19  S1  UNL     1       0.959   4.244   0.775  1.00  0.00    -0.065 SA
ENDBRANCH   5  14
BRANCH   3  20
HETATM   20  C9  UNL     1      -2.638  -0.573   0.229  1.00  0.00    -0.010 A 
HETATM   21  C10 UNL     1      -3.108  -1.466   1.169  1.00  0.00     0.014 A 
HETATM   22  C11 UNL     1      -4.232  -2.228   1.017  1.00  0.00     0.007 A 
HETATM   23  C12 UNL     1      -4.954  -2.112  -0.138  1.00  0.00    -0.062 A 
HETATM   24  C13 UNL     1      -6.172  -2.986  -0.217  1.00  0.00     0.048 C 
HETATM   25  C14 UNL     1      -4.543  -1.245  -1.110  1.00  0.00     0.007 A 
HETATM   26  C15 UNL     1      -3.404  -0.497  -0.916  1.00  0.00     0.014 A 
ENDBRANCH   3  20
TORSDOF 4
