REMARK  7 active torsions:
REMARK  status: ('A' for Active; 'I' for Inactive)
REMARK    1  A    between atoms: O1_2  and  C2_3 
REMARK    2  A    between atoms: C5_6  and  C6_7 
REMARK    3  A    between atoms: C8_9  and  C9_10 
REMARK    4  A    between atoms: C9_10  and  C14_15 
REMARK    5  A    between atoms: C11_12  and  C12_13 
REMARK    6  A    between atoms: N2_17  and  C15_18 
REMARK    7  A    between atoms: C16_20  and  O2_21 
ROOT
HETATM    1  C6  UNL     1      -0.796  -0.153   0.960  1.00  0.00     0.151 C 
HETATM    2  C7  UNL     1      -0.831  -1.303  -0.071  1.00  0.00     0.090 C 
HETATM    3  C8  UNL     1      -2.174  -1.091  -0.597  1.00  0.00     0.049 C 
HETATM    4  N1  UNL     1      -2.436   0.126  -0.426  1.00  0.00    -0.177 NA
HETATM    5  N2  UNL     1      -1.429   0.841   0.169  1.00  0.00    -0.237 N 
ENDROOT
BRANCH   1   6
HETATM    6  C5  UNL     1       0.637   0.066   1.197  1.00  0.00    -0.033 A 
HETATM    7  C4  UNL     1       1.212   1.280   1.515  1.00  0.00     0.012 A 
HETATM    8  C3  UNL     1       2.545   1.497   1.743  1.00  0.00     0.037 A 
HETATM    9  C2  UNL     1       3.425   0.430   1.658  1.00  0.00     0.068 A 
HETATM   10  C19 UNL     1       2.914  -0.816   1.344  1.00  0.00     0.037 A 
HETATM   11  C18 UNL     1       1.571  -0.978   1.124  1.00  0.00     0.012 A 
BRANCH   9  12
HETATM   12  O1  UNL     1       4.783   0.550   1.872  1.00  0.00    -0.356 OA
HETATM   13  C1  UNL     1       5.677  -0.546   1.785  1.00  0.00     0.210 C 
ENDBRANCH   9  12
ENDBRANCH   1   6
BRANCH   5  14
HETATM   14  C15 UNL     1      -1.385   2.244  -0.209  1.00  0.00     0.192 A 
HETATM   15  N3  UNL     1      -0.716   2.803  -1.090  1.00  0.00    -0.198 NA
HETATM   16  C16 UNL     1      -0.828   4.113  -1.282  1.00  0.00     0.171 A 
HETATM   17  C17 UNL     1      -1.691   4.874  -0.502  1.00  0.00     0.111 A 
HETATM   18  S1  UNL     1      -2.402   3.545   0.611  1.00  0.00    -0.058 SA
BRANCH  16  19
HETATM   19  O2  UNL     1      -0.012   4.623  -2.313  1.00  0.00    -0.344 OA
HETATM   20  H12 UNL     1      -0.184   5.490  -2.767  1.00  0.00     0.219 HD
ENDBRANCH  16  19
ENDBRANCH   5  14
BRANCH   3  21
HETATM   21  C9  UNL     1      -3.209  -2.077  -1.253  1.00  0.00     0.042 A 
HETATM   22  C10 UNL     1      -4.664  -1.727  -1.734  1.00  0.00     0.045 A 
HETATM   23  C11 UNL     1      -4.204  -2.779  -1.844  1.00  0.00    -0.054 A 
BRANCH  23  24
HETATM   24  C12 UNL     1      -3.767  -3.729  -1.935  1.00  0.00    -0.064 A 
HETATM   25  C13 UNL     1      -3.277  -4.740  -2.023  1.00  0.00     0.034 A 
HETATM   26  C14 UNL     1      -2.532  -3.505  -1.383  1.00  0.00     0.043 A 
ENDBRANCH  23  24
ENDBRANCH   3  21
TORSDOF 7
