REMARK  5 active torsions:
REMARK  status: ('A' for Active; 'I' for Inactive)
REMARK    1  A    between atoms: C5_5  and  C6_6 
REMARK    2  A    between atoms: N2_8  and  C7_9 
REMARK    3  A    between atoms: C8_11  and  O1_12 
REMARK    4  A    between atoms: C10_15  and  C11_16 
REMARK    5  A    between atoms: C14_19  and  O2_20 
ROOT
HETATM    1  C6  UNL     1       1.421   0.519  -0.083  1.00  0.00     0.067 C 
HETATM    2  N1  UNL     1       0.834   1.586  -0.422  1.00  0.00    -0.173 NA
HETATM    3  N2  UNL     1      -0.564   1.535  -0.248  1.00  0.00    -0.236 N 
HETATM    4  C10 UNL     1      -0.732   0.556   0.760  1.00  0.00     0.151 C 
HETATM    5  C18 UNL     1       0.379  -0.433   0.376  1.00  0.00     0.094 C 
ENDROOT
BRANCH   4   6
HETATM    6  C11 UNL     1      -1.975  -0.229   0.760  1.00  0.00    -0.033 C 
HETATM    7  C12 UNL     1      -3.093  -0.069   0.077  1.00  0.00     0.012 C 
HETATM    8  C13 UNL     1      -4.342  -0.810   0.039  1.00  0.00     0.033 C 
HETATM    9  C14 UNL     1      -4.436  -2.052   0.463  1.00  0.00     0.046 C 
HETATM   10  C15 UNL     1      -3.606  -3.120   1.049  1.00  0.00     0.091 C 
HETATM   11  C16 UNL     1      -2.499  -2.501   1.814  1.00  0.00    -0.020 C 
HETATM   12  C17 UNL     1      -1.818  -1.344   1.729  1.00  0.00     0.006 C 
BRANCH   9  13
HETATM   13  O2  UNL     1      -5.755  -2.453   0.285  1.00  0.00    -0.365 OA
HETATM   14  H11 UNL     1      -5.979  -3.308  -0.208  1.00  0.00     0.217 HD
ENDBRANCH   9  13
ENDBRANCH   4   6
BRANCH   3  15
HETATM   15  C7  UNL     1      -1.315   2.421  -1.058  1.00  0.00     0.192 A 
HETATM   16  N3  UNL     1      -1.727   3.497  -0.644  1.00  0.00    -0.198 NA
HETATM   17  C8  UNL     1      -2.430   4.330  -1.388  1.00  0.00     0.171 A 
HETATM   18  C9  UNL     1      -2.766   4.041  -2.745  1.00  0.00     0.111 A 
HETATM   19  S1  UNL     1      -1.910   2.322  -2.857  1.00  0.00    -0.058 SA
BRANCH  17  20
HETATM   20  O1  UNL     1      -2.939   5.581  -0.981  1.00  0.00    -0.344 OA
HETATM   21  H6  UNL     1      -3.896   5.691  -0.678  1.00  0.00     0.219 HD
ENDBRANCH  17  20
ENDBRANCH   3  15
BRANCH   1  22
HETATM   22  C5  UNL     1       2.835   0.142  -0.097  1.00  0.00    -0.010 A 
HETATM   23  C4  UNL     1       3.263  -1.112   0.339  1.00  0.00     0.014 A 
HETATM   24  C3  UNL     1       4.572  -1.530   0.353  1.00  0.00     0.007 A 
HETATM   25  C2  UNL     1       5.544  -0.662  -0.093  1.00  0.00    -0.062 A 
HETATM   26  C1  UNL     1       6.952  -1.124  -0.070  1.00  0.00     0.048 C 
HETATM   27  C20 UNL     1       5.190   0.609  -0.545  1.00  0.00     0.007 A 
HETATM   28  C19 UNL     1       3.858   0.950  -0.526  1.00  0.00     0.014 A 
ENDBRANCH   1  22
TORSDOF 5
