REMARK  9 active torsions:
REMARK  status: ('A' for Active; 'I' for Inactive)
REMARK    1  A    between atoms: O1_2  and  C2_3 
REMARK    2  A    between atoms: C5_6  and  C6_7 
REMARK    3  A    between atoms: C6_7  and  C7_8 
REMARK    4  A    between atoms: C7_8  and  C8_9 
REMARK    5  A    between atoms: C8_9  and  N1_10 
REMARK    6  A    between atoms: N1_10  and  C9_11 
REMARK    7  A    between atoms: N1_10  and  C12_17 
REMARK    8  A    between atoms: C9_11  and  S1_12 
REMARK    9  A    between atoms: S1_12  and  C10_13 
ROOT
HETATM    1  N1  UNL     1      -1.504  -0.445   0.331  1.00  0.00    -0.372 N 
ENDROOT
BRANCH   1   2
HETATM    2  C8  UNL     1      -0.233  -1.054  -0.001  1.00  0.00     0.124 C 
BRANCH   2   3
HETATM    3  C7  UNL     1       0.516  -1.580   1.205  1.00  0.00     0.024 C 
BRANCH   3   4
HETATM    4  C6  UNL     1       1.834  -2.207   0.798  1.00  0.00     0.040 C 
BRANCH   4   5
HETATM    5  C5  UNL     1       2.724  -1.249   0.115  1.00  0.00    -0.058 A 
HETATM    6  C4  UNL     1       2.737  -1.043  -1.244  1.00  0.00     0.010 A 
HETATM    7  C3  UNL     1       3.604  -0.132  -1.830  1.00  0.00     0.037 A 
HETATM    8  C2  UNL     1       4.475   0.586  -1.027  1.00  0.00     0.068 A 
HETATM    9  C20 UNL     1       4.470   0.390   0.324  1.00  0.00     0.037 A 
HETATM   10  C19 UNL     1       3.593  -0.529   0.898  1.00  0.00     0.010 A 
BRANCH   8  11
HETATM   11  O1  UNL     1       5.330   1.492  -1.657  1.00  0.00    -0.356 OA
HETATM   12  C1  UNL     1       6.246   2.256  -0.882  1.00  0.00     0.210 C 
ENDBRANCH   8  11
ENDBRANCH   4   5
ENDBRANCH   3   4
ENDBRANCH   2   3
ENDBRANCH   1   2
BRANCH   1  13
HETATM   13  C9  UNL     1      -2.333  -1.534   0.765  1.00  0.00     0.201 C 
BRANCH  13  14
HETATM   14  S1  UNL     1      -2.475  -2.841  -0.486  1.00  0.00    -0.117 SA
BRANCH  14  15
HETATM   15  C10 UNL     1      -3.491  -4.124   0.226  1.00  0.00     0.106 C 
HETATM   16  C11 UNL     1      -4.711  -4.472  -0.138  1.00  0.00     0.196 A 
HETATM   17  N2  UNL     1      -5.767  -5.364   0.150  1.00  0.00    -0.235 N 
HETATM   18  O2  UNL     1      -5.925  -4.463  -0.863  1.00  0.00    -0.215 OA
HETATM   19  H15 UNL     1      -6.400  -6.086   0.516  1.00  0.00     0.197 HD
ENDBRANCH  14  15
ENDBRANCH  13  14
ENDBRANCH   1  13
BRANCH   1  20
HETATM   20  C12 UNL     1      -1.853   0.933   0.250  1.00  0.00     0.030 A 
HETATM   21  C13 UNL     1      -3.071   1.451   0.581  1.00  0.00     0.030 A 
HETATM   22  C14 UNL     1      -3.366   2.779   0.490  1.00  0.00     0.009 A 
HETATM   23  C15 UNL     1      -2.426   3.704   0.046  1.00  0.00    -0.062 A 
HETATM   24  C16 UNL     1      -2.753   5.141  -0.050  1.00  0.00     0.048 C 
HETATM   25  C17 UNL     1      -1.194   3.184  -0.290  1.00  0.00     0.009 A 
HETATM   26  C18 UNL     1      -0.926   1.836  -0.187  1.00  0.00     0.030 A 
ENDBRANCH   1  20
TORSDOF 9
