REMARK  5 active torsions:
REMARK  status: ('A' for Active; 'I' for Inactive)
REMARK    1  A    between atoms: B1_1  and  O1_2 
REMARK    2  A    between atoms: O1_2  and  C1_3 
REMARK    3  A    between atoms: C4_6  and  C5_7 
REMARK    4  A    between atoms: N3_18  and  C14_19 
REMARK    5  A    between atoms: C15_21  and  O2_22 
ROOT
HETATM    1  C5  UNL     1      -0.593  -0.957   0.734  1.00  0.00     0.160 C 
HETATM    2  C6  UNL     1      -1.174  -1.638  -0.351  1.00  0.00     0.147 C 
HETATM    3  N1  UNL     1      -1.615  -2.475  -1.375  1.00  0.00    -0.403 N 
HETATM    4  C7  UNL     1      -2.742  -1.548  -1.936  1.00  0.00     0.081 A 
HETATM    5  C8  UNL     1      -3.654  -2.090  -1.096  1.00  0.00     0.007 A 
HETATM    6  C9  UNL     1      -4.333  -0.902  -0.773  1.00  0.00    -0.006 A 
HETATM    7  C10 UNL     1      -3.460  -0.260  -1.607  1.00  0.00     0.062 A 
HETATM    8  C11 UNL     1      -2.586   0.343  -2.434  1.00  0.00    -0.006 A 
HETATM    9  C12 UNL     1      -1.892  -0.831  -2.764  1.00  0.00     0.007 A 
HETATM   10  C13 UNL     1      -3.549   0.815  -0.546  1.00  0.00     0.318 C 
HETATM   11  N2  UNL     1      -2.643   0.998   0.281  1.00  0.00    -0.331 NA
HETATM   12  N3  UNL     1      -1.361   0.395   0.555  1.00  0.00    -0.268 N 
HETATM   13  H8  UNL     1      -1.104  -3.381  -1.444  1.00  0.00     0.154 HD
ENDROOT
BRANCH   1  14
HETATM   14  C4  UNL     1       0.848  -0.719   0.719  1.00  0.00    -0.032 A 
HETATM   15  C3  UNL     1       1.477  -1.462  -0.304  1.00  0.00     0.012 A 
HETATM   16  C2  UNL     1       2.854  -1.385  -0.458  1.00  0.00     0.035 A 
HETATM   17  C1  UNL     1       3.669  -0.598   0.357  1.00  0.00     0.049 A 
HETATM   18  C18 UNL     1       3.006   0.102   1.331  1.00  0.00     0.035 A 
HETATM   19  C17 UNL     1       1.648   0.050   1.514  1.00  0.00     0.012 A 
BRANCH  17  20
HETATM   20  O1  UNL     1       5.039  -0.470   0.264  1.00  0.00    -0.428 OA
BRANCH  20  21
HETATM   21  B1  UNL     1       6.000  -0.639   1.343  1.00  0.00     0.300 B 
HETATM   22  H1  UNL     1       6.986  -1.288   1.207  1.00  0.00     0.002 HD
HETATM   23  H2  UNL     1       5.754  -0.224   2.421  1.00  0.00     0.002 HD
ENDBRANCH  20  21
ENDBRANCH  17  20
ENDBRANCH   1  14
BRANCH  12  24
HETATM   24  C14 UNL     1      -0.624   1.651   0.678  1.00  0.00     0.190 A 
HETATM   25  N4  UNL     1       0.073   2.105  -0.085  1.00  0.00    -0.198 NA
HETATM   26  C15 UNL     1       0.799   3.187  -0.166  1.00  0.00     0.171 A 
HETATM   27  C16 UNL     1       0.653   3.992   1.051  1.00  0.00     0.111 A 
HETATM   28  S1  UNL     1      -0.559   2.957   2.089  1.00  0.00    -0.058 SA
BRANCH  26  29
HETATM   29  O2  UNL     1       1.676   4.110  -0.713  1.00  0.00    -0.344 OA
HETATM   30  H14 UNL     1       2.126   4.019  -1.594  1.00  0.00     0.219 HD
ENDBRANCH  26  29
ENDBRANCH  12  24
TORSDOF 5
