REMARK  3 active torsions:
REMARK  status: ('A' for Active; 'I' for Inactive)
REMARK    1  A    between atoms: C8_10  and  O1_11 
REMARK    2  A    between atoms: N2_13  and  N3_14 
REMARK    3  A    between atoms: C10_15  and  C11_16 
ROOT
HETATM    1  C1  UNL     1       0.454  -2.493   1.711  1.00  0.00     0.070 C 
HETATM    2  C2  UNL     1      -0.513  -1.408   1.713  1.00  0.00     0.028 C 
HETATM    3  C3  UNL     1      -1.373  -0.802   2.508  1.00  0.00     0.026 C 
HETATM    4  C4  UNL     1      -2.380   0.058   3.101  1.00  0.00    -0.002 C 
HETATM    5  C5  UNL     1      -3.114   1.070   2.659  1.00  0.00    -0.020 C 
HETATM    6  C6  UNL     1      -3.776   2.126   1.931  1.00  0.00     0.093 C 
HETATM    7  C7  UNL     1      -3.457   2.327   0.512  1.00  0.00     0.071 A 
HETATM    8  S1  UNL     1      -3.683   3.425  -0.867  1.00  0.00    -0.079 SA
HETATM    9  N1  UNL     1      -2.937   1.982  -0.654  1.00  0.00    -0.271 N 
HETATM   10  C8  UNL     1      -2.291   0.662  -0.603  1.00  0.00     0.156 C 
HETATM   11  C9  UNL     1      -1.437  -0.299  -0.281  1.00  0.00     0.218 C 
HETATM   12  N2  UNL     1      -0.318  -0.958   0.336  1.00  0.00    -0.259 N 
HETATM   13  H9  UNL     1      -4.917   4.096  -0.831  1.00  0.00     0.120 HD
ENDROOT
BRANCH  12  14
HETATM   14  N3  UNL     1       0.701  -0.984  -0.586  1.00  0.00    -0.183 NA
HETATM   15  C10 UNL     1       1.841  -0.421  -0.458  1.00  0.00     0.152 C 
BRANCH  15  16
HETATM   16  C11 UNL     1       2.896  -0.473  -1.461  1.00  0.00     0.005 A 
HETATM   17  C12 UNL     1       2.713  -1.127  -2.593  1.00  0.00     0.147 A 
HETATM   18  O2  UNL     1       3.665  -1.226  -3.600  1.00  0.00    -0.358 OA
HETATM   19  C13 UNL     1       4.939  -0.594  -3.480  1.00  0.00     0.202 A 
HETATM   20  C14 UNL     1       5.037   0.112  -2.167  1.00  0.00     0.000 A 
HETATM   21  C15 UNL     1       4.157   0.209  -1.210  1.00  0.00     0.013 A 
ENDBRANCH  15  16
ENDBRANCH  12  14
BRANCH  10  22
HETATM   22  O1  UNL     1      -2.776  -0.426  -1.319  1.00  0.00    -0.347 OA
HETATM   23  H10 UNL     1      -3.486  -0.363  -2.035  1.00  0.00     0.219 HD
ENDBRANCH  10  22
TORSDOF 3
