REMARK  7 active torsions:
REMARK  status: ('A' for Active; 'I' for Inactive)
REMARK    1  A    between atoms: O1_1  and  C1_2 
REMARK    2  A    between atoms: C3_5  and  O2_6 
REMARK    3  A    between atoms: O2_6  and  C4_7 
REMARK    4  A    between atoms: C5_8  and  C6_9 
REMARK    5  A    between atoms: C7_10  and  C8_11 
REMARK    6  A    between atoms: C9_12  and  C10_13 
REMARK    7  A    between atoms: C12_15  and  C13_16 
ROOT
HETATM    1  C6  UNL     1       2.001  -0.148   1.172  1.00  0.00     0.002 C 
HETATM    2  C7  UNL     1       0.774   0.090   0.734  1.00  0.00    -0.000 C 
ENDROOT
BRANCH   2   3
HETATM    3  C8  UNL     1       0.323  -0.248  -0.609  1.00  0.00    -0.002 C 
HETATM    4  C9  UNL     1      -0.939   0.025  -0.980  1.00  0.00     0.000 C 
BRANCH   4   5
HETATM    5  C10 UNL     1      -1.854   0.684   0.033  1.00  0.00     0.136 A 
HETATM    6  C11 UNL     1      -3.234   0.795  -0.458  1.00  0.00     0.086 A 
HETATM    7  C12 UNL     1      -3.478  -0.192   0.552  1.00  0.00     0.021 A 
HETATM    8  N1  UNL     1      -2.307  -0.263   0.942  1.00  0.00    -0.288 NA
BRANCH   7   9
HETATM    9  C13 UNL     1      -4.828  -0.774   0.823  1.00  0.00     0.082 A 
HETATM   10  C14 UNL     1      -5.692   0.374   1.204  1.00  0.00     0.012 A 
HETATM   11  C15 UNL     1      -6.773   0.792   0.562  1.00  0.00     0.138 A 
HETATM   12  O3  UNL     1      -7.209   0.153  -0.586  1.00  0.00    -0.335 OA
HETATM   13  C16 UNL     1      -6.463  -0.939  -1.027  1.00  0.00     0.138 A 
HETATM   14  C17 UNL     1      -5.371  -1.395  -0.414  1.00  0.00     0.012 A 
ENDBRANCH   7   9
ENDBRANCH   4   5
ENDBRANCH   2   3
BRANCH   1  15
HETATM   15  C5  UNL     1       2.991  -0.779   0.307  1.00  0.00     0.025 C 
HETATM   16  C4  UNL     1       4.232  -1.021   0.746  1.00  0.00     0.145 C 
BRANCH  16  17
HETATM   17  O2  UNL     1       5.256  -1.612   0.020  1.00  0.00    -0.298 OA
BRANCH  17  18
HETATM   18  C3  UNL     1       6.218  -0.739  -0.496  1.00  0.00     0.215 A 
HETATM   19  S1  UNL     1       7.543  -1.486  -1.433  1.00  0.00    -0.052 SA
HETATM   20  C2  UNL     1       8.386   0.163  -1.784  1.00  0.00     0.111 A 
HETATM   21  C1  UNL     1       7.476   1.006  -1.103  1.00  0.00     0.171 A 
HETATM   22  N2  UNL     1       6.401   0.534  -0.468  1.00  0.00    -0.193 NA
BRANCH  21  23
HETATM   23  O1  UNL     1       7.513   2.412  -0.965  1.00  0.00    -0.344 OA
HETATM   24  H1  UNL     1       7.791   2.861  -0.124  1.00  0.00     0.219 HD
ENDBRANCH  21  23
ENDBRANCH  17  18
ENDBRANCH  16  17
ENDBRANCH   1  15
TORSDOF 7
