REMARK  3 active torsions:
REMARK  status: ('A' for Active; 'I' for Inactive)
REMARK    1  A    between atoms: O1_1  and  C1_2 
REMARK    2  A    between atoms: C3_5  and  N1_6 
REMARK    3  A    between atoms: C11_16  and  C12_17 
ROOT
HETATM    1  N1  UNL     1      -0.329   0.889  -0.097  1.00  0.00    -0.280 N 
HETATM    2  N2  UNL     1      -0.740  -0.144   0.727  1.00  0.00    -0.218 NA
HETATM    3  C4  UNL     1      -0.799  -1.328  -0.120  1.00  0.00     0.069 C 
HETATM    4  C5  UNL     1      -2.120  -1.499  -0.712  1.00  0.00     0.002 C 
HETATM    5  C6  UNL     1      -3.104  -2.387  -0.635  1.00  0.00    -0.002 C 
HETATM    6  C7  UNL     1      -3.154  -3.621   0.178  1.00  0.00     0.201 C 
HETATM    7  O2  UNL     1      -1.904  -4.212   0.341  1.00  0.00    -0.360 OA
HETATM    8  C8  UNL     1      -0.756  -3.661   0.855  1.00  0.00     0.133 C 
HETATM    9  C9  UNL     1      -0.273  -2.437   0.668  1.00  0.00     0.028 C 
HETATM   10  C10 UNL     1       0.181  -1.043  -1.256  1.00  0.00     0.067 C 
HETATM   11  C11 UNL     1       0.726   0.310  -0.905  1.00  0.00     0.140 C 
HETATM   12  H3  UNL     1      -0.073  -0.257   1.527  1.00  0.00     0.148 HD
ENDROOT
BRANCH   1  13
HETATM   13  C3  UNL     1      -0.677   2.373  -0.362  1.00  0.00     0.186 A 
HETATM   14  S1  UNL     1      -0.051   3.631  -1.504  1.00  0.00    -0.058 SA
HETATM   15  C2  UNL     1      -1.175   4.951  -0.930  1.00  0.00     0.111 A 
HETATM   16  C1  UNL     1      -1.870   4.211   0.067  1.00  0.00     0.171 A 
HETATM   17  N3  UNL     1      -1.792   2.949   0.510  1.00  0.00    -0.199 NA
BRANCH  16  18
HETATM   18  O1  UNL     1      -2.908   4.701   0.898  1.00  0.00    -0.344 OA
HETATM   19  H1  UNL     1      -2.712   5.151   1.767  1.00  0.00     0.219 HD
ENDBRANCH  16  18
ENDBRANCH   1  13
BRANCH  11  20
HETATM   20  C12 UNL     1       1.990   0.183  -0.185  1.00  0.00    -0.034 A 
HETATM   21  C13 UNL     1       2.966  -0.780  -0.059  1.00  0.00     0.009 A 
HETATM   22  C14 UNL     1       4.082  -0.600   0.726  1.00  0.00     0.001 A 
HETATM   23  C15 UNL     1       4.295   0.560   1.440  1.00  0.00     0.000 A 
HETATM   24  C16 UNL     1       3.343   1.551   1.344  1.00  0.00     0.001 A 
HETATM   25  C17 UNL     1       2.211   1.360   0.543  1.00  0.00     0.009 A 
ENDBRANCH  11  20
TORSDOF 3
