REMARK  1 active torsions:
REMARK  status: ('A' for Active; 'I' for Inactive)
REMARK    1  A    between atoms: C18_22  and  O2_23 
ROOT
HETATM    1  C1  UNL     1       4.541   1.222  -0.015  1.00  0.00     0.037 C 
HETATM    2  C2  UNL     1       3.914  -0.073   0.257  1.00  0.00    -0.018 C 
HETATM    3  C3  UNL     1       2.873  -0.793  -0.016  1.00  0.00    -0.005 C 
HETATM    4  C4  UNL     1       2.555  -2.116   0.458  1.00  0.00     0.011 C 
HETATM    5  C5  UNL     1       1.525  -2.866   0.175  1.00  0.00     0.000 C 
HETATM    6  C6  UNL     1       0.344  -2.621  -0.730  1.00  0.00     0.195 C 
HETATM    7  O1  UNL     1      -0.820  -2.614  -0.353  1.00  0.00    -0.385 OA
HETATM    8  C7  UNL     1      -1.977  -2.595   0.031  1.00  0.00     0.213 C 
HETATM    9  C8  UNL     1      -2.751  -1.268  -0.084  1.00  0.00     0.227 A 
HETATM   10  C9  UNL     1      -3.340  -0.106  -0.211  1.00  0.00     0.262 A 
HETATM   11  C10 UNL     1      -3.750   1.247  -0.430  1.00  0.00     0.009 C 
HETATM   12  C11 UNL     1      -3.149   2.350  -0.715  1.00  0.00    -0.002 C 
HETATM   13  C12 UNL     1      -1.841   2.885  -0.922  1.00  0.00    -0.000 C 
HETATM   14  C13 UNL     1      -0.570   2.573  -0.881  1.00  0.00     0.030 C 
HETATM   15  C14 UNL     1       0.824   2.152  -0.813  1.00  0.00     0.361 A 
HETATM   16  C15 UNL     1       1.368   1.104  -1.671  1.00  0.00     0.366 A 
HETATM   17  C16 UNL     1       2.126   0.136  -0.845  1.00  0.00     0.183 A 
HETATM   18  N1  UNL     1       1.977   1.296  -0.338  1.00  0.00     0.085 N 
HETATM   19  N2  UNL     1       0.951   1.449   0.542  1.00  0.00    -0.134 N 
HETATM   20  S1  UNL     1      -0.063   1.287   2.039  1.00  0.00     0.007 SA
HETATM   21  C17 UNL     1      -1.540   0.365   1.666  1.00  0.00     0.133 C 
HETATM   22  C18 UNL     1      -2.203  -0.814   1.651  1.00  0.00     0.249 C 
HETATM   23  N3  UNL     1      -3.599  -0.979   1.128  1.00  0.00     0.006 N 
HETATM   24  H21 UNL     1      -4.010  -0.751   2.102  1.00  0.00     0.291 HD
ENDROOT
BRANCH  22  25
HETATM   25  O2  UNL     1      -0.966  -1.138   2.206  1.00  0.00    -0.340 OA
HETATM   26  H20 UNL     1      -0.920  -1.725   3.029  1.00  0.00     0.219 HD
ENDBRANCH  22  25
TORSDOF 1
