REMARK  3 active torsions:
REMARK  status: ('A' for Active; 'I' for Inactive)
REMARK    1  A    between atoms: O1_2  and  C2_3 
REMARK    2  A    between atoms: N1_8  and  C7_9 
REMARK    3  A    between atoms: C8_11  and  O2_12 
ROOT
HETATM    1  C2  UNL     1      -3.002  -0.882  -0.324  1.00  0.00     0.177 C 
HETATM    2  C3  UNL     1      -1.742  -1.775  -0.387  1.00  0.00     0.013 C 
HETATM    3  C4  UNL     1      -0.434  -1.821   0.082  1.00  0.00    -0.067 C 
HETATM    4  C5  UNL     1       0.401  -2.994  -0.324  1.00  0.00     0.045 C 
HETATM    5  C6  UNL     1       0.246  -0.915   0.999  1.00  0.00     0.159 C 
HETATM    6  N1  UNL     1       1.321  -0.076   0.450  1.00  0.00    -0.347 N 
HETATM    7  C10 UNL     1       1.094   1.089  -0.491  1.00  0.00     0.116 C 
HETATM    8  C11 UNL     1       0.977   0.496  -1.860  1.00  0.00     0.037 C 
HETATM    9  C12 UNL     1      -0.223   1.670  -0.053  1.00  0.00    -0.029 A 
HETATM   10  C13 UNL     1      -1.121   0.654  -0.287  1.00  0.00     0.019 A 
HETATM   11  C14 UNL     1      -2.455   0.478   0.006  1.00  0.00    -0.025 A 
HETATM   12  C15 UNL     1      -2.926   1.595   0.653  1.00  0.00     0.010 A 
HETATM   13  C16 UNL     1      -2.110   2.662   0.921  1.00  0.00     0.008 A 
HETATM   14  C17 UNL     1      -0.779   2.740   0.594  1.00  0.00    -0.054 A 
HETATM   15  C18 UNL     1       0.285   3.736   0.769  1.00  0.00     0.049 C 
ENDROOT
BRANCH   6  16
HETATM   16  C7  UNL     1       2.729  -0.286   0.751  1.00  0.00     0.172 A 
HETATM   17  N2  UNL     1       3.749   0.127   0.530  1.00  0.00    -0.200 NA
HETATM   18  C8  UNL     1       4.944  -0.249   0.937  1.00  0.00     0.171 A 
HETATM   19  C9  UNL     1       4.937  -1.336   1.780  1.00  0.00     0.111 A 
HETATM   20  S1  UNL     1       3.101  -1.730   1.908  1.00  0.00    -0.060 SA
BRANCH  18  21
HETATM   21  O2  UNL     1       6.047   0.495   0.467  1.00  0.00    -0.344 OA
HETATM   22  H11 UNL     1       6.879   0.610   1.017  1.00  0.00     0.219 HD
ENDBRANCH  18  21
ENDBRANCH   6  16
BRANCH   1  23
HETATM   23  O1  UNL     1      -3.533  -0.857  -1.581  1.00  0.00    -0.382 OA
HETATM   24  C1  UNL     1      -4.820  -1.333  -1.667  1.00  0.00     0.202 C 
ENDBRANCH   1  23
TORSDOF 3
