REMARK  4 active torsions:
REMARK  status: ('A' for Active; 'I' for Inactive)
REMARK    1  A    between atoms: C15_19  and  C16_20 
REMARK    2  A    between atoms: C16_20  and  O4_21 
REMARK    3  A    between atoms: O4_21  and  C17_22 
REMARK    4  A    between atoms: C17_22  and  C18_23 
ROOT
HETATM    1  O1  UNL     1       5.900  -0.496   1.510  1.00  0.00    -0.194 OA
HETATM    2  C1  UNL     1       5.263   0.491   0.945  1.00  0.00     0.119 A 
HETATM    3  C2  UNL     1       5.800   1.955   0.731  1.00  0.00     0.089 A 
HETATM    4  C3  UNL     1       7.242   2.032   1.318  1.00  0.00     0.077 A 
HETATM    5  S1  UNL     1       6.360   2.954   0.668  1.00  0.00    -0.184 SA
HETATM    6  C4  UNL     1       5.602   3.706   0.122  1.00  0.00    -0.025 A 
HETATM    7  C5  UNL     1       4.894   4.373  -0.378  1.00  0.00     0.063 A 
HETATM    8  C6  UNL     1       4.653   2.893  -0.035  1.00  0.00     0.099 A 
HETATM    9  C7  UNL     1       3.309   2.118  -0.370  1.00  0.00     0.206 A 
HETATM   10  O2  UNL     1       2.444   2.808  -0.942  1.00  0.00    -0.288 OA
HETATM   11  C8  UNL     1       3.074   0.740  -0.055  1.00  0.00     0.136 A 
HETATM   12  O3  UNL     1       2.003   0.125  -0.323  1.00  0.00    -0.305 OA
HETATM   13  C9  UNL     1       2.067  -1.100   0.072  1.00  0.00     0.088 A 
HETATM   14  C10 UNL     1       1.004  -2.051  -0.093  1.00  0.00     0.006 A 
HETATM   15  C11 UNL     1       1.289  -3.304   0.401  1.00  0.00     0.015 A 
HETATM   16  C12 UNL     1       0.361  -4.312   0.314  1.00  0.00     0.001 A 
HETATM   17  C13 UNL     1      -0.860  -4.059  -0.272  1.00  0.00     0.001 A 
HETATM   18  C14 UNL     1      -1.075  -2.786  -0.743  1.00  0.00     0.010 A 
HETATM   19  C15 UNL     1      -0.203  -1.721  -0.696  1.00  0.00    -0.022 A 
HETATM   20  C23 UNL     1       3.299  -1.255   0.639  1.00  0.00     0.055 A 
HETATM   21  C24 UNL     1       3.940  -0.103   0.564  1.00  0.00     0.038 A 
ENDROOT
BRANCH  19  22
HETATM   22  C16 UNL     1      -0.450  -0.364  -1.229  1.00  0.00     0.207 C 
BRANCH  22  23
HETATM   23  O4  UNL     1      -0.640   0.617  -0.321  1.00  0.00    -0.385 OA
BRANCH  23  24
HETATM   24  C17 UNL     1      -1.677   0.606   0.538  1.00  0.00     0.203 C 
BRANCH  24  25
HETATM   25  C18 UNL     1      -3.054   0.705  -0.014  1.00  0.00     0.244 C 
HETATM   26  C19 UNL     1      -4.066   0.818   1.136  1.00  0.00     0.038 C 
HETATM   27  C20 UNL     1      -5.435   0.381   0.604  1.00  0.00     0.004 C 
HETATM   28  C21 UNL     1      -5.546   0.948  -0.802  1.00  0.00     0.030 C 
HETATM   29  C22 UNL     1      -4.592   0.164  -1.696  1.00  0.00     0.270 C 
HETATM   30  N1  UNL     1      -3.461  -0.325  -0.917  1.00  0.00     0.090 N 
HETATM   31  H20 UNL     1      -3.741  -1.194  -0.404  1.00  0.00     0.316 HD
ENDBRANCH  24  25
ENDBRANCH  23  24
ENDBRANCH  22  23
ENDBRANCH  19  22
TORSDOF 4
