REMARK  4 active torsions:
REMARK  status: ('A' for Active; 'I' for Inactive)
REMARK    1  A    between atoms: O1_2  and  C2_3 
REMARK    2  A    between atoms: C14_15  and  N1_16 
REMARK    3  A    between atoms: N1_16  and  S1_17 
REMARK    4  A    between atoms: C15_19  and  O2_20 
ROOT
HETATM    1  C2  UNL     1      -3.860   1.877   0.330  1.00  0.00     0.069 A 
HETATM    2  C3  UNL     1      -3.189   2.390   1.418  1.00  0.00     0.037 A 
HETATM    3  C4  UNL     1      -1.921   2.009   1.799  1.00  0.00     0.017 A 
HETATM    4  C5  UNL     1      -1.338   1.052   1.005  1.00  0.00    -0.001 A 
HETATM    5  C6  UNL     1      -2.033   0.561  -0.075  1.00  0.00    -0.022 A 
HETATM    6  C7  UNL     1      -3.285   0.919  -0.474  1.00  0.00     0.049 A 
HETATM    7  C8  UNL     1      -1.313  -0.418  -0.859  1.00  0.00     0.009 C 
HETATM    8  C9  UNL     1      -0.647  -1.529  -0.991  1.00  0.00    -0.022 C 
HETATM    9  C10 UNL     1       0.101  -2.739  -1.248  1.00  0.00     0.054 C 
HETATM   10  C11 UNL     1       1.374  -2.845  -0.502  1.00  0.00    -0.022 C 
HETATM   11  C12 UNL     1       1.952  -2.034   0.375  1.00  0.00     0.007 C 
HETATM   12  C13 UNL     1       1.679  -0.752   1.007  1.00  0.00    -0.006 C 
HETATM   13  C14 UNL     1       2.145   0.509   0.862  1.00  0.00     0.141 C 
HETATM   14  N3  UNL     1       1.003   1.373   1.128  1.00  0.00    -0.234 NA
HETATM   15  C16 UNL     1      -0.014   0.620   1.398  1.00  0.00     0.052 C 
HETATM   16  C17 UNL     1       0.673  -0.537   2.090  1.00  0.00     0.102 C 
ENDROOT
BRANCH  13  17
HETATM   17  N1  UNL     1       3.500   0.790   0.504  1.00  0.00    -0.307 N 
HETATM   18  H13 UNL     1       3.993   1.541   1.050  1.00  0.00     0.176 HD
BRANCH  17  19
HETATM   19  S1  UNL     1       4.173  -0.039  -0.687  1.00  0.00     0.015 SA
HETATM   20  N2  UNL     1       5.115  -0.678  -1.615  1.00  0.00    -0.123 NA
HETATM   21  C15 UNL     1       6.011  -0.049  -0.736  1.00  0.00     0.310 A 
BRANCH  21  22
HETATM   22  O2  UNL     1       6.579  -0.707   0.334  1.00  0.00    -0.368 OA
HETATM   23  H15 UNL     1       6.567  -1.677   0.136  1.00  0.00     0.212 HD
ENDBRANCH  21  22
ENDBRANCH  17  19
ENDBRANCH  13  17
BRANCH   1  24
HETATM   24  O1  UNL     1      -5.128   2.332   0.042  1.00  0.00    -0.356 OA
HETATM   25  C1  UNL     1      -5.825   1.829  -1.052  1.00  0.00     0.210 C 
ENDBRANCH   1  24
TORSDOF 4
