REMARK  3 active torsions:
REMARK  status: ('A' for Active; 'I' for Inactive)
REMARK    1  A    between atoms: C5_6  and  O1_7 
REMARK    2  A    between atoms: N2_13  and  N3_14 
REMARK    3  A    between atoms: N3_14  and  C10_15 
ROOT
HETATM    1  C1  UNL     1       1.260  -0.721  -1.422  1.00  0.00     0.046 C 
HETATM    2  C2  UNL     1       0.975  -0.207  -0.251  1.00  0.00     0.059 A 
HETATM    3  C3  UNL     1       2.009   0.347   0.608  1.00  0.00     0.028 A 
HETATM    4  C4  UNL     1       3.344   0.286   0.079  1.00  0.00     0.113 A 
HETATM    5  N1  UNL     1       3.931  -0.105  -0.922  1.00  0.00    -0.216 NA
HETATM    6  C5  UNL     1       5.249   0.020  -1.052  1.00  0.00     0.169 A 
HETATM    7  C6  UNL     1       6.053   0.649   0.034  1.00  0.00     0.109 A 
HETATM    8  S1  UNL     1       4.679   1.012   1.213  1.00  0.00    -0.077 SA
HETATM    9  C7  UNL     1       1.618   0.837   1.762  1.00  0.00     0.018 A 
HETATM   10  C8  UNL     1       0.221   0.837   2.181  1.00  0.00     0.020 A 
HETATM   11  C9  UNL     1      -0.713   0.335   1.400  1.00  0.00     0.116 A 
HETATM   12  N2  UNL     1      -0.390  -0.222   0.128  1.00  0.00    -0.267 N 
ENDROOT
BRANCH  12  13
HETATM   13  N3  UNL     1      -1.429  -0.733  -0.641  1.00  0.00    -0.292 N 
HETATM   14  H8  UNL     1      -1.430  -1.467  -1.373  1.00  0.00     0.187 HD
BRANCH  13  15
HETATM   15  C10 UNL     1      -2.752  -0.243  -0.483  1.00  0.00     0.070 A 
HETATM   16  C11 UNL     1      -3.336   0.736  -1.159  1.00  0.00     0.165 A 
HETATM   17  O2  UNL     1      -4.639   1.143  -0.928  1.00  0.00    -0.357 OA
HETATM   18  C12 UNL     1      -5.461   0.541   0.058  1.00  0.00     0.202 A 
HETATM   19  C13 UNL     1      -4.777  -0.544   0.788  1.00  0.00     0.002 A 
HETATM   20  C14 UNL     1      -3.528  -0.925   0.559  1.00  0.00     0.031 A 
ENDBRANCH  13  15
ENDBRANCH  12  13
BRANCH   6  21
HETATM   21  O1  UNL     1       5.739  -0.489  -2.274  1.00  0.00    -0.344 OA
HETATM   22  H3  UNL     1       6.614  -0.966  -2.344  1.00  0.00     0.219 HD
ENDBRANCH   6  21
TORSDOF 3
