REMARK  5 active torsions:
REMARK  status: ('A' for Active; 'I' for Inactive)
REMARK    1  A    between atoms: C2_2  and  C3_3 
REMARK    2  A    between atoms: C4_4  and  C5_5 
REMARK    3  A    between atoms: C4_4  and  O2_22 
REMARK    4  A    between atoms: N2_17  and  C16_18 
REMARK    5  A    between atoms: C16_18  and  O1_19 
ROOT
HETATM    1  C5  UNL     1       0.796  -0.391  -0.381  1.00  0.00     0.050 C 
HETATM    2  C6  UNL     1      -0.390  -0.537   0.048  1.00  0.00    -0.001 C 
HETATM    3  C7  UNL     1      -1.233  -1.717   0.281  1.00  0.00    -0.050 C 
HETATM    4  C8  UNL     1      -0.486  -2.891  -0.154  1.00  0.00     0.049 C 
HETATM    5  C9  UNL     1      -2.480  -1.916   0.742  1.00  0.00     0.007 C 
HETATM    6  C10 UNL     1      -3.701  -1.245   1.244  1.00  0.00     0.001 C 
HETATM    7  C11 UNL     1      -4.282  -0.083   1.459  1.00  0.00     0.002 C 
HETATM    8  C12 UNL     1      -3.978   1.312   1.223  1.00  0.00     0.027 C 
HETATM    9  C13 UNL     1      -2.928   1.329   0.413  1.00  0.00     0.040 C 
HETATM   10  C14 UNL     1      -1.864   0.780  -0.442  1.00  0.00     0.121 C 
HETATM   11  C15 UNL     1      -0.680   0.923   0.250  1.00  0.00     0.071 C 
HETATM   12  N1  UNL     1      -0.773   2.138   0.492  1.00  0.00    -0.172 NA
HETATM   13  N2  UNL     1      -2.136   2.556   0.620  1.00  0.00    -0.227 N 
ENDROOT
BRANCH   1  14
HETATM   14  C4  UNL     1       1.989  -1.036  -0.862  1.00  0.00     0.065 C 
HETATM   15  C3  UNL     1       3.139  -0.676  -1.404  1.00  0.00     0.009 C 
BRANCH  15  16
HETATM   16  C2  UNL     1       4.423  -1.098  -1.942  1.00  0.00     0.025 C 
HETATM   17  C1  UNL     1       5.557  -0.484  -1.144  1.00  0.00     0.009 C 
ENDBRANCH  15  16
BRANCH  14  18
HETATM   18  O2  UNL     1       2.375  -2.361  -0.917  1.00  0.00    -0.356 OA
HETATM   19  C18 UNL     1       3.095  -3.036   0.083  1.00  0.00     0.210 C 
ENDBRANCH  14  18
ENDBRANCH   1  14
BRANCH  13  20
HETATM   20  C16 UNL     1      -2.457   3.981   0.943  1.00  0.00     0.214 A 
HETATM   21  C17 UNL     1      -1.310   4.924   1.077  1.00  0.00     0.154 A 
HETATM   22  S1  UNL     1      -2.062   4.505   2.657  1.00  0.00    -0.101 SA
BRANCH  20  23
HETATM   23  O1  UNL     1      -3.680   4.435   0.531  1.00  0.00    -0.360 OA
HETATM   24  H17 UNL     1      -3.894   4.125  -0.393  1.00  0.00     0.213 HD
ENDBRANCH  20  23
ENDBRANCH  13  20
TORSDOF 5
