REMARK  6 active torsions:
REMARK  status: ('A' for Active; 'I' for Inactive)
REMARK    1  A    between atoms: C3_3  and  C4_4 
REMARK    2  A    between atoms: C4_4  and  C5_5 
REMARK    3  A    between atoms: C5_5  and  C6_6 
REMARK    4  A    between atoms: C6_6  and  O1_7 
REMARK    5  A    between atoms: C6_6  and  N1_14 
REMARK    6  A    between atoms: O1_7  and  C7_8 
ROOT
HETATM    1  C6  UNL     1       0.145  -0.516   1.403  1.00  0.00     0.250 C 
ENDROOT
BRANCH   1   2
HETATM    2  C5  UNL     1       0.805   0.518   0.505  1.00  0.00     0.060 C 
BRANCH   2   3
HETATM    3  C4  UNL     1       1.548  -0.324  -0.525  1.00  0.00     0.042 C 
BRANCH   3   4
HETATM    4  C3  UNL     1       2.257   0.496  -1.494  1.00  0.00    -0.058 A 
HETATM    5  C2  UNL     1       3.285   1.410  -0.993  1.00  0.00     0.031 A 
HETATM    6  C1  UNL     1       3.946   2.173  -1.868  1.00  0.00     0.135 A 
HETATM    7  O3  UNL     1       3.764   2.199  -3.239  1.00  0.00    -0.359 OA
HETATM    8  C17 UNL     1       2.811   1.362  -3.818  1.00  0.00     0.202 A 
HETATM    9  C16 UNL     1       2.094   0.532  -2.823  1.00  0.00     0.007 A 
ENDBRANCH   3   4
ENDBRANCH   2   3
ENDBRANCH   1   2
BRANCH   1  10
HETATM   10  O1  UNL     1      -0.674  -1.277   0.685  1.00  0.00    -0.324 OA
BRANCH  10  11
HETATM   11  C7  UNL     1      -1.449  -1.998   0.007  1.00  0.00     0.071 A 
HETATM   12  C8  UNL     1      -2.658  -1.339  -0.359  1.00  0.00     0.037 A 
HETATM   13  C9  UNL     1      -3.621  -2.012  -1.118  1.00  0.00     0.003 A 
HETATM   14  C10 UNL     1      -3.361  -3.330  -1.498  1.00  0.00     0.000 A 
HETATM   15  C11 UNL     1      -2.218  -4.015  -1.177  1.00  0.00     0.003 A 
HETATM   16  C12 UNL     1      -1.337  -3.274  -0.434  1.00  0.00     0.037 A 
ENDBRANCH  10  11
ENDBRANCH   1  10
BRANCH   1  17
HETATM   17  N1  UNL     1      -0.505  -0.104   2.585  1.00  0.00    -0.231 N 
HETATM   18  N2  UNL     1      -1.185  -0.084   3.797  1.00  0.00    -0.104 NA
HETATM   19  O2  UNL     1      -2.147   0.876   3.965  1.00  0.00    -0.236 OA
HETATM   20  H13 UNL     1      -0.490  -0.005   4.563  1.00  0.00     0.180 HD
HETATM   21  C13 UNL     1      -2.021   2.234   3.785  1.00  0.00     0.377 A 
HETATM   22  C14 UNL     1      -1.695   3.722   3.425  1.00  0.00     0.375 A 
HETATM   23  N3  UNL     1      -1.011   2.498   2.895  1.00  0.00     0.099 N 
HETATM   24  S1  UNL     1      -0.222   3.260   2.166  1.00  0.00     0.106 SA
HETATM   25  C15 UNL     1      -0.432   1.420   2.447  1.00  0.00     0.299 A 
ENDBRANCH   1  17
TORSDOF 6
