REMARK  6 active torsions:
REMARK  status: ('A' for Active; 'I' for Inactive)
REMARK    1  A    between atoms: N1_1  and  C1_2 
REMARK    2  A    between atoms: C1_2  and  C2_3 
REMARK    3  A    between atoms: C2_3  and  C3_4 
REMARK    4  A    between atoms: C3_4  and  C4_5 
REMARK    5  A    between atoms: N3_21  and  C17_22 
REMARK    6  A    between atoms: C18_24  and  O2_25 
ROOT
HETATM    1  C1  UNL     1      -0.226  -0.208   0.173  1.00  0.00     0.261 C 
HETATM    2  C10 UNL     1      -1.165  -1.215  -0.477  1.00  0.00     0.045 A 
HETATM    3  C11 UNL     1      -2.021  -0.454  -1.205  1.00  0.00     0.030 A 
HETATM    4  C12 UNL     1      -3.259  -0.702  -1.823  1.00  0.00     0.059 A 
HETATM    5  C13 UNL     1      -2.689  -1.807  -1.144  1.00  0.00     0.027 A 
HETATM    6  C14 UNL     1      -2.106  -2.826  -0.486  1.00  0.00    -0.030 A 
HETATM    7  C15 UNL     1      -0.872  -2.413   0.069  1.00  0.00     0.028 A 
HETATM    8  P1  UNL     1      -4.509  -1.548  -0.628  1.00  0.00    -0.004 P 
HETATM    9  O1  UNL     1      -4.476  -0.285   0.637  1.00  0.00    -0.323 OA
HETATM   10  C16 UNL     1      -3.377   0.126   1.332  1.00  0.00     0.277 C 
HETATM   11  N2  UNL     1      -2.163   0.558   1.573  1.00  0.00    -0.156 NA
HETATM   12  N3  UNL     1      -1.145   0.874   0.700  1.00  0.00    -0.203 N 
HETATM   13  H16 UNL     1      -4.993  -2.748  -0.016  1.00  0.00     0.083 HD
ENDROOT
BRANCH   1  14
HETATM   14  N1  UNL     1       0.462  -0.723   1.332  1.00  0.00     0.110 N 
HETATM   15  H1  UNL     1       1.249  -0.056   1.527  1.00  0.00     0.316 HD
HETATM   16  H2  UNL     1      -0.222  -0.675   2.158  1.00  0.00     0.316 HD
ENDBRANCH   1  14
BRANCH   1  17
HETATM   17  C2  UNL     1       0.693   0.424  -0.771  1.00  0.00     0.071 C 
BRANCH  17  18
HETATM   18  C3  UNL     1       1.789  -0.443  -1.347  1.00  0.00     0.043 C 
BRANCH  18  19
HETATM   19  C4  UNL     1       2.745  -0.981  -0.399  1.00  0.00    -0.058 A 
HETATM   20  C5  UNL     1       2.806  -2.144   0.373  1.00  0.00     0.007 A 
HETATM   21  C6  UNL     1       3.829  -2.443   1.217  1.00  0.00     0.001 A 
HETATM   22  C7  UNL     1       4.899  -1.616   1.385  1.00  0.00     0.000 A 
HETATM   23  C8  UNL     1       4.900  -0.470   0.663  1.00  0.00     0.001 A 
HETATM   24  C9  UNL     1       3.876  -0.172  -0.183  1.00  0.00     0.007 A 
ENDBRANCH  18  19
ENDBRANCH  17  18
ENDBRANCH   1  17
BRANCH  12  25
HETATM   25  C17 UNL     1      -1.106   2.279   0.412  1.00  0.00     0.194 A 
HETATM   26  N4  UNL     1      -1.539   3.105  -0.354  1.00  0.00    -0.198 NA
HETATM   27  C18 UNL     1      -1.239   4.390  -0.304  1.00  0.00     0.171 A 
HETATM   28  C19 UNL     1      -0.306   4.848   0.772  1.00  0.00     0.111 A 
HETATM   29  S1  UNL     1       0.028   3.191   1.623  1.00  0.00    -0.058 SA
BRANCH  27  30
HETATM   30  O2  UNL     1      -1.874   5.132  -1.307  1.00  0.00    -0.344 OA
HETATM   31  H18 UNL     1      -1.395   5.390  -2.161  1.00  0.00     0.219 HD
ENDBRANCH  27  30
ENDBRANCH  12  25
TORSDOF 6
