REMARK  7 active torsions:
REMARK  status: ('A' for Active; 'I' for Inactive)
REMARK    1  A    between atoms: C2_2  and  C3_3 
REMARK    2  A    between atoms: C4_4  and  C5_5 
REMARK    3  A    between atoms: C5_5  and  C6_6 
REMARK    4  A    between atoms: C8_8  and  C9_9 
REMARK    5  A    between atoms: C12_12  and  O1_13 
REMARK    6  A    between atoms: N2_18  and  C16_19 
REMARK    7  A    between atoms: C17_21  and  O2_22 
ROOT
HETATM    1  C6  UNL     1      -1.027  -0.519  -0.496  1.00  0.00     0.122 C 
HETATM    2  C7  UNL     1       0.323  -0.895   0.105  1.00  0.00     0.089 C 
HETATM    3  C8  UNL     1       1.207   0.180  -0.366  1.00  0.00     0.067 C 
HETATM    4  N1  UNL     1       0.537   1.143  -0.872  1.00  0.00    -0.174 NA
HETATM    5  N2  UNL     1      -0.839   0.854  -0.811  1.00  0.00    -0.240 N 
ENDROOT
BRANCH   3   6
HETATM    6  C9  UNL     1       2.657  -0.039  -0.165  1.00  0.00    -0.010 A 
HETATM    7  C10 UNL     1       3.238  -1.144   0.408  1.00  0.00     0.016 A 
HETATM    8  C11 UNL     1       4.601  -1.268   0.558  1.00  0.00     0.037 A 
HETATM    9  C12 UNL     1       5.347  -0.211   0.098  1.00  0.00     0.068 A 
HETATM   10  C14 UNL     1       4.854   0.930  -0.487  1.00  0.00     0.037 A 
HETATM   11  C15 UNL     1       3.460   0.987  -0.608  1.00  0.00     0.016 A 
BRANCH   9  12
HETATM   12  O1  UNL     1       6.734  -0.306   0.238  1.00  0.00    -0.356 OA
HETATM   13  C13 UNL     1       7.291  -1.474   0.843  1.00  0.00     0.210 C 
ENDBRANCH   9  12
ENDBRANCH   3   6
BRANCH   1  14
HETATM   14  C5  UNL     1      -2.008  -0.779   0.604  1.00  0.00     0.055 C 
BRANCH  14  15
HETATM   15  C4  UNL     1      -3.425  -0.521   0.326  1.00  0.00    -0.025 C 
HETATM   16  C3  UNL     1      -4.319  -1.528   0.430  1.00  0.00    -0.005 C 
BRANCH  16  17
HETATM   17  C2  UNL     1      -5.755  -1.479   0.204  1.00  0.00    -0.011 C 
HETATM   18  C1  UNL     1      -6.489  -2.559   0.349  1.00  0.00     0.011 C 
ENDBRANCH  16  17
ENDBRANCH  14  15
ENDBRANCH   1  14
BRANCH   5  19
HETATM   19  C16 UNL     1      -1.661   1.996  -1.072  1.00  0.00     0.192 A 
HETATM   20  N3  UNL     1      -2.266   2.603  -0.300  1.00  0.00    -0.198 NA
HETATM   21  C17 UNL     1      -3.029   3.658  -0.473  1.00  0.00     0.171 A 
HETATM   22  C18 UNL     1      -3.092   4.094  -1.873  1.00  0.00     0.111 A 
HETATM   23  S1  UNL     1      -1.985   2.844  -2.736  1.00  0.00    -0.058 SA
BRANCH  21  24
HETATM   24  O2  UNL     1      -3.735   4.342   0.529  1.00  0.00    -0.344 OA
HETATM   25  H18 UNL     1      -3.312   4.831   1.279  1.00  0.00     0.219 HD
ENDBRANCH  21  24
ENDBRANCH   5  19
TORSDOF 7
