REMARK  3 active torsions:
REMARK  status: ('A' for Active; 'I' for Inactive)
REMARK    1  A    between atoms: O1_2  and  C2_3 
REMARK    2  A    between atoms: C7_10  and  O2_11 
REMARK    3  A    between atoms: C8_13  and  S1_14 
ROOT
HETATM    1  C2  UNL     1       3.777  -0.255   0.286  1.00  0.00     0.080 C 
HETATM    2  C3  UNL     1       2.933   0.532  -0.378  1.00  0.00     0.023 C 
HETATM    3  C4  UNL     1       1.706   0.382   0.032  1.00  0.00     0.004 C 
HETATM    4  C5  UNL     1       0.521   1.210   0.235  1.00  0.00     0.151 C 
HETATM    5  N1  UNL     1      -0.229   2.119   0.803  1.00  0.00    -0.184 NA
HETATM    6  N2  UNL     1      -1.519   2.287   0.201  1.00  0.00    -0.269 N 
HETATM    7  C6  UNL     1      -2.158   1.425   1.204  1.00  0.00     0.170 C 
HETATM    8  C7  UNL     1      -2.434   0.463   2.136  1.00  0.00     0.180 C 
HETATM    9  N3  UNL     1      -1.111   0.220   1.780  1.00  0.00    -0.220 NA
HETATM   10  C8  UNL     1      -0.757  -0.802   1.105  1.00  0.00     0.083 C 
HETATM   11  C9  UNL     1       0.230  -1.615   0.428  1.00  0.00     0.101 C 
HETATM   12  C10 UNL     1      -0.173  -1.896  -0.997  1.00  0.00    -0.011 C 
HETATM   13  C11 UNL     1      -1.008  -1.583  -1.979  1.00  0.00    -0.002 C 
HETATM   14  C12 UNL     1      -2.116  -0.778  -2.443  1.00  0.00     0.007 C 
HETATM   15  C13 UNL     1      -2.888   0.181  -1.954  1.00  0.00     0.142 C 
HETATM   16  S2  UNL     1      -3.774   1.465  -1.020  1.00  0.00    -0.196 SA
HETATM   17  C14 UNL     1      -2.541   2.791  -0.723  1.00  0.00     0.210 C 
HETATM   18  C15 UNL     1       1.610  -1.083   0.372  1.00  0.00    -0.029 C 
HETATM   19  C16 UNL     1       2.876  -1.406   0.513  1.00  0.00     0.046 C 
ENDROOT
BRANCH   1  20
HETATM   20  O1  UNL     1       5.088  -0.247   0.740  1.00  0.00    -0.355 OA
HETATM   21  C1  UNL     1       6.135   0.403   0.091  1.00  0.00     0.210 C 
ENDBRANCH   1  20
BRANCH  10  22
HETATM   22  S1  UNL     1      -2.383  -1.574   0.911  1.00  0.00    -0.127 SA
HETATM   23  H7  UNL     1      -2.465  -2.571   1.910  1.00  0.00     0.108 HD
ENDBRANCH  10  22
BRANCH   8  24
HETATM   24  O2  UNL     1      -3.171  -0.263   3.065  1.00  0.00    -0.344 OA
HETATM   25  H6  UNL     1      -4.087   0.126   3.328  1.00  0.00     0.219 HD
ENDBRANCH   8  24
TORSDOF 3
