REMARK  1 active torsions:
REMARK  status: ('A' for Active; 'I' for Inactive)
REMARK    1  A    between atoms: O1_2  and  C2_3 
ROOT
HETATM    1  C2  UNL     1       3.104  -0.236   0.424  1.00  0.00     0.054 C 
HETATM    2  C3  UNL     1       2.160  -1.163   0.414  1.00  0.00     0.081 C 
HETATM    3  C4  UNL     1       1.666  -2.534   0.407  1.00  0.00     0.014 C 
HETATM    4  C5  UNL     1       1.205  -3.039  -0.742  1.00  0.00     0.065 C 
HETATM    5  N1  UNL     1       0.690  -2.110  -1.491  1.00  0.00    -0.111 NA
HETATM    6  N2  UNL     1      -0.158  -1.263  -0.790  1.00  0.00    -0.251 N 
HETATM    7  S1  UNL     1       0.775  -0.390  -2.050  1.00  0.00     0.017 SA
HETATM    8  C6  UNL     1       0.280   1.354  -1.962  1.00  0.00     0.131 C 
HETATM    9  C7  UNL     1      -0.596   2.040  -1.200  1.00  0.00     0.151 C 
HETATM   10  N3  UNL     1      -1.924   1.827  -0.732  1.00  0.00    -0.336 N 
HETATM   11  C8  UNL     1      -2.717   0.677  -0.459  1.00  0.00     0.045 A 
HETATM   12  C9  UNL     1      -3.996   1.152  -0.676  1.00  0.00     0.072 A 
HETATM   13  C10 UNL     1      -5.036   0.258  -0.498  1.00  0.00     0.118 A 
HETATM   14  F1  UNL     1      -6.295   0.727  -0.712  1.00  0.00    -0.206 F 
HETATM   15  C11 UNL     1      -4.782  -1.040  -0.120  1.00  0.00     0.043 A 
HETATM   16  C12 UNL     1      -3.502  -1.439   0.076  1.00  0.00     0.014 A 
HETATM   17  C13 UNL     1      -2.386  -0.608  -0.079  1.00  0.00    -0.007 A 
HETATM   18  C14 UNL     1      -1.148  -1.410   0.248  1.00  0.00     0.143 C 
HETATM   19  C15 UNL     1      -0.782  -1.160   1.658  1.00  0.00     0.040 C 
HETATM   20  O2  UNL     1      -0.089   3.232  -0.769  1.00  0.00    -0.332 OA
HETATM   21  C16 UNL     1       0.705   3.231   0.405  1.00  0.00     0.205 C 
HETATM   22  C17 UNL     1       1.611   2.016   0.412  1.00  0.00     0.002 C 
HETATM   23  C18 UNL     1       2.593   1.128   0.423  1.00  0.00     0.031 C 
HETATM   24  H7  UNL     1      -2.351   2.744  -0.577  1.00  0.00     0.168 HD
ENDROOT
BRANCH   1  25
HETATM   25  O1  UNL     1       4.457   0.075   0.436  1.00  0.00    -0.360 OA
HETATM   26  C1  UNL     1       5.473  -0.774   0.014  1.00  0.00     0.209 C 
ENDBRANCH   1  25
TORSDOF 1
