REMARK  7 active torsions:
REMARK  status: ('A' for Active; 'I' for Inactive)
REMARK    1  A    between atoms: C2_2  and  C3_3 
REMARK    2  A    between atoms: C4_5  and  C5_6 
REMARK    3  A    between atoms: C7_8  and  C8_9 
REMARK    4  A    between atoms: C11_12  and  O1_13 
REMARK    5  A    between atoms: N2_18  and  C15_19 
REMARK    6  A    between atoms: C15_19  and  S1_20 
REMARK    7  A    between atoms: S1_20  and  C16_21 
ROOT
HETATM    1  C5  UNL     1      -1.600   0.493  -0.676  1.00  0.00     0.136 C 
HETATM    2  C6  UNL     1      -0.145   0.642  -1.056  1.00  0.00     0.093 C 
HETATM    3  C7  UNL     1       0.503   0.407   0.282  1.00  0.00     0.067 C 
HETATM    4  N1  UNL     1      -0.361   0.650   1.228  1.00  0.00    -0.180 NA
HETATM    5  N2  UNL     1      -1.579   1.042   0.666  1.00  0.00    -0.287 N 
ENDROOT
BRANCH   3   6
HETATM    6  C8  UNL     1       1.905  -0.028   0.404  1.00  0.00    -0.010 A 
HETATM    7  C9  UNL     1       2.707  -0.249  -0.706  1.00  0.00     0.016 A 
HETATM    8  C10 UNL     1       4.010  -0.652  -0.612  1.00  0.00     0.037 A 
HETATM    9  C11 UNL     1       4.569  -0.851   0.631  1.00  0.00     0.068 A 
HETATM   10  C13 UNL     1       3.755  -0.625   1.719  1.00  0.00     0.037 A 
HETATM   11  C14 UNL     1       2.424  -0.216   1.692  1.00  0.00     0.016 A 
BRANCH   9  12
HETATM   12  O1  UNL     1       5.882  -1.258   0.772  1.00  0.00    -0.356 OA
HETATM   13  C12 UNL     1       6.668  -1.475  -0.382  1.00  0.00     0.210 C 
ENDBRANCH   9  12
ENDBRANCH   3   6
BRANCH   1  14
HETATM   14  C4  UNL     1      -2.064  -0.920  -0.678  1.00  0.00     0.038 C 
HETATM   15  C3  UNL     1      -1.413  -2.077  -0.724  1.00  0.00     0.091 C 
HETATM   16  F1  UNL     1      -0.065  -2.248  -0.785  1.00  0.00    -0.211 F 
BRANCH  15  17
HETATM   17  C2  UNL     1      -1.981  -3.471  -0.721  1.00  0.00     0.065 C 
HETATM   18  C1  UNL     1      -3.475  -3.353  -0.651  1.00  0.00     0.012 C 
ENDBRANCH  15  17
ENDBRANCH   1  14
BRANCH   5  19
HETATM   19  C15 UNL     1      -2.527   1.839   1.418  1.00  0.00     0.223 C 
BRANCH  19  20
HETATM   20  S1  UNL     1      -4.013   2.219   0.420  1.00  0.00    -0.116 SA
BRANCH  20  21
HETATM   21  C16 UNL     1      -3.617   3.289  -0.937  1.00  0.00     0.106 C 
HETATM   22  C17 UNL     1      -3.637   4.568  -0.528  1.00  0.00     0.196 A 
HETATM   23  N3  UNL     1      -3.793   5.628   0.389  1.00  0.00    -0.235 N 
HETATM   24  O2  UNL     1      -3.460   5.955  -0.901  1.00  0.00    -0.215 OA
HETATM   25  H20 UNL     1      -4.003   5.984   1.346  1.00  0.00     0.197 HD
ENDBRANCH  20  21
ENDBRANCH  19  20
ENDBRANCH   5  19
TORSDOF 7
