REMARK  6 active torsions:
REMARK  status: ('A' for Active; 'I' for Inactive)
REMARK    1  A    between atoms: N2_4  and  C3_5 
REMARK    2  A    between atoms: C4_7  and  O1_8 
REMARK    3  A    between atoms: C6_11  and  C7_12 
REMARK    4  A    between atoms: C7_12  and  C8_13 
REMARK    5  A    between atoms: C9_14  and  C10_15 
REMARK    6  A    between atoms: C13_19  and  O2_20 
ROOT
HETATM    1  C1  UNL     1      -4.473  -0.925   0.073  1.00  0.00     0.067 C 
HETATM    2  C2  UNL     1      -3.039  -0.965  -0.431  1.00  0.00     0.029 C 
HETATM    3  N1  UNL     1      -2.573   0.261  -0.296  1.00  0.00    -0.179 NA
HETATM    4  N2  UNL     1      -1.260   0.794  -0.100  1.00  0.00    -0.237 N 
HETATM    5  C6  UNL     1      -0.014   0.119   0.312  1.00  0.00     0.147 C 
HETATM    6  C12 UNL     1      -0.315  -1.366   0.219  1.00  0.00    -0.025 C 
HETATM    7  C13 UNL     1      -0.779  -2.501   0.801  1.00  0.00     0.052 C 
HETATM    8  C14 UNL     1      -1.419  -2.919  -0.489  1.00  0.00     0.052 C 
HETATM    9  C15 UNL     1      -2.654  -2.295  -0.899  1.00  0.00     0.067 C 
HETATM   10  C16 UNL     1      -0.143  -2.284  -0.981  1.00  0.00     0.050 C 
ENDROOT
BRANCH   4  11
HETATM   11  C3  UNL     1      -1.301   2.180  -0.370  1.00  0.00     0.192 A 
HETATM   12  N3  UNL     1      -1.814   3.026   0.519  1.00  0.00    -0.198 NA
HETATM   13  C4  UNL     1      -1.808   4.294   0.188  1.00  0.00     0.171 A 
HETATM   14  C5  UNL     1      -1.242   4.804  -1.149  1.00  0.00     0.111 A 
HETATM   15  S1  UNL     1      -0.728   3.231  -1.855  1.00  0.00    -0.058 SA
BRANCH  13  16
HETATM   16  O1  UNL     1      -2.345   5.243   1.091  1.00  0.00    -0.344 OA
HETATM   17  H4  UNL     1      -3.129   5.823   0.821  1.00  0.00     0.219 HD
ENDBRANCH  13  16
ENDBRANCH   4  11
BRANCH   5  18
HETATM   18  C7  UNL     1       1.135   0.416  -0.620  1.00  0.00     0.059 C 
BRANCH  18  19
HETATM   19  C8  UNL     1       2.313  -0.332  -0.035  1.00  0.00    -0.025 C 
HETATM   20  C9  UNL     1       3.403   0.327   0.340  1.00  0.00     0.005 C 
BRANCH  20  21
HETATM   21  C10 UNL     1       4.542  -0.462   0.915  1.00  0.00     0.188 C 
HETATM   22  C11 UNL     1       5.824   0.317   0.788  1.00  0.00     0.049 C 
HETATM   23  F1  UNL     1       4.258  -0.580   2.277  1.00  0.00    -0.246 F 
ENDBRANCH  20  21
ENDBRANCH  18  19
ENDBRANCH   5  18
BRANCH   7  24
HETATM   24  O2  UNL     1      -0.886  -3.326   1.960  1.00  0.00    -0.364 OA
HETATM   25  H15 UNL     1      -0.198  -4.097   2.069  1.00  0.00     0.217 HD
ENDBRANCH   7  24
TORSDOF 6
