REMARK  4 active torsions:
REMARK  status: ('A' for Active; 'I' for Inactive)
REMARK    1  A    between atoms: O1_2  and  C2_3 
REMARK    2  A    between atoms: C8_9  and  O2_10 
REMARK    3  A    between atoms: C12_17  and  C13_18 
REMARK    4  A    between atoms: C13_18  and  C14_19 
ROOT
HETATM    1  C2  UNL     1      -3.256   0.287   0.131  1.00  0.00     0.081 A 
HETATM    2  C3  UNL     1      -2.896   1.641   0.219  1.00  0.00     0.038 A 
HETATM    3  C4  UNL     1      -1.651   1.871   0.848  1.00  0.00     0.013 A 
HETATM    4  C5  UNL     1      -0.939   0.779   1.300  1.00  0.00    -0.013 A 
HETATM    5  C6  UNL     1      -1.227  -0.532   1.249  1.00  0.00     0.027 A 
HETATM    6  C7  UNL     1      -2.439  -0.700   0.627  1.00  0.00     0.031 A 
HETATM    7  C8  UNL     1      -2.662  -2.133   0.492  1.00  0.00     0.085 C 
HETATM    8  C9  UNL     1      -1.701  -2.464  -0.339  1.00  0.00     0.084 C 
HETATM    9  S1  UNL     1      -0.375  -1.894  -1.262  1.00  0.00    -0.117 SA
HETATM   10  C10 UNL     1       0.015  -0.165  -1.332  1.00  0.00     0.231 C 
HETATM   11  N1  UNL     1       0.557   0.461  -0.155  1.00  0.00    -0.196 N 
HETATM   12  N2  UNL     1       1.059   1.040   0.934  1.00  0.00     0.061 N 
HETATM   13  C11 UNL     1       0.208   1.545   1.706  1.00  0.00     0.252 A 
HETATM   14  C12 UNL     1       1.600   1.849   1.434  1.00  0.00     0.345 A 
HETATM   15  C13 UNL     1       1.813   1.176   0.095  1.00  0.00     0.351 A 
ENDROOT
BRANCH  15  16
HETATM   16  C14 UNL     1       3.010   0.338   0.167  1.00  0.00    -0.007 A 
HETATM   17  C15 UNL     1       4.086   0.646   1.007  1.00  0.00     0.014 A 
HETATM   18  C16 UNL     1       5.230  -0.108   1.128  1.00  0.00     0.043 A 
HETATM   19  C17 UNL     1       5.375  -1.260   0.389  1.00  0.00     0.116 A 
HETATM   20  F1  UNL     1       6.486  -2.026   0.483  1.00  0.00    -0.206 F 
HETATM   21  C18 UNL     1       4.363  -1.632  -0.462  1.00  0.00     0.043 A 
HETATM   22  C19 UNL     1       3.251  -0.826  -0.527  1.00  0.00     0.014 A 
ENDBRANCH  15  16
BRANCH   7  23
HETATM   23  O2  UNL     1      -3.738  -2.201   1.325  1.00  0.00    -0.359 OA
HETATM   24  H7  UNL     1      -4.460  -2.917   1.259  1.00  0.00     0.217 HD
ENDBRANCH   7  23
BRANCH   1  25
HETATM   25  O1  UNL     1      -4.395  -0.303  -0.415  1.00  0.00    -0.355 OA
HETATM   26  C1  UNL     1      -5.449   0.386  -1.012  1.00  0.00     0.210 C 
ENDBRANCH   1  25
TORSDOF 4
