REMARK  1 active torsions:
REMARK  status: ('A' for Active; 'I' for Inactive)
REMARK    1  A    between atoms: O1_2  and  C2_3 
ROOT
HETATM    1  C2  UNL     1       1.863   0.454  -0.080  1.00  0.00     0.065 C 
HETATM    2  C3  UNL     1       1.197  -0.682   0.030  1.00  0.00     0.013 C 
HETATM    3  C4  UNL     1       0.523  -1.975   0.129  1.00  0.00     0.075 C 
HETATM    4  C5  UNL     1      -0.781  -2.187  -0.561  1.00  0.00     0.267 A 
HETATM    5  N1  UNL     1      -0.931  -1.352  -1.799  1.00  0.00     0.016 N 
HETATM    6  C6  UNL     1      -0.586   0.094  -2.000  1.00  0.00     0.346 A 
HETATM    7  N2  UNL     1      -0.504   1.384  -1.740  1.00  0.00    -0.208 NA
HETATM    8  C7  UNL     1      -1.214   1.878  -0.791  1.00  0.00     0.203 A 
HETATM    9  C8  UNL     1      -2.092   1.179   0.001  1.00  0.00     0.043 A 
HETATM   10  S1  UNL     1      -1.804  -0.335  -0.770  1.00  0.00    -0.020 SA
HETATM   11  C9  UNL     1      -3.001   0.398   0.806  1.00  0.00     0.135 A 
HETATM   12  C10 UNL     1      -2.688  -1.030   1.096  1.00  0.00    -0.002 A 
HETATM   13  C11 UNL     1      -1.893  -1.973   0.436  1.00  0.00     0.139 A 
HETATM   14 CL1  UNL     1      -2.463  -3.544   1.076  1.00  0.00    -0.101 Cl
HETATM   15  O2  UNL     1      -1.397   3.144  -0.182  1.00  0.00    -0.217 OA
HETATM   16  N3  UNL     1      -0.264   3.420   0.684  1.00  0.00    -0.270 N 
HETATM   17  C12 UNL     1       1.032   2.918   0.310  1.00  0.00     0.117 C 
HETATM   18  C13 UNL     1       1.803   1.890   0.036  1.00  0.00     0.055 C 
HETATM   19  H8  UNL     1      -1.276  -1.778  -2.753  1.00  0.00     0.298 HD
HETATM   20  H12 UNL     1      -0.460   3.967   1.546  1.00  0.00     0.194 HD
ENDROOT
BRANCH   1  21
HETATM   21  O1  UNL     1       2.925  -0.324  -0.458  1.00  0.00    -0.356 OA
HETATM   22  C1  UNL     1       3.969  -0.748   0.394  1.00  0.00     0.210 C 
ENDBRANCH   1  21
TORSDOF 1
