REMARK  4 active torsions:
REMARK  status: ('A' for Active; 'I' for Inactive)
REMARK    1  A    between atoms: O1_2  and  C2_3 
REMARK    2  A    between atoms: C4_6  and  N1_7 
REMARK    3  A    between atoms: C15_19  and  O2_20 
REMARK    4  A    between atoms: O2_20  and  C16_21 
ROOT
HETATM    1  N1  UNL     1      -0.076  -0.886   0.626  1.00  0.00    -0.330 N 
HETATM    2  C5  UNL     1      -0.238  -2.231   0.147  1.00  0.00     0.075 A 
HETATM    3  C6  UNL     1       0.698  -2.555  -0.955  1.00  0.00     0.011 A 
HETATM    4  C7  UNL     1       1.498  -3.546  -0.567  1.00  0.00     0.041 A 
HETATM    5  C8  UNL     1       1.147  -3.940   0.804  1.00  0.00     0.115 A 
HETATM    6  F1  UNL     1       1.914  -4.951   1.291  1.00  0.00    -0.206 F 
HETATM    7  C9  UNL     1       0.142  -3.183   1.227  1.00  0.00     0.050 A 
HETATM    8  C10 UNL     1      -1.669  -2.450  -0.200  1.00  0.00     0.043 C 
HETATM    9  C11 UNL     1      -2.362  -1.445   0.702  1.00  0.00     0.039 C 
HETATM   10  C12 UNL     1      -1.403  -0.258   0.541  1.00  0.00     0.057 A 
HETATM   11  C13 UNL     1      -1.546   0.717   1.635  1.00  0.00     0.007 A 
HETATM   12  C14 UNL     1      -1.864   1.993   1.478  1.00  0.00     0.035 A 
HETATM   13  C15 UNL     1      -2.111   2.575   0.160  1.00  0.00     0.072 A 
HETATM   14  C17 UNL     1      -1.992   1.730  -0.850  1.00  0.00     0.013 A 
HETATM   15  C18 UNL     1      -1.648   0.300  -0.819  1.00  0.00     0.065 A 
ENDROOT
BRANCH   1  16
HETATM   16  C4  UNL     1       1.173  -0.396   1.063  1.00  0.00     0.173 A 
HETATM   17  S1  UNL     1       1.702  -0.559   2.888  1.00  0.00    -0.060 SA
HETATM   18  C3  UNL     1       3.381   0.302   2.579  1.00  0.00     0.111 A 
HETATM   19  C2  UNL     1       3.205   0.543   1.149  1.00  0.00     0.173 A 
HETATM   20  N3  UNL     1       2.112   0.173   0.507  1.00  0.00    -0.200 NA
BRANCH  19  21
HETATM   21  O1  UNL     1       4.326   1.196   0.596  1.00  0.00    -0.339 OA
HETATM   22  C1  UNL     1       4.321   1.504  -0.778  1.00  0.00     0.211 C 
ENDBRANCH  19  21
ENDBRANCH   1  16
BRANCH  13  23
HETATM   23  O2  UNL     1      -2.445   3.906  -0.027  1.00  0.00    -0.305 OA
BRANCH  23  24
HETATM   24  C16 UNL     1      -1.926   4.688  -1.051  1.00  0.00     0.249 C 
HETATM   25  N2  UNL     1      -3.090   4.375  -1.551  1.00  0.00    -0.289 NA
HETATM   26  H15 UNL     1      -3.384   4.713  -2.487  1.00  0.00     0.188 HD
ENDBRANCH  23  24
ENDBRANCH  13  23
TORSDOF 4
