REMARK  4 active torsions:
REMARK  status: ('A' for Active; 'I' for Inactive)
REMARK    1  A    between atoms: C3_3  and  C4_4 
REMARK    2  A    between atoms: C3_3  and  O2_22 
REMARK    3  A    between atoms: C4_4  and  C5_5 
REMARK    4  A    between atoms: C9_14  and  C10_15 
ROOT
HETATM    1  C1  UNL     1      -1.930   2.647  -2.055  1.00  0.00     0.015 C 
HETATM    2  C2  UNL     1      -2.258   1.557  -1.619  1.00  0.00    -0.085 C 
HETATM    3  C3  UNL     1      -2.629   0.256  -1.090  1.00  0.00     0.204 C 
ENDROOT
BRANCH   3   4
HETATM    4  C4  UNL     1      -1.865  -0.150   0.129  1.00  0.00     0.104 C 
BRANCH   4   5
HETATM    5  C5  UNL     1      -0.372  -0.235  -0.122  1.00  0.00     0.070 C 
HETATM    6  N1  UNL     1      -0.188   0.045  -1.420  1.00  0.00    -0.133 NA
HETATM    7  O1  UNL     1       0.899  -0.392  -2.194  1.00  0.00    -0.194 OA
HETATM    8  C6  UNL     1       1.607  -1.564  -2.350  1.00  0.00     0.194 A 
HETATM    9  C7  UNL     1       2.388  -2.795  -2.768  1.00  0.00     0.123 A 
HETATM   10  N2  UNL     1       1.734  -2.050  -1.229  1.00  0.00    -0.240 N 
HETATM   11  S1  UNL     1       2.603  -3.595  -0.957  1.00  0.00    -0.017 SA
HETATM   12  C8  UNL     1       1.681  -2.234  -0.088  1.00  0.00     0.169 A 
HETATM   13  N3  UNL     1       1.188  -1.712   1.132  1.00  0.00    -0.355 N 
HETATM   14  C9  UNL     1       0.234  -0.596   1.199  1.00  0.00     0.167 C 
HETATM   15  H6  UNL     1       1.770  -2.427   1.618  1.00  0.00     0.162 HD
BRANCH  14  16
HETATM   16  C10 UNL     1       1.035   0.497   1.758  1.00  0.00    -0.030 A 
HETATM   17  C11 UNL     1       1.026   1.793   1.278  1.00  0.00     0.011 A 
HETATM   18  C12 UNL     1       1.763   2.836   1.817  1.00  0.00     0.024 A 
HETATM   19  C13 UNL     1       2.553   2.535   2.903  1.00  0.00     0.034 A 
HETATM   20 CL1  UNL     1       3.537   3.782   3.685  1.00  0.00    -0.084 Cl
HETATM   21  C14 UNL     1       2.630   1.253   3.460  1.00  0.00     0.024 A 
HETATM   22  C15 UNL     1       1.856   0.303   2.844  1.00  0.00     0.011 A 
ENDBRANCH  14  16
ENDBRANCH   4   5
ENDBRANCH   3   4
BRANCH   3  23
HETATM   23  O2  UNL     1      -2.538  -0.681  -2.139  1.00  0.00    -0.378 OA
HETATM   24  C16 UNL     1      -3.825  -1.193  -2.383  1.00  0.00     0.203 C 
ENDBRANCH   3  23
TORSDOF 4
