REMARK  4 active torsions:
REMARK  status: ('A' for Active; 'I' for Inactive)
REMARK    1  A    between atoms: O1_2  and  C2_3 
REMARK    2  A    between atoms: C5_6  and  C6_7 
REMARK    3  A    between atoms: N2_9  and  C7_10 
REMARK    4  A    between atoms: C10_15  and  C11_16 
ROOT
HETATM    1  C6  UNL     1       0.409   0.362   0.764  1.00  0.00     0.067 C 
HETATM    2  N1  UNL     1      -0.393   1.119   0.133  1.00  0.00    -0.175 NA
HETATM    3  N2  UNL     1      -1.692   1.034   0.631  1.00  0.00    -0.252 N 
HETATM    4  C10 UNL     1      -1.757  -0.227   1.345  1.00  0.00     0.150 C 
HETATM    5  C17 UNL     1      -0.329  -0.362   1.831  1.00  0.00     0.094 C 
ENDROOT
BRANCH   1   6
HETATM    6  C5  UNL     1       1.838   0.203   0.509  1.00  0.00    -0.010 A 
HETATM    7  C4  UNL     1       2.466   0.905  -0.499  1.00  0.00     0.016 A 
HETATM    8  C3  UNL     1       3.819   0.765  -0.753  1.00  0.00     0.037 A 
HETATM    9  C2  UNL     1       4.600  -0.105   0.016  1.00  0.00     0.068 A 
HETATM   10  C19 UNL     1       3.978  -0.812   1.027  1.00  0.00     0.037 A 
HETATM   11  C18 UNL     1       2.630  -0.639   1.241  1.00  0.00     0.016 A 
BRANCH   9  12
HETATM   12  O1  UNL     1       5.962  -0.277  -0.204  1.00  0.00    -0.356 OA
HETATM   13  C1  UNL     1       6.621   0.426  -1.222  1.00  0.00     0.210 C 
ENDBRANCH   9  12
ENDBRANCH   1   6
BRANCH   3  14
HETATM   14  C7  UNL     1      -2.731   2.019   0.453  1.00  0.00     0.114 C 
HETATM   15  C8  UNL     1      -3.197   2.274  -0.783  1.00  0.00     0.174 C 
HETATM   16  O2  UNL     1      -4.180   3.197  -1.005  1.00  0.00    -0.350 OA
HETATM   17  C9  UNL     1      -4.269   4.179   0.014  1.00  0.00     0.255 C 
HETATM   18  S1  UNL     1      -3.734   3.155   1.427  1.00  0.00    -0.082 SA
ENDBRANCH   3  14
BRANCH   4  19
HETATM   19  C11 UNL     1      -2.146  -1.361   0.477  1.00  0.00    -0.033 A 
HETATM   20  C12 UNL     1      -1.570  -1.511  -0.763  1.00  0.00     0.011 A 
HETATM   21  C13 UNL     1      -1.966  -2.589  -1.539  1.00  0.00     0.024 A 
HETATM   22  C14 UNL     1      -2.919  -3.504  -1.095  1.00  0.00     0.034 A 
HETATM   23 CL1  UNL     1      -3.457  -4.874  -2.021  1.00  0.00    -0.084 Cl
HETATM   24  C15 UNL     1      -3.503  -3.348   0.166  1.00  0.00     0.024 A 
HETATM   25  C16 UNL     1      -3.094  -2.257   0.939  1.00  0.00     0.011 A 
ENDBRANCH   4  19
TORSDOF 4
