REMARK  4 active torsions:
REMARK  status: ('A' for Active; 'I' for Inactive)
REMARK    1  A    between atoms: O1_2  and  C2_3 
REMARK    2  A    between atoms: N1_9  and  C8_10 
REMARK    3  A    between atoms: C9_12  and  O2_13 
REMARK    4  A    between atoms: C11_16  and  C12_17 
ROOT
HETATM    1  C2  UNL     1      -3.539  -0.342  -0.064  1.00  0.00     0.070 A 
HETATM    2  C3  UNL     1      -3.653  -1.690   0.157  1.00  0.00     0.037 A 
HETATM    3  C4  UNL     1      -2.538  -2.496   0.186  1.00  0.00     0.012 A 
HETATM    4  C5  UNL     1      -1.289  -1.945  -0.010  1.00  0.00    -0.031 A 
HETATM    5  C6  UNL     1      -1.103  -0.583  -0.240  1.00  0.00     0.046 A 
HETATM    6  C7  UNL     1      -2.267   0.153  -0.253  1.00  0.00     0.067 A 
HETATM    7  N1  UNL     1       0.188   0.001  -0.442  1.00  0.00    -0.316 N 
HETATM    8  C11 UNL     1       1.280  -0.881  -0.475  1.00  0.00     0.125 C 
HETATM    9  C18 UNL     1       1.014  -1.972   0.578  1.00  0.00     0.035 C 
HETATM   10  C19 UNL     1      -0.080  -2.840   0.023  1.00  0.00     0.043 C 
ENDROOT
BRANCH   7  11
HETATM   11  C8  UNL     1       0.147   1.426  -0.581  1.00  0.00     0.176 A 
HETATM   12  N2  UNL     1       0.169   2.390   0.034  1.00  0.00    -0.200 NA
HETATM   13  C9  UNL     1       0.118   3.650  -0.334  1.00  0.00     0.171 A 
HETATM   14  C10 UNL     1       0.025   3.840  -1.645  1.00  0.00     0.111 A 
HETATM   15  S1  UNL     1       0.014   2.127  -2.340  1.00  0.00    -0.059 SA
BRANCH  13  16
HETATM   16  O2  UNL     1       0.168   4.624   0.689  1.00  0.00    -0.344 OA
HETATM   17  H7  UNL     1      -0.550   5.323   0.802  1.00  0.00     0.219 HD
ENDBRANCH  13  16
ENDBRANCH   7  11
BRANCH   8  18
HETATM   18  C12 UNL     1       2.619  -0.433  -0.235  1.00  0.00    -0.035 A 
HETATM   19  C13 UNL     1       3.693  -0.825  -1.040  1.00  0.00     0.010 A 
HETATM   20  C14 UNL     1       5.001  -0.427  -0.853  1.00  0.00     0.019 A 
HETATM   21  C15 UNL     1       5.291   0.410   0.184  1.00  0.00     0.011 A 
HETATM   22 BR1  UNL     1       7.098   0.953   0.428  1.00  0.00    -0.051 Br
HETATM   23  C16 UNL     1       4.275   0.849   1.037  1.00  0.00     0.019 A 
HETATM   24  C17 UNL     1       3.000   0.396   0.769  1.00  0.00     0.010 A 
ENDBRANCH   8  18
BRANCH   1  25
HETATM   25  O1  UNL     1      -4.644   0.485  -0.096  1.00  0.00    -0.356 OA
HETATM   26  C1  UNL     1      -5.930  -0.041   0.100  1.00  0.00     0.210 C 
ENDBRANCH   1  25
TORSDOF 4
