REMARK  3 active torsions:
REMARK  status: ('A' for Active; 'I' for Inactive)
REMARK    1  A    between atoms: C4_5  and  C5_6 
REMARK    2  A    between atoms: N1_17  and  C15_18 
REMARK    3  A    between atoms: C15_18  and  S1_19 
ROOT
HETATM    1  C5  UNL     1      -0.696  -0.605   0.386  1.00  0.00     0.113 C 
HETATM    2  C6  UNL     1      -0.935  -2.012   0.578  1.00  0.00     0.031 C 
HETATM    3  C7  UNL     1      -0.907  -3.013  -0.565  1.00  0.00     0.017 C 
HETATM    4  C8  UNL     1       0.516  -2.996  -1.139  1.00  0.00    -0.009 A 
HETATM    5  C9  UNL     1       0.165  -2.642  -2.404  1.00  0.00     0.031 A 
HETATM    6  C10 UNL     1       0.928  -1.562  -2.724  1.00  0.00    -0.034 A 
HETATM    7  C11 UNL     1       1.311  -1.869  -1.464  1.00  0.00     0.001 A 
HETATM    8  C12 UNL     1       1.641  -2.252  -0.182  1.00  0.00     0.031 A 
HETATM    9  C13 UNL     1       0.908  -3.338   0.185  1.00  0.00    -0.035 A 
HETATM   10  O1  UNL     1       2.227  -0.904  -0.895  1.00  0.00     0.000 OA
HETATM   11  C14 UNL     1       1.496   0.299  -0.518  1.00  0.00     0.137 C 
HETATM   12  N1  UNL     1       0.410   0.190   0.313  1.00  0.00    -0.394 N 
ENDROOT
BRANCH   1  13
HETATM   13  C4  UNL     1      -1.791  -0.073  -0.522  1.00  0.00    -0.036 A 
HETATM   14  C3  UNL     1      -3.114  -0.156  -0.084  1.00  0.00     0.010 A 
HETATM   15  C2  UNL     1      -4.245   0.265  -0.739  1.00  0.00     0.019 A 
HETATM   16  C1  UNL     1      -4.057   0.833  -1.969  1.00  0.00     0.011 A 
HETATM   17 BR1  UNL     1      -5.533   1.458  -2.987  1.00  0.00    -0.051 Br
HETATM   18  C20 UNL     1      -2.798   0.951  -2.470  1.00  0.00     0.019 A 
HETATM   19  C19 UNL     1      -1.715   0.506  -1.751  1.00  0.00     0.010 A 
ENDBRANCH   1  13
BRANCH  12  20
HETATM   20  C15 UNL     1      -0.073   1.565   0.693  1.00  0.00     0.205 C 
BRANCH  20  21
HETATM   21  S1  UNL     1       1.142   2.576   1.541  1.00  0.00    -0.061 SA
HETATM   22  N2  UNL     1       2.062   3.657   0.748  1.00  0.00    -0.030 NA
HETATM   23  O2  UNL     1       2.954   4.355   1.567  1.00  0.00    -0.272 OA
HETATM   24  C16 UNL     1       3.775   3.697   2.496  1.00  0.00     0.224 C 
HETATM   25  C17 UNL     1       3.063   2.712   3.351  1.00  0.00     0.008 C 
HETATM   26  C18 UNL     1       1.887   2.099   3.109  1.00  0.00     0.053 C 
ENDBRANCH  20  21
ENDBRANCH  12  20
TORSDOF 3
