REMARK  3 active torsions:
REMARK  status: ('A' for Active; 'I' for Inactive)
REMARK    1  A    between atoms: O1_2  and  C2_3 
REMARK    2  A    between atoms: C5_6  and  C6_7 
REMARK    3  A    between atoms: C9_13  and  O2_14 
ROOT
HETATM    1  C6  UNL     1       0.482  -0.301  -0.292  1.00  0.00     0.067 C 
HETATM    2  N1  UNL     1       0.296  -1.558  -0.087  1.00  0.00    -0.179 NA
HETATM    3  N2  UNL     1      -1.049  -1.831   0.275  1.00  0.00    -0.279 N 
HETATM    4  C7  UNL     1      -1.863  -2.992  -0.027  1.00  0.00     0.224 C 
HETATM    5  S1  UNL     1      -2.908  -2.848  -1.457  1.00  0.00    -0.116 SA
HETATM    6  C8  UNL     1      -3.634  -1.257  -1.735  1.00  0.00     0.102 C 
HETATM    7  C9  UNL     1      -3.814  -0.108  -1.049  1.00  0.00     0.142 C 
HETATM    8  N3  UNL     1      -3.483   0.366   0.285  1.00  0.00    -0.359 N 
HETATM    9  C10 UNL     1      -2.800  -0.428   1.269  1.00  0.00     0.158 A 
HETATM   10  C11 UNL     1      -2.996   0.012   2.657  1.00  0.00     0.014 A 
HETATM   11 BR1  UNL     1      -4.880   0.358   2.866  1.00  0.00    -0.053 Br
HETATM   12  C12 UNL     1      -2.221   0.205   3.706  1.00  0.00     0.017 A 
HETATM   13  C13 UNL     1      -0.823  -0.068   3.455  1.00  0.00    -0.000 A 
HETATM   14  C14 UNL     1      -0.568  -0.441   2.215  1.00  0.00     0.009 A 
HETATM   15  C15 UNL     1      -1.361  -0.645   0.994  1.00  0.00     0.099 A 
HETATM   16  C16 UNL     1      -0.840   0.394  -0.049  1.00  0.00     0.101 C 
HETATM   17  H10 UNL     1      -3.793   1.346   0.452  1.00  0.00     0.162 HD
ENDROOT
BRANCH   1  18
HETATM   18  C5  UNL     1       1.720   0.362  -0.680  1.00  0.00    -0.010 A 
HETATM   19  C4  UNL     1       1.761   1.729  -0.863  1.00  0.00     0.016 A 
HETATM   20  C3  UNL     1       2.973   2.281  -1.230  1.00  0.00     0.037 A 
HETATM   21  C2  UNL     1       4.119   1.535  -1.415  1.00  0.00     0.068 A 
HETATM   22  C18 UNL     1       4.075   0.149  -1.228  1.00  0.00     0.037 A 
HETATM   23  C17 UNL     1       2.851  -0.407  -0.858  1.00  0.00     0.016 A 
BRANCH  21  24
HETATM   24  O1  UNL     1       5.318   2.118  -1.782  1.00  0.00    -0.356 OA
HETATM   25  C1  UNL     1       6.507   1.379  -1.979  1.00  0.00     0.210 C 
ENDBRANCH  21  24
ENDBRANCH   1  18
BRANCH   7  26
HETATM   26  O2  UNL     1      -4.477   0.883  -1.763  1.00  0.00    -0.346 OA
HETATM   27  H9  UNL     1      -5.476   0.779  -1.988  1.00  0.00     0.219 HD
ENDBRANCH   7  26
TORSDOF 3
