REMARK  2 active torsions:
REMARK  status: ('A' for Active; 'I' for Inactive)
REMARK    1  A    between atoms: O1_1  and  C1_2 
REMARK    2  A    between atoms: C3_5  and  N1_6 
ROOT
HETATM    1  N1  UNL     1       2.321  -1.039  -0.675  1.00  0.00    -0.240 N 
HETATM    2  N2  UNL     1       1.378  -2.053  -1.056  1.00  0.00    -0.174 NA
HETATM    3  C4  UNL     1       0.163  -1.637  -0.852  1.00  0.00     0.067 C 
HETATM    4  C5  UNL     1       0.484  -0.572  -1.893  1.00  0.00     0.089 C 
HETATM    5  C6  UNL     1       1.601   0.157  -1.171  1.00  0.00     0.122 C 
HETATM    6  C7  UNL     1       1.103   1.044  -0.108  1.00  0.00     0.056 C 
HETATM    7  C8  UNL     1      -0.120   1.805  -0.482  1.00  0.00    -0.005 C 
HETATM    8  C9  UNL     1      -1.396   2.267  -0.329  1.00  0.00     0.011 C 
HETATM    9 CL1  UNL     1      -2.290   3.332  -1.445  1.00  0.00    -0.089 Cl
HETATM   10  C10 UNL     1      -2.434   2.120   0.724  1.00  0.00     0.080 C 
HETATM   11  C11 UNL     1      -3.755   1.703   0.286  1.00  0.00     0.003 C 
HETATM   12  C12 UNL     1      -4.819   0.853   0.216  1.00  0.00     0.139 C 
HETATM   13  O2  UNL     1      -4.713  -0.408   0.951  1.00  0.00    -0.323 OA
HETATM   14  C13 UNL     1      -3.354  -0.902   0.876  1.00  0.00     0.074 A 
HETATM   15  C14 UNL     1      -2.472  -1.331   1.828  1.00  0.00     0.038 A 
HETATM   16  C15 UNL     1      -1.396  -1.600   1.029  1.00  0.00     0.016 A 
HETATM   17  C16 UNL     1      -1.233  -1.485  -0.325  1.00  0.00    -0.010 A 
HETATM   18  C17 UNL     1      -2.071  -1.079  -1.334  1.00  0.00     0.016 A 
HETATM   19  C18 UNL     1      -3.081  -0.835  -0.465  1.00  0.00     0.038 A 
ENDROOT
BRANCH   1  20
HETATM   20  C3  UNL     1       3.597  -1.029  -0.019  1.00  0.00     0.192 A 
HETATM   21  S1  UNL     1       5.162  -1.175  -1.090  1.00  0.00    -0.058 SA
HETATM   22  C2  UNL     1       6.264  -1.096   0.309  1.00  0.00     0.111 A 
HETATM   23  C1  UNL     1       5.293  -0.968   1.422  1.00  0.00     0.171 A 
HETATM   24  N3  UNL     1       4.004  -0.946   1.127  1.00  0.00    -0.198 NA
BRANCH  23  25
HETATM   25  O1  UNL     1       5.566  -0.861   2.803  1.00  0.00    -0.344 OA
HETATM   26  H1  UNL     1       6.464  -0.639   3.162  1.00  0.00     0.219 HD
ENDBRANCH  23  25
ENDBRANCH   1  20
TORSDOF 2
