REMARK  4 active torsions:
REMARK  status: ('A' for Active; 'I' for Inactive)
REMARK    1  A    between atoms: O1_2  and  C2_3 
REMARK    2  A    between atoms: C5_6  and  C6_7 
REMARK    3  A    between atoms: S1_9  and  C8_10 
REMARK    4  A    between atoms: C15_18  and  O2_19 
ROOT
HETATM    1  C6  UNL     1       0.444  -0.604   0.553  1.00  0.00     0.094 C 
HETATM    2  C7  UNL     1      -0.224  -1.319  -0.393  1.00  0.00     0.080 C 
HETATM    3  S1  UNL     1      -1.723  -1.608   0.219  1.00  0.00    -0.108 SA
HETATM    4  C14 UNL     1      -2.990  -2.614   0.890  1.00  0.00     0.099 A 
HETATM    5  C15 UNL     1      -2.980  -2.453   2.233  1.00  0.00     0.171 A 
HETATM    6  N1  UNL     1      -2.001  -1.653   2.852  1.00  0.00    -0.194 NA
HETATM    7  C16 UNL     1      -1.175  -1.128   2.030  1.00  0.00     0.205 A 
HETATM    8  O3  UNL     1      -0.002  -0.382   1.893  1.00  0.00    -0.285 OA
ENDROOT
BRANCH   1   9
HETATM    9  C5  UNL     1       1.808  -0.058   0.338  1.00  0.00    -0.002 A 
HETATM   10  C4  UNL     1       2.462  -0.278  -0.878  1.00  0.00     0.017 A 
HETATM   11  C3  UNL     1       3.723   0.177  -1.196  1.00  0.00     0.037 A 
HETATM   12  C2  UNL     1       4.407   0.910  -0.251  1.00  0.00     0.068 A 
HETATM   13  C18 UNL     1       3.834   1.171   0.972  1.00  0.00     0.037 A 
HETATM   14  C17 UNL     1       2.574   0.679   1.205  1.00  0.00     0.017 A 
BRANCH  12  15
HETATM   15  O1  UNL     1       5.679   1.424  -0.445  1.00  0.00    -0.356 OA
HETATM   16  C1  UNL     1       6.378   1.225  -1.662  1.00  0.00     0.210 C 
ENDBRANCH  12  15
ENDBRANCH   1   9
BRANCH   3  17
HETATM   17  C8  UNL     1      -2.781   0.001  -0.347  1.00  0.00    -0.003 A 
HETATM   18  C9  UNL     1      -2.893   1.145   0.370  1.00  0.00     0.019 A 
HETATM   19  C10 UNL     1      -3.675   2.066  -0.269  1.00  0.00     0.020 A 
HETATM   20  C11 UNL     1      -4.266   1.840  -1.490  1.00  0.00     0.011 A 
HETATM   21 BR1  UNL     1      -5.328   3.275  -2.211  1.00  0.00    -0.051 Br
HETATM   22  C12 UNL     1      -4.108   0.650  -2.161  1.00  0.00     0.020 A 
HETATM   23  C13 UNL     1      -3.328  -0.316  -1.560  1.00  0.00     0.019 A 
ENDBRANCH   3  17
BRANCH   5  24
HETATM   24  O2  UNL     1      -3.807  -3.006   3.241  1.00  0.00    -0.344 OA
HETATM   25  H12 UNL     1      -4.824  -2.924   3.090  1.00  0.00     0.219 HD
ENDBRANCH   5  24
TORSDOF 4
