REMARK  2 active torsions:
REMARK  status: ('A' for Active; 'I' for Inactive)
REMARK    1  A    between atoms: O1_2  and  C2_3 
REMARK    2  A    between atoms: C10_16  and  O2_17 
ROOT
HETATM    1  C2  UNL     1       4.469  -0.022  -0.032  1.00  0.00     0.054 C 
HETATM    2  C3  UNL     1       4.549  -1.294  -0.368  1.00  0.00     0.032 C 
HETATM    3  C4  UNL     1       3.426  -2.219  -0.660  1.00  0.00    -0.013 C 
HETATM    4  C5  UNL     1       2.172  -2.617  -0.814  1.00  0.00    -0.076 C 
HETATM    5  B1  UNL     1       0.727  -3.244  -1.038  1.00  0.00     0.235 B 
HETATM    6  C6  UNL     1      -0.437  -2.175  -0.874  1.00  0.00    -0.031 C 
HETATM    7  N1  UNL     1      -0.288  -0.948  -1.043  1.00  0.00    -0.223 NA
HETATM    8  N2  UNL     1       0.530   0.033  -1.344  1.00  0.00    -0.209 NA
HETATM    9  P1  UNL     1       0.670   1.118   0.099  1.00  0.00     0.034 P 
HETATM   10  C7  UNL     1       2.434   1.621   0.316  1.00  0.00     0.014 C 
HETATM   11  C8  UNL     1       3.129   0.528   0.055  1.00  0.00     0.081 C 
HETATM   12  C9  UNL     1      -0.360   2.634  -0.093  1.00  0.00     0.146 C 
HETATM   13  N3  UNL     1      -1.415   3.328  -0.071  1.00  0.00    -0.235 NA
HETATM   14  C10 UNL     1      -2.689   2.875   0.284  1.00  0.00     0.168 C 
HETATM   15  C11 UNL     1      -3.881   2.408   0.665  1.00  0.00     0.102 C 
HETATM   16  S1  UNL     1      -4.757   1.301   1.789  1.00  0.00    -0.133 SA
HETATM   17  C12 UNL     1      -5.309  -0.164   0.834  1.00  0.00     0.117 C 
HETATM   18  C13 UNL     1      -4.076  -0.829   0.332  1.00  0.00    -0.049 A 
HETATM   19  C14 UNL     1      -3.948  -1.165  -0.986  1.00  0.00     0.009 A 
HETATM   20  C15 UNL     1      -2.779  -1.667  -1.493  1.00  0.00     0.012 A 
HETATM   21  C16 UNL     1      -1.782  -1.787  -0.543  1.00  0.00    -0.029 A 
HETATM   22  C17 UNL     1      -1.979  -1.428   0.809  1.00  0.00     0.012 A 
HETATM   23  C18 UNL     1      -3.142  -0.926   1.328  1.00  0.00     0.009 A 
HETATM   24  H7  UNL     1       0.537  -4.094  -0.177  1.00  0.00    -0.015 HD
HETATM   25  H8  UNL     1       0.096  -0.038  -0.421  1.00  0.00     0.262 HD
ENDROOT
BRANCH   1  26
HETATM   26  O1  UNL     1       5.874   0.198   0.087  1.00  0.00    -0.359 OA
HETATM   27  C1  UNL     1       6.380   0.688   1.326  1.00  0.00     0.209 C 
ENDBRANCH   1  26
BRANCH  14  28
HETATM   28  O2  UNL     1      -2.753   3.793  -0.738  1.00  0.00    -0.344 OA
HETATM   29  H12 UNL     1      -3.612   4.153  -1.167  1.00  0.00     0.219 HD
ENDBRANCH  14  28
TORSDOF 2
