REMARK  9 active torsions:
REMARK  status: ('A' for Active; 'I' for Inactive)
REMARK    1  A    between atoms: C5_6  and  O2_7 
REMARK    2  A    between atoms: O2_7  and  C6_8 
REMARK    3  A    between atoms: C6_8  and  O3_9 
REMARK    4  A    between atoms: C6_8  and  O4_10 
REMARK    5  A    between atoms: O4_10  and  C7_11 
REMARK    6  A    between atoms: C7_11  and  O5_12 
REMARK    7  A    between atoms: O5_12  and  C8_13 
REMARK    8  A    between atoms: C8_13  and  C9_14 
REMARK    9  A    between atoms: C9_14  and  N1_15 
ROOT
HETATM    1  O1  UNL     1      -7.157  -0.941  -1.431  1.00  0.00    -0.294 OA
HETATM    2  C1  UNL     1      -6.111  -0.305  -1.079  1.00  0.00     0.170 A 
HETATM    3  C2  UNL     1      -5.249   0.428  -2.041  1.00  0.00     0.110 A 
HETATM    4  C3  UNL     1      -4.093   1.102  -1.482  1.00  0.00    -0.005 A 
HETATM    5  C4  UNL     1      -3.634   1.204  -0.310  1.00  0.00     0.001 A 
HETATM    6  C5  UNL     1      -2.605   1.737   0.564  1.00  0.00     0.084 A 
HETATM    7  C15 UNL     1      -2.215   1.773   1.818  1.00  0.00     0.037 A 
HETATM    8  C16 UNL     1      -2.604   1.271   3.189  1.00  0.00    -0.001 A 
HETATM    9  C17 UNL     1      -3.582   0.529   3.777  1.00  0.00    -0.024 A 
HETATM   10  C18 UNL     1      -4.841  -0.305   3.870  1.00  0.00     0.069 A 
HETATM   11  C19 UNL     1      -5.542  -0.547   2.573  1.00  0.00     0.109 A 
HETATM   12  C20 UNL     1      -4.733   0.118   1.809  1.00  0.00     0.104 A 
HETATM   13  C21 UNL     1      -4.563   0.451   0.518  1.00  0.00    -0.014 A 
HETATM   14  C22 UNL     1      -5.713  -0.288   0.388  1.00  0.00     0.158 A 
HETATM   15  O6  UNL     1      -6.213  -0.803   1.475  1.00  0.00    -0.352 OA
ENDROOT
BRANCH   6  16
HETATM   16  O2  UNL     1      -1.873   2.410  -0.382  1.00  0.00    -0.296 OA
BRANCH  16  17
HETATM   17  C6  UNL     1      -0.480   2.537  -0.289  1.00  0.00     0.418 C 
BRANCH  17  18
HETATM   18  O3  UNL     1      -0.213   3.891   0.124  1.00  0.00    -0.349 OA
HETATM   19  H5  UNL     1      -1.055   4.423   0.102  1.00  0.00     0.215 HD
ENDBRANCH  17  18
BRANCH  17  20
HETATM   20  O4  UNL     1       0.128   2.487  -1.558  1.00  0.00    -0.314 OA
BRANCH  20  21
HETATM   21  C7  UNL     1       1.220   1.664  -1.607  1.00  0.00     0.343 C 
BRANCH  21  22
HETATM   22  O5  UNL     1       0.982   0.348  -1.319  1.00  0.00    -0.365 OA
BRANCH  22  23
HETATM   23  C8  UNL     1       2.113  -0.461  -1.383  1.00  0.00     0.200 C 
BRANCH  23  24
HETATM   24  C9  UNL     1       3.175  -0.125  -0.396  1.00  0.00     0.298 C 
BRANCH  24  25
HETATM   25  N1  UNL     1       4.322  -1.004  -0.558  1.00  0.00     0.090 N 
HETATM   26  C10 UNL     1       5.007  -0.713  -1.814  1.00  0.00     0.272 C 
HETATM   27  C11 UNL     1       6.381  -1.359  -1.721  1.00  0.00     0.030 C 
HETATM   28  C12 UNL     1       6.193  -2.846  -1.598  1.00  0.00     0.003 C 
HETATM   29  C13 UNL     1       5.239  -3.243  -0.502  1.00  0.00     0.030 C 
HETATM   30  C14 UNL     1       4.002  -2.393  -0.445  1.00  0.00     0.272 C 
ENDBRANCH  24  25
ENDBRANCH  23  24
ENDBRANCH  22  23
ENDBRANCH  21  22
ENDBRANCH  20  21
ENDBRANCH  17  20
ENDBRANCH  16  17
ENDBRANCH   6  16
TORSDOF 9
