REMARK  8 active torsions:
REMARK  status: ('A' for Active; 'I' for Inactive)
REMARK    1  A    between atoms: O1_2  and  C2_3 
REMARK    2  A    between atoms: C5_6  and  C6_7 
REMARK    3  A    between atoms: C7_10  and  C8_11 
REMARK    4  A    between atoms: C8_11  and  C9_12 
REMARK    5  A    between atoms: C9_12  and  C10_13 
REMARK    6  A    between atoms: C11_14  and  C12_15 
REMARK    7  A    between atoms: C14_18  and  O2_19 
REMARK    8  A    between atoms: C15_20  and  S1_21 
ROOT
HETATM    1  C6  UNL     1       0.552  -0.099   1.220  1.00  0.00     0.073 C 
HETATM    2  N1  UNL     1      -0.862  -0.506   1.450  1.00  0.00    -0.179 NA
HETATM    3  N2  UNL     1      -1.047  -0.323   0.081  1.00  0.00    -0.279 N 
HETATM    4  C7  UNL     1      -0.908   1.128   0.033  1.00  0.00     0.141 C 
HETATM    5  C13 UNL     1       0.617   0.725  -0.110  1.00  0.00     0.100 C 
HETATM    6  C14 UNL     1       0.526  -0.175  -1.290  1.00  0.00     0.165 C 
HETATM    7  C15 UNL     1      -1.088  -0.598  -1.287  1.00  0.00     0.195 C 
ENDROOT
BRANCH   1   8
HETATM    8  C5  UNL     1       1.647  -0.440   2.140  1.00  0.00    -0.009 A 
HETATM    9  C4  UNL     1       1.427  -1.164   3.284  1.00  0.00     0.016 A 
HETATM   10  C3  UNL     1       2.502  -1.444   4.097  1.00  0.00     0.037 A 
HETATM   11  C2  UNL     1       3.751  -0.989   3.734  1.00  0.00     0.068 A 
HETATM   12  C18 UNL     1       3.922  -0.275   2.590  1.00  0.00     0.037 A 
HETATM   13  C17 UNL     1       2.865   0.036   1.730  1.00  0.00     0.016 A 
BRANCH  11  14
HETATM   14  O1  UNL     1       4.836  -1.264   4.542  1.00  0.00    -0.356 OA
HETATM   15  C1  UNL     1       4.778  -1.992   5.748  1.00  0.00     0.210 C 
ENDBRANCH  11  14
ENDBRANCH   1   8
BRANCH   4  16
HETATM   16  C8  UNL     1      -1.479   1.802  -1.068  1.00  0.00     0.001 C 
BRANCH  16  17
HETATM   17  C9  UNL     1      -1.868   2.520  -2.092  1.00  0.00    -0.002 C 
BRANCH  17  18
HETATM   18  C10 UNL     1      -3.169   2.237  -2.670  1.00  0.00    -0.003 C 
HETATM   19  C11 UNL     1      -4.098   2.486  -3.561  1.00  0.00    -0.016 C 
BRANCH  19  20
HETATM   20  C12 UNL     1      -5.432   2.126  -4.080  1.00  0.00     0.112 C 
HETATM   21 BR1  UNL     1      -6.582   3.655  -3.960  1.00  0.00    -0.092 Br
ENDBRANCH  19  20
ENDBRANCH  17  18
ENDBRANCH  16  17
ENDBRANCH   4  16
BRANCH   6  22
HETATM   22  O2  UNL     1       1.116  -1.390  -0.983  1.00  0.00    -0.392 OA
HETATM   23  H15 UNL     1       0.862  -1.684  -0.080  1.00  0.00     0.210 HD
ENDBRANCH   6  22
BRANCH   7  24
HETATM   24  S1  UNL     1      -1.174  -2.314  -1.781  1.00  0.00    -0.144 SA
HETATM   25  C16 UNL     1      -1.217  -2.406  -3.600  1.00  0.00     0.092 C 
ENDBRANCH   7  24
TORSDOF 8
