REMARK  5 active torsions:
REMARK  status: ('A' for Active; 'I' for Inactive)
REMARK    1  A    between atoms: C3_3  and  C5_5 
REMARK    2  A    between atoms: C5_5  and  C6_6 
REMARK    3  A    between atoms: N1_8  and  C8_9 
REMARK    4  A    between atoms: C19_22  and  O2_23 
REMARK    5  A    between atoms: O2_23  and  N2_24 
ROOT
HETATM    1  C6  UNL     1      -1.012  -1.237  -0.337  1.00  0.00    -0.004 C 
HETATM    2  C7  UNL     1       0.066  -0.946  -1.317  1.00  0.00     0.160 C 
HETATM    3  N1  UNL     1       1.229  -0.466  -0.691  1.00  0.00    -0.394 N 
HETATM    4  C17 UNL     1       2.124  -1.483  -0.250  1.00  0.00     0.196 C 
HETATM    5  S1  UNL     1       1.744  -1.838   1.521  1.00  0.00    -0.119 SA
HETATM    6  C18 UNL     1       0.076  -2.564   1.566  1.00  0.00     0.086 C 
HETATM    7  C19 UNL     1      -0.924  -2.229   0.767  1.00  0.00     0.106 C 
ENDROOT
BRANCH   3   8
HETATM    8  C8  UNL     1       1.176   0.749   0.037  1.00  0.00     0.094 C 
HETATM    9  C9  UNL     1       0.683   1.963  -0.897  1.00  0.00     0.026 C 
HETATM   10  C10 UNL     1       2.114   2.471  -1.314  1.00  0.00     0.002 C 
HETATM   11  O1  UNL     1       2.786   1.186  -0.857  1.00  0.00     0.000 OA
HETATM   12  C11 UNL     1       3.572   1.379   0.558  1.00  0.00    -0.004 A 
HETATM   13  C14 UNL     1       2.559   1.130   0.655  1.00  0.00     0.014 A 
HETATM   14  C12 UNL     1       5.062   1.742   0.128  1.00  0.00    -0.008 A 
HETATM   15  C16 UNL     1       3.747   1.430   2.077  1.00  0.00    -0.019 A 
HETATM   16  C13 UNL     1       3.877   1.450   0.052  1.00  0.00     0.043 A 
HETATM   17  C15 UNL     1       2.430   1.107   2.131  1.00  0.00    -0.017 A 
ENDBRANCH   3   8
BRANCH   1  18
HETATM   18  C5  UNL     1      -2.230  -0.658  -0.279  1.00  0.00     0.018 C 
BRANCH  18  19
HETATM   19  C3  UNL     1      -3.603  -0.202   0.010  1.00  0.00    -0.066 C 
HETATM   20  C2  UNL     1      -4.254   0.856  -0.537  1.00  0.00    -0.024 C 
HETATM   21  C1  UNL     1      -3.975   1.897  -1.550  1.00  0.00     0.036 C 
HETATM   22  C4  UNL     1      -4.237  -1.056   1.049  1.00  0.00     0.048 C 
ENDBRANCH  18  19
ENDBRANCH   1  18
BRANCH   7  23
HETATM   23  O2  UNL     1      -1.980  -3.035   1.166  1.00  0.00    -0.265 OA
BRANCH  23  24
HETATM   24  N2  UNL     1      -2.185  -4.257   0.552  1.00  0.00    -0.209 NA
HETATM   25  H23 UNL     1      -1.338  -4.562   0.035  1.00  0.00     0.150 HD
HETATM   26  H24 UNL     1      -3.037  -4.280  -0.049  1.00  0.00     0.150 HD
ENDBRANCH  23  24
ENDBRANCH   7  23
TORSDOF 5
