REMARK  4 active torsions:
REMARK  status: ('A' for Active; 'I' for Inactive)
REMARK    1  A    between atoms: O1_2  and  C2_3 
REMARK    2  A    between atoms: C5_6  and  O2_7 
REMARK    3  A    between atoms: O2_7  and  C6_8 
REMARK    4  A    between atoms: C14_18  and  C15_19 
ROOT
HETATM    1  C6  UNL     1      -0.314   0.170   0.183  1.00  0.00     0.176 C 
HETATM    2  N1  UNL     1      -0.128  -1.042   0.593  1.00  0.00    -0.153 NA
HETATM    3  N2  UNL     1      -1.000  -2.114   0.372  1.00  0.00    -0.280 N 
HETATM    4  C7  UNL     1      -2.395  -2.082  -0.002  1.00  0.00     0.034 C 
HETATM    5  C8  UNL     1      -3.203  -1.035  -0.201  1.00  0.00    -0.051 C 
HETATM    6  C9  UNL     1      -4.637  -1.293  -0.591  1.00  0.00     0.063 C 
HETATM    7  C10 UNL     1      -5.208  -2.417   0.185  1.00  0.00    -0.026 C 
HETATM    8  C11 UNL     1      -4.382  -3.442   0.359  1.00  0.00    -0.024 C 
HETATM    9  C12 UNL     1      -2.996  -3.447  -0.187  1.00  0.00     0.085 C 
HETATM   10  C13 UNL     1      -2.786   0.351  -0.066  1.00  0.00     0.056 C 
HETATM   11  C14 UNL     1      -1.454   0.720  -0.597  1.00  0.00     0.128 C 
HETATM   12  H6  UNL     1      -0.709  -3.134   0.462  1.00  0.00     0.189 HD
ENDROOT
BRANCH   1  13
HETATM   13  O2  UNL     1       0.814   0.830   0.652  1.00  0.00    -0.293 OA
BRANCH  13  14
HETATM   14  C5  UNL     1       2.090   0.429   0.279  1.00  0.00     0.077 A 
HETATM   15  C4  UNL     1       2.508  -0.594  -0.546  1.00  0.00     0.040 A 
HETATM   16  C3  UNL     1       3.859  -0.779  -0.753  1.00  0.00     0.039 A 
HETATM   17  C2  UNL     1       4.808   0.022  -0.165  1.00  0.00     0.068 A 
HETATM   18  C19 UNL     1       4.404   1.046   0.659  1.00  0.00     0.039 A 
HETATM   19  C18 UNL     1       3.038   1.254   0.885  1.00  0.00     0.040 A 
BRANCH  17  20
HETATM   20  O1  UNL     1       6.095  -0.337  -0.506  1.00  0.00    -0.356 OA
HETATM   21  C1  UNL     1       7.213   0.358  -0.009  1.00  0.00     0.210 C 
ENDBRANCH  17  20
ENDBRANCH  13  14
ENDBRANCH   1  13
BRANCH  11  22
HETATM   22  C15 UNL     1      -1.313   2.201  -0.572  1.00  0.00     0.086 A 
HETATM   23  N3  UNL     1      -1.406   2.990   0.342  1.00  0.00    -0.257 NA
HETATM   24  C16 UNL     1      -1.243   4.303   0.161  1.00  0.00     0.124 A 
HETATM   25  C17 UNL     1      -0.939   4.813  -1.198  1.00  0.00     0.070 A 
HETATM   26  S1  UNL     1      -0.927   3.175  -2.126  1.00  0.00    -0.084 SA
ENDBRANCH  11  22
TORSDOF 4
