REMARK  6 active torsions:
REMARK  status: ('A' for Active; 'I' for Inactive)
REMARK    1  A    between atoms: C3_3  and  C4_4 
REMARK    2  A    between atoms: C6_6  and  C7_7 
REMARK    3  A    between atoms: C10_10  and  O1_11 
REMARK    4  A    between atoms: N2_16  and  C14_17 
REMARK    5  A    between atoms: C15_19  and  O2_20 
REMARK    6  A    between atoms: O2_20  and  C16_21 
ROOT
HETATM    1  C4  UNL     1       0.276  -2.170   0.936  1.00  0.00     0.141 C 
HETATM    2  C5  UNL     1      -1.170  -1.968   0.539  1.00  0.00     0.093 C 
HETATM    3  C6  UNL     1      -1.265  -0.491   0.420  1.00  0.00     0.067 C 
HETATM    4  N1  UNL     1      -0.078   0.059   0.499  1.00  0.00    -0.173 NA
HETATM    5  N2  UNL     1       0.886  -0.907   0.668  1.00  0.00    -0.237 N 
ENDROOT
BRANCH   3   6
HETATM    6  C7  UNL     1      -2.518   0.235   0.240  1.00  0.00    -0.010 A 
HETATM    7  C8  UNL     1      -3.745  -0.432   0.166  1.00  0.00     0.016 A 
HETATM    8  C9  UNL     1      -4.953   0.228  -0.005  1.00  0.00     0.037 A 
HETATM    9  C10 UNL     1      -4.905   1.618  -0.104  1.00  0.00     0.068 A 
HETATM   10  C12 UNL     1      -3.724   2.293  -0.034  1.00  0.00     0.037 A 
HETATM   11  C13 UNL     1      -2.516   1.622   0.137  1.00  0.00     0.016 A 
BRANCH   9  12
HETATM   12  O1  UNL     1      -6.137   2.224  -0.273  1.00  0.00    -0.356 OA
HETATM   13  C11 UNL     1      -6.304   3.621  -0.393  1.00  0.00     0.210 C 
ENDBRANCH   9  12
ENDBRANCH   3   6
BRANCH   1  14
HETATM   14  C3  UNL     1       0.944  -3.189   0.074  1.00  0.00    -0.004 C 
HETATM   15  C2  UNL     1       0.713  -4.492   0.148  1.00  0.00    -0.033 C 
HETATM   16  C1  UNL     1       1.376  -5.534  -0.711  1.00  0.00     0.036 C 
ENDBRANCH   1  14
BRANCH   5  17
HETATM   17  C14 UNL     1       2.268  -0.525   0.557  1.00  0.00     0.192 A 
HETATM   18  N3  UNL     1       2.937   0.370   0.362  1.00  0.00    -0.198 NA
HETATM   19  C15 UNL     1       4.231   0.520   0.299  1.00  0.00     0.173 A 
HETATM   20  C18 UNL     1       4.932  -0.641   0.514  1.00  0.00     0.111 A 
HETATM   21  S1  UNL     1       3.533  -1.898   0.800  1.00  0.00    -0.058 SA
BRANCH  19  22
HETATM   22  O2  UNL     1       5.082   1.609   0.060  1.00  0.00    -0.334 OA
BRANCH  22  23
HETATM   23  C16 UNL     1       4.467   2.862  -0.175  1.00  0.00     0.173 C 
HETATM   24  C17 UNL     1       5.466   3.955  -0.419  1.00  0.00     0.034 C 
ENDBRANCH  22  23
ENDBRANCH  19  22
ENDBRANCH   5  17
TORSDOF 6
