REMARK  4 active torsions:
REMARK  status: ('A' for Active; 'I' for Inactive)
REMARK    1  A    between atoms: C5_5  and  C6_6 
REMARK    2  A    between atoms: C8_8  and  C9_9 
REMARK    3  A    between atoms: C13_13  and  O1_14 
REMARK    4  A    between atoms: C17_20  and  O2_21 
ROOT
HETATM    1  C6  UNL     1       0.673  -0.613  -1.625  1.00  0.00     0.088 A 
HETATM    2  C7  UNL     1      -0.466   0.102  -0.967  1.00  0.00     0.108 A 
HETATM    3  C8  UNL     1      -0.987  -0.405   0.398  1.00  0.00     0.096 A 
HETATM    4  N1  UNL     1      -0.253  -1.442   0.907  1.00  0.00    -0.218 NA
HETATM    5  C16 UNL     1      -0.217  -2.892   0.368  1.00  0.00     0.207 A 
HETATM    6  N2  UNL     1      -0.074  -3.811  -0.520  1.00  0.00    -0.227 NA
HETATM    7  C17 UNL     1       0.393  -3.411  -1.747  1.00  0.00     0.157 A 
HETATM    8  C18 UNL     1       0.677  -2.039  -1.940  1.00  0.00     0.102 A 
HETATM    9  S1  UNL     1       0.285  -1.463  -0.399  1.00  0.00    -0.154 SA
ENDROOT
BRANCH   3  10
HETATM   10  C9  UNL     1      -2.218   0.309   1.027  1.00  0.00    -0.025 C 
HETATM   11  C10 UNL     1      -2.713   1.268   0.314  1.00  0.00     0.010 C 
HETATM   12  C11 UNL     1      -3.866   1.992   0.822  1.00  0.00    -0.001 C 
HETATM   13  C12 UNL     1      -4.819   1.637   1.700  1.00  0.00     0.008 C 
HETATM   14  C13 UNL     1      -4.983   0.368   2.432  1.00  0.00     0.164 C 
HETATM   15  C14 UNL     1      -3.706  -0.262   2.847  1.00  0.00     0.009 C 
HETATM   16  C15 UNL     1      -2.476  -0.335   2.304  1.00  0.00     0.009 C 
BRANCH  14  17
HETATM   17  O1  UNL     1      -5.739   0.590   3.580  1.00  0.00    -0.388 OA
HETATM   18  H13 UNL     1      -6.554   1.131   3.418  1.00  0.00     0.210 HD
ENDBRANCH  14  17
ENDBRANCH   3  10
BRANCH   1  19
HETATM   19  C5  UNL     1       2.003  -0.075  -1.350  1.00  0.00    -0.044 A 
HETATM   20  C4  UNL     1       2.983   0.123  -2.343  1.00  0.00     0.009 A 
HETATM   21  C3  UNL     1       4.259   0.626  -2.195  1.00  0.00     0.007 A 
HETATM   22  C2  UNL     1       4.622   0.977  -0.929  1.00  0.00    -0.062 A 
HETATM   23  C1  UNL     1       5.984   1.523  -0.720  1.00  0.00     0.048 C 
HETATM   24  C20 UNL     1       3.743   0.827   0.127  1.00  0.00     0.007 A 
HETATM   25  C19 UNL     1       2.485   0.316  -0.114  1.00  0.00     0.009 A 
ENDBRANCH   1  19
BRANCH   7  26
HETATM   26  O2  UNL     1       0.821  -3.525  -3.104  1.00  0.00    -0.347 OA
HETATM   27  H16 UNL     1       1.461  -4.237  -3.385  1.00  0.00     0.219 HD
ENDBRANCH   7  26
TORSDOF 4
