REMARK  5 active torsions:
REMARK  status: ('A' for Active; 'I' for Inactive)
REMARK    1  A    between atoms: O1_2  and  C2_3 
REMARK    2  A    between atoms: C5_6  and  C6_7 
REMARK    3  A    between atoms: N2_9  and  C7_10 
REMARK    4  A    between atoms: C8_12  and  O2_13 
REMARK    5  A    between atoms: C14_20  and  O3_21 
ROOT
HETATM    1  C6  UNL     1       0.915   0.042   0.078  1.00  0.00     0.068 C 
HETATM    2  N1  UNL     1      -0.058   0.769   0.500  1.00  0.00    -0.173 NA
HETATM    3  N2  UNL     1      -1.283   0.116   0.304  1.00  0.00    -0.229 N 
HETATM    4  C11 UNL     1      -1.048  -0.974  -0.619  1.00  0.00     0.110 A 
HETATM    5  C12 UNL     1      -1.508  -0.827  -1.969  1.00  0.00     0.008 A 
HETATM    6  C13 UNL     1      -2.301  -1.848  -1.898  1.00  0.00     0.006 A 
HETATM    7  C14 UNL     1      -1.941  -2.138  -0.514  1.00  0.00     0.178 A 
HETATM    8  C16 UNL     1       0.437  -1.252  -0.480  1.00  0.00     0.102 C 
ENDROOT
BRANCH   1   9
HETATM    9  C5  UNL     1       2.320   0.449   0.145  1.00  0.00    -0.010 A 
HETATM   10  C4  UNL     1       2.648   1.675   0.685  1.00  0.00     0.016 A 
HETATM   11  C3  UNL     1       3.935   2.136   0.786  1.00  0.00     0.037 A 
HETATM   12  C2  UNL     1       4.945   1.307   0.314  1.00  0.00     0.068 A 
HETATM   13  C18 UNL     1       4.629   0.071  -0.231  1.00  0.00     0.037 A 
HETATM   14  C17 UNL     1       3.327  -0.375  -0.325  1.00  0.00     0.016 A 
BRANCH  12  15
HETATM   15  O1  UNL     1       6.240   1.772   0.417  1.00  0.00    -0.356 OA
HETATM   16  C1  UNL     1       7.369   1.072  -0.005  1.00  0.00     0.210 C 
ENDBRANCH  12  15
ENDBRANCH   1   9
BRANCH   3  17
HETATM   17  C7  UNL     1      -2.583   0.419   0.882  1.00  0.00     0.192 A 
HETATM   18  N3  UNL     1      -3.340   1.132   0.396  1.00  0.00    -0.198 NA
HETATM   19  C8  UNL     1      -4.544   1.486   0.820  1.00  0.00     0.173 A 
HETATM   20  C10 UNL     1      -4.919   0.872   2.059  1.00  0.00     0.111 A 
HETATM   21  S1  UNL     1      -3.494  -0.145   2.475  1.00  0.00    -0.058 SA
BRANCH  19  22
HETATM   22  O2  UNL     1      -5.533   2.343   0.301  1.00  0.00    -0.339 OA
HETATM   23  C9  UNL     1      -5.239   2.984  -0.917  1.00  0.00     0.211 C 
ENDBRANCH  19  22
ENDBRANCH   3  17
BRANCH   7  24
HETATM   24  O3  UNL     1      -1.326  -3.375  -0.289  1.00  0.00    -0.384 OA
HETATM   25  C15 UNL     1      -1.957  -3.933   0.827  1.00  0.00     0.202 C 
ENDBRANCH   7  24
TORSDOF 5
