REMARK  5 active torsions:
REMARK  status: ('A' for Active; 'I' for Inactive)
REMARK    1  A    between atoms: O1_2  and  C2_3 
REMARK    2  A    between atoms: C5_6  and  C6_7 
REMARK    3  A    between atoms: N2_9  and  C7_10 
REMARK    4  A    between atoms: C10_15  and  C11_16 
REMARK    5  A    between atoms: C14_19  and  O2_20 
ROOT
HETATM    1  C6  UNL     1       1.369   0.649  -0.027  1.00  0.00     0.067 C 
HETATM    2  N1  UNL     1       0.868   1.788   0.229  1.00  0.00    -0.173 NA
HETATM    3  N2  UNL     1      -0.501   1.832  -0.063  1.00  0.00    -0.236 N 
HETATM    4  C10 UNL     1      -0.715   0.779  -1.009  1.00  0.00     0.151 C 
HETATM    5  C18 UNL     1       0.305  -0.246  -0.554  1.00  0.00     0.094 C 
ENDROOT
BRANCH   1   6
HETATM    6  C5  UNL     1       2.780   0.249   0.160  1.00  0.00    -0.010 A 
HETATM    7  C4  UNL     1       3.195  -1.039  -0.163  1.00  0.00     0.016 A 
HETATM    8  C3  UNL     1       4.507  -1.431   0.003  1.00  0.00     0.037 A 
HETATM    9  C2  UNL     1       5.392  -0.487   0.506  1.00  0.00     0.068 A 
HETATM   10  C20 UNL     1       5.017   0.801   0.838  1.00  0.00     0.037 A 
HETATM   11  C19 UNL     1       3.681   1.169   0.659  1.00  0.00     0.016 A 
BRANCH   9  12
HETATM   12  O1  UNL     1       6.754  -0.773   0.718  1.00  0.00    -0.356 OA
HETATM   13  C1  UNL     1       7.274  -2.062   0.418  1.00  0.00     0.210 C 
ENDBRANCH   9  12
ENDBRANCH   1   6
BRANCH   3  14
HETATM   14  C7  UNL     1      -1.347   2.793   0.551  1.00  0.00     0.189 A 
HETATM   15  N3  UNL     1      -2.098   2.827   1.698  1.00  0.00    -0.235 NA
HETATM   16  C8  UNL     1      -2.729   4.004   1.818  1.00  0.00     0.127 A 
HETATM   17  C9  UNL     1      -2.718   5.192   0.927  1.00  0.00     0.072 A 
HETATM   18  S1  UNL     1      -1.530   4.414  -0.355  1.00  0.00    -0.061 SA
ENDBRANCH   3  14
BRANCH   4  19
HETATM   19  C11 UNL     1      -2.038   0.130  -0.939  1.00  0.00    -0.033 A 
HETATM   20  C12 UNL     1      -2.169  -1.254  -0.986  1.00  0.00     0.012 A 
HETATM   21  C13 UNL     1      -3.337  -1.971  -0.929  1.00  0.00     0.037 A 
HETATM   22  C14 UNL     1      -4.501  -1.239  -0.815  1.00  0.00     0.068 A 
HETATM   23  C16 UNL     1      -4.457   0.140  -0.762  1.00  0.00     0.037 A 
HETATM   24  C17 UNL     1      -3.243   0.795  -0.824  1.00  0.00     0.012 A 
BRANCH  22  25
HETATM   25  O2  UNL     1      -5.715  -1.902  -0.753  1.00  0.00    -0.356 OA
HETATM   26  C15 UNL     1      -5.744  -3.314  -0.808  1.00  0.00     0.210 C 
ENDBRANCH  22  25
ENDBRANCH   4  19
TORSDOF 5
