REMARK  7 active torsions:
REMARK  status: ('A' for Active; 'I' for Inactive)
REMARK    1  A    between atoms: C7_7  and  N1_8 
REMARK    2  A    between atoms: N1_8  and  C8_9 
REMARK    3  A    between atoms: C11_15  and  O2_16 
REMARK    4  A    between atoms: O2_16  and  C12_17 
REMARK    5  A    between atoms: C12_17  and  C13_18 
REMARK    6  A    between atoms: C13_18  and  O3_19 
REMARK    7  A    between atoms: C15_21  and  O4_22 
ROOT
HETATM    1  C1  UNL     1      -9.005   1.129   0.883  1.00  0.00     0.018 C 
HETATM    2  C2  UNL     1      -7.903   0.744   1.252  1.00  0.00    -0.078 C 
HETATM    3  C3  UNL     1      -6.605   0.302   1.697  1.00  0.00     0.019 A 
HETATM    4  C4  UNL     1      -6.514  -0.464   2.837  1.00  0.00     0.021 A 
HETATM    5  C5  UNL     1      -5.255  -0.866   3.229  1.00  0.00     0.004 A 
HETATM    6  C6  UNL     1      -4.164  -0.490   2.475  1.00  0.00     0.029 A 
HETATM    7  C7  UNL     1      -4.248   0.272   1.340  1.00  0.00     0.035 A 
HETATM    8  C21 UNL     1      -5.506   0.656   0.974  1.00  0.00     0.050 A 
ENDROOT
BRANCH   7   9
HETATM    9  N1  UNL     1      -3.117   0.679   0.542  1.00  0.00    -0.338 N 
HETATM   10  H5  UNL     1      -3.335   1.243  -0.333  1.00  0.00     0.167 HD
BRANCH   9  11
HETATM   11  C8  UNL     1      -1.737   0.424   0.769  1.00  0.00     0.169 A 
HETATM   12  N2  UNL     1      -1.507   0.558   2.025  1.00  0.00    -0.088 NA
HETATM   13  O1  UNL     1      -0.262   0.379   2.567  1.00  0.00    -0.130 OA
HETATM   14  N3  UNL     1       0.780   0.039   1.713  1.00  0.00    -0.242 N 
HETATM   15  C9  UNL     1       0.572  -0.124   0.286  1.00  0.00     0.060 A 
HETATM   16  H6  UNL     1       1.718  -0.095   2.132  1.00  0.00     0.196 HD
HETATM   17  C10 UNL     1       1.472  -0.426  -0.619  1.00  0.00     0.114 C 
HETATM   18  C20 UNL     1      -0.765   0.074  -0.261  1.00  0.00     0.036 A 
HETATM   19  C11 UNL     1       2.840  -0.755  -1.100  1.00  0.00     0.086 C 
HETATM   20  C15 UNL     1       3.013  -1.001  -2.435  1.00  0.00     0.075 C 
HETATM   21  C16 UNL     1       2.541  -1.133  -3.843  1.00  0.00     0.093 C 
HETATM   22  C17 UNL     1       1.138  -0.566  -4.028  1.00  0.00     0.174 C 
HETATM   23  O5  UNL     1       0.439  -0.545  -2.886  1.00  0.00    -0.387 OA
HETATM   24  C18 UNL     1      -0.870  -0.204  -2.848  1.00  0.00     0.196 C 
HETATM   25  C19 UNL     1      -1.296   0.062  -1.443  1.00  0.00     0.016 C 
BRANCH  19  26
HETATM   26  O2  UNL     1       4.142  -0.893  -0.472  1.00  0.00    -0.350 OA
BRANCH  26  27
HETATM   27  C12 UNL     1       4.549   0.269   0.267  1.00  0.00     0.201 C 
BRANCH  27  28
HETATM   28  C13 UNL     1       5.926  -0.086   0.795  1.00  0.00     0.193 C 
BRANCH  28  29
HETATM   29  O3  UNL     1       6.512   0.904   1.544  1.00  0.00    -0.394 OA
HETATM   30  C14 UNL     1       5.783   1.254   2.671  1.00  0.00     0.201 C 
ENDBRANCH  28  29
ENDBRANCH  27  28
ENDBRANCH  26  27
ENDBRANCH  19  26
BRANCH  20  31
HETATM   31  O4  UNL     1       4.360  -1.296  -2.702  1.00  0.00    -0.362 OA
HETATM   32  H15 UNL     1       5.059  -0.579  -2.684  1.00  0.00     0.217 HD
ENDBRANCH  20  31
ENDBRANCH   9  11
ENDBRANCH   7   9
TORSDOF 7
