REMARK  10 active torsions:
REMARK  status: ('A' for Active; 'I' for Inactive)
REMARK    1  A    between atoms: C2_2  and  C3_3 
REMARK    2  A    between atoms: C7_7  and  N1_8 
REMARK    3  A    between atoms: N1_8  and  C8_9 
REMARK    4  A    between atoms: C10_13  and  C11_14 
REMARK    5  A    between atoms: C11_14  and  C12_15 
REMARK    6  A    between atoms: C12_15  and  C13_16 
REMARK    7  A    between atoms: C13_16  and  O1_17 
REMARK    8  A    between atoms: C16_20  and  C17_21 
REMARK    9  A    between atoms: C21_26  and  C22_27 
REMARK   10  A    between atoms: C22_27  and  O3_28 
ROOT
HETATM    1  C8  UNL     1       1.003   0.020  -1.084  1.00  0.00     0.138 C 
HETATM    2  N2  UNL     1       1.429   1.215  -1.439  1.00  0.00    -0.224 NA
HETATM    3  C9  UNL     1       0.511   2.288  -1.270  1.00  0.00     0.230 C 
HETATM    4  N3  UNL     1      -0.657   2.269  -0.843  1.00  0.00    -0.266 NA
HETATM    5  C10 UNL     1      -1.419   1.017  -0.386  1.00  0.00     0.093 C 
HETATM    6  C14 UNL     1      -0.320  -0.006  -0.461  1.00  0.00     0.019 C 
HETATM    7  C15 UNL     1      -0.254  -1.252   0.074  1.00  0.00     0.022 C 
HETATM    8  C16 UNL     1      -1.151  -2.106   0.874  1.00  0.00    -0.036 C 
HETATM    9  C19 UNL     1      -2.111  -1.798   1.772  1.00  0.00     0.141 C 
HETATM   10  O2  UNL     1      -2.544  -0.558   2.216  1.00  0.00    -0.362 OA
HETATM   11  C20 UNL     1      -2.103   0.739   2.132  1.00  0.00     0.184 C 
HETATM   12  C21 UNL     1      -1.799   1.483   0.944  1.00  0.00     0.069 C 
ENDROOT
BRANCH   1  13
HETATM   13  N1  UNL     1       1.891  -1.067  -1.258  1.00  0.00    -0.340 N 
HETATM   14  H7  UNL     1       1.372  -1.907  -1.618  1.00  0.00     0.167 HD
BRANCH  13  15
HETATM   15  C7  UNL     1       3.285  -0.990  -0.979  1.00  0.00     0.034 A 
HETATM   16  C6  UNL     1       3.990  -2.120  -1.263  1.00  0.00     0.029 A 
HETATM   17  C5  UNL     1       5.369  -2.178  -1.027  1.00  0.00     0.003 A 
HETATM   18  C4  UNL     1       6.028  -1.076  -0.499  1.00  0.00     0.011 A 
HETATM   19  C3  UNL     1       5.309   0.049  -0.219  1.00  0.00    -0.035 A 
HETATM   20  C24 UNL     1       3.951   0.088  -0.459  1.00  0.00     0.041 A 
BRANCH  19  21
HETATM   21  C2  UNL     1       5.923   1.240   0.335  1.00  0.00     0.001 C 
HETATM   22  C1  UNL     1       7.218   1.276   0.596  1.00  0.00     0.012 C 
ENDBRANCH  19  21
ENDBRANCH  13  15
ENDBRANCH   1  13
BRANCH   5  23
HETATM   23  C11 UNL     1      -2.315   0.953  -1.550  1.00  0.00     0.041 C 
BRANCH  23  24
HETATM   24  C12 UNL     1      -3.360   0.036  -1.904  1.00  0.00     0.029 C 
BRANCH  24  25
HETATM   25  C13 UNL     1      -4.611  -0.026  -1.100  1.00  0.00     0.164 C 
BRANCH  25  26
HETATM   26  O1  UNL     1      -4.534  -0.354   0.210  1.00  0.00    -0.401 OA
HETATM   27  H15 UNL     1      -5.454  -0.440   0.560  1.00  0.00     0.209 HD
ENDBRANCH  25  26
ENDBRANCH  24  25
ENDBRANCH  23  24
ENDBRANCH   5  23
BRANCH  12  28
HETATM   28  C22 UNL     1      -2.816   2.605   0.735  1.00  0.00     0.176 C 
BRANCH  28  29
HETATM   29  O3  UNL     1      -3.196   3.112   1.957  1.00  0.00    -0.395 OA
HETATM   30  C23 UNL     1      -2.243   3.773   2.687  1.00  0.00     0.201 C 
ENDBRANCH  28  29
ENDBRANCH  12  28
BRANCH   8  31
HETATM   31  C17 UNL     1      -0.976  -3.567   0.663  1.00  0.00     0.036 C 
HETATM   32  C18 UNL     1      -1.215  -4.006  -0.744  1.00  0.00     0.010 C 
ENDBRANCH   8  31
TORSDOF 10
