REMARK  8 active torsions:
REMARK  status: ('A' for Active; 'I' for Inactive)
REMARK    1  A    between atoms: C7_7  and  N1_8 
REMARK    2  A    between atoms: N1_8  and  C8_9 
REMARK    3  A    between atoms: C12_15  and  O1_16 
REMARK    4  A    between atoms: O1_16  and  C13_17 
REMARK    5  A    between atoms: C13_17  and  C14_18 
REMARK    6  A    between atoms: C14_18  and  O2_19 
REMARK    7  A    between atoms: C15_20  and  C16_21 
REMARK    8  A    between atoms: C16_21  and  O3_22 
ROOT
HETATM    1  C1  UNL     1      -7.801   1.518   0.634  1.00  0.00     0.018 C 
HETATM    2  C2  UNL     1      -6.982   0.661   0.399  1.00  0.00    -0.078 C 
HETATM    3  C3  UNL     1      -6.014  -0.338   0.146  1.00  0.00     0.019 A 
HETATM    4  C4  UNL     1      -6.403  -1.619  -0.161  1.00  0.00     0.021 A 
HETATM    5  C5  UNL     1      -5.435  -2.565  -0.401  1.00  0.00     0.004 A 
HETATM    6  C6  UNL     1      -4.110  -2.195  -0.325  1.00  0.00     0.029 A 
HETATM    7  C7  UNL     1      -3.648  -0.935  -0.024  1.00  0.00     0.035 A 
HETATM    8  C20 UNL     1      -4.675  -0.049   0.203  1.00  0.00     0.050 A 
ENDROOT
BRANCH   7   9
HETATM    9  N1  UNL     1      -2.273  -0.604   0.033  1.00  0.00    -0.340 N 
HETATM   10  H5  UNL     1      -2.167   0.334   0.432  1.00  0.00     0.167 HD
BRANCH   9  11
HETATM   11  C8  UNL     1      -1.166  -1.384  -0.375  1.00  0.00     0.142 A 
HETATM   12  N2  UNL     1      -1.253  -2.593  -0.931  1.00  0.00    -0.224 NA
HETATM   13  C9  UNL     1      -0.242  -3.369  -1.332  1.00  0.00     0.236 A 
HETATM   14  N3  UNL     1       0.983  -2.849  -1.141  1.00  0.00    -0.241 NA
HETATM   15  C10 UNL     1       1.173  -1.640  -0.589  1.00  0.00     0.074 A 
HETATM   16  C11 UNL     1       2.470  -1.227  -0.449  1.00  0.00     0.070 A 
HETATM   17  C19 UNL     1       0.098  -0.878  -0.192  1.00  0.00     0.039 A 
HETATM   18  C12 UNL     1       2.799  -0.013   0.100  1.00  0.00     0.079 A 
HETATM   19  C15 UNL     1       1.711   0.770   0.508  1.00  0.00    -0.000 A 
HETATM   20  C18 UNL     1       0.399   0.345   0.364  1.00  0.00     0.029 A 
BRANCH  18  21
HETATM   21  O1  UNL     1       3.991   0.580   0.329  1.00  0.00    -0.348 OA
BRANCH  21  22
HETATM   22  C13 UNL     1       5.290   0.215   0.099  1.00  0.00     0.201 C 
BRANCH  22  23
HETATM   23  C14 UNL     1       5.715  -0.021  -1.310  1.00  0.00     0.190 C 
BRANCH  23  24
HETATM   24  O2  UNL     1       7.087  -0.380  -1.278  1.00  0.00    -0.399 OA
HETATM   25  H12 UNL     1       7.666   0.416  -1.184  1.00  0.00     0.209 HD
ENDBRANCH  23  24
ENDBRANCH  22  23
ENDBRANCH  21  22
ENDBRANCH  18  21
BRANCH  19  26
HETATM   26  C16 UNL     1       1.893   2.129   1.131  1.00  0.00     0.208 C 
BRANCH  26  27
HETATM   27  O3  UNL     1       2.209   3.036   0.150  1.00  0.00    -0.391 OA
HETATM   28  C17 UNL     1       2.395   4.327   0.639  1.00  0.00     0.201 C 
ENDBRANCH  26  27
ENDBRANCH  19  26
ENDBRANCH   9  11
ENDBRANCH   7   9
TORSDOF 8
