REMARK  6 active torsions:
REMARK  status: ('A' for Active; 'I' for Inactive)
REMARK    1  A    between atoms: C3_3  and  C4_4 
REMARK    2  A    between atoms: C14_17  and  O1_18 
REMARK    3  A    between atoms: O1_18  and  C15_19 
REMARK    4  A    between atoms: C15_19  and  C16_20 
REMARK    5  A    between atoms: C16_20  and  O2_21 
REMARK    6  A    between atoms: C17_22  and  O3_23 
ROOT
HETATM    1  C1  UNL     1      -7.778  -1.593  -0.591  1.00  0.00     0.012 C 
HETATM    2  C2  UNL     1      -6.675  -2.086  -0.418  1.00  0.00    -0.113 C 
HETATM    3  C3  UNL     1      -5.365  -2.646  -0.211  1.00  0.00     0.131 C 
ENDROOT
BRANCH   3   4
HETATM    4  C4  UNL     1      -4.247  -1.738  -0.489  1.00  0.00    -0.044 A 
HETATM    5  C5  UNL     1      -3.647  -0.849   0.457  1.00  0.00     0.019 A 
HETATM    6  C6  UNL     1      -2.646  -0.333  -0.437  1.00  0.00    -0.034 A 
HETATM    7  C7  UNL     1      -1.930  -0.054  -1.319  1.00  0.00     0.040 A 
HETATM    8  C20 UNL     1      -1.935   0.508   0.628  1.00  0.00     0.008 C 
HETATM    9  C8  UNL     1      -2.633  -0.992  -2.159  1.00  0.00     0.031 A 
HETATM   10  C9  UNL     1      -3.730  -1.804  -1.814  1.00  0.00     0.037 A 
HETATM   11  N1  UNL     1      -1.897  -1.000  -3.471  1.00  0.00    -0.364 N 
HETATM   12  C10 UNL     1      -0.620  -1.792  -3.283  1.00  0.00     0.423 C 
HETATM   13  H7  UNL     1      -2.728  -0.479  -3.614  1.00  0.00     0.162 HD
HETATM   14  N2  UNL     1       0.038  -1.622  -2.213  1.00  0.00    -0.376 NA
HETATM   15  C11 UNL     1       1.221  -2.145  -1.690  1.00  0.00     0.254 C 
HETATM   16  N3  UNL     1       2.011  -1.465  -1.107  1.00  0.00    -0.444 NA
HETATM   17  C12 UNL     1       3.062  -0.968  -0.425  1.00  0.00     0.151 C 
HETATM   18  C13 UNL     1       2.381  -0.041   0.200  1.00  0.00     0.167 C 
HETATM   19  C14 UNL     1       2.629   1.040   1.192  1.00  0.00     0.083 C 
HETATM   20  C17 UNL     1       1.494   1.700   1.470  1.00  0.00     0.076 C 
HETATM   21  C18 UNL     1       0.101   2.187   1.540  1.00  0.00     0.094 C 
HETATM   22  C19 UNL     1      -0.859   1.287   0.789  1.00  0.00    -0.019 C 
BRANCH  19  23
HETATM   23  O1  UNL     1       3.837   1.401   1.809  1.00  0.00    -0.350 OA
BRANCH  23  24
HETATM   24  C15 UNL     1       4.959   1.915   1.171  1.00  0.00     0.201 C 
BRANCH  24  25
HETATM   25  C16 UNL     1       6.217   1.825   2.034  1.00  0.00     0.190 C 
BRANCH  25  26
HETATM   26  O2  UNL     1       7.303   2.363   1.321  1.00  0.00    -0.399 OA
HETATM   27  H16 UNL     1       7.772   3.051   1.861  1.00  0.00     0.209 HD
ENDBRANCH  25  26
ENDBRANCH  24  25
ENDBRANCH  23  24
ENDBRANCH  19  23
BRANCH  20  28
HETATM   28  O3  UNL     1       1.962   2.652   2.406  1.00  0.00    -0.362 OA
HETATM   29  H17 UNL     1       2.292   3.571   2.097  1.00  0.00     0.217 HD
ENDBRANCH  20  28
ENDBRANCH   3   4
TORSDOF 6
