REMARK  3 active torsions:
REMARK  status: ('A' for Active; 'I' for Inactive)
REMARK    1  A    between atoms: C4_5  and  C5_6 
REMARK    2  A    between atoms: C12_14  and  C13_15 
REMARK    3  A    between atoms: C13_15  and  N2_16 
ROOT
HETATM    1  C5  UNL     1      -1.705  -2.274   0.406  1.00  0.00     0.007 C 
HETATM    2  C6  UNL     1      -0.780  -2.072  -0.515  1.00  0.00     0.061 C 
HETATM    3  C7  UNL     1      -0.143  -3.206  -1.327  1.00  0.00     0.075 C 
HETATM    4  C8  UNL     1       0.834  -3.640  -0.176  1.00  0.00     0.032 C 
HETATM    5  C9  UNL     1      -0.178  -4.094   0.863  1.00  0.00    -0.019 C 
HETATM    6  C10 UNL     1      -1.338  -3.472   1.210  1.00  0.00     0.011 C 
HETATM    7  C11 UNL     1       1.537  -2.369   0.229  1.00  0.00     0.125 C 
HETATM    8  N1  UNL     1       1.885  -1.450  -0.793  1.00  0.00    -0.394 N 
HETATM    9  C12 UNL     1       1.000  -0.332  -1.035  1.00  0.00     0.251 C 
HETATM   10  O2  UNL     1      -0.367  -0.733  -0.734  1.00  0.00    -0.328 OA
HETATM   11  H11 UNL     1       2.223  -1.887  -1.678  1.00  0.00     0.155 HD
ENDROOT
BRANCH   1  12
HETATM   12  C4  UNL     1      -2.787  -1.351   0.430  1.00  0.00     0.024 C 
HETATM   13  C3  UNL     1      -3.697  -1.538   1.375  1.00  0.00    -0.003 C 
HETATM   14  C2  UNL     1      -4.963  -0.832   1.762  1.00  0.00     0.112 C 
HETATM   15  C1  UNL     1      -4.747   0.659   1.792  1.00  0.00     0.164 C 
HETATM   16  O1  UNL     1      -5.032   1.325   2.846  1.00  0.00    -0.292 OA
HETATM   17  C25 UNL     1      -4.219   1.499   0.701  1.00  0.00     0.024 A 
HETATM   18  C20 UNL     1      -3.411   1.069  -0.358  1.00  0.00     0.029 A 
HETATM   19  C24 UNL     1      -4.595   2.815   0.777  1.00  0.00     0.016 A 
HETATM   20  C19 UNL     1      -2.934  -0.303  -0.556  1.00  0.00     0.194 C 
HETATM   21  C21 UNL     1      -2.951   1.877  -1.353  1.00  0.00     0.016 A 
HETATM   22  O3  UNL     1      -2.594  -0.669  -1.742  1.00  0.00    -0.287 OA
HETATM   23  C22 UNL     1      -3.335   3.206  -1.271  1.00  0.00     0.001 A 
HETATM   24  C23 UNL     1      -4.141   3.659  -0.223  1.00  0.00     0.001 A 
ENDBRANCH   1  12
BRANCH   9  25
HETATM   25  C13 UNL     1       1.424   0.820  -0.170  1.00  0.00     0.325 C 
BRANCH  25  26
HETATM   26  N2  UNL     1       2.783   1.207  -0.516  1.00  0.00     0.092 N 
HETATM   27  C14 UNL     1       3.119   2.417   0.232  1.00  0.00     0.272 C 
HETATM   28  C15 UNL     1       4.290   3.057  -0.478  1.00  0.00     0.030 C 
HETATM   29  C16 UNL     1       5.420   2.051  -0.563  1.00  0.00     0.003 C 
HETATM   30  C17 UNL     1       5.081   0.852   0.260  1.00  0.00     0.030 C 
HETATM   31  C18 UNL     1       3.763   0.189  -0.142  1.00  0.00     0.272 C 
ENDBRANCH  25  26
ENDBRANCH   9  25
TORSDOF 3
