REMARK  2 active torsions:
REMARK  status: ('A' for Active; 'I' for Inactive)
REMARK    1  A    between atoms: O1_1  and  C1_2 
REMARK    2  A    between atoms: C3_5  and  N1_6 
ROOT
HETATM    1  N1  UNL     1       0.860   0.235   0.852  1.00  0.00    -0.232 N 
HETATM    2  N2  UNL     1      -0.118   1.208   1.077  1.00  0.00    -0.295 N 
HETATM    3  C4  UNL     1      -1.367   1.237   0.412  1.00  0.00     0.041 C 
HETATM    4  C5  UNL     1      -2.035   2.298   0.820  1.00  0.00    -0.004 C 
HETATM    5  C6  UNL     1      -2.859   2.850  -0.055  1.00  0.00    -0.012 C 
HETATM    6  C7  UNL     1      -3.893   1.848  -0.423  1.00  0.00     0.029 C 
HETATM    7  C8  UNL     1      -3.205   0.747  -1.182  1.00  0.00     0.015 C 
HETATM    8  C9  UNL     1      -1.930   0.298  -0.585  1.00  0.00     0.042 C 
HETATM    9  C10 UNL     1      -1.929  -1.101  -0.028  1.00  0.00     0.051 C 
HETATM   10  C11 UNL     1      -0.571  -1.701   0.028  1.00  0.00    -0.029 A 
HETATM   11  C12 UNL     1      -0.550  -3.033  -0.366  1.00  0.00     0.009 A 
HETATM   12  C13 UNL     1       0.597  -3.801  -0.399  1.00  0.00     0.001 A 
HETATM   13  C14 UNL     1       1.794  -3.205  -0.018  1.00  0.00     0.002 A 
HETATM   14  C15 UNL     1       1.783  -1.889   0.373  1.00  0.00     0.032 A 
HETATM   15  C16 UNL     1       0.642  -1.121   0.408  1.00  0.00     0.065 A 
HETATM   16  H3  UNL     1       0.189   1.904   1.784  1.00  0.00     0.187 HD
ENDROOT
BRANCH   1  17
HETATM   17  C3  UNL     1       2.280   0.517   1.056  1.00  0.00     0.195 A 
HETATM   18  S1  UNL     1       3.519   0.333   2.270  1.00  0.00    -0.058 SA
HETATM   19  C2  UNL     1       4.846   1.127   1.168  1.00  0.00     0.111 A 
HETATM   20  C1  UNL     1       4.073   1.400   0.031  1.00  0.00     0.171 A 
HETATM   21  N3  UNL     1       2.799   1.068   0.045  1.00  0.00    -0.198 NA
BRANCH  20  22
HETATM   22  O1  UNL     1       4.825   2.018  -0.995  1.00  0.00    -0.344 OA
HETATM   23  H1  UNL     1       4.848   3.025  -1.080  1.00  0.00     0.219 HD
ENDBRANCH  20  22
ENDBRANCH   1  17
TORSDOF 2
