REMARK  1 active torsions:
REMARK  status: ('A' for Active; 'I' for Inactive)
REMARK    1  A    between atoms: O1_2  and  C2_3 
ROOT
HETATM    1  C2  UNL     1      -2.874   0.156   1.114  1.00  0.00     0.085 C 
HETATM    2  C3  UNL     1      -2.526  -0.460   2.272  1.00  0.00     0.119 C 
HETATM    3  C4  UNL     1      -1.465  -1.422   2.688  1.00  0.00     0.285 C 
HETATM    4  O2  UNL     1      -1.856  -1.872   3.797  1.00  0.00    -0.260 OA
HETATM    5  O3  UNL     1      -0.329  -1.687   1.931  1.00  0.00    -0.317 OA
HETATM    6  C5  UNL     1       0.670  -0.862   1.381  1.00  0.00     0.197 C 
HETATM    7  C6  UNL     1       0.506  -0.398   0.013  1.00  0.00     0.050 C 
HETATM    8  C7  UNL     1       1.212   0.949  -0.148  1.00  0.00     0.059 C 
HETATM    9  C8  UNL     1       2.681   0.791  -0.179  1.00  0.00    -0.043 A 
HETATM   10  C9  UNL     1       3.407   1.914   0.192  1.00  0.00     0.008 A 
HETATM   11  C10 UNL     1       4.802   1.862   0.195  1.00  0.00     0.001 A 
HETATM   12  C11 UNL     1       5.482   0.702  -0.170  1.00  0.00     0.001 A 
HETATM   13  C12 UNL     1       4.731  -0.417  -0.541  1.00  0.00     0.016 A 
HETATM   14  C13 UNL     1       3.347  -0.362  -0.542  1.00  0.00     0.019 A 
HETATM   15  C14 UNL     1       2.539  -1.515  -0.925  1.00  0.00     0.190 C 
HETATM   16  O4  UNL     1       3.097  -2.642  -1.156  1.00  0.00    -0.289 OA
HETATM   17  C15 UNL     1       1.095  -1.362  -1.038  1.00  0.00     0.219 C 
HETATM   18  O5  UNL     1       0.694  -0.577  -2.188  1.00  0.00    -0.336 OA
HETATM   19  C16 UNL     1      -0.682  -0.336  -1.956  1.00  0.00     0.078 A 
HETATM   20  C17 UNL     1      -1.675  -0.223  -2.905  1.00  0.00     0.037 A 
HETATM   21  C18 UNL     1      -2.953   0.010  -2.457  1.00  0.00     0.004 A 
HETATM   22  C19 UNL     1      -3.242   0.126  -1.118  1.00  0.00     0.015 A 
HETATM   23  C20 UNL     1      -2.189  -0.000  -0.204  1.00  0.00     0.007 A 
HETATM   24  C21 UNL     1      -0.846  -0.237  -0.558  1.00  0.00     0.002 A 
ENDROOT
BRANCH   1  25
HETATM   25  O1  UNL     1      -3.940   1.034   1.000  1.00  0.00    -0.355 OA
HETATM   26  C1  UNL     1      -5.201   0.661   1.513  1.00  0.00     0.210 C 
ENDBRANCH   1  25
TORSDOF 1
