REMARK  3 active torsions:
REMARK  status: ('A' for Active; 'I' for Inactive)
REMARK    1  A    between atoms: N1_4  and  C4_5 
REMARK    2  A    between atoms: C4_5  and  C5_6 
REMARK    3  A    between atoms: C10_11  and  N2_12 
ROOT
HETATM    1  C1  UNL     1      -1.512  -2.737   0.949  1.00  0.00     0.045 C 
HETATM    2  C2  UNL     1      -2.034  -1.446   0.444  1.00  0.00    -0.059 C 
HETATM    3  C3  UNL     1      -0.894  -0.794   0.396  1.00  0.00     0.135 C 
HETATM    4  N1  UNL     1      -0.058   0.302   0.159  1.00  0.00    -0.393 N 
HETATM    5  C11 UNL     1       0.013   1.618  -0.507  1.00  0.00     0.201 C 
HETATM    6  S1  UNL     1      -1.143   2.828   0.247  1.00  0.00    -0.066 SA
HETATM    7  C12 UNL     1      -2.827   2.429  -0.128  1.00  0.00     0.198 C 
HETATM    8  N3  UNL     1      -3.702   3.253   0.372  1.00  0.00    -0.272 NA
HETATM    9  O1  UNL     1      -3.254   1.376  -0.864  1.00  0.00    -0.326 OA
HETATM   10  C13 UNL     1      -4.556   0.873  -0.863  1.00  0.00     0.205 C 
HETATM   11  C14 UNL     1      -4.406  -0.531  -0.300  1.00  0.00    -0.000 C 
HETATM   12  C15 UNL     1      -3.496  -1.396   0.180  1.00  0.00     0.002 C 
HETATM   13  H17 UNL     1      -3.286   4.031   0.922  1.00  0.00     0.189 HD
ENDROOT
BRANCH   4  14
HETATM   14  C4  UNL     1       1.134  -0.106   0.831  1.00  0.00     0.129 C 
BRANCH  14  15
HETATM   15  C5  UNL     1       2.271  -0.655   0.041  1.00  0.00     0.056 A 
HETATM   16  C6  UNL     1       3.433  -0.975   1.011  1.00  0.00     0.039 A 
HETATM   17  C7  UNL     1       4.667  -0.361   0.513  1.00  0.00    -0.026 A 
HETATM   18  C8  UNL     1       5.107   0.343  -0.516  1.00  0.00    -0.002 A 
HETATM   19  C9  UNL     1       3.986   0.588  -1.455  1.00  0.00     0.024 A 
HETATM   20  C10 UNL     1       2.810   0.086  -1.079  1.00  0.00     0.008 A 
BRANCH  20  21
HETATM   21  N2  UNL     1       1.940   0.314  -2.205  1.00  0.00    -0.402 N 
HETATM   22  H13 UNL     1       1.264   0.495  -2.969  1.00  0.00     0.156 HD
HETATM   23  H14 UNL     1       2.089   0.236  -3.247  1.00  0.00     0.156 HD
ENDBRANCH  20  21
ENDBRANCH  14  15
ENDBRANCH   4  14
TORSDOF 3
