REMARK  8 active torsions:
REMARK  status: ('A' for Active; 'I' for Inactive)
REMARK    1  A    between atoms: O1_1  and  C1_2 
REMARK    2  A    between atoms: C3_5  and  N1_6 
REMARK    3  A    between atoms: C4_8  and  C5_9 
REMARK    4  A    between atoms: C5_9  and  C6_10 
REMARK    5  A    between atoms: C7_11  and  C8_12 
REMARK    6  A    between atoms: C9_13  and  C10_14 
REMARK    7  A    between atoms: C10_14  and  S2_15 
REMARK    8  A    between atoms: C12_17  and  C13_18 
ROOT
HETATM    1  N1  UNL     1      -1.722  -0.117  -1.160  1.00  0.00    -0.237 N 
HETATM    2  N2  UNL     1      -0.818  -1.178  -1.128  1.00  0.00    -0.178 NA
HETATM    3  C4  UNL     1       0.258  -0.811  -0.502  1.00  0.00     0.038 C 
HETATM    4  C11 UNL     1       0.140   0.596  -0.044  1.00  0.00     0.089 C 
HETATM    5  C12 UNL     1      -1.368   0.796  -0.093  1.00  0.00     0.151 C 
ENDROOT
BRANCH   3   6
HETATM    6  C5  UNL     1       1.492  -1.628  -0.232  1.00  0.00     0.083 C 
BRANCH   6   7
HETATM    7  C6  UNL     1       2.614  -0.905  -0.868  1.00  0.00    -0.021 C 
HETATM    8  C7  UNL     1       3.677  -0.433  -0.250  1.00  0.00    -0.004 C 
BRANCH   8   9
HETATM    9  C8  UNL     1       4.791   0.282  -0.853  1.00  0.00    -0.004 C 
HETATM   10  C9  UNL     1       5.862   0.759  -0.239  1.00  0.00    -0.017 C 
BRANCH  10  11
HETATM   11  C10 UNL     1       6.476   0.860   1.082  1.00  0.00     0.098 C 
BRANCH  11  12
HETATM   12  S2  UNL     1       5.475   0.083   2.361  1.00  0.00    -0.178 SA
HETATM   13  H11 UNL     1       4.673   1.108   2.940  1.00  0.00     0.101 HD
ENDBRANCH  11  12
ENDBRANCH  10  11
ENDBRANCH   8   9
ENDBRANCH   6   7
ENDBRANCH   3   6
BRANCH   1  14
HETATM   14  C3  UNL     1      -2.774  -0.136  -2.189  1.00  0.00     0.192 A 
HETATM   15  S1  UNL     1      -4.282  -0.982  -1.407  1.00  0.00    -0.058 SA
HETATM   16  C2  UNL     1      -5.244  -0.755  -3.025  1.00  0.00     0.111 A 
HETATM   17  C1  UNL     1      -4.263  -0.098  -3.828  1.00  0.00     0.171 A 
HETATM   18  N3  UNL     1      -3.109   0.116  -3.231  1.00  0.00    -0.198 NA
BRANCH  17  19
HETATM   19  O1  UNL     1      -4.337   0.357  -5.160  1.00  0.00    -0.344 OA
HETATM   20  H1  UNL     1      -4.547   1.290  -5.414  1.00  0.00     0.219 HD
ENDBRANCH  17  19
ENDBRANCH   1  14
BRANCH   5  21
HETATM   21  C13 UNL     1      -2.035   0.450   1.181  1.00  0.00    -0.033 A 
HETATM   22  C14 UNL     1      -2.087  -0.850   1.639  1.00  0.00     0.009 A 
HETATM   23  C15 UNL     1      -2.731  -1.128   2.849  1.00  0.00     0.001 A 
HETATM   24  C16 UNL     1      -3.322  -0.116   3.604  1.00  0.00     0.000 A 
HETATM   25  C17 UNL     1      -3.279   1.201   3.158  1.00  0.00     0.001 A 
HETATM   26  C18 UNL     1      -2.633   1.417   1.960  1.00  0.00     0.009 A 
ENDBRANCH   5  21
TORSDOF 8
