REMARK  4 active torsions:
REMARK  status: ('A' for Active; 'I' for Inactive)
REMARK    1  A    between atoms: C3_3  and  C4_4 
REMARK    2  A    between atoms: C5_5  and  C6_6 
REMARK    3  A    between atoms: N2_8  and  C7_9 
REMARK    4  A    between atoms: C7_9  and  C8_10 
ROOT
HETATM    1  C6  UNL     1       1.117   0.740  -0.528  1.00  0.00     0.087 C 
HETATM    2  N1  UNL     1       0.116   0.188  -0.019  1.00  0.00    -0.176 NA
HETATM    3  N2  UNL     1      -0.971   0.632   0.675  1.00  0.00    -0.294 N 
HETATM    4  C13 UNL     1      -1.514   1.723   1.411  1.00  0.00     0.202 C 
HETATM    5  S1  UNL     1      -1.694   3.278   0.544  1.00  0.00    -0.203 SA
HETATM    6  C14 UNL     1      -0.120   4.044   0.228  1.00  0.00     0.242 A 
HETATM    7  C15 UNL     1       1.153   4.142  -0.067  1.00  0.00     0.112 A 
HETATM    8  N3  UNL     1       0.905   2.766  -0.118  1.00  0.00    -0.266 NA
HETATM    9  C16 UNL     1       1.764   2.021  -0.729  1.00  0.00     0.095 C 
ENDROOT
BRANCH   3  10
HETATM   10  C7  UNL     1      -1.820  -0.565   0.543  1.00  0.00     0.167 C 
BRANCH  10  11
HETATM   11  C8  UNL     1      -3.062  -0.439   1.359  1.00  0.00    -0.103 C 
HETATM   12  B1  UNL     1      -4.711   0.191   1.083  1.00  0.00     0.207 B 
HETATM   13  C9  UNL     1      -5.865  -1.299   1.786  1.00  0.00    -0.081 C 
HETATM   14  C10 UNL     1      -5.315  -1.606   3.001  1.00  0.00    -0.016 C 
HETATM   15  C11 UNL     1      -4.017  -1.468   3.518  1.00  0.00    -0.002 C 
HETATM   16  C12 UNL     1      -3.030  -0.912   2.679  1.00  0.00    -0.008 C 
ENDBRANCH  10  11
ENDBRANCH   3  10
BRANCH   1  17
HETATM   17  C5  UNL     1       1.827  -0.414  -1.093  1.00  0.00     0.034 C 
HETATM   18  C4  UNL     1       2.888  -0.796  -1.760  1.00  0.00     0.002 C 
BRANCH  18  19
HETATM   19  C3  UNL     1       3.793  -1.687  -2.402  1.00  0.00    -0.004 C 
HETATM   20  C2  UNL     1       4.893  -1.421  -3.021  1.00  0.00    -0.031 C 
HETATM   21  C1  UNL     1       5.568  -2.586  -3.557  1.00  0.00     0.036 C 
ENDBRANCH  18  19
ENDBRANCH   1  17
TORSDOF 4
