REMARK  3 active torsions:
REMARK  status: ('A' for Active; 'I' for Inactive)
REMARK    1  A    between atoms: C2_2  and  C3_3 
REMARK    2  A    between atoms: N2_14  and  C12_15 
REMARK    3  A    between atoms: C13_17  and  O1_18 
ROOT
HETATM    1  C3  UNL     1      -0.982   0.670  -0.507  1.00  0.00     0.060 C 
HETATM    2  C4  UNL     1      -2.343   0.764  -1.087  1.00  0.00    -0.021 C 
HETATM    3  C5  UNL     1      -2.837  -0.189  -0.375  1.00  0.00    -0.104 C 
HETATM    4  B1  UNL     1      -1.932  -1.905  -1.823  1.00  0.00     0.205 B 
HETATM    5  C6  UNL     1      -0.258  -1.545  -1.226  1.00  0.00    -0.049 C 
HETATM    6  C7  UNL     1      -0.426  -0.611  -0.069  1.00  0.00     0.075 C 
HETATM    7  C8  UNL     1      -0.900  -1.251   1.189  1.00  0.00     0.081 C 
HETATM    8  C9  UNL     1      -2.382  -1.222   1.399  1.00  0.00    -0.015 C 
HETATM    9  C10 UNL     1      -3.508  -0.918   0.672  1.00  0.00    -0.009 C 
HETATM   10  C11 UNL     1      -0.187  -0.528   2.260  1.00  0.00     0.123 C 
HETATM   11  N1  UNL     1       0.864   0.003   1.749  1.00  0.00    -0.185 NA
HETATM   12  N2  UNL     1       0.974  -0.278   0.378  1.00  0.00    -0.235 N 
ENDROOT
BRANCH  12  13
HETATM   13  C12 UNL     1       2.251  -0.216  -0.325  1.00  0.00     0.192 A 
HETATM   14  N3  UNL     1       2.870   0.544  -0.891  1.00  0.00    -0.198 NA
HETATM   15  C13 UNL     1       4.049   0.404  -1.479  1.00  0.00     0.171 A 
HETATM   16  C14 UNL     1       4.606  -0.922  -1.368  1.00  0.00     0.111 A 
HETATM   17  S1  UNL     1       3.267  -1.821  -0.374  1.00  0.00    -0.058 SA
BRANCH  15  18
HETATM   18  O1  UNL     1       4.631   1.485  -2.124  1.00  0.00    -0.344 OA
HETATM   19  H11 UNL     1       5.124   2.210  -1.615  1.00  0.00     0.219 HD
ENDBRANCH  15  18
ENDBRANCH  12  13
BRANCH   1  20
HETATM   20  C2  UNL     1      -0.763   1.777   0.494  1.00  0.00    -0.026 C 
HETATM   21  C1  UNL     1      -1.779   2.421   1.042  1.00  0.00     0.007 C 
ENDBRANCH   1  20
TORSDOF 3
