REMARK  0 active torsions:
REMARK  status: ('A' for Active; 'I' for Inactive)
ROOT
HETATM    1  C1  UNL     1      -2.905   1.950  -0.135  1.00  0.00     0.017 C 
HETATM    2  C2  UNL     1      -3.261   0.532   0.274  1.00  0.00     0.038 A 
HETATM    3  C3  UNL     1      -4.283   0.056  -0.684  1.00  0.00    -0.020 A 
HETATM    4  C4  UNL     1      -4.341  -0.963  -1.520  1.00  0.00    -0.004 A 
HETATM    5  C5  UNL     1      -3.179  -1.820  -1.532  1.00  0.00    -0.002 A 
HETATM    6  C6  UNL     1      -2.230  -1.466  -0.711  1.00  0.00     0.007 A 
HETATM    7  C7  UNL     1      -2.061  -0.359   0.256  1.00  0.00     0.081 A 
HETATM    8  C8  UNL     1      -1.843  -0.948   1.626  1.00  0.00     0.116 C 
HETATM    9  S1  UNL     1      -0.140  -1.025   2.154  1.00  0.00    -0.134 SA
HETATM   10  C9  UNL     1       0.876  -2.133   1.227  1.00  0.00     0.102 C 
HETATM   11  C10 UNL     1       2.055  -1.539   1.007  1.00  0.00     0.171 C 
HETATM   12  N1  UNL     1       2.663  -0.315   1.312  1.00  0.00    -0.223 NA
HETATM   13  C11 UNL     1       2.205   0.872   1.155  1.00  0.00     0.079 C 
HETATM   14  C12 UNL     1       3.303   1.736   1.658  1.00  0.00     0.045 C 
HETATM   15  C13 UNL     1       4.406   1.864   0.963  1.00  0.00    -0.024 C 
HETATM   16  C14 UNL     1       4.284   2.256  -0.278  1.00  0.00     0.012 C 
HETATM   17  C15 UNL     1       3.588   1.108  -0.845  1.00  0.00    -0.001 C 
HETATM   18  C16 UNL     1       3.719  -0.201  -0.734  1.00  0.00    -0.000 C 
HETATM   19  C17 UNL     1       3.381  -1.651  -1.004  1.00  0.00     0.205 C 
HETATM   20  O1  UNL     1       3.049  -2.228   0.279  1.00  0.00    -0.330 OA
HETATM   21  C18 UNL     1       0.965   1.497   0.639  1.00  0.00     0.169 C 
HETATM   22  N2  UNL     1       0.372   0.420   0.341  1.00  0.00    -0.189 NA
HETATM   23  N3  UNL     1      -0.900   0.405  -0.213  1.00  0.00    -0.299 N 
HETATM   24  H19 UNL     1      -1.051   1.003  -1.054  1.00  0.00     0.183 HD
ENDROOT
TORSDOF 0
