REMARK  6 active torsions:
REMARK  status: ('A' for Active; 'I' for Inactive)
REMARK    1  A    between atoms: C3_3  and  C4_4 
REMARK    2  A    between atoms: C5_5  and  C6_6 
REMARK    3  A    between atoms: C7_7  and  C8_8 
REMARK    4  A    between atoms: C9_9  and  C10_10 
REMARK    5  A    between atoms: N2_17  and  C16_18 
REMARK    6  A    between atoms: C17_20  and  O1_21 
ROOT
HETATM    1  C1  UNL     1       7.374  -0.618  -0.068  1.00  0.00     0.112 C 
HETATM    2  C2  UNL     1       6.017  -0.200   0.361  1.00  0.00    -0.106 C 
HETATM    3  C3  UNL     1       4.907   0.129   0.693  1.00  0.00    -0.079 C 
ENDROOT
BRANCH   3   4
HETATM    4  C4  UNL     1       3.585   0.532   1.090  1.00  0.00     0.064 C 
HETATM    5  C5  UNL     1       2.548  -0.029   0.527  1.00  0.00     0.009 C 
BRANCH   5   6
HETATM    6  C6  UNL     1       1.170   0.353   0.902  1.00  0.00    -0.001 C 
HETATM    7  C7  UNL     1       0.068  -0.161   0.387  1.00  0.00     0.007 C 
BRANCH   7   8
HETATM    8  C8  UNL     1      -1.300   0.203   0.743  1.00  0.00     0.190 A 
HETATM    9  C9  UNL     1      -2.289  -0.514  -0.098  1.00  0.00     0.093 A 
HETATM   10  N1  UNL     1      -2.787   0.518  -0.734  1.00  0.00    -0.171 NA
HETATM   11  N2  UNL     1      -1.881   1.304   0.017  1.00  0.00    -0.231 N 
BRANCH   9  12
HETATM   12  C10 UNL     1      -2.663  -1.916  -0.244  1.00  0.00    -0.007 A 
HETATM   13  C11 UNL     1      -3.633  -2.324  -1.113  1.00  0.00     0.013 A 
HETATM   14  C12 UNL     1      -3.977  -3.655  -1.241  1.00  0.00     0.001 A 
HETATM   15  C13 UNL     1      -3.357  -4.644  -0.494  1.00  0.00     0.000 A 
HETATM   16  C14 UNL     1      -2.362  -4.237   0.401  1.00  0.00     0.001 A 
HETATM   17  C15 UNL     1      -2.037  -2.901   0.509  1.00  0.00     0.013 A 
ENDBRANCH   9  12
BRANCH  11  18
HETATM   18  C16 UNL     1      -1.690   2.748  -0.020  1.00  0.00     0.192 A 
HETATM   19  N3  UNL     1      -2.145   3.723   0.551  1.00  0.00    -0.198 NA
HETATM   20  C17 UNL     1      -1.726   4.960   0.260  1.00  0.00     0.171 A 
HETATM   21  C18 UNL     1      -0.656   5.084  -0.819  1.00  0.00     0.111 A 
HETATM   22  S1  UNL     1      -0.461   3.242  -1.222  1.00  0.00    -0.058 SA
BRANCH  20  23
HETATM   23  O1  UNL     1      -2.384   5.922   1.038  1.00  0.00    -0.344 OA
HETATM   24  H14 UNL     1      -3.166   6.463   0.752  1.00  0.00     0.219 HD
ENDBRANCH  20  23
ENDBRANCH  11  18
ENDBRANCH   7   8
ENDBRANCH   5   6
ENDBRANCH   3   4
TORSDOF 6
