REMARK  4 active torsions:
REMARK  status: ('A' for Active; 'I' for Inactive)
REMARK    1  A    between atoms: C2_2  and  C3_3 
REMARK    2  A    between atoms: C11_12  and  C12_13 
REMARK    3  A    between atoms: C12_13  and  O2_14 
REMARK    4  A    between atoms: O2_14  and  C13_15 
ROOT
HETATM    1  C3  UNL     1       4.423  -0.446   0.039  1.00  0.00     0.007 C 
HETATM    2  C4  UNL     1       3.089  -0.411   0.016  1.00  0.00    -0.005 A 
HETATM    3  C5  UNL     1       2.534  -1.757  -0.153  1.00  0.00     0.047 A 
HETATM    4  C6  UNL     1       1.061  -1.743  -0.303  1.00  0.00     0.047 A 
HETATM    5  C7  UNL     1       0.465  -0.436  -0.148  1.00  0.00    -0.006 A 
HETATM    6  C8  UNL     1       1.040   0.824   0.060  1.00  0.00     0.134 A 
HETATM    7  O1  UNL     1       0.149   1.794   0.141  1.00  0.00    -0.304 OA
HETATM    8  C9  UNL     1      -1.063   1.260  -0.005  1.00  0.00     0.099 A 
HETATM    9  C10 UNL     1      -0.884  -0.093  -0.181  1.00  0.00     0.016 A 
HETATM   10  C11 UNL     1      -2.098  -0.771  -0.347  1.00  0.00    -0.019 A 
HETATM   11  C14 UNL     1      -3.313  -0.070  -0.324  1.00  0.00     0.022 A 
HETATM   12  C15 UNL     1      -3.376   1.292  -0.140  1.00  0.00    -0.022 A 
HETATM   13  C16 UNL     1      -4.609   1.903  -0.130  1.00  0.00     0.012 A 
HETATM   14  C17 UNL     1      -4.621   3.263   0.056  1.00  0.00     0.001 A 
HETATM   15  C18 UNL     1      -3.482   4.001   0.225  1.00  0.00     0.001 A 
HETATM   16  C19 UNL     1      -2.255   3.371   0.213  1.00  0.00     0.015 A 
HETATM   17  C20 UNL     1      -2.212   2.007   0.029  1.00  0.00     0.009 A 
HETATM   18  C21 UNL     1       2.489   0.904   0.160  1.00  0.00     0.212 A 
HETATM   19  O4  UNL     1       3.150   1.931   0.341  1.00  0.00    -0.285 OA
ENDROOT
BRANCH  10  20
HETATM   20  C12 UNL     1      -2.136  -2.241  -0.539  1.00  0.00     0.217 C 
BRANCH  20  21
HETATM   21  O2  UNL     1      -1.939  -2.943   0.676  1.00  0.00    -0.324 OA
BRANCH  21  22
HETATM   22  C13 UNL     1      -1.934  -4.327   0.735  1.00  0.00     0.398 C 
HETATM   23  O3  UNL     1      -2.140  -4.499  -0.509  1.00  0.00    -0.276 OA
ENDBRANCH  21  22
ENDBRANCH  20  21
ENDBRANCH  10  20
BRANCH   1  24
HETATM   24  C2  UNL     1       5.247   0.721   0.193  1.00  0.00    -0.026 C 
HETATM   25  C1  UNL     1       6.549   0.926   0.242  1.00  0.00     0.031 C 
ENDBRANCH   1  24
TORSDOF 4
