REMARK  5 active torsions:
REMARK  status: ('A' for Active; 'I' for Inactive)
REMARK    1  A    between atoms: C2_2  and  C3_3 
REMARK    2  A    between atoms: N2_6  and  C5_7 
REMARK    3  A    between atoms: C6_9  and  O1_10 
REMARK    4  A    between atoms: C8_13  and  P1_14 
REMARK    5  A    between atoms: C8_13  and  C9_15 
ROOT
HETATM    1  C3  UNL     1      -0.874   2.390  -0.946  1.00  0.00     0.071 C 
HETATM    2  C4  UNL     1      -0.448   1.148  -0.902  1.00  0.00     0.051 C 
HETATM    3  N1  UNL     1       0.897   1.100  -1.484  1.00  0.00    -0.299 N 
HETATM    4  N2  UNL     1       1.164   0.216  -0.406  1.00  0.00    -0.244 N 
HETATM    5  C8  UNL     1      -0.128  -0.324  -0.768  1.00  0.00     0.140 C 
HETATM    6  H5  UNL     1       1.593   1.414  -2.245  1.00  0.00     0.186 HD
ENDROOT
BRANCH   5   7
HETATM    7  P1  UNL     1       0.058  -1.174  -2.396  1.00  0.00    -0.097 P 
HETATM    8  H8  UNL     1       0.956  -0.381  -3.215  1.00  0.00     0.057 HD
HETATM    9  H9  UNL     1       0.505  -2.525  -2.245  1.00  0.00     0.057 HD
ENDBRANCH   5   7
BRANCH   5  10
HETATM   10  C9  UNL     1      -0.775  -1.043   0.301  1.00  0.00    -0.012 A 
HETATM   11  C10 UNL     1      -0.394  -1.321   1.598  1.00  0.00     0.011 A 
HETATM   12  C11 UNL     1      -1.126  -2.028   2.500  1.00  0.00     0.001 A 
HETATM   13  C12 UNL     1      -2.344  -2.529   2.152  1.00  0.00     0.001 A 
HETATM   14  C13 UNL     1      -2.775  -2.281   0.866  1.00  0.00     0.007 A 
HETATM   15  C14 UNL     1      -2.018  -1.551  -0.062  1.00  0.00    -0.052 A 
HETATM   16  C15 UNL     1      -2.635  -1.379  -1.400  1.00  0.00     0.049 C 
ENDBRANCH   5  10
BRANCH   4  17
HETATM   17  C5  UNL     1       2.367   0.214   0.453  1.00  0.00     0.191 A 
HETATM   18  N3  UNL     1       3.486  -0.511   0.209  1.00  0.00    -0.198 NA
HETATM   19  C6  UNL     1       4.419  -0.312   1.146  1.00  0.00     0.171 A 
HETATM   20  C7  UNL     1       4.303   0.561   2.304  1.00  0.00     0.111 A 
HETATM   21  S1  UNL     1       2.626   1.213   2.051  1.00  0.00    -0.058 SA
BRANCH  19  22
HETATM   22  O1  UNL     1       5.547  -1.100   0.820  1.00  0.00    -0.344 OA
HETATM   23  H6  UNL     1       6.335  -0.703   0.285  1.00  0.00     0.219 HD
ENDBRANCH  19  22
ENDBRANCH   4  17
BRANCH   1  24
HETATM   24  C2  UNL     1      -2.033   3.165  -0.581  1.00  0.00    -0.025 C 
HETATM   25  C1  UNL     1      -1.608   4.377  -0.995  1.00  0.00     0.007 C 
ENDBRANCH   1  24
TORSDOF 5
