REMARK  6 active torsions:
REMARK  status: ('A' for Active; 'I' for Inactive)
REMARK    1  A    between atoms: O1_1  and  C1_2 
REMARK    2  A    between atoms: C3_5  and  C4_6 
REMARK    3  A    between atoms: C4_6  and  N1_7 
REMARK    4  A    between atoms: C5_9  and  C6_10 
REMARK    5  A    between atoms: C6_10  and  C7_11 
REMARK    6  A    between atoms: C7_11  and  C8_12 
ROOT
HETATM    1  N1  UNL     1       1.990  -0.895   0.979  1.00  0.00    -0.263 N 
HETATM    2  N2  UNL     1       1.065  -0.097   1.514  1.00  0.00    -0.175 NA
HETATM    3  C5  UNL     1      -0.143  -0.370   0.978  1.00  0.00     0.067 A 
HETATM    4  C13 UNL     1       0.027  -1.389   0.059  1.00  0.00     0.019 A 
HETATM    5  C14 UNL     1      -0.822  -2.096  -0.801  1.00  0.00     0.016 A 
HETATM    6  C15 UNL     1      -0.370  -3.101  -1.639  1.00  0.00     0.001 A 
HETATM    7  C16 UNL     1       0.978  -3.351  -1.561  1.00  0.00     0.002 A 
HETATM    8  C17 UNL     1       1.874  -2.704  -0.746  1.00  0.00     0.032 A 
HETATM    9  C18 UNL     1       1.379  -1.706   0.075  1.00  0.00     0.065 A 
ENDROOT
BRANCH   3  10
HETATM   10  C6  UNL     1      -1.497   0.200   1.199  1.00  0.00     0.065 C 
BRANCH  10  11
HETATM   11  C7  UNL     1      -1.886   1.121   0.052  1.00  0.00     0.027 C 
BRANCH  11  12
HETATM   12  C8  UNL     1      -3.212   1.656   0.301  1.00  0.00    -0.121 C 
HETATM   13  B1  UNL     1      -3.679   3.155   1.158  1.00  0.00     0.209 B 
HETATM   14  C9  UNL     1      -5.398   2.784   1.895  1.00  0.00    -0.040 C 
HETATM   15  C10 UNL     1      -6.073   1.879   1.144  1.00  0.00     0.102 C 
HETATM   16  F1  UNL     1      -7.362   1.993   1.542  1.00  0.00    -0.207 F 
HETATM   17  C11 UNL     1      -5.600   1.036   0.203  1.00  0.00     0.040 C 
HETATM   18  C12 UNL     1      -4.293   0.967  -0.149  1.00  0.00    -0.006 C 
ENDBRANCH  11  12
ENDBRANCH  10  11
ENDBRANCH   3  10
BRANCH   1  19
HETATM   19  C4  UNL     1       3.401  -0.894   1.307  1.00  0.00     0.218 C 
BRANCH  19  20
HETATM   20  C3  UNL     1       4.212   0.009   0.488  1.00  0.00     0.097 A 
HETATM   21  S1  UNL     1       4.907  -0.773  -1.095  1.00  0.00    -0.080 SA
HETATM   22  C2  UNL     1       5.784   0.744  -1.668  1.00  0.00     0.109 A 
HETATM   23  C1  UNL     1       5.390   1.610  -0.532  1.00  0.00     0.169 A 
HETATM   24  N3  UNL     1       4.648   1.326   0.522  1.00  0.00    -0.220 NA
BRANCH  23  25
HETATM   25  O1  UNL     1       5.756   2.964  -0.362  1.00  0.00    -0.344 OA
HETATM   26  H1  UNL     1       6.596   3.177   0.159  1.00  0.00     0.219 HD
ENDBRANCH  23  25
ENDBRANCH  19  20
ENDBRANCH   1  19
TORSDOF 6
