REMARK  3 active torsions:
REMARK  status: ('A' for Active; 'I' for Inactive)
REMARK    1  A    between atoms: C4_4  and  C5_5 
REMARK    2  A    between atoms: N2_11  and  C10_12 
REMARK    3  A    between atoms: C11_14  and  O1_15 
ROOT
HETATM    1  C1  UNL     1      -2.606   0.859  -0.511  1.00  0.00     0.044 C 
HETATM    2  C2  UNL     1      -1.406   1.344   0.174  1.00  0.00    -0.070 C 
HETATM    3  C3  UNL     1      -0.499   0.474   0.536  1.00  0.00     0.000 C 
HETATM    4  C4  UNL     1      -0.599  -0.965   0.314  1.00  0.00     0.092 C 
HETATM    5  N1  UNL     1       0.616  -1.326   0.016  1.00  0.00    -0.169 NA
HETATM    6  N2  UNL     1       1.511  -0.264   0.027  1.00  0.00    -0.236 N 
HETATM    7  C13 UNL     1       0.875   0.521   1.112  1.00  0.00     0.151 C 
HETATM    8  C14 UNL     1       1.406   1.886   1.217  1.00  0.00     0.059 C 
HETATM    9  C15 UNL     1       1.081   2.857   0.185  1.00  0.00    -0.028 C 
HETATM   10  C16 UNL     1      -0.095   3.344  -0.263  1.00  0.00    -0.026 C 
HETATM   11  C17 UNL     1      -1.328   2.814   0.398  1.00  0.00     0.061 C 
ENDROOT
BRANCH   6  12
HETATM   12  C10 UNL     1       2.595  -0.276  -0.882  1.00  0.00     0.192 A 
HETATM   13  N3  UNL     1       3.674  -0.716  -0.737  1.00  0.00    -0.198 NA
HETATM   14  C11 UNL     1       4.657  -0.699  -1.623  1.00  0.00     0.171 A 
HETATM   15  C12 UNL     1       4.395  -0.083  -2.902  1.00  0.00     0.111 A 
HETATM   16  S1  UNL     1       2.605   0.440  -2.636  1.00  0.00    -0.058 SA
BRANCH  14  17
HETATM   17  O1  UNL     1       5.939  -1.240  -1.407  1.00  0.00    -0.344 OA
HETATM   18  H9  UNL     1       6.652  -0.731  -0.899  1.00  0.00     0.219 HD
ENDBRANCH  14  17
ENDBRANCH   6  12
BRANCH   4  19
HETATM   19  C5  UNL     1      -1.849  -1.761   0.539  1.00  0.00    -0.024 A 
HETATM   20  C6  UNL     1      -1.600  -3.037   0.161  1.00  0.00     0.009 A 
HETATM   21  C7  UNL     1      -2.697  -3.958   0.319  1.00  0.00    -0.003 A 
HETATM   22  C8  UNL     1      -3.648  -3.217   0.824  1.00  0.00    -0.022 A 
HETATM   23  C9  UNL     1      -3.223  -1.792   1.024  1.00  0.00     0.068 A 
ENDBRANCH   4  19
TORSDOF 3
