REMARK  6 active torsions:
REMARK  status: ('A' for Active; 'I' for Inactive)
REMARK    1  A    between atoms: O1_2  and  C2_3 
REMARK    2  A    between atoms: C3_4  and  O2_5 
REMARK    3  A    between atoms: O2_5  and  C4_6 
REMARK    4  A    between atoms: C9_11  and  B1_12 
REMARK    5  A    between atoms: C10_14  and  C11_15 
REMARK    6  A    between atoms: C11_15  and  C12_16 
ROOT
HETATM    1  C2  UNL     1      -1.131  -0.765   0.339  1.00  0.00     0.212 A 
HETATM    2  C3  UNL     1      -0.173   0.192  -0.326  1.00  0.00     0.091 A 
HETATM    3  C10 UNL     1      -0.597   1.396  -0.748  1.00  0.00     0.031 A 
HETATM    4  C13 UNL     1      -2.004   1.879  -0.633  1.00  0.00     0.192 A 
HETATM    5  O4  UNL     1      -2.512   2.982  -0.991  1.00  0.00    -0.287 OA
HETATM    6  C14 UNL     1      -3.016   0.988  -0.017  1.00  0.00     0.024 A 
HETATM    7  C15 UNL     1      -4.342   1.324   0.125  1.00  0.00     0.016 A 
HETATM    8  C16 UNL     1      -5.255   0.459   0.689  1.00  0.00     0.001 A 
HETATM    9  C17 UNL     1      -4.735  -0.753   1.092  1.00  0.00     0.001 A 
HETATM   10  C18 UNL     1      -3.408  -1.089   0.950  1.00  0.00     0.011 A 
HETATM   11  C19 UNL     1      -2.490  -0.227   0.387  1.00  0.00    -0.009 A 
ENDROOT
BRANCH   2  12
HETATM   12  O2  UNL     1       1.123   0.272  -0.694  1.00  0.00    -0.343 OA
BRANCH  12  13
HETATM   13  C4  UNL     1       2.076  -0.738  -0.626  1.00  0.00     0.151 A 
HETATM   14  C5  UNL     1       3.023  -0.674  -1.823  1.00  0.00     0.063 A 
HETATM   15  C6  UNL     1       4.404  -0.572  -1.345  1.00  0.00    -0.024 A 
HETATM   16  C7  UNL     1       5.081  -0.517  -0.211  1.00  0.00    -0.004 A 
HETATM   17  C8  UNL     1       4.147  -0.578   0.936  1.00  0.00    -0.006 A 
HETATM   18  C9  UNL     1       2.855  -0.673   0.617  1.00  0.00    -0.075 A 
BRANCH  18  19
HETATM   19  B1  UNL     1       2.072  -0.713   1.982  1.00  0.00     0.302 B 
HETATM   20 CL1  UNL     1       2.147   0.796   3.061  1.00  0.00    -0.210 Cl
HETATM   21  H11 UNL     1       1.896  -1.790   2.433  1.00  0.00    -0.002 HD
ENDBRANCH  18  19
ENDBRANCH  12  13
ENDBRANCH   2  12
BRANCH   1  22
HETATM   22  O1  UNL     1      -1.059  -2.021  -0.197  1.00  0.00    -0.379 OA
HETATM   23  C1  UNL     1      -0.621  -3.033   0.602  1.00  0.00     0.202 C 
ENDBRANCH   1  22
BRANCH   3  24
HETATM   24  C11 UNL     1       0.133   2.537  -1.434  1.00  0.00     0.114 C 
BRANCH  24  25
HETATM   25  C12 UNL     1       0.054   3.768  -0.586  1.00  0.00     0.235 C 
HETATM   26  O3  UNL     1       0.624   4.749  -1.070  1.00  0.00    -0.307 OA
ENDBRANCH  24  25
ENDBRANCH   3  24
TORSDOF 6
