REMARK  7 active torsions:
REMARK  status: ('A' for Active; 'I' for Inactive)
REMARK    1  A    between atoms: C2_2  and  C3_3 
REMARK    2  A    between atoms: C4_5  and  C5_6 
REMARK    3  A    between atoms: C5_6  and  O1_7 
REMARK    4  A    between atoms: O1_7  and  C6_8 
REMARK    5  A    between atoms: C8_10  and  C9_11 
REMARK    6  A    between atoms: N2_17  and  C14_18 
REMARK    7  A    between atoms: C15_20  and  O2_21 
ROOT
HETATM    1  C6  UNL     1       0.093  -0.117  -0.692  1.00  0.00     0.254 C 
HETATM    2  C7  UNL     1      -0.519  -1.410  -0.166  1.00  0.00     0.117 C 
HETATM    3  C8  UNL     1      -1.976  -1.168  -0.235  1.00  0.00     0.066 C 
HETATM    4  N1  UNL     1      -2.226   0.055  -0.488  1.00  0.00    -0.172 NA
HETATM    5  N2  UNL     1      -1.027   0.766  -0.617  1.00  0.00    -0.216 N 
ENDROOT
BRANCH   1   6
HETATM    6  O1  UNL     1       1.168   0.284   0.092  1.00  0.00    -0.361 OA
BRANCH   6   7
HETATM    7  C5  UNL     1       2.331   0.385  -0.656  1.00  0.00     0.201 C 
BRANCH   7   8
HETATM    8  C4  UNL     1       3.443   0.816   0.233  1.00  0.00     0.041 C 
HETATM    9  C3  UNL     1       4.530   0.089   0.420  1.00  0.00     0.111 C 
HETATM   10  F1  UNL     1       4.686  -1.101  -0.197  1.00  0.00    -0.207 F 
BRANCH   9  11
HETATM   11  C2  UNL     1       5.588   0.561   1.302  1.00  0.00     0.015 C 
HETATM   12  C1  UNL     1       6.707  -0.089   1.554  1.00  0.00     0.034 C 
ENDBRANCH   9  11
ENDBRANCH   7   8
ENDBRANCH   6   7
ENDBRANCH   1   6
BRANCH   5  13
HETATM   13  C14 UNL     1      -1.143   2.209  -0.649  1.00  0.00     0.194 A 
HETATM   14  N3  UNL     1      -1.153   3.117   0.022  1.00  0.00    -0.198 NA
HETATM   15  C15 UNL     1      -1.276   4.396  -0.218  1.00  0.00     0.171 A 
HETATM   16  C16 UNL     1      -1.417   4.689  -1.502  1.00  0.00     0.111 A 
HETATM   17  S1  UNL     1      -1.364   3.021  -2.356  1.00  0.00    -0.058 SA
BRANCH  15  18
HETATM   18  O2  UNL     1      -1.249   5.309   0.853  1.00  0.00    -0.344 OA
HETATM   19  H15 UNL     1      -0.389   5.652   1.259  1.00  0.00     0.219 HD
ENDBRANCH  15  18
ENDBRANCH   5  13
BRANCH   3  20
HETATM   20  C9  UNL     1      -2.983  -2.226  -0.033  1.00  0.00    -0.028 A 
HETATM   21  C10 UNL     1      -2.788  -3.503   0.231  1.00  0.00     0.009 A 
HETATM   22  C11 UNL     1      -4.016  -4.273   0.371  1.00  0.00    -0.003 A 
HETATM   23  C12 UNL     1      -4.983  -3.392   0.178  1.00  0.00    -0.022 A 
HETATM   24  C13 UNL     1      -4.473  -2.035  -0.092  1.00  0.00     0.067 A 
ENDBRANCH   3  20
TORSDOF 7
