REMARK  4 active torsions:
REMARK  status: ('A' for Active; 'I' for Inactive)
REMARK    1  A    between atoms: O1_1  and  C1_2 
REMARK    2  A    between atoms: C3_5  and  N1_6 
REMARK    3  A    between atoms: C4_8  and  C5_9 
REMARK    4  A    between atoms: C11_15  and  C12_16 
ROOT
HETATM    1  N1  UNL     1       0.111   0.623  -0.720  1.00  0.00    -0.236 N 
HETATM    2  N2  UNL     1       1.452   0.228  -0.658  1.00  0.00    -0.173 NA
HETATM    3  C4  UNL     1       1.571  -0.906  -0.102  1.00  0.00     0.067 C 
HETATM    4  C10 UNL     1       0.238  -1.418   0.296  1.00  0.00     0.094 C 
HETATM    5  C11 UNL     1      -0.654  -0.573  -0.590  1.00  0.00     0.151 C 
ENDROOT
BRANCH   1   6
HETATM    6  C3  UNL     1      -0.295   2.052  -0.893  1.00  0.00     0.192 A 
HETATM    7  S1  UNL     1      -2.157   2.389  -0.981  1.00  0.00    -0.058 SA
HETATM    8  C2  UNL     1      -1.821   4.204  -1.179  1.00  0.00     0.111 A 
HETATM    9  C1  UNL     1      -0.442   4.239  -1.146  1.00  0.00     0.171 A 
HETATM   10  N3  UNL     1       0.151   3.076  -0.998  1.00  0.00    -0.198 NA
BRANCH   9  11
HETATM   11  O1  UNL     1       0.319   5.422  -1.260  1.00  0.00    -0.344 OA
HETATM   12  H1  UNL     1       0.892   5.754  -0.470  1.00  0.00     0.219 HD
ENDBRANCH   9  11
ENDBRANCH   1   6
BRANCH   5  13
HETATM   13  C12 UNL     1      -1.998  -0.402   0.008  1.00  0.00    -0.033 A 
HETATM   14  C13 UNL     1      -3.100  -0.997  -0.577  1.00  0.00     0.012 A 
HETATM   15  C14 UNL     1      -4.379  -0.882  -0.068  1.00  0.00     0.043 A 
HETATM   16  C15 UNL     1      -4.547  -0.126   1.093  1.00  0.00     0.116 A 
HETATM   17  F1  UNL     1      -5.792  -0.008   1.597  1.00  0.00    -0.206 F 
HETATM   18  C16 UNL     1      -3.433   0.471   1.679  1.00  0.00     0.043 A 
HETATM   19  C17 UNL     1      -2.156   0.341   1.147  1.00  0.00     0.012 A 
ENDBRANCH   5  13
BRANCH   3  20
HETATM   20  C5  UNL     1       2.848  -1.586   0.109  1.00  0.00    -0.013 A 
HETATM   21  C6  UNL     1       4.018  -1.091  -0.258  1.00  0.00    -0.010 A 
HETATM   22  C7  UNL     1       5.054  -2.079   0.132  1.00  0.00     0.055 A 
HETATM   23  C8  UNL     1       4.327  -3.191   0.762  1.00  0.00    -0.022 A 
HETATM   24  C9  UNL     1       3.048  -2.900   0.746  1.00  0.00     0.009 A 
ENDBRANCH   3  20
TORSDOF 4
