REMARK  6 active torsions:
REMARK  status: ('A' for Active; 'I' for Inactive)
REMARK    1  A    between atoms: C3_3  and  S1_4 
REMARK    2  A    between atoms: S1_4  and  C4_5 
REMARK    3  A    between atoms: C4_5  and  C5_6 
REMARK    4  A    between atoms: N2_8  and  C6_9 
REMARK    5  A    between atoms: C7_11  and  O1_12 
REMARK    6  A    between atoms: C9_15  and  C10_16 
ROOT
HETATM    1  C5  UNL     1       1.449  -0.836   0.192  1.00  0.00     0.044 C 
HETATM    2  N1  UNL     1       0.551  -1.748  -0.000  1.00  0.00    -0.178 NA
HETATM    3  N2  UNL     1      -0.708  -1.227  -0.155  1.00  0.00    -0.237 N 
HETATM    4  C9  UNL     1      -0.526   0.152  -0.518  1.00  0.00     0.151 C 
HETATM    5  C16 UNL     1       0.778   0.487   0.180  1.00  0.00     0.089 C 
ENDROOT
BRANCH   3   6
HETATM    6  C6  UNL     1      -1.858  -2.083   0.055  1.00  0.00     0.192 A 
HETATM    7  N3  UNL     1      -2.146  -3.130   0.334  1.00  0.00    -0.198 NA
HETATM    8  C7  UNL     1      -3.319  -3.694   0.462  1.00  0.00     0.171 A 
HETATM    9  C8  UNL     1      -4.353  -2.891   0.220  1.00  0.00     0.111 A 
HETATM   10  S2  UNL     1      -3.529  -1.235  -0.213  1.00  0.00    -0.058 SA
BRANCH   8  11
HETATM   11  O1  UNL     1      -3.373  -5.055   0.833  1.00  0.00    -0.344 OA
HETATM   12  H8  UNL     1      -3.252  -5.781   0.137  1.00  0.00     0.219 HD
ENDBRANCH   8  11
ENDBRANCH   3   6
BRANCH   4  13
HETATM   13  C10 UNL     1      -1.624   1.047  -0.098  1.00  0.00    -0.033 A 
HETATM   14  C11 UNL     1      -2.114   1.975  -1.023  1.00  0.00     0.012 A 
HETATM   15  C12 UNL     1      -3.140   2.868  -0.740  1.00  0.00     0.043 A 
HETATM   16  C13 UNL     1      -3.680   2.817   0.510  1.00  0.00     0.116 A 
HETATM   17  F1  UNL     1      -4.689   3.674   0.832  1.00  0.00    -0.206 F 
HETATM   18  C14 UNL     1      -3.251   1.934   1.469  1.00  0.00     0.043 A 
HETATM   19  C15 UNL     1      -2.219   1.066   1.121  1.00  0.00     0.012 A 
ENDBRANCH   4  13
BRANCH   1  20
HETATM   20  C4  UNL     1       2.889  -1.114   0.389  1.00  0.00     0.135 C 
BRANCH  20  21
HETATM   21  S1  UNL     1       3.920  -0.336  -0.878  1.00  0.00    -0.136 SA
BRANCH  21  22
HETATM   22  C3  UNL     1       3.921   1.430  -0.806  1.00  0.00     0.041 C 
HETATM   23  C2  UNL     1       5.126   1.676  -0.275  1.00  0.00    -0.024 C 
HETATM   24  C1  UNL     1       5.992   0.507   0.052  1.00  0.00     0.036 C 
ENDBRANCH  21  22
ENDBRANCH  20  21
ENDBRANCH   1  20
TORSDOF 6
