REMARK  6 active torsions:
REMARK  status: ('A' for Active; 'I' for Inactive)
REMARK    1  A    between atoms: C2_2  and  C3_3 
REMARK    2  A    between atoms: C4_4  and  C5_5 
REMARK    3  A    between atoms: C6_6  and  C7_7 
REMARK    4  A    between atoms: N2_9  and  C8_10 
REMARK    5  A    between atoms: C9_12  and  O1_13 
REMARK    6  A    between atoms: C11_16  and  C12_17 
ROOT
HETATM    1  C7  UNL     1       0.559   0.756   0.193  1.00  0.00     0.057 C 
HETATM    2  N1  UNL     1      -0.448   1.270   0.797  1.00  0.00    -0.174 NA
HETATM    3  N2  UNL     1      -1.576   1.374   0.009  1.00  0.00    -0.236 N 
HETATM    4  C11 UNL     1      -1.387   0.295  -0.938  1.00  0.00     0.151 C 
HETATM    5  C18 UNL     1       0.115   0.450  -1.192  1.00  0.00     0.093 C 
ENDROOT
BRANCH   3   6
HETATM    6  C8  UNL     1      -2.707   2.230  -0.013  1.00  0.00     0.192 A 
HETATM    7  N3  UNL     1      -3.705   2.438  -0.595  1.00  0.00    -0.198 NA
HETATM    8  C9  UNL     1      -4.594   3.374  -0.341  1.00  0.00     0.171 A 
HETATM    9  C10 UNL     1      -4.296   4.254   0.802  1.00  0.00     0.111 A 
HETATM   10  S1  UNL     1      -2.679   3.541   1.359  1.00  0.00    -0.058 SA
BRANCH   8  11
HETATM   11  O1  UNL     1      -5.695   3.368  -1.225  1.00  0.00    -0.344 OA
HETATM   12  H8  UNL     1      -5.692   4.059  -1.986  1.00  0.00     0.219 HD
ENDBRANCH   8  11
ENDBRANCH   3   6
BRANCH   4  13
HETATM   13  C12 UNL     1      -1.733  -0.999  -0.326  1.00  0.00    -0.033 A 
HETATM   14  C13 UNL     1      -2.927  -0.952   0.401  1.00  0.00     0.012 A 
HETATM   15  C14 UNL     1      -3.411  -2.076   1.045  1.00  0.00     0.043 A 
HETATM   16  C15 UNL     1      -2.739  -3.278   0.996  1.00  0.00     0.116 A 
HETATM   17  F1  UNL     1      -3.118  -4.437   1.586  1.00  0.00    -0.206 F 
HETATM   18  C16 UNL     1      -1.553  -3.322   0.273  1.00  0.00     0.043 A 
HETATM   19  C17 UNL     1      -1.067  -2.206  -0.370  1.00  0.00     0.012 A 
ENDBRANCH   4  13
BRANCH   1  20
HETATM   20  C6  UNL     1       1.876   0.520   0.754  1.00  0.00     0.029 C 
HETATM   21  C5  UNL     1       2.812  -0.015   0.018  1.00  0.00     0.002 C 
BRANCH  21  22
HETATM   22  C4  UNL     1       4.142  -0.262   0.559  1.00  0.00     0.000 C 
HETATM   23  C3  UNL     1       5.136  -0.801  -0.137  1.00  0.00    -0.001 C 
BRANCH  23  24
HETATM   24  C2  UNL     1       6.450  -1.041   0.409  1.00  0.00    -0.010 C 
HETATM   25  C1  UNL     1       7.428  -1.584  -0.312  1.00  0.00     0.011 C 
ENDBRANCH  23  24
ENDBRANCH  21  22
ENDBRANCH   1  20
TORSDOF 6
