REMARK  3 active torsions:
REMARK  status: ('A' for Active; 'I' for Inactive)
REMARK    1  A    between atoms: C9_9  and  C10_10 
REMARK    2  A    between atoms: N2_17  and  C16_18 
REMARK    3  A    between atoms: C17_20  and  O1_21 
ROOT
HETATM    1  C1  UNL     1      -0.701   3.815   0.624  1.00  0.00     0.043 C 
HETATM    2  C2  UNL     1       0.026   2.643   0.059  1.00  0.00    -0.083 C 
HETATM    3  C3  UNL     1       1.015   2.982  -0.747  1.00  0.00     0.002 C 
HETATM    4  C4  UNL     1       1.988   2.200  -1.517  1.00  0.00    -0.002 C 
HETATM    5  C5  UNL     1       1.859   0.882  -1.725  1.00  0.00     0.001 C 
HETATM    6  C6  UNL     1       0.907  -0.135  -1.359  1.00  0.00     0.145 C 
HETATM    7  C7  UNL     1      -0.420   0.353  -0.851  1.00  0.00     0.073 C 
HETATM    8  C8  UNL     1      -0.302   1.250   0.352  1.00  0.00     0.047 C 
HETATM    9  C9  UNL     1      -0.923  -0.950  -0.275  1.00  0.00     0.072 C 
HETATM   10  N1  UNL     1       0.097  -1.708  -0.020  1.00  0.00    -0.173 NA
HETATM   11  N2  UNL     1       1.284  -1.073  -0.357  1.00  0.00    -0.237 N 
ENDROOT
BRANCH  11  12
HETATM   12  C16 UNL     1       2.526  -1.399   0.252  1.00  0.00     0.192 A 
HETATM   13  N3  UNL     1       2.962  -2.207   1.140  1.00  0.00    -0.198 NA
HETATM   14  C17 UNL     1       4.271  -2.164   1.408  1.00  0.00     0.171 A 
HETATM   15  C18 UNL     1       5.172  -1.284   0.765  1.00  0.00     0.111 A 
HETATM   16  S1  UNL     1       4.012  -0.419  -0.349  1.00  0.00    -0.058 SA
BRANCH  14  17
HETATM   17  O1  UNL     1       4.601  -3.109   2.403  1.00  0.00    -0.344 OA
HETATM   18  H16 UNL     1       5.407  -2.867   2.972  1.00  0.00     0.219 HD
ENDBRANCH  14  17
ENDBRANCH  11  12
BRANCH   9  19
HETATM   19  C10 UNL     1      -2.343  -1.212  -0.080  1.00  0.00    -0.009 A 
HETATM   20  C11 UNL     1      -3.336  -0.298  -0.403  1.00  0.00     0.013 A 
HETATM   21  C12 UNL     1      -4.670  -0.595  -0.198  1.00  0.00     0.001 A 
HETATM   22  C13 UNL     1      -5.032  -1.815   0.335  1.00  0.00     0.000 A 
HETATM   23  C14 UNL     1      -4.028  -2.714   0.651  1.00  0.00     0.001 A 
HETATM   24  C15 UNL     1      -2.679  -2.449   0.458  1.00  0.00     0.013 A 
ENDBRANCH   9  19
TORSDOF 3
