REMARK  9 active torsions:
REMARK  status: ('A' for Active; 'I' for Inactive)
REMARK    1  A    between atoms: C3_3  and  C4_4 
REMARK    2  A    between atoms: C5_5  and  C6_6 
REMARK    3  A    between atoms: C5_5  and  C8_8 
REMARK    4  A    between atoms: C8_8  and  C9_9 
REMARK    5  A    between atoms: C9_9  and  C10_11 
REMARK    6  A    between atoms: C10_11  and  C11_12 
REMARK    7  A    between atoms: C19_20  and  O2_21 
REMARK    8  A    between atoms: C21_23  and  C22_24 
REMARK    9  A    between atoms: C22_24  and  O3_26 
ROOT
HETATM    1  C11 UNL     1      -1.024   0.329  -0.912  1.00  0.00    -0.039 A 
HETATM    2  C12 UNL     1      -0.938  -0.117  -2.252  1.00  0.00     0.020 A 
HETATM    3  C13 UNL     1      -2.053  -0.418  -3.000  1.00  0.00    -0.023 A 
HETATM    4  C14 UNL     1      -1.852  -0.847  -4.319  1.00  0.00     0.012 A 
HETATM    5  C15 UNL     1      -3.004  -1.128  -5.017  1.00  0.00     0.001 A 
HETATM    6  C16 UNL     1      -4.294  -1.036  -4.570  1.00  0.00     0.001 A 
HETATM    7  C17 UNL     1      -4.416  -0.605  -3.254  1.00  0.00     0.015 A 
HETATM    8  C18 UNL     1      -3.320  -0.301  -2.481  1.00  0.00     0.008 A 
HETATM    9  C19 UNL     1      -3.377   0.133  -1.179  1.00  0.00     0.088 A 
HETATM   10  C21 UNL     1      -2.291   0.449  -0.386  1.00  0.00     0.011 A 
ENDROOT
BRANCH   1  11
HETATM   11  C10 UNL     1       0.302   0.564  -0.302  1.00  0.00     0.118 C 
BRANCH  11  12
HETATM   12  C9  UNL     1       0.794  -0.548   0.556  1.00  0.00     0.135 C 
HETATM   13  O1  UNL     1       0.498  -1.096   1.601  1.00  0.00    -0.297 OA
BRANCH  12  14
HETATM   14  C8  UNL     1       2.009  -1.289   0.098  1.00  0.00     0.112 C 
BRANCH  14  15
HETATM   15  C5  UNL     1       3.261  -0.792   0.693  1.00  0.00    -0.073 C 
HETATM   16  C4  UNL     1       3.126   0.228   1.541  1.00  0.00     0.003 C 
BRANCH  16  17
HETATM   17  C3  UNL     1       3.946   1.078   2.371  1.00  0.00    -0.004 C 
HETATM   18  C2  UNL     1       3.891   2.089   3.219  1.00  0.00    -0.031 C 
HETATM   19  C1  UNL     1       5.168   2.579   3.806  1.00  0.00     0.036 C 
ENDBRANCH  16  17
BRANCH  15  20
HETATM   20  C6  UNL     1       4.588  -1.365   0.383  1.00  0.00     0.030 C 
HETATM   21  C7  UNL     1       4.683  -2.827   0.750  1.00  0.00     0.010 C 
ENDBRANCH  15  20
ENDBRANCH  14  15
ENDBRANCH  12  14
ENDBRANCH  11  12
ENDBRANCH   1  11
BRANCH  10  22
HETATM   22  C22 UNL     1      -2.348   0.947   0.982  1.00  0.00     0.150 C 
HETATM   23  C23 UNL     1      -2.549   2.452   1.055  1.00  0.00     0.044 C 
BRANCH  22  24
HETATM   24  O3  UNL     1      -3.403   0.344   1.656  1.00  0.00    -0.391 OA
HETATM   25  H28 UNL     1      -3.446   0.583   2.620  1.00  0.00     0.210 HD
ENDBRANCH  22  24
ENDBRANCH  10  22
BRANCH   9  26
HETATM   26  O2  UNL     1      -4.661   0.260  -0.622  1.00  0.00    -0.354 OA
HETATM   27  C20 UNL     1      -5.349  -0.753   0.045  1.00  0.00     0.210 C 
ENDBRANCH   9  26
TORSDOF 9
