REMARK  5 active torsions:
REMARK  status: ('A' for Active; 'I' for Inactive)
REMARK    1  A    between atoms: O1_1  and  C1_2 
REMARK    2  A    between atoms: C3_5  and  N1_6 
REMARK    3  A    between atoms: C4_8  and  C5_9 
REMARK    4  A    between atoms: C12_16  and  C13_17 
REMARK    5  A    between atoms: C14_18  and  C15_19 
ROOT
HETATM    1  N1  UNL     1      -0.211   1.469  -0.168  1.00  0.00    -0.237 N 
HETATM    2  N2  UNL     1      -1.400   0.839  -0.510  1.00  0.00    -0.173 NA
HETATM    3  C4  UNL     1      -1.410  -0.391  -0.163  1.00  0.00     0.067 C 
HETATM    4  C11 UNL     1      -0.097  -0.701   0.503  1.00  0.00     0.093 C 
HETATM    5  C12 UNL     1       0.760   0.381  -0.138  1.00  0.00     0.141 C 
ENDROOT
BRANCH   1   6
HETATM    6  C3  UNL     1      -0.149   2.901   0.068  1.00  0.00     0.192 A 
HETATM    7  S1  UNL     1       0.206   4.234  -1.241  1.00  0.00    -0.058 SA
HETATM    8  C2  UNL     1       0.066   5.552  -0.004  1.00  0.00     0.111 A 
HETATM    9  C1  UNL     1      -0.212   4.845   1.150  1.00  0.00     0.171 A 
HETATM   10  N3  UNL     1      -0.286   3.527   1.017  1.00  0.00    -0.198 NA
BRANCH   9  11
HETATM   11  O1  UNL     1      -0.405   5.489   2.388  1.00  0.00    -0.344 OA
HETATM   12  H1  UNL     1      -1.312   5.478   2.854  1.00  0.00     0.219 HD
ENDBRANCH   9  11
ENDBRANCH   1   6
BRANCH   5  13
HETATM   13  C13 UNL     1       1.933   0.699   0.675  1.00  0.00     0.001 C 
HETATM   14  C14 UNL     1       3.042   0.017   0.577  1.00  0.00    -0.001 C 
BRANCH  14  15
HETATM   15  C15 UNL     1       3.186  -1.104  -0.347  1.00  0.00     0.013 C 
HETATM   16  C16 UNL     1       4.303  -1.799  -0.454  1.00  0.00    -0.013 A 
HETATM   17  C17 UNL     1       5.181  -2.834  -0.969  1.00  0.00     0.037 A 
HETATM   18  C18 UNL     1       5.674  -1.987   0.003  1.00  0.00     0.045 A 
HETATM   19 CL1  UNL     1       7.134  -1.727   0.896  1.00  0.00    -0.083 Cl
ENDBRANCH  14  15
ENDBRANCH   5  13
BRANCH   3  20
HETATM   20  C5  UNL     1      -2.480  -1.358  -0.357  1.00  0.00    -0.010 A 
HETATM   21  C6  UNL     1      -3.631  -0.927  -0.987  1.00  0.00     0.013 A 
HETATM   22  C7  UNL     1      -4.674  -1.807  -1.194  1.00  0.00     0.001 A 
HETATM   23  C8  UNL     1      -4.575  -3.119  -0.776  1.00  0.00     0.000 A 
HETATM   24  C9  UNL     1      -3.416  -3.538  -0.146  1.00  0.00     0.001 A 
HETATM   25  C10 UNL     1      -2.362  -2.654   0.065  1.00  0.00     0.013 A 
ENDBRANCH   3  20
TORSDOF 5
