REMARK  2 active torsions:
REMARK  status: ('A' for Active; 'I' for Inactive)
REMARK    1  A    between atoms: O1_1  and  C1_2 
REMARK    2  A    between atoms: C3_5  and  N1_6 
ROOT
HETATM    1  N1  UNL     1       1.764   0.486   0.161  1.00  0.00    -0.212 N 
HETATM    2  N2  UNL     1       1.951  -0.681   0.866  1.00  0.00    -0.150 NA
HETATM    3  C4  UNL     1       0.895  -1.351   1.084  1.00  0.00     0.151 A 
HETATM    4  C5  UNL     1      -0.239  -0.600   0.466  1.00  0.00     0.141 A 
HETATM    5  C6  UNL     1       0.380   0.603  -0.133  1.00  0.00     0.043 A 
HETATM    6  C7  UNL     1      -0.207   1.558  -0.807  1.00  0.00     0.012 C 
HETATM    7  C8  UNL     1      -1.638   1.365  -0.918  1.00  0.00     0.063 C 
HETATM    8  C9  UNL     1      -2.919   1.592  -1.264  1.00  0.00     0.000 C 
HETATM    9 CL1  UNL     1      -4.011   2.710  -2.129  1.00  0.00    -0.093 Cl
HETATM   10  C10 UNL     1      -3.671   0.422  -0.684  1.00  0.00     0.031 C 
HETATM   11  C11 UNL     1      -4.191  -0.676  -0.108  1.00  0.00     0.120 C 
HETATM   12  C12 UNL     1      -3.549  -1.661   0.591  1.00  0.00    -0.099 C 
HETATM   13  C13 UNL     1      -2.992  -2.492   1.166  1.00  0.00    -0.099 C 
HETATM   14  C14 UNL     1      -2.300  -3.485   1.842  1.00  0.00     0.091 C 
HETATM   15  C15 UNL     1      -0.970  -3.556   2.084  1.00  0.00     0.053 C 
HETATM   16  C16 UNL     1       0.517  -3.382   2.209  1.00  0.00     0.098 C 
HETATM   17  N3  UNL     1       1.395  -2.502   1.831  1.00  0.00    -0.247 NA
ENDROOT
BRANCH   1  18
HETATM   18  C3  UNL     1       2.796   1.479  -0.252  1.00  0.00     0.196 A 
HETATM   19  S1  UNL     1       3.486   2.939   0.715  1.00  0.00    -0.058 SA
HETATM   20  C2  UNL     1       4.583   3.398  -0.686  1.00  0.00     0.111 A 
HETATM   21  C1  UNL     1       4.273   2.424  -1.624  1.00  0.00     0.171 A 
HETATM   22  N4  UNL     1       3.341   1.514  -1.253  1.00  0.00    -0.198 NA
BRANCH  21  23
HETATM   23  O1  UNL     1       4.887   2.376  -2.893  1.00  0.00    -0.344 OA
HETATM   24  H1  UNL     1       5.394   1.592  -3.207  1.00  0.00     0.219 HD
ENDBRANCH  21  23
ENDBRANCH   1  18
TORSDOF 2
