REMARK  10 active torsions:
REMARK  status: ('A' for Active; 'I' for Inactive)
REMARK    1  A    between atoms: C4_4  and  C5_5 
REMARK    2  A    between atoms: C5_5  and  C6_6 
REMARK    3  A    between atoms: C6_6  and  S1_7 
REMARK    4  A    between atoms: S1_7  and  C7_8 
REMARK    5  A    between atoms: C8_10  and  C9_11 
REMARK    6  A    between atoms: C8_10  and  O1_18 
REMARK    7  A    between atoms: C10_12  and  C11_13 
REMARK    8  A    between atoms: C11_13  and  C12_14 
REMARK    9  A    between atoms: O1_18  and  C15_19 
REMARK   10  A    between atoms: C16_21  and  O2_22 
ROOT
HETATM    1  C1  UNL     1       8.443   0.616  -0.103  1.00  0.00     0.017 C 
HETATM    2  C2  UNL     1       7.465   1.266  -0.237  1.00  0.00    -0.089 C 
HETATM    3  C3  UNL     1       6.315   2.056  -0.408  1.00  0.00     0.063 C 
HETATM    4  C4  UNL     1       5.072   1.755  -0.719  1.00  0.00     0.006 C 
ENDROOT
BRANCH   4   5
HETATM    5  C5  UNL     1       3.699   2.229  -0.972  1.00  0.00    -0.009 C 
BRANCH   5   6
HETATM    6  C6  UNL     1       2.671   1.547  -1.289  1.00  0.00     0.196 C 
BRANCH   6   7
HETATM    7  S1  UNL     1       1.498   0.323  -1.706  1.00  0.00    -0.187 SA
BRANCH   7   8
HETATM    8  C7  UNL     1       0.172   0.169  -0.505  1.00  0.00     0.058 A 
HETATM    9  N1  UNL     1       0.019   0.778   0.546  1.00  0.00    -0.245 NA
HETATM   10  C8  UNL     1      -1.168   0.113   0.862  1.00  0.00     0.188 A 
HETATM   11  C18 UNL     1      -1.015  -0.655  -0.391  1.00  0.00     0.133 A 
BRANCH  10  12
HETATM   12  C9  UNL     1      -1.099  -0.729   2.097  1.00  0.00     0.036 C 
HETATM   13  C10 UNL     1      -1.673  -1.885   1.889  1.00  0.00     0.003 C 
BRANCH  13  14
HETATM   14  C11 UNL     1      -2.061  -3.189   2.394  1.00  0.00     0.033 C 
BRANCH  14  15
HETATM   15  C12 UNL     1      -2.515  -4.399   2.588  1.00  0.00     0.086 C 
HETATM   16 CL1  UNL     1      -2.425  -5.378   4.066  1.00  0.00    -0.074 Cl
HETATM   17  C13 UNL     1      -3.189  -5.113   1.509  1.00  0.00    -0.065 C 
HETATM   18  C14 UNL     1      -3.754  -5.691   0.599  1.00  0.00     0.019 C 
ENDBRANCH  14  15
ENDBRANCH  13  14
ENDBRANCH  10  12
BRANCH  10  19
HETATM   19  O1  UNL     1      -2.364   0.878   0.855  1.00  0.00    -0.291 OA
BRANCH  19  20
HETATM   20  C15 UNL     1      -2.726   1.496  -0.384  1.00  0.00     0.213 A 
HETATM   21  N2  UNL     1      -3.006   1.961  -1.298  1.00  0.00    -0.193 NA
HETATM   22  C16 UNL     1      -3.684   2.641  -2.108  1.00  0.00     0.171 A 
HETATM   23  C17 UNL     1      -4.747   3.056  -1.326  1.00  0.00     0.111 A 
HETATM   24  S2  UNL     1      -4.336   2.277   0.325  1.00  0.00    -0.052 SA
BRANCH  22  25
HETATM   25  O2  UNL     1      -3.502   2.950  -3.450  1.00  0.00    -0.344 OA
HETATM   26  H10 UNL     1      -3.078   3.808  -3.731  1.00  0.00     0.219 HD
ENDBRANCH  22  25
ENDBRANCH  19  20
ENDBRANCH  10  19
ENDBRANCH   7   8
ENDBRANCH   6   7
ENDBRANCH   5   6
ENDBRANCH   4   5
TORSDOF 10
