REMARK  7 active torsions:
REMARK  status: ('A' for Active; 'I' for Inactive)
REMARK    1  A    between atoms: C3_3  and  C4_4 
REMARK    2  A    between atoms: C4_4  and  P1_5 
REMARK    3  A    between atoms: P1_5  and  C5_6 
REMARK    4  A    between atoms: C6_7  and  C7_8 
REMARK    5  A    between atoms: N2_10  and  C8_11 
REMARK    6  A    between atoms: C9_13  and  O1_14 
REMARK    7  A    between atoms: C11_17  and  C12_18 
ROOT
HETATM    1  C7  UNL     1       0.702   0.417   1.147  1.00  0.00     0.058 C 
HETATM    2  N1  UNL     1      -0.367   1.216   1.184  1.00  0.00    -0.174 NA
HETATM    3  N2  UNL     1      -1.366   0.778   0.288  1.00  0.00    -0.236 N 
HETATM    4  C11 UNL     1      -0.824  -0.204  -0.635  1.00  0.00     0.151 C 
HETATM    5  C18 UNL     1       0.286  -0.730   0.127  1.00  0.00     0.093 C 
ENDROOT
BRANCH   1   6
HETATM    6  C6  UNL     1       1.796   0.701   1.949  1.00  0.00     0.041 C 
HETATM    7  C5  UNL     1       2.898   0.902   1.138  1.00  0.00    -0.020 C 
BRANCH   7   8
HETATM    8  P1  UNL     1       3.720   0.236  -0.174  1.00  0.00    -0.079 P 
BRANCH   8   9
HETATM    9  C4  UNL     1       5.458   0.211  -0.297  1.00  0.00     0.060 C 
BRANCH   9  10
HETATM   10  C3  UNL     1       6.645   0.003  -0.202  1.00  0.00     0.014 A 
HETATM   11  C2  UNL     1       7.825  -0.246  -0.070  1.00  0.00    -0.002 A 
HETATM   12  C1  UNL     1       7.400   0.892  -0.900  1.00  0.00     0.014 A 
ENDBRANCH   9  10
ENDBRANCH   8   9
ENDBRANCH   7   8
ENDBRANCH   1   6
BRANCH   3  13
HETATM   13  C8  UNL     1      -2.613   1.391   0.658  1.00  0.00     0.192 A 
HETATM   14  N3  UNL     1      -3.258   2.477   0.538  1.00  0.00    -0.198 NA
HETATM   15  C9  UNL     1      -4.447   2.727   1.032  1.00  0.00     0.171 A 
HETATM   16  C10 UNL     1      -5.109   1.606   1.865  1.00  0.00     0.111 A 
HETATM   17  S1  UNL     1      -3.765   0.373   1.717  1.00  0.00    -0.058 SA
BRANCH  15  18
HETATM   18  O1  UNL     1      -4.687   4.020   0.532  1.00  0.00    -0.344 OA
HETATM   19  H7  UNL     1      -5.189   4.101  -0.405  1.00  0.00     0.219 HD
ENDBRANCH  15  18
ENDBRANCH   3  13
BRANCH   4  20
HETATM   20  C12 UNL     1      -2.024  -1.162  -0.676  1.00  0.00    -0.033 A 
HETATM   21  C13 UNL     1      -3.099  -1.231  -1.362  1.00  0.00     0.011 A 
HETATM   22  C14 UNL     1      -4.283  -1.960  -1.386  1.00  0.00     0.024 A 
HETATM   23  C15 UNL     1      -4.132  -2.939  -0.198  1.00  0.00     0.034 A 
HETATM   24 CL1  UNL     1      -5.551  -3.993  -0.057  1.00  0.00    -0.084 Cl
HETATM   25  C16 UNL     1      -3.128  -2.944   0.539  1.00  0.00     0.024 A 
HETATM   26  C17 UNL     1      -1.905  -2.066   0.374  1.00  0.00     0.011 A 
ENDBRANCH   4  20
TORSDOF 7
