REMARK  4 active torsions:
REMARK  status: ('A' for Active; 'I' for Inactive)
REMARK    1  A    between atoms: C5_5  and  C6_6 
REMARK    2  A    between atoms: C8_8  and  C9_9 
REMARK    3  A    between atoms: N2_16  and  C15_17 
REMARK    4  A    between atoms: C16_19  and  O1_20 
ROOT
HETATM    1  C6  UNL     1      -0.788   0.084  -1.179  1.00  0.00     0.153 C 
HETATM    2  C7  UNL     1       0.555  -0.539  -1.518  1.00  0.00     0.094 C 
HETATM    3  C8  UNL     1       1.368  -0.073  -0.338  1.00  0.00     0.067 C 
HETATM    4  N1  UNL     1       0.778   0.975   0.161  1.00  0.00    -0.173 NA
HETATM    5  N2  UNL     1      -0.379   1.300  -0.553  1.00  0.00    -0.236 N 
ENDROOT
BRANCH   1   6
HETATM    6  C5  UNL     1      -1.610  -0.812  -0.340  1.00  0.00    -0.010 A 
HETATM    7  C4  UNL     1      -1.946  -2.099  -0.958  1.00  0.00     0.012 A 
HETATM    8  C3  UNL     1      -2.666  -2.803  -0.130  1.00  0.00     0.013 A 
HETATM    9  C2  UNL     1      -2.853  -2.027   1.089  1.00  0.00    -0.023 A 
HETATM   10  C1  UNL     1      -3.499  -2.311   2.194  1.00  0.00     0.025 C 
HETATM   11  C18 UNL     1      -2.142  -0.775   0.854  1.00  0.00     0.051 A 
HETATM   12 CL1  UNL     1      -1.946   0.603   1.881  1.00  0.00    -0.083 Cl
ENDBRANCH   1   6
BRANCH   5  13
HETATM   13  C15 UNL     1      -1.075   2.561  -0.691  1.00  0.00     0.192 A 
HETATM   14  N3  UNL     1      -1.903   3.238  -0.237  1.00  0.00    -0.198 NA
HETATM   15  C16 UNL     1      -2.288   4.435  -0.690  1.00  0.00     0.171 A 
HETATM   16  C17 UNL     1      -1.605   4.923  -1.854  1.00  0.00     0.111 A 
HETATM   17  S1  UNL     1      -0.422   3.532  -2.183  1.00  0.00    -0.058 SA
BRANCH  15  18
HETATM   18  O1  UNL     1      -3.321   5.011   0.079  1.00  0.00    -0.344 OA
HETATM   19  H13 UNL     1      -3.055   5.525   0.907  1.00  0.00     0.219 HD
ENDBRANCH  15  18
ENDBRANCH   5  13
BRANCH   3  20
HETATM   20  C9  UNL     1       2.599  -0.676   0.170  1.00  0.00    -0.010 A 
HETATM   21  C10 UNL     1       3.168  -0.070   1.270  1.00  0.00     0.013 A 
HETATM   22  C11 UNL     1       4.328  -0.592   1.794  1.00  0.00     0.001 A 
HETATM   23  C12 UNL     1       4.902  -1.708   1.214  1.00  0.00     0.000 A 
HETATM   24  C13 UNL     1       4.288  -2.278   0.110  1.00  0.00     0.001 A 
HETATM   25  C14 UNL     1       3.119  -1.782  -0.447  1.00  0.00     0.013 A 
ENDBRANCH   3  20
TORSDOF 4
