REMARK  4 active torsions:
REMARK  status: ('A' for Active; 'I' for Inactive)
REMARK    1  A    between atoms: N2_4  and  C3_5 
REMARK    2  A    between atoms: C3_5  and  S1_6 
REMARK    3  A    between atoms: S1_6  and  C4_7 
REMARK    4  A    between atoms: C8_13  and  C9_14 
ROOT
HETATM    1  C1  UNL     1       0.263  -3.215   1.031  1.00  0.00     0.067 C 
HETATM    2  C2  UNL     1      -0.097  -1.803   0.740  1.00  0.00     0.031 C 
HETATM    3  N1  UNL     1       0.603  -0.850   0.286  1.00  0.00    -0.185 NA
HETATM    4  N2  UNL     1      -0.046   0.358   0.130  1.00  0.00    -0.286 N 
HETATM    5  C8  UNL     1      -1.367  -0.160  -0.169  1.00  0.00     0.143 C 
HETATM    6  C15 UNL     1      -1.471  -1.199   0.942  1.00  0.00     0.088 C 
ENDROOT
BRANCH   4   7
HETATM    7  C3  UNL     1       0.707   1.611   0.296  1.00  0.00     0.226 C 
BRANCH   7   8
HETATM    8  S1  UNL     1       2.032   1.693  -0.900  1.00  0.00    -0.088 SA
BRANCH   8   9
HETATM    9  C4  UNL     1       3.310   0.488  -0.602  1.00  0.00     0.103 C 
HETATM   10  C5  UNL     1       4.339   0.375  -1.437  1.00  0.00     0.010 C 
HETATM   11  C6  UNL     1       5.335  -0.294  -0.867  1.00  0.00     0.017 C 
HETATM   12  C7  UNL     1       4.895  -1.656  -0.495  1.00  0.00     0.229 C 
HETATM   13  O1  UNL     1       3.803  -1.682   0.361  1.00  0.00    -0.276 OA
HETATM   14  N3  UNL     1       3.349  -0.419   0.498  1.00  0.00    -0.259 N 
HETATM   15  H9  UNL     1       2.991   0.005   1.398  1.00  0.00     0.195 HD
ENDBRANCH   8   9
ENDBRANCH   7   8
ENDBRANCH   4   7
BRANCH   5  16
HETATM   16  C9  UNL     1      -2.447   0.795  -0.201  1.00  0.00    -0.033 A 
HETATM   17  C10 UNL     1      -3.592   0.524   0.548  1.00  0.00     0.011 A 
HETATM   18  C11 UNL     1      -4.676   1.361   0.578  1.00  0.00     0.019 A 
HETATM   19  C12 UNL     1      -4.676   2.528  -0.148  1.00  0.00     0.011 A 
HETATM   20 BR1  UNL     1      -6.168   3.713  -0.129  1.00  0.00    -0.051 Br
HETATM   21  C13 UNL     1      -3.566   2.844  -0.910  1.00  0.00     0.019 A 
HETATM   22  C14 UNL     1      -2.497   1.970  -0.909  1.00  0.00     0.011 A 
ENDBRANCH   5  16
TORSDOF 4
