REMARK  5 active torsions:
REMARK  status: ('A' for Active; 'I' for Inactive)
REMARK    1  A    between atoms: N2_4  and  C3_5 
REMARK    2  A    between atoms: C4_7  and  O1_8 
REMARK    3  A    between atoms: O1_8  and  C5_9 
REMARK    4  A    between atoms: C12_17  and  C13_18 
REMARK    5  A    between atoms: C13_18  and  C14_19 
ROOT
HETATM    1  C1  UNL     1      -2.072   2.355   0.925  1.00  0.00     0.042 C 
HETATM    2  C2  UNL     1      -1.424   1.209   1.028  1.00  0.00     0.042 C 
HETATM    3  N1  UNL     1      -0.057   0.951   1.424  1.00  0.00    -0.299 N 
HETATM    4  N2  UNL     1      -0.120  -0.147   0.567  1.00  0.00    -0.258 N 
HETATM    5  C12 UNL     1      -1.527  -0.243   0.874  1.00  0.00     0.165 C 
HETATM    6  H3  UNL     1       0.674   1.382   2.066  1.00  0.00     0.187 HD
ENDROOT
BRANCH   4   7
HETATM    7  C3  UNL     1       0.834  -0.831  -0.238  1.00  0.00     0.190 A 
HETATM    8  N3  UNL     1       2.101  -0.650  -0.440  1.00  0.00    -0.198 NA
HETATM    9  C4  UNL     1       2.716  -1.475  -1.264  1.00  0.00     0.178 A 
HETATM   10  C11 UNL     1       2.061  -2.514  -1.912  1.00  0.00     0.111 A 
HETATM   11  S1  UNL     1       0.373  -2.234  -1.229  1.00  0.00    -0.058 SA
BRANCH   9  12
HETATM   12  O1  UNL     1       4.089  -1.395  -1.575  1.00  0.00    -0.291 OA
BRANCH  12  13
HETATM   13  C5  UNL     1       4.820  -0.384  -0.970  1.00  0.00     0.077 A 
HETATM   14  C6  UNL     1       5.060   0.905  -1.404  1.00  0.00     0.037 A 
HETATM   15  C7  UNL     1       5.826   1.745  -0.626  1.00  0.00     0.003 A 
HETATM   16  C8  UNL     1       6.361   1.334   0.575  1.00  0.00     0.000 A 
HETATM   17  C9  UNL     1       6.134   0.042   1.033  1.00  0.00     0.003 A 
HETATM   18  C10 UNL     1       5.359  -0.806   0.246  1.00  0.00     0.037 A 
ENDBRANCH  12  13
ENDBRANCH   9  12
ENDBRANCH   4   7
BRANCH   5  19
HETATM   19  C13 UNL     1      -2.328  -0.800  -0.244  1.00  0.00     0.072 C 
BRANCH  19  20
HETATM   20  C14 UNL     1      -3.742  -0.433  -0.253  1.00  0.00    -0.056 A 
HETATM   21  C15 UNL     1      -4.358   0.640  -0.860  1.00  0.00     0.008 A 
HETATM   22  C16 UNL     1      -5.716   0.865  -0.784  1.00  0.00     0.019 A 
HETATM   23  C17 UNL     1      -6.541   0.016  -0.088  1.00  0.00     0.011 A 
HETATM   24 BR1  UNL     1      -8.410   0.318   0.022  1.00  0.00    -0.051 Br
HETATM   25  C18 UNL     1      -5.993  -1.078   0.545  1.00  0.00     0.019 A 
HETATM   26  C19 UNL     1      -4.631  -1.263   0.442  1.00  0.00     0.008 A 
ENDBRANCH  19  20
ENDBRANCH   5  19
TORSDOF 5
