REMARK  6 active torsions:
REMARK  status: ('A' for Active; 'I' for Inactive)
REMARK    1  A    between atoms: O1_1  and  C1_2 
REMARK    2  A    between atoms: C2_3  and  S1_4 
REMARK    3  A    between atoms: S1_4  and  C3_5 
REMARK    4  A    between atoms: C3_5  and  N1_6 
REMARK    5  A    between atoms: C5_8  and  C6_9 
REMARK    6  A    between atoms: C13_17  and  C14_18 
ROOT
HETATM    1  N1  UNL     1       0.683   0.405  -1.240  1.00  0.00     0.104 N 
HETATM    2  C4  UNL     1      -0.293  -0.627  -1.476  1.00  0.00     0.283 C 
HETATM    3  C5  UNL     1      -0.935  -0.830  -0.164  1.00  0.00     0.049 C 
HETATM    4  C12 UNL     1      -0.752   0.483   0.583  1.00  0.00     0.048 C 
HETATM    5  C13 UNL     1       0.113   1.306  -0.309  1.00  0.00     0.236 C 
ENDROOT
BRANCH   3   6
HETATM    6  C6  UNL     1      -2.322  -1.298  -0.148  1.00  0.00    -0.052 A 
HETATM    7  C7  UNL     1      -2.678  -2.478   0.515  1.00  0.00     0.009 A 
HETATM    8  C8  UNL     1      -3.967  -2.966   0.563  1.00  0.00     0.019 A 
HETATM    9  C9  UNL     1      -4.956  -2.247  -0.079  1.00  0.00     0.011 A 
HETATM   10 BR1  UNL     1      -6.718  -2.953   0.011  1.00  0.00    -0.051 Br
HETATM   11  C10 UNL     1      -4.669  -1.072  -0.752  1.00  0.00     0.019 A 
HETATM   12  C11 UNL     1      -3.369  -0.627  -0.771  1.00  0.00     0.009 A 
ENDBRANCH   3   6
BRANCH   1  13
HETATM   13  C3  UNL     1       1.997  -0.057  -1.006  1.00  0.00     0.351 C 
BRANCH  13  14
HETATM   14  S1  UNL     1       2.190  -1.134   0.413  1.00  0.00    -0.110 SA
BRANCH  14  15
HETATM   15  C2  UNL     1       3.934  -1.592   0.511  1.00  0.00     0.070 C 
HETATM   16  C1  UNL     1       4.597  -2.292  -0.425  1.00  0.00     0.138 C 
BRANCH  16  17
HETATM   17  O1  UNL     1       5.954  -2.637  -0.326  1.00  0.00    -0.372 OA
HETATM   18  H1  UNL     1       6.246  -3.618  -0.249  1.00  0.00     0.216 HD
ENDBRANCH  16  17
ENDBRANCH  14  15
ENDBRANCH  13  14
ENDBRANCH   1  13
BRANCH   5  19
HETATM   19  C14 UNL     1       1.081   2.186   0.413  1.00  0.00     0.064 A 
HETATM   20  C15 UNL     1       0.375   3.086   1.359  1.00  0.00    -0.016 A 
HETATM   21  C16 UNL     1       0.425   4.363   1.011  1.00  0.00    -0.004 A 
HETATM   22  C17 UNL     1       1.198   4.416  -0.241  1.00  0.00    -0.004 A 
HETATM   23  C18 UNL     1       1.572   3.195  -0.586  1.00  0.00    -0.016 A 
ENDBRANCH   5  19
TORSDOF 6
