REMARK  1 active torsions:
REMARK  status: ('A' for Active; 'I' for Inactive)
REMARK    1  A    between atoms: C11_16  and  C12_17 
ROOT
HETATM    1 BR1  UNL     1      -5.144  -0.275   2.813  1.00  0.00    -0.056 Br
HETATM    2  C1  UNL     1      -3.995  -0.092   1.329  1.00  0.00    -0.013 C 
HETATM    3  C2  UNL     1      -3.324   1.059   1.137  1.00  0.00    -0.006 C 
HETATM    4  C3  UNL     1      -2.513   2.245   0.768  1.00  0.00     0.022 C 
HETATM    5  C4  UNL     1      -1.670   3.001   0.038  1.00  0.00     0.001 C 
HETATM    6  C5  UNL     1      -1.121   2.440  -1.232  1.00  0.00     0.043 C 
HETATM    7  C6  UNL     1       0.302   2.146  -1.208  1.00  0.00     0.104 C 
HETATM    8  N1  UNL     1       0.158   1.413  -0.109  1.00  0.00    -0.198 NA
HETATM    9  N2  UNL     1       0.189   0.115  -0.531  1.00  0.00    -0.237 N 
HETATM   10  C7  UNL     1      -0.466  -1.099  -0.633  1.00  0.00     0.202 C 
HETATM   11  N3  UNL     1      -1.510  -1.114  -1.369  1.00  0.00    -0.201 NA
HETATM   12  C8  UNL     1      -2.623  -1.116  -0.469  1.00  0.00     0.098 A 
HETATM   13  C9  UNL     1      -2.167  -2.296  -0.947  1.00  0.00     0.186 A 
HETATM   14  N4  UNL     1      -0.918  -2.406  -0.568  1.00  0.00    -0.227 NA
HETATM   15  C10 UNL     1      -3.774  -1.301   0.453  1.00  0.00     0.078 C 
HETATM   16  C11 UNL     1       1.510   0.170  -1.093  1.00  0.00     0.148 C 
HETATM   17  C18 UNL     1       1.727   1.702  -0.985  1.00  0.00     0.070 C 
ENDROOT
BRANCH  16  18
HETATM   18  C12 UNL     1       2.445  -0.596  -0.251  1.00  0.00    -0.033 A 
HETATM   19  C13 UNL     1       3.381  -1.366  -0.962  1.00  0.00     0.009 A 
HETATM   20  C14 UNL     1       4.245  -2.107  -0.192  1.00  0.00     0.001 A 
HETATM   21  C15 UNL     1       4.302  -2.185   1.168  1.00  0.00     0.000 A 
HETATM   22  C16 UNL     1       3.351  -1.400   1.827  1.00  0.00     0.001 A 
HETATM   23  C17 UNL     1       2.431  -0.613   1.129  1.00  0.00     0.009 A 
ENDBRANCH  16  18
TORSDOF 1
