REMARK  5 active torsions:
REMARK  status: ('A' for Active; 'I' for Inactive)
REMARK    1  A    between atoms: N1_8  and  N2_9 
REMARK    2  A    between atoms: N2_9  and  C8_10 
REMARK    3  A    between atoms: N2_9  and  C16_18 
REMARK    4  A    between atoms: C8_10  and  C9_11 
REMARK    5  A    between atoms: C17_20  and  O1_21 
ROOT
HETATM    1  N2  UNL     1      -0.309   0.632   0.232  1.00  0.00    -0.241 N 
ENDROOT
BRANCH   1   2
HETATM    2  N1  UNL     1      -1.208  -0.307  -0.252  1.00  0.00    -0.170 NA
HETATM    3  C7  UNL     1      -2.429  -0.437   0.066  1.00  0.00     0.084 C 
HETATM    4  C2  UNL     1      -3.093  -1.545  -0.644  1.00  0.00    -0.020 C 
HETATM    5  C6  UNL     1      -3.252   0.324   1.000  1.00  0.00     0.034 C 
HETATM    6  C1  UNL     1      -2.332  -2.520  -1.483  1.00  0.00     0.052 C 
HETATM    7  C3  UNL     1      -4.381  -1.763  -0.598  1.00  0.00    -0.017 C 
HETATM    8  C4  UNL     1      -5.051  -1.177   0.351  1.00  0.00     0.013 C 
HETATM    9  C5  UNL     1      -4.509  -0.059   1.112  1.00  0.00     0.003 C 
ENDBRANCH   1   2
BRANCH   1  10
HETATM   10  C8  UNL     1       0.773   0.639   1.191  1.00  0.00     0.192 C 
BRANCH  10  11
HETATM   11  C9  UNL     1       1.918  -0.199   0.828  1.00  0.00    -0.038 A 
HETATM   12  C10 UNL     1       2.910   0.437   0.075  1.00  0.00     0.009 A 
HETATM   13  C11 UNL     1       4.059  -0.183  -0.361  1.00  0.00     0.007 A 
HETATM   14  C12 UNL     1       4.241  -1.530  -0.029  1.00  0.00    -0.062 A 
HETATM   15  C13 UNL     1       5.473  -2.183  -0.502  1.00  0.00     0.048 C 
HETATM   16  C14 UNL     1       3.272  -2.193   0.720  1.00  0.00     0.007 A 
HETATM   17  C15 UNL     1       2.139  -1.522   1.131  1.00  0.00     0.009 A 
ENDBRANCH  10  11
ENDBRANCH   1  10
BRANCH   1  18
HETATM   18  C16 UNL     1      -0.628   1.914  -0.495  1.00  0.00     0.192 A 
HETATM   19  N3  UNL     1      -1.245   2.951   0.016  1.00  0.00    -0.198 NA
HETATM   20  C17 UNL     1      -1.399   3.935  -0.865  1.00  0.00     0.171 A 
HETATM   21  C18 UNL     1      -0.949   3.901  -2.239  1.00  0.00     0.111 A 
HETATM   22  S1  UNL     1      -0.202   2.260  -2.321  1.00  0.00    -0.058 SA
BRANCH  20  23
HETATM   23  O1  UNL     1      -2.070   5.026  -0.261  1.00  0.00    -0.344 OA
HETATM   24  H16 UNL     1      -1.565   5.579   0.449  1.00  0.00     0.219 HD
ENDBRANCH  20  23
ENDBRANCH   1  18
TORSDOF 5
