REMARK  2 active torsions:
REMARK  status: ('A' for Active; 'I' for Inactive)
REMARK    1  A    between atoms: C2_3  and  C3_5 
REMARK    2  A    between atoms: C4_6  and  O3_7 
ROOT
HETATM    1  C3  UNL     1      -0.947   1.077   0.112  1.00  0.00     0.030 C 
HETATM    2  C4  UNL     1      -2.208   0.797   0.370  1.00  0.00     0.065 C 
HETATM    3  C6  UNL     1      -3.073  -0.353   0.087  1.00  0.00     0.079 A 
HETATM    4  C7  UNL     1      -3.481  -1.057   1.339  1.00  0.00    -0.014 A 
HETATM    5  C8  UNL     1      -3.500  -2.316   1.726  1.00  0.00    -0.003 A 
HETATM    6  C9  UNL     1      -3.021  -3.249   0.725  1.00  0.00    -0.003 A 
HETATM    7  C10 UNL     1      -2.646  -2.701  -0.405  1.00  0.00    -0.014 A 
HETATM    8  C11 UNL     1      -2.577  -1.303  -0.966  1.00  0.00     0.074 A 
HETATM    9  P1  UNL     1      -1.091  -0.866  -1.687  1.00  0.00     0.018 P 
HETATM   10  C12 UNL     1      -0.177   0.066  -0.614  1.00  0.00     0.017 C 
HETATM   11  C13 UNL     1       1.175  -0.426  -0.726  1.00  0.00     0.066 A 
HETATM   12  C14 UNL     1       1.254  -1.599  -1.288  1.00  0.00     0.139 A 
HETATM   13  O4  UNL     1       0.090  -2.222  -1.698  1.00  0.00    -0.323 OA
HETATM   14  C15 UNL     1       2.574  -2.216  -1.464  1.00  0.00     0.217 A 
HETATM   15  O5  UNL     1       2.768  -3.342  -1.992  1.00  0.00    -0.284 OA
HETATM   16  C16 UNL     1       3.831  -1.590  -1.044  1.00  0.00     0.031 A 
HETATM   17  C17 UNL     1       5.073  -2.160  -1.204  1.00  0.00     0.016 A 
HETATM   18  C18 UNL     1       6.207  -1.501  -0.779  1.00  0.00     0.001 A 
HETATM   19  C19 UNL     1       6.121  -0.259  -0.185  1.00  0.00     0.001 A 
HETATM   20  C20 UNL     1       4.882   0.315  -0.022  1.00  0.00     0.016 A 
HETATM   21  C21 UNL     1       3.743  -0.329  -0.440  1.00  0.00     0.029 A 
HETATM   22  C22 UNL     1       2.403   0.225  -0.296  1.00  0.00     0.197 A 
HETATM   23  O6  UNL     1       2.384   1.352   0.249  1.00  0.00    -0.286 OA
HETATM   24  H13 UNL     1      -1.050  -0.207  -2.849  1.00  0.00     0.087 HD
ENDROOT
BRANCH   1  25
HETATM   25  C2  UNL     1      -0.203   2.261   0.451  1.00  0.00     0.210 A 
HETATM   26  O1  UNL     1       0.249   3.448   0.883  1.00  0.00     0.000 OA
HETATM   27  C1  UNL     1      -0.262   4.517   1.558  1.00  0.00     0.000 C 
HETATM   28  O2  UNL     1      -0.959   3.037   1.061  1.00  0.00    -0.215 OA
ENDBRANCH   1  25
BRANCH   2  29
HETATM   29  O3  UNL     1      -2.858   1.827   1.071  1.00  0.00    -0.359 OA
HETATM   30  C5  UNL     1      -4.129   2.267   0.656  1.00  0.00     0.209 C 
ENDBRANCH   2  29
TORSDOF 2
