REMARK  3 active torsions:
REMARK  status: ('A' for Active; 'I' for Inactive)
REMARK    1  A    between atoms: C5_5  and  C6_6 
REMARK    2  A    between atoms: N2_16  and  C15_17 
REMARK    3  A    between atoms: C16_19  and  O1_20 
ROOT
HETATM    1  C6  UNL     1      -0.178  -0.304  -0.642  1.00  0.00     0.151 C 
HETATM    2  C7  UNL     1       0.697  -1.055   0.376  1.00  0.00     0.094 C 
HETATM    3  C8  UNL     1       2.020  -0.492  -0.084  1.00  0.00     0.067 C 
HETATM    4  C9  UNL     1       3.290  -1.170   0.021  1.00  0.00    -0.010 A 
HETATM    5  C10 UNL     1       4.437  -0.566  -0.428  1.00  0.00     0.013 A 
HETATM    6  C11 UNL     1       5.677  -1.175  -0.349  1.00  0.00     0.001 A 
HETATM    7  C12 UNL     1       5.765  -2.440   0.204  1.00  0.00     0.000 A 
HETATM    8  C13 UNL     1       4.614  -3.053   0.659  1.00  0.00     0.001 A 
HETATM    9  C14 UNL     1       3.388  -2.428   0.570  1.00  0.00     0.013 A 
HETATM   10  N1  UNL     1       1.790   0.680  -0.574  1.00  0.00    -0.173 NA
HETATM   11  N2  UNL     1       0.405   0.991  -0.496  1.00  0.00    -0.236 N 
ENDROOT
BRANCH   1  12
HETATM   12  C5  UNL     1      -1.572  -0.454  -0.262  1.00  0.00    -0.033 A 
HETATM   13  C4  UNL     1      -2.154   0.023   0.882  1.00  0.00     0.010 A 
HETATM   14  C3  UNL     1      -3.476  -0.171   1.143  1.00  0.00     0.007 A 
HETATM   15  C2  UNL     1      -4.331  -0.861   0.281  1.00  0.00    -0.062 A 
HETATM   16  C1  UNL     1      -5.756  -1.056   0.590  1.00  0.00     0.048 C 
HETATM   17  C19 UNL     1      -3.778  -1.356  -0.882  1.00  0.00     0.007 A 
HETATM   18  C18 UNL     1      -2.434  -1.143  -1.119  1.00  0.00     0.010 A 
ENDBRANCH   1  12
BRANCH  11  19
HETATM   19  C15 UNL     1       0.028   2.371  -0.316  1.00  0.00     0.192 A 
HETATM   20  N3  UNL     1      -0.282   3.350  -1.291  1.00  0.00    -0.198 NA
HETATM   21  C16 UNL     1      -0.574   4.491  -0.697  1.00  0.00     0.171 A 
HETATM   22  C17 UNL     1      -0.612   4.835   0.723  1.00  0.00     0.111 A 
HETATM   23  S1  UNL     1      -0.128   3.182   1.403  1.00  0.00    -0.058 SA
BRANCH  21  24
HETATM   24  O1  UNL     1      -0.861   5.374  -1.765  1.00  0.00    -0.344 OA
HETATM   25  H14 UNL     1      -0.795   6.369  -1.686  1.00  0.00     0.219 HD
ENDBRANCH  21  24
ENDBRANCH  11  19
TORSDOF 3
