REMARK  4 active torsions:
REMARK  status: ('A' for Active; 'I' for Inactive)
REMARK    1  A    between atoms: O1_1  and  C1_2 
REMARK    2  A    between atoms: C1_2  and  C2_3 
REMARK    3  A    between atoms: C3_6  and  N1_7 
REMARK    4  A    between atoms: C12_17  and  C13_18 
ROOT
HETATM    1  N1  UNL     1       0.203  -0.233   0.297  1.00  0.00    -0.259 N 
HETATM    2  N2  UNL     1      -0.141  -1.611   0.373  1.00  0.00    -0.295 N 
HETATM    3  C4  UNL     1      -1.163  -2.307  -0.366  1.00  0.00     0.054 A 
HETATM    4  C5  UNL     1      -1.091  -3.673  -0.368  1.00  0.00     0.031 A 
HETATM    5  C6  UNL     1      -1.994  -4.457  -1.028  1.00  0.00     0.002 A 
HETATM    6  C7  UNL     1      -3.025  -3.885  -1.726  1.00  0.00     0.001 A 
HETATM    7  C8  UNL     1      -3.143  -2.501  -1.756  1.00  0.00     0.009 A 
HETATM    8  C9  UNL     1      -2.209  -1.723  -1.075  1.00  0.00    -0.030 A 
HETATM    9  C10 UNL     1      -2.558  -0.274  -1.264  1.00  0.00     0.043 C 
HETATM   10  C11 UNL     1      -2.023   0.464  -0.079  1.00  0.00     0.037 C 
HETATM   11  C12 UNL     1      -0.547   0.856  -0.254  1.00  0.00     0.143 C 
HETATM   12  H4  UNL     1       0.363  -2.282   1.024  1.00  0.00     0.187 HD
ENDROOT
BRANCH   1  13
HETATM   13  C3  UNL     1       1.543  -0.156   0.919  1.00  0.00     0.189 A 
HETATM   14  S1  UNL     1       1.945   0.102   2.784  1.00  0.00    -0.047 SA
HETATM   15  P1  UNL     1       4.159   0.027   2.361  1.00  0.00     0.051 P 
HETATM   16  C2  UNL     1       3.728  -0.232   0.489  1.00  0.00     0.081 A 
HETATM   17  N3  UNL     1       2.586  -0.241   0.367  1.00  0.00    -0.224 NA
BRANCH  16  18
HETATM   18  C1  UNL     1       4.981  -0.365  -0.410  1.00  0.00     0.225 C 
BRANCH  18  19
HETATM   19  O1  UNL     1       5.339  -1.689  -0.489  1.00  0.00    -0.395 OA
HETATM   20  H1  UNL     1       5.748  -1.935  -1.351  1.00  0.00     0.209 HD
ENDBRANCH  18  19
ENDBRANCH  16  18
ENDBRANCH   1  13
BRANCH  11  21
HETATM   21  C13 UNL     1      -0.400   2.147   0.430  1.00  0.00    -0.033 A 
HETATM   22  C14 UNL     1      -0.482   2.333   1.791  1.00  0.00     0.009 A 
HETATM   23  C15 UNL     1      -0.330   3.573   2.380  1.00  0.00     0.001 A 
HETATM   24  C16 UNL     1      -0.085   4.687   1.591  1.00  0.00     0.000 A 
HETATM   25  C17 UNL     1       0.005   4.551   0.223  1.00  0.00     0.001 A 
HETATM   26  C18 UNL     1      -0.152   3.305  -0.318  1.00  0.00     0.009 A 
ENDBRANCH  11  21
TORSDOF 4
