REMARK  5 active torsions:
REMARK  status: ('A' for Active; 'I' for Inactive)
REMARK    1  A    between atoms: N1_1  and  C1_2 
REMARK    2  A    between atoms: C10_11  and  C11_12 
REMARK    3  A    between atoms: C11_12  and  O1_13 
REMARK    4  A    between atoms: C14_16  and  N2_17 
REMARK    5  A    between atoms: N2_17  and  C15_18 
ROOT
HETATM    1  C1  UNL     1      -0.372  -1.621   1.787  1.00  0.00     0.015 C 
HETATM    2  C2  UNL     1      -0.953  -2.421   2.680  1.00  0.00     0.026 C 
HETATM    3  C3  UNL     1      -2.328  -2.764   2.290  1.00  0.00     0.014 C 
HETATM    4  C4  UNL     1      -2.865  -2.444   1.139  1.00  0.00    -0.029 C 
HETATM    5  C5  UNL     1      -2.199  -1.773   0.248  1.00  0.00     0.001 C 
HETATM    6  C6  UNL     1      -0.966  -1.110   0.540  1.00  0.00     0.023 C 
HETATM    7  C7  UNL     1      -1.072   0.391   0.677  1.00  0.00    -0.001 C 
HETATM    8  C8  UNL     1      -0.178   0.925   1.623  1.00  0.00     0.047 C 
HETATM    9  C9  UNL     1      -0.561   2.346   1.412  1.00  0.00    -0.012 C 
HETATM   10  C10 UNL     1      -1.279   3.298   0.731  1.00  0.00    -0.038 C 
HETATM   11  C12 UNL     1      -0.864   2.367  -0.459  1.00  0.00     0.007 C 
HETATM   12  C13 UNL     1      -0.240   1.290  -1.133  1.00  0.00    -0.001 C 
HETATM   13  C14 UNL     1       0.648   0.119  -0.901  1.00  0.00     0.108 C 
HETATM   14  C18 UNL     1       0.014  -1.227  -0.670  1.00  0.00     0.049 C 
ENDROOT
BRANCH   1  15
HETATM   15  N1  UNL     1       0.950  -1.290   2.153  1.00  0.00    -0.401 N 
HETATM   16  H1  UNL     1       1.318  -1.076   3.112  1.00  0.00     0.156 HD
HETATM   17  H2  UNL     1       1.905  -1.127   1.821  1.00  0.00     0.156 HD
ENDBRANCH   1  15
BRANCH  13  18
HETATM   18  N2  UNL     1       1.523   0.087  -2.075  1.00  0.00    -0.361 N 
HETATM   19  H15 UNL     1       1.390   0.704  -2.900  1.00  0.00     0.162 HD
BRANCH  18  20
HETATM   20  C15 UNL     1       2.575  -0.846  -2.023  1.00  0.00     0.166 A 
HETATM   21  N3  UNL     1       3.009  -1.750  -1.090  1.00  0.00    -0.236 NA
HETATM   22  C16 UNL     1       4.085  -2.425  -1.564  1.00  0.00     0.126 A 
HETATM   23  C17 UNL     1       4.761  -2.326  -2.798  1.00  0.00     0.072 A 
HETATM   24  S1  UNL     1       3.680  -0.984  -3.500  1.00  0.00    -0.063 SA
ENDBRANCH  18  20
ENDBRANCH  13  18
BRANCH  10  25
HETATM   25  C11 UNL     1      -1.994   4.403   0.086  1.00  0.00     0.202 C 
BRANCH  25  26
HETATM   26  O1  UNL     1      -3.401   4.239   0.124  1.00  0.00    -0.396 OA
HETATM   27  H11 UNL     1      -3.657   3.442  -0.407  1.00  0.00     0.209 HD
ENDBRANCH  25  26
ENDBRANCH  10  25
TORSDOF 5
