REMARK  4 active torsions:
REMARK  status: ('A' for Active; 'I' for Inactive)
REMARK    1  A    between atoms: C5_5  and  C6_6 
REMARK    2  A    between atoms: C8_8  and  C9_9 
REMARK    3  A    between atoms: N2_16  and  N3_17 
REMARK    4  A    between atoms: N3_17  and  C15_18 
ROOT
HETATM    1  C15 UNL     1      -0.150   3.031  -1.921  1.00  0.00     0.129 C 
HETATM    2  C16 UNL     1       0.081   3.444  -0.517  1.00  0.00     0.194 C 
HETATM    3  S1  UNL     1       0.190   3.950   0.821  1.00  0.00    -0.195 SA
ENDROOT
BRANCH   1   4
HETATM    4  N3  UNL     1      -0.859   1.802  -2.061  1.00  0.00    -0.220 NA
HETATM    5  H16 UNL     1      -1.863   1.878  -1.890  1.00  0.00     0.148 HD
BRANCH   4   6
HETATM    6  N2  UNL     1      -0.238   0.715  -1.491  1.00  0.00    -0.227 N 
HETATM    7  C6  UNL     1      -0.690  -0.394  -0.742  1.00  0.00     0.137 C 
HETATM    8  C7  UNL     1       0.385  -0.470   0.325  1.00  0.00     0.091 C 
HETATM    9  C8  UNL     1       1.577  -0.192  -0.556  1.00  0.00     0.068 C 
HETATM   10  N1  UNL     1       1.142   0.482  -1.561  1.00  0.00    -0.165 NA
BRANCH   7  11
HETATM   11  C5  UNL     1      -2.060  -0.349  -0.202  1.00  0.00     0.035 C 
HETATM   12  C4  UNL     1      -2.377   0.775   0.676  1.00  0.00    -0.024 C 
HETATM   13  C3  UNL     1      -3.131   0.389   1.722  1.00  0.00    -0.026 C 
HETATM   14  C2  UNL     1      -3.386  -1.059   1.626  1.00  0.00     0.004 C 
HETATM   15  C1  UNL     1      -4.730  -1.397   1.033  1.00  0.00     0.014 C 
HETATM   16  C17 UNL     1      -2.326  -1.555   0.655  1.00  0.00     0.018 C 
ENDBRANCH   7  11
BRANCH   9  17
HETATM   17  C9  UNL     1       2.940  -0.623  -0.280  1.00  0.00    -0.010 A 
HETATM   18  C10 UNL     1       3.251  -1.349   0.856  1.00  0.00     0.013 A 
HETATM   19  C11 UNL     1       4.584  -1.726   1.050  1.00  0.00     0.001 A 
HETATM   20  C12 UNL     1       5.594  -1.397   0.143  1.00  0.00     0.000 A 
HETATM   21  C13 UNL     1       5.251  -0.673  -0.979  1.00  0.00     0.001 A 
HETATM   22  C14 UNL     1       3.931  -0.295  -1.178  1.00  0.00     0.013 A 
ENDBRANCH   9  17
ENDBRANCH   4   6
ENDBRANCH   1   4
TORSDOF 4
