REMARK  7 active torsions:
REMARK  status: ('A' for Active; 'I' for Inactive)
REMARK    1  A    between atoms: C5_5  and  C6_6 
REMARK    2  A    between atoms: C6_6  and  C7_7 
REMARK    3  A    between atoms: C6_6  and  N1_14 
REMARK    4  A    between atoms: C7_7  and  C8_8 
REMARK    5  A    between atoms: N1_14  and  N2_15 
REMARK    6  A    between atoms: N1_14  and  C14_16 
REMARK    7  A    between atoms: C15_18  and  O1_19 
ROOT
HETATM    1  C6  UNL     1      -0.014  -0.494  -0.520  1.00  0.00     0.142 C 
ENDROOT
BRANCH   1   2
HETATM    2  C5  UNL     1       1.419  -0.963  -0.433  1.00  0.00    -0.034 A 
HETATM    3  C4  UNL     1       2.309   0.023  -0.859  1.00  0.00     0.010 A 
HETATM    4  C3  UNL     1       3.675  -0.170  -0.848  1.00  0.00     0.007 A 
HETATM    5  C2  UNL     1       4.196  -1.360  -0.408  1.00  0.00    -0.062 A 
HETATM    6  C1  UNL     1       5.668  -1.588  -0.389  1.00  0.00     0.048 C 
HETATM    7  C18 UNL     1       3.313  -2.343   0.017  1.00  0.00     0.007 A 
HETATM    8  C17 UNL     1       1.948  -2.154   0.008  1.00  0.00     0.010 A 
ENDBRANCH   1   2
BRANCH   1   9
HETATM    9  C7  UNL     1      -0.837  -1.563   0.131  1.00  0.00     0.070 C 
BRANCH   9  10
HETATM   10  C8  UNL     1      -2.298  -1.288   0.154  1.00  0.00    -0.056 A 
HETATM   11  C9  UNL     1      -3.039  -1.750  -0.934  1.00  0.00     0.007 A 
HETATM   12  C10 UNL     1      -4.426  -1.567  -1.041  1.00  0.00     0.001 A 
HETATM   13  C11 UNL     1      -5.097  -0.907  -0.038  1.00  0.00     0.000 A 
HETATM   14  C12 UNL     1      -4.351  -0.452   1.037  1.00  0.00     0.001 A 
HETATM   15  C13 UNL     1      -2.998  -0.631   1.140  1.00  0.00     0.007 A 
ENDBRANCH   9  10
ENDBRANCH   1   9
BRANCH   1  16
HETATM   16  N1  UNL     1      -0.090   0.755   0.197  1.00  0.00    -0.283 N 
BRANCH  16  17
HETATM   17  N2  UNL     1       0.232   0.504   1.534  1.00  0.00    -0.245 NA
HETATM   18  H14 UNL     1       1.235   0.781   1.714  1.00  0.00     0.143 HD
HETATM   19  H15 UNL     1      -0.390   0.957   2.210  1.00  0.00     0.143 HD
ENDBRANCH  16  17
BRANCH  16  20
HETATM   20  C14 UNL     1      -0.366   2.145  -0.017  1.00  0.00     0.186 A 
HETATM   21  N3  UNL     1      -1.332   2.765  -0.183  1.00  0.00    -0.199 NA
HETATM   22  C15 UNL     1      -1.403   4.087  -0.355  1.00  0.00     0.171 A 
HETATM   23  C16 UNL     1      -0.227   4.811  -0.339  1.00  0.00     0.111 A 
HETATM   24  S1  UNL     1       0.996   3.469  -0.058  1.00  0.00    -0.058 SA
BRANCH  22  25
HETATM   25  O1  UNL     1      -2.474   4.975  -0.565  1.00  0.00    -0.344 OA
HETATM   26  H16 UNL     1      -2.829   5.511   0.219  1.00  0.00     0.219 HD
ENDBRANCH  22  25
ENDBRANCH  16  20
ENDBRANCH   1  16
TORSDOF 7
