REMARK  2 active torsions:
REMARK  status: ('A' for Active; 'I' for Inactive)
REMARK    1  A    between atoms: C14_16  and  C15_17 
REMARK    2  A    between atoms: C16_19  and  O1_20 
ROOT
HETATM    1  C1  UNL     1      -4.196   1.134   0.165  1.00  0.00     0.048 C 
HETATM    2  C2  UNL     1      -3.012   0.243   0.062  1.00  0.00    -0.065 A 
HETATM    3  C3  UNL     1      -2.201   0.188   1.107  1.00  0.00    -0.010 A 
HETATM    4  C4  UNL     1      -1.071  -0.764   0.803  1.00  0.00     0.054 A 
HETATM    5  C5  UNL     1      -1.367  -1.227  -0.546  1.00  0.00    -0.052 A 
HETATM    6  C6  UNL     1      -2.496  -0.639  -0.974  1.00  0.00     0.011 A 
HETATM    7  C7  UNL     1      -0.949  -2.100  -1.694  1.00  0.00     0.176 C 
HETATM    8  N1  UNL     1       0.191  -2.898  -1.388  1.00  0.00    -0.310 N 
HETATM    9  N2  UNL     1       1.467  -2.586  -0.916  1.00  0.00    -0.183 NA
HETATM   10  C8  UNL     1       2.001  -1.735  -0.130  1.00  0.00     0.064 A 
HETATM   11  C9  UNL     1       3.442  -2.115  -0.196  1.00  0.00     0.088 A 
HETATM   12  C10 UNL     1       4.211  -1.198   0.681  1.00  0.00    -0.021 A 
HETATM   13  C11 UNL     1       3.751  -0.204   1.415  1.00  0.00    -0.003 A 
HETATM   14  C12 UNL     1       2.316   0.056   1.385  1.00  0.00     0.010 A 
HETATM   15  C13 UNL     1       1.437  -0.648   0.662  1.00  0.00    -0.020 A 
HETATM   16  C14 UNL     1       0.182   0.007   0.986  1.00  0.00     0.092 C 
HETATM   17  H9  UNL     1       0.059  -3.940  -1.546  1.00  0.00     0.182 HD
ENDROOT
BRANCH  16  18
HETATM   18  C15 UNL     1       0.033   1.339   0.298  1.00  0.00     0.087 A 
HETATM   19  N3  UNL     1      -0.058   2.487   0.477  1.00  0.00    -0.221 NA
HETATM   20  C16 UNL     1      -0.184   3.440  -0.426  1.00  0.00     0.169 A 
HETATM   21  C17 UNL     1      -0.212   3.029  -1.750  1.00  0.00     0.109 A 
HETATM   22  S1  UNL     1      -0.041   1.170  -1.551  1.00  0.00    -0.081 SA
BRANCH  20  23
HETATM   23  O1  UNL     1      -0.271   4.739   0.121  1.00  0.00    -0.344 OA
HETATM   24  H16 UNL     1       0.581   5.188   0.450  1.00  0.00     0.219 HD
ENDBRANCH  20  23
ENDBRANCH  16  18
TORSDOF 2
