REMARK  8 active torsions:
REMARK  status: ('A' for Active; 'I' for Inactive)
REMARK    1  A    between atoms: C3_3  and  C4_4 
REMARK    2  A    between atoms: C3_3  and  O2_25 
REMARK    3  A    between atoms: C4_4  and  C5_5 
REMARK    4  A    between atoms: C5_5  and  C6_6 
REMARK    5  A    between atoms: C7_7  and  C8_8 
REMARK    6  A    between atoms: C10_10  and  C11_11 
REMARK    7  A    between atoms: N2_18  and  C17_19 
REMARK    8  A    between atoms: C18_21  and  O1_22 
ROOT
HETATM    1  C8  UNL     1      -0.787  -0.206  -0.736  1.00  0.00     0.197 C 
HETATM    2  C9  UNL     1      -1.590   0.667   0.244  1.00  0.00     0.102 C 
HETATM    3  C10 UNL     1      -2.910   0.482  -0.408  1.00  0.00     0.068 C 
HETATM    4  N1  UNL     1      -2.903  -0.700  -0.967  1.00  0.00    -0.173 NA
HETATM    5  N2  UNL     1      -1.687  -1.336  -0.747  1.00  0.00    -0.229 N 
ENDROOT
BRANCH   1   6
HETATM    6  C7  UNL     1       0.479  -0.586  -0.202  1.00  0.00    -0.078 C 
HETATM    7  C6  UNL     1       1.507  -0.908   0.249  1.00  0.00    -0.097 C 
BRANCH   7   8
HETATM    8  C5  UNL     1       2.757  -1.275   0.784  1.00  0.00     0.123 C 
BRANCH   8   9
HETATM    9  C4  UNL     1       3.608  -0.183   0.666  1.00  0.00     0.045 C 
BRANCH   9  10
HETATM   10  C3  UNL     1       4.709   0.804   0.666  1.00  0.00     0.043 C 
HETATM   11  C2  UNL     1       5.293   1.994   0.416  1.00  0.00     0.001 C 
HETATM   12  C1  UNL     1       4.361   2.930  -0.256  1.00  0.00     0.038 C 
BRANCH  10  13
HETATM   13  O2  UNL     1       5.327  -0.295   1.298  1.00  0.00    -0.360 OA
HETATM   14  C20 UNL     1       6.629  -0.724   0.976  1.00  0.00     0.209 C 
ENDBRANCH  10  13
ENDBRANCH   9  10
ENDBRANCH   8   9
ENDBRANCH   7   8
ENDBRANCH   1   6
BRANCH   5  15
HETATM   15  C17 UNL     1      -1.539  -2.761  -0.594  1.00  0.00     0.193 A 
HETATM   16  N3  UNL     1      -1.208  -3.706  -1.423  1.00  0.00    -0.198 NA
HETATM   17  C18 UNL     1      -1.138  -4.932  -1.084  1.00  0.00     0.171 A 
HETATM   18  C19 UNL     1      -1.421  -5.346   0.232  1.00  0.00     0.111 A 
HETATM   19  S1  UNL     1      -1.828  -3.749   1.035  1.00  0.00    -0.058 SA
BRANCH  17  20
HETATM   20  O1  UNL     1      -0.830  -6.137  -1.692  1.00  0.00    -0.344 OA
HETATM   21  H15 UNL     1      -1.502  -6.787  -2.067  1.00  0.00     0.219 HD
ENDBRANCH  17  20
ENDBRANCH   5  15
BRANCH   3  22
HETATM   22  C11 UNL     1      -3.968   1.488  -0.380  1.00  0.00    -0.010 A 
HETATM   23  C12 UNL     1      -3.801   2.690   0.265  1.00  0.00     0.013 A 
HETATM   24  C13 UNL     1      -4.814   3.657   0.293  1.00  0.00     0.001 A 
HETATM   25  C14 UNL     1      -5.990   3.368  -0.349  1.00  0.00     0.000 A 
HETATM   26  C15 UNL     1      -6.240   2.173  -1.028  1.00  0.00     0.001 A 
HETATM   27  C16 UNL     1      -5.184   1.293  -0.995  1.00  0.00     0.013 A 
ENDBRANCH   3  22
TORSDOF 8
