REMARK  8 active torsions:
REMARK  status: ('A' for Active; 'I' for Inactive)
REMARK    1  A    between atoms: O1_2  and  C2_3 
REMARK    2  A    between atoms: C5_6  and  O2_7 
REMARK    3  A    between atoms: O2_7  and  C6_8 
REMARK    4  A    between atoms: C6_8  and  C7_9 
REMARK    5  A    between atoms: C7_9  and  C8_10 
REMARK    6  A    between atoms: C8_10  and  C12_19 
REMARK    7  A    between atoms: N1_11  and  N2_12 
REMARK    8  A    between atoms: C11_16  and  O3_17 
ROOT
HETATM    1  C8  UNL     1      -1.896  -0.610  -0.256  1.00  0.00     0.090 C 
HETATM    2  N1  UNL     1      -3.096  -0.548   0.273  1.00  0.00    -0.155 NA
ENDROOT
BRANCH   1   3
HETATM    3  C7  UNL     1      -1.380   0.621  -0.819  1.00  0.00     0.059 C 
BRANCH   3   4
HETATM    4  C6  UNL     1      -0.260   0.914  -1.402  1.00  0.00     0.145 C 
BRANCH   4   5
HETATM    5  O2  UNL     1       0.989   0.946  -1.973  1.00  0.00    -0.323 OA
BRANCH   5   6
HETATM    6  C5  UNL     1       2.176   0.767  -1.258  1.00  0.00     0.075 A 
HETATM    7  C4  UNL     1       3.257   0.850  -2.110  1.00  0.00     0.040 A 
HETATM    8  C3  UNL     1       4.572   0.715  -1.705  1.00  0.00     0.039 A 
HETATM    9  C2  UNL     1       4.749   0.483  -0.336  1.00  0.00     0.068 A 
HETATM   10  C19 UNL     1       3.683   0.398   0.531  1.00  0.00     0.039 A 
HETATM   11  C18 UNL     1       2.381   0.535   0.107  1.00  0.00     0.040 A 
BRANCH   9  12
HETATM   12  O1  UNL     1       6.039   0.336   0.152  1.00  0.00    -0.356 OA
HETATM   13  C1  UNL     1       6.383   0.101   1.487  1.00  0.00     0.210 C 
ENDBRANCH   9  12
ENDBRANCH   5   6
ENDBRANCH   4   5
ENDBRANCH   3   4
ENDBRANCH   1   3
BRANCH   1  14
HETATM   14  C12 UNL     1      -1.310  -1.936  -0.172  1.00  0.00    -0.006 A 
HETATM   15  C13 UNL     1      -2.029  -2.942   0.431  1.00  0.00     0.014 A 
HETATM   16  C14 UNL     1      -1.511  -4.240   0.535  1.00  0.00     0.001 A 
HETATM   17  C15 UNL     1      -0.266  -4.558   0.037  1.00  0.00     0.000 A 
HETATM   18  C16 UNL     1       0.479  -3.571  -0.573  1.00  0.00     0.001 A 
HETATM   19  C17 UNL     1      -0.079  -2.321  -0.645  1.00  0.00     0.014 A 
ENDBRANCH   1  14
BRANCH   2  20
HETATM   20  N2  UNL     1      -3.835   0.644   0.292  1.00  0.00    -0.199 N 
HETATM   21  C9  UNL     1      -4.814   0.790  -0.767  1.00  0.00     0.250 C 
HETATM   22  S1  UNL     1      -4.795   2.528  -1.290  1.00  0.00    -0.114 SA
HETATM   23  C10 UNL     1      -4.340   3.485   0.149  1.00  0.00     0.103 C 
HETATM   24  C11 UNL     1      -3.804   2.906   1.209  1.00  0.00     0.162 C 
HETATM   25  N3  UNL     1      -3.547   1.523   1.306  1.00  0.00    -0.261 N 
HETATM   26  H12 UNL     1      -3.116   1.225   2.220  1.00  0.00     0.191 HD
BRANCH  24  27
HETATM   27  O3  UNL     1      -3.549   3.861   2.171  1.00  0.00    -0.345 OA
HETATM   28  H11 UNL     1      -4.283   4.435   2.569  1.00  0.00     0.219 HD
ENDBRANCH  24  27
ENDBRANCH   2  20
TORSDOF 8
