REMARK  7 active torsions:
REMARK  status: ('A' for Active; 'I' for Inactive)
REMARK    1  A    between atoms: S1_2  and  C2_3 
REMARK    2  A    between atoms: C2_3  and  O1_4 
REMARK    3  A    between atoms: O1_4  and  C3_5 
REMARK    4  A    between atoms: C3_5  and  C4_6 
REMARK    5  A    between atoms: C6_11  and  C7_12 
REMARK    6  A    between atoms: C16_21  and  C17_22 
REMARK    7  A    between atoms: N4_26  and  O2_27 
ROOT
HETATM    1  C4  UNL     1       1.798  -1.931  -0.119  1.00  0.00     0.260 C 
HETATM    2  N1  UNL     1       1.531  -2.115   1.288  1.00  0.00    -0.253 NA
HETATM    3  C5  UNL     1       0.510  -1.762   1.987  1.00  0.00     0.226 C 
HETATM    4  N2  UNL     1      -0.657  -1.086   1.577  1.00  0.00    -0.253 N 
HETATM    5  N3  UNL     1      -1.973  -1.373   2.026  1.00  0.00    -0.175 NA
HETATM    6  C6  UNL     1      -2.839  -0.998   1.113  1.00  0.00     0.067 C 
HETATM    7  C13 UNL     1      -2.078  -0.409  -0.053  1.00  0.00     0.095 C 
HETATM    8  C14 UNL     1      -0.807   0.012   0.649  1.00  0.00     0.168 C 
HETATM    9  C15 UNL     1       0.328   0.282  -0.211  1.00  0.00     0.062 C 
HETATM   10  C16 UNL     1       0.381   1.478  -0.775  1.00  0.00     0.029 C 
HETATM   11  N4  UNL     1       1.398  -0.602  -0.515  1.00  0.00    -0.235 N 
ENDROOT
BRANCH   6  12
HETATM   12  C7  UNL     1      -4.286  -1.142   1.238  1.00  0.00    -0.010 A 
HETATM   13  C8  UNL     1      -4.765  -1.712   2.400  1.00  0.00     0.013 A 
HETATM   14  C9  UNL     1      -6.152  -1.828   2.474  1.00  0.00     0.001 A 
HETATM   15  C10 UNL     1      -6.979  -1.403   1.456  1.00  0.00     0.000 A 
HETATM   16  C11 UNL     1      -6.461  -0.834   0.301  1.00  0.00     0.001 A 
HETATM   17  C12 UNL     1      -5.098  -0.715   0.219  1.00  0.00     0.013 A 
ENDBRANCH   6  12
BRANCH  10  18
HETATM   18  C17 UNL     1      -0.592   2.518  -0.601  1.00  0.00     0.004 C 
HETATM   19  C18 UNL     1      -0.501   3.707  -1.187  1.00  0.00    -0.088 C 
HETATM   20  C19 UNL     1       0.521   4.266  -2.099  1.00  0.00     0.043 C 
HETATM   21  C20 UNL     1      -1.488   4.799  -1.026  1.00  0.00     0.043 C 
ENDBRANCH  10  18
BRANCH  11  22
HETATM   22  O2  UNL     1       2.279  -0.059  -1.419  1.00  0.00    -0.285 OA
HETATM   23  H26 UNL     1       2.063  -0.329  -2.327  1.00  0.00     0.245 HD
ENDBRANCH  11  22
BRANCH   1  24
HETATM   24  C3  UNL     1       3.254  -2.169  -0.416  1.00  0.00     0.219 C 
BRANCH  24  25
HETATM   25  O1  UNL     1       4.082  -1.295   0.287  1.00  0.00    -0.377 OA
BRANCH  25  26
HETATM   26  C2  UNL     1       5.380  -1.624  -0.081  1.00  0.00     0.241 C 
BRANCH  26  27
HETATM   27  S1  UNL     1       6.641  -0.621   0.704  1.00  0.00    -0.148 SA
HETATM   28  C1  UNL     1       8.251  -1.232   0.072  1.00  0.00     0.092 C 
ENDBRANCH  26  27
ENDBRANCH  25  26
ENDBRANCH  24  25
ENDBRANCH   1  24
TORSDOF 7
