REMARK  5 active torsions:
REMARK  status: ('A' for Active; 'I' for Inactive)
REMARK    1  A    between atoms: C9_9  and  N1_10 
REMARK    2  A    between atoms: N1_10  and  N2_11 
REMARK    3  A    between atoms: N1_10  and  C17_19 
REMARK    4  A    between atoms: C10_12  and  C11_13 
REMARK    5  A    between atoms: C18_21  and  O1_22 
ROOT
HETATM    1  N1  UNL     1      -0.093   1.164   0.073  1.00  0.00    -0.237 N 
ENDROOT
BRANCH   1   2
HETATM    2  C9  UNL     1       1.034   0.859   0.957  1.00  0.00     0.150 A 
HETATM    3  C5  UNL     1       1.776  -0.315   0.542  1.00  0.00    -0.027 A 
HETATM    4  C4  UNL     1       1.714  -1.669   0.324  1.00  0.00     0.010 A 
HETATM    5  C6  UNL     1       2.914   0.413   0.345  1.00  0.00    -0.047 A 
HETATM    6  C3  UNL     1       2.804  -2.368  -0.108  1.00  0.00     0.007 A 
HETATM    7  C2  UNL     1       3.971  -1.672  -0.319  1.00  0.00    -0.061 A 
HETATM    8  C1  UNL     1       5.199  -2.383  -0.792  1.00  0.00     0.048 C 
HETATM    9  C7  UNL     1       4.025  -0.305  -0.096  1.00  0.00     0.014 A 
HETATM   10  C8  UNL     1       2.253   1.663   0.750  1.00  0.00     0.071 A 
ENDBRANCH   1   2
BRANCH   1  11
HETATM   11  N2  UNL     1      -1.094   0.171  -0.060  1.00  0.00    -0.181 NA
HETATM   12  C10 UNL     1      -1.974   0.078   0.872  1.00  0.00     0.150 C 
BRANCH  12  13
HETATM   13  C11 UNL     1      -3.067  -0.887   0.886  1.00  0.00    -0.017 A 
HETATM   14  C12 UNL     1      -4.029  -1.019   1.863  1.00  0.00     0.013 A 
HETATM   15  C13 UNL     1      -5.027  -1.942   1.821  1.00  0.00     0.001 A 
HETATM   16  C14 UNL     1      -5.042  -2.769   0.728  1.00  0.00     0.000 A 
HETATM   17  C15 UNL     1      -4.124  -2.715  -0.300  1.00  0.00     0.001 A 
HETATM   18  C16 UNL     1      -3.117  -1.751  -0.213  1.00  0.00     0.013 A 
ENDBRANCH  12  13
ENDBRANCH   1  11
BRANCH   1  19
HETATM   19  C17 UNL     1      -0.319   2.380  -0.697  1.00  0.00     0.192 A 
HETATM   20  N3  UNL     1      -0.123   2.882  -1.706  1.00  0.00    -0.198 NA
HETATM   21  C18 UNL     1      -0.526   4.106  -2.064  1.00  0.00     0.171 A 
HETATM   22  C19 UNL     1      -1.313   4.854  -0.990  1.00  0.00     0.111 A 
HETATM   23  S1  UNL     1      -1.311   3.597   0.361  1.00  0.00    -0.058 SA
BRANCH  21  24
HETATM   24  O1  UNL     1      -0.129   4.442  -3.375  1.00  0.00    -0.344 OA
HETATM   25  H16 UNL     1       0.613   5.113  -3.535  1.00  0.00     0.219 HD
ENDBRANCH  21  24
ENDBRANCH   1  19
TORSDOF 5
