REMARK  3 active torsions:
REMARK  status: ('A' for Active; 'I' for Inactive)
REMARK    1  A    between atoms: O1_2  and  C2_3 
REMARK    2  A    between atoms: C7_10  and  N3_11 
REMARK    3  A    between atoms: N3_11  and  C8_12 
ROOT
HETATM    1  C2  UNL     1      -1.873   0.464  -1.879  1.00  0.00     0.050 C 
HETATM    2  C3  UNL     1      -1.227   0.455  -0.713  1.00  0.00     0.051 C 
HETATM    3  C4  UNL     1      -1.335  -0.339   0.541  1.00  0.00     0.060 A 
HETATM    4  C5  UNL     1      -2.449  -0.858   1.234  1.00  0.00     0.165 A 
HETATM    5  N1  UNL     1      -2.270  -1.532   2.378  1.00  0.00    -0.222 NA
HETATM    6  C6  UNL     1      -1.028  -1.708   2.854  1.00  0.00     0.237 A 
HETATM    7  N2  UNL     1       0.025  -1.210   2.184  1.00  0.00    -0.223 NA
HETATM    8  C7  UNL     1      -0.063  -0.527   1.040  1.00  0.00     0.143 A 
HETATM    9  N4  UNL     1      -3.879  -0.858   1.007  1.00  0.00    -0.227 NA
HETATM   10  C14 UNL     1      -4.556  -0.590  -0.067  1.00  0.00     0.084 C 
HETATM   11  C15 UNL     1      -3.974  -0.649  -1.256  1.00  0.00     0.014 C 
HETATM   12  C16 UNL     1      -3.006  -0.374  -2.373  1.00  0.00     0.094 C 
ENDROOT
BRANCH   8  13
HETATM   13  N3  UNL     1       1.059  -0.066   0.324  1.00  0.00    -0.340 N 
HETATM   14  H6  UNL     1       1.184   0.300  -0.637  1.00  0.00     0.167 HD
BRANCH  13  15
HETATM   15  C8  UNL     1       2.372  -0.060   0.889  1.00  0.00     0.035 A 
HETATM   16  C9  UNL     1       2.610  -0.041   2.247  1.00  0.00     0.029 A 
HETATM   17  C10 UNL     1       3.853  -0.053   2.836  1.00  0.00     0.004 A 
HETATM   18  C11 UNL     1       4.972  -0.086   2.032  1.00  0.00     0.019 A 
HETATM   19  C12 UNL     1       4.832  -0.107   0.678  1.00  0.00     0.013 A 
HETATM   20 BR1  UNL     1       6.339  -0.156  -0.485  1.00  0.00    -0.051 Br
HETATM   21  C13 UNL     1       3.575  -0.093   0.172  1.00  0.00     0.048 A 
ENDBRANCH  13  15
ENDBRANCH   8  13
BRANCH   1  22
HETATM   22  O1  UNL     1      -1.222   1.466  -2.546  1.00  0.00    -0.360 OA
HETATM   23  C1  UNL     1      -1.745   2.420  -3.409  1.00  0.00     0.209 C 
ENDBRANCH   1  22
TORSDOF 3
