REMARK  2 active torsions:
REMARK  status: ('A' for Active; 'I' for Inactive)
REMARK    1  A    between atoms: N2_7  and  S1_8 
REMARK    2  A    between atoms: S1_8  and  C5_9 
ROOT
HETATM    1  F1  UNL     1      -3.703  -3.281   0.239  1.00  0.00    -0.206 F 
HETATM    2  C1  UNL     1      -3.465  -2.079  -0.340  1.00  0.00     0.112 C 
HETATM    3  C2  UNL     1      -3.824  -1.114  -1.211  1.00  0.00     0.021 C 
HETATM    4  C3  UNL     1      -3.307   0.186  -1.666  1.00  0.00     0.087 C 
HETATM    5  C4  UNL     1      -1.819   0.313  -1.436  1.00  0.00     0.039 C 
HETATM    6  N1  UNL     1      -0.896  -0.490  -1.778  1.00  0.00    -0.173 NA
HETATM    7  N2  UNL     1       0.094  -0.585  -0.807  1.00  0.00    -0.224 N 
HETATM    8  C7  UNL     1       0.148   0.735  -0.209  1.00  0.00     0.095 A 
HETATM    9  C8  UNL     1       1.379   1.481  -0.679  1.00  0.00     0.066 A 
HETATM   10  C9  UNL     1       2.171   1.971   0.437  1.00  0.00    -0.024 A 
HETATM   11  C10 UNL     1       2.143   1.959   1.754  1.00  0.00    -0.004 A 
HETATM   12  C11 UNL     1       0.931   1.217   2.169  1.00  0.00     0.005 A 
HETATM   13  C12 UNL     1       0.087   0.698   1.249  1.00  0.00    -0.045 A 
HETATM   14  C13 UNL     1      -0.940   0.033   2.100  1.00  0.00     0.064 C 
HETATM   15  C14 UNL     1      -1.829  -0.893   1.309  1.00  0.00    -0.019 C 
HETATM   16  C15 UNL     1      -2.514  -1.898   0.790  1.00  0.00     0.038 C 
HETATM   17  C16 UNL     1      -1.087   1.399  -0.768  1.00  0.00     0.095 C 
ENDROOT
BRANCH   7  18
HETATM   18  S1  UNL     1       1.251  -1.733  -0.097  1.00  0.00    -0.000 SA
BRANCH  18  19
HETATM   19  C5  UNL     1       2.857  -1.660  -0.802  1.00  0.00     0.129 C 
HETATM   20  C6  UNL     1       4.026  -1.277  -0.267  1.00  0.00     0.198 A 
HETATM   21  N3  UNL     1       5.313  -1.251  -0.936  1.00  0.00    -0.235 N 
HETATM   22  O1  UNL     1       5.170  -0.858   0.402  1.00  0.00    -0.215 OA
HETATM   23  H5  UNL     1       6.111  -1.325  -1.643  1.00  0.00     0.197 HD
ENDBRANCH  18  19
ENDBRANCH   7  18
TORSDOF 2
