REMARK  6 active torsions:
REMARK  status: ('A' for Active; 'I' for Inactive)
REMARK    1  A    between atoms: O1_1  and  C1_2 
REMARK    2  A    between atoms: C3_5  and  C4_6 
REMARK    3  A    between atoms: C4_6  and  O2_7 
REMARK    4  A    between atoms: O2_7  and  C5_8 
REMARK    5  A    between atoms: C8_11  and  N1_12 
REMARK    6  A    between atoms: C11_15  and  C12_16 
ROOT
HETATM    1  C5  UNL     1      -2.546  -0.050   0.221  1.00  0.00     0.069 A 
HETATM    2  C6  UNL     1      -2.132  -1.200  -0.413  1.00  0.00     0.039 A 
HETATM    3  C7  UNL     1      -0.782  -1.505  -0.457  1.00  0.00     0.034 A 
HETATM    4  C8  UNL     1       0.091  -0.626   0.147  1.00  0.00     0.053 A 
HETATM    5  C18 UNL     1      -0.323   0.515   0.775  1.00  0.00     0.034 A 
HETATM    6  C19 UNL     1      -1.679   0.838   0.829  1.00  0.00     0.039 A 
ENDROOT
BRANCH   4   7
HETATM    7  N1  UNL     1       1.481  -0.914   0.116  1.00  0.00    -0.269 N 
HETATM    8  C9  UNL     1       2.144  -2.070  -0.496  1.00  0.00     0.157 C 
HETATM    9  C10 UNL     1       3.345  -1.347  -1.118  1.00  0.00     0.084 C 
HETATM   10  C11 UNL     1       3.630  -0.379  -0.003  1.00  0.00     0.066 C 
HETATM   11  N2  UNL     1       2.537  -0.179   0.652  1.00  0.00    -0.176 NA
BRANCH  10  12
HETATM   12  C12 UNL     1       4.950   0.202   0.242  1.00  0.00    -0.010 A 
HETATM   13  C13 UNL     1       6.043  -0.108  -0.554  1.00  0.00     0.013 A 
HETATM   14  C14 UNL     1       7.303   0.424  -0.348  1.00  0.00     0.001 A 
HETATM   15  C15 UNL     1       7.454   1.298   0.698  1.00  0.00     0.000 A 
HETATM   16  C16 UNL     1       6.379   1.620   1.500  1.00  0.00     0.001 A 
HETATM   17  C17 UNL     1       5.131   1.075   1.274  1.00  0.00     0.013 A 
ENDBRANCH  10  12
ENDBRANCH   4   7
BRANCH   1  18
HETATM   18  O2  UNL     1      -3.882   0.236   0.256  1.00  0.00    -0.345 OA
BRANCH  18  19
HETATM   19  C4  UNL     1      -4.920  -0.522  -0.293  1.00  0.00     0.242 C 
BRANCH  19  20
HETATM   20  C3  UNL     1      -6.264   0.116  -0.052  1.00  0.00     0.102 A 
HETATM   21  S1  UNL     1      -7.254  -0.305   1.503  1.00  0.00    -0.080 SA
HETATM   22  C2  UNL     1      -8.648   0.841   1.005  1.00  0.00     0.109 A 
HETATM   23  C1  UNL     1      -8.135   1.320  -0.203  1.00  0.00     0.169 A 
HETATM   24  N3  UNL     1      -6.967   0.982  -0.748  1.00  0.00    -0.220 NA
BRANCH  23  25
HETATM   25  O1  UNL     1      -8.792   2.249  -1.039  1.00  0.00    -0.344 OA
HETATM   26  H1  UNL     1      -8.537   3.235  -0.888  1.00  0.00     0.219 HD
ENDBRANCH  23  25
ENDBRANCH  19  20
ENDBRANCH  18  19
ENDBRANCH   1  18
TORSDOF 6
