REMARK  5 active torsions:
REMARK  status: ('A' for Active; 'I' for Inactive)
REMARK    1  A    between atoms: O1_2  and  C2_3 
REMARK    2  A    between atoms: C5_6  and  C6_7 
REMARK    3  A    between atoms: C8_9  and  C9_10 
REMARK    4  A    between atoms: N2_17  and  C15_18 
REMARK    5  A    between atoms: C16_20  and  O2_21 
ROOT
HETATM    1  C6  UNL     1      -0.011   0.113   1.021  1.00  0.00     0.151 A 
HETATM    2  C7  UNL     1       0.798  -1.155   0.904  1.00  0.00     0.094 A 
HETATM    3  C8  UNL     1       2.007  -0.722   0.175  1.00  0.00     0.067 A 
HETATM    4  N1  UNL     1       1.944   0.537  -0.105  1.00  0.00    -0.173 NA
HETATM    5  N2  UNL     1       0.776   1.095   0.358  1.00  0.00    -0.236 N 
ENDROOT
BRANCH   1   6
HETATM    6  C5  UNL     1      -1.354  -0.050   0.412  1.00  0.00    -0.033 A 
HETATM    7  C4  UNL     1      -1.578  -0.158  -0.929  1.00  0.00     0.012 A 
HETATM    8  C3  UNL     1      -2.878  -0.302  -1.391  1.00  0.00     0.037 A 
HETATM    9  C2  UNL     1      -3.989  -0.343  -0.550  1.00  0.00     0.068 A 
HETATM   10  C19 UNL     1      -3.768  -0.234   0.807  1.00  0.00     0.037 A 
HETATM   11  C18 UNL     1      -2.477  -0.092   1.246  1.00  0.00     0.012 A 
BRANCH   9  12
HETATM   12  O1  UNL     1      -5.273  -0.488  -1.052  1.00  0.00    -0.356 OA
HETATM   13  C1  UNL     1      -6.371  -0.523  -0.138  1.00  0.00     0.210 C 
ENDBRANCH   9  12
ENDBRANCH   1   6
BRANCH   5  14
HETATM   14  C15 UNL     1       0.578   2.525   0.095  1.00  0.00     0.192 A 
HETATM   15  N3  UNL     1       0.783   3.553   0.596  1.00  0.00    -0.198 NA
HETATM   16  C16 UNL     1       0.482   4.742   0.096  1.00  0.00     0.171 A 
HETATM   17  C17 UNL     1      -0.193   4.682  -1.261  1.00  0.00     0.111 A 
HETATM   18  S1  UNL     1      -0.253   2.813  -1.544  1.00  0.00    -0.058 SA
BRANCH  16  19
HETATM   19  O2  UNL     1       0.844   5.812   0.915  1.00  0.00    -0.344 OA
HETATM   20  H14 UNL     1       1.784   6.189   0.927  1.00  0.00     0.219 HD
ENDBRANCH  16  19
ENDBRANCH   5  14
BRANCH   3  21
HETATM   21  C9  UNL     1       3.133  -1.589  -0.188  1.00  0.00    -0.010 A 
HETATM   22  C10 UNL     1       3.142  -2.910   0.136  1.00  0.00     0.013 A 
HETATM   23  C11 UNL     1       4.167  -3.788  -0.172  1.00  0.00     0.001 A 
HETATM   24  C12 UNL     1       5.254  -3.271  -0.860  1.00  0.00     0.000 A 
HETATM   25  C13 UNL     1       5.259  -1.925  -1.197  1.00  0.00     0.001 A 
HETATM   26  C14 UNL     1       4.225  -1.095  -0.873  1.00  0.00     0.013 A 
ENDBRANCH   3  21
TORSDOF 5
