REMARK  6 active torsions:
REMARK  status: ('A' for Active; 'I' for Inactive)
REMARK    1  A    between atoms: O1_1  and  C1_2 
REMARK    2  A    between atoms: C3_5  and  N1_6 
REMARK    3  A    between atoms: N1_6  and  N2_7 
REMARK    4  A    between atoms: C10_15  and  C11_16 
REMARK    5  A    between atoms: C11_16  and  C12_17 
REMARK    6  A    between atoms: C12_17  and  C13_18 
ROOT
HETATM    1  N2  UNL     1      -0.910  -0.349  -0.279  1.00  0.00    -0.130 NA
HETATM    2  N3  UNL     1      -2.128  -0.724  -0.795  1.00  0.00    -0.312 N 
HETATM    3  C4  UNL     1      -3.509  -0.803  -0.676  1.00  0.00     0.103 C 
HETATM    4  C5  UNL     1      -4.136  -1.905  -0.332  1.00  0.00     0.018 C 
HETATM    5  C6  UNL     1      -3.499  -3.171  -0.030  1.00  0.00     0.001 C 
HETATM    6  C7  UNL     1      -2.312  -3.734   0.048  1.00  0.00    -0.000 C 
HETATM    7  C8  UNL     1      -0.871  -3.549  -0.089  1.00  0.00    -0.002 C 
HETATM    8  C9  UNL     1       0.021  -2.619  -0.385  1.00  0.00    -0.004 C 
HETATM    9  C10 UNL     1       0.158  -1.197  -0.760  1.00  0.00     0.126 C 
HETATM   10  H4  UNL     1      -2.067  -1.187  -1.745  1.00  0.00     0.181 HD
ENDROOT
BRANCH   1  11
HETATM   11  N1  UNL     1      -0.713   0.995  -0.607  1.00  0.00    -0.279 N 
HETATM   12  H3  UNL     1       0.140   1.609  -0.736  1.00  0.00     0.185 HD
BRANCH  11  13
HETATM   13  C3  UNL     1      -1.812   1.925  -0.866  1.00  0.00     0.185 A 
HETATM   14  S1  UNL     1      -2.735   2.475  -2.460  1.00  0.00    -0.059 SA
HETATM   15  C2  UNL     1      -3.809   3.589  -1.468  1.00  0.00     0.111 A 
HETATM   16  C1  UNL     1      -3.334   3.391  -0.138  1.00  0.00     0.171 A 
HETATM   17  N4  UNL     1      -2.336   2.525  -0.041  1.00  0.00    -0.199 NA
BRANCH  16  18
HETATM   18  O1  UNL     1      -3.969   4.124   0.886  1.00  0.00    -0.344 OA
HETATM   19  H1  UNL     1      -3.476   4.786   1.460  1.00  0.00     0.219 HD
ENDBRANCH  16  18
ENDBRANCH  11  13
ENDBRANCH   1  11
BRANCH   9  20
HETATM   20  C11 UNL     1       1.499  -0.596  -0.486  1.00  0.00     0.032 C 
BRANCH  20  21
HETATM   21  C12 UNL     1       1.795  -0.351   0.963  1.00  0.00     0.040 C 
BRANCH  21  22
HETATM   22  C13 UNL     1       3.169   0.249   1.033  1.00  0.00    -0.058 A 
HETATM   23  C14 UNL     1       3.279   1.618   0.976  1.00  0.00     0.010 A 
HETATM   24  C15 UNL     1       4.493   2.272   1.031  1.00  0.00     0.043 A 
HETATM   25  C16 UNL     1       5.653   1.553   1.149  1.00  0.00     0.116 A 
HETATM   26  F1  UNL     1       6.877   2.124   1.208  1.00  0.00    -0.206 F 
HETATM   27  C17 UNL     1       5.522   0.176   1.206  1.00  0.00     0.043 A 
HETATM   28  C18 UNL     1       4.320  -0.496   1.152  1.00  0.00     0.010 A 
ENDBRANCH  21  22
ENDBRANCH  20  21
ENDBRANCH   9  20
TORSDOF 6
