REMARK  5 active torsions:
REMARK  status: ('A' for Active; 'I' for Inactive)
REMARK    1  A    between atoms: C5_5  and  C6_6 
REMARK    2  A    between atoms: N1_7  and  N2_8 
REMARK    3  A    between atoms: N2_8  and  C7_9 
REMARK    4  A    between atoms: N2_8  and  C13_15 
REMARK    5  A    between atoms: C14_17  and  O1_18 
ROOT
HETATM    1  N2  UNL     1      -1.225  -0.240  -0.122  1.00  0.00    -0.210 N 
ENDROOT
BRANCH   1   2
HETATM    2  N1  UNL     1       0.121   0.061  -0.169  1.00  0.00    -0.177 NA
HETATM    3  C6  UNL     1       0.961  -0.477   0.626  1.00  0.00     0.150 C 
BRANCH   3   4
HETATM    4  C5  UNL     1       2.341   0.003   0.382  1.00  0.00    -0.020 A 
HETATM    5  C4  UNL     1       2.665   0.990  -0.662  1.00  0.00     0.009 A 
HETATM    6  C3  UNL     1       3.980   1.269  -0.703  1.00  0.00    -0.018 A 
HETATM    7  C2  UNL     1       4.652   0.457   0.350  1.00  0.00     0.027 A 
HETATM    8  C1  UNL     1       5.721  -0.430  -0.194  1.00  0.00     0.018 C 
HETATM    9  C16 UNL     1       3.505  -0.277   0.941  1.00  0.00    -0.006 A 
ENDBRANCH   3   4
ENDBRANCH   1   2
BRANCH   1  10
HETATM   10  C7  UNL     1      -2.060   0.930  -0.227  1.00  0.00     0.061 A 
HETATM   11  C8  UNL     1      -1.637   2.204   0.075  1.00  0.00     0.031 A 
HETATM   12  C9  UNL     1      -2.379   3.356  -0.016  1.00  0.00     0.002 A 
HETATM   13  C10 UNL     1      -3.683   3.196  -0.458  1.00  0.00     0.000 A 
HETATM   14  C11 UNL     1      -4.209   1.943  -0.789  1.00  0.00     0.002 A 
HETATM   15  C12 UNL     1      -3.356   0.870  -0.653  1.00  0.00     0.031 A 
ENDBRANCH   1  10
BRANCH   1  16
HETATM   16  C13 UNL     1      -1.932  -1.512   0.007  1.00  0.00     0.196 A 
HETATM   17  N3  UNL     1      -2.159  -2.626  -0.612  1.00  0.00    -0.198 NA
HETATM   18  C14 UNL     1      -2.951  -3.490  -0.005  1.00  0.00     0.171 A 
HETATM   19  C15 UNL     1      -3.547  -3.278   1.241  1.00  0.00     0.111 A 
HETATM   20  S1  UNL     1      -2.920  -1.625   1.648  1.00  0.00    -0.058 SA
BRANCH  18  21
HETATM   21  O1  UNL     1      -3.122  -4.665  -0.774  1.00  0.00    -0.344 OA
HETATM   22  H13 UNL     1      -2.943  -5.587  -0.374  1.00  0.00     0.219 HD
ENDBRANCH  18  21
ENDBRANCH   1  16
TORSDOF 5
