REMARK  4 active torsions:
REMARK  status: ('A' for Active; 'I' for Inactive)
REMARK    1  A    between atoms: C2_2  and  C3_3 
REMARK    2  A    between atoms: C4_5  and  C5_6 
REMARK    3  A    between atoms: N2_10  and  C8_11 
REMARK    4  A    between atoms: C9_13  and  O1_14 
ROOT
HETATM    1  C5  UNL     1       2.044  -0.657  -0.047  1.00  0.00     0.016 C 
HETATM    2  C6  UNL     1       0.779  -0.936  -0.291  1.00  0.00    -0.011 C 
HETATM    3  C7  UNL     1       0.148  -0.073  -1.321  1.00  0.00     0.150 C 
HETATM    4  N1  UNL     1      -1.053   0.374  -1.428  1.00  0.00    -0.182 NA
HETATM    5  N2  UNL     1      -2.221   0.257  -0.683  1.00  0.00    -0.242 N 
HETATM    6  C11 UNL     1      -2.823  -0.890  -0.106  1.00  0.00     0.112 C 
HETATM    7  C12 UNL     1      -2.895  -2.030  -1.111  1.00  0.00     0.034 C 
HETATM    8  C13 UNL     1      -2.255  -1.389   1.178  1.00  0.00     0.054 C 
HETATM    9  C14 UNL     1      -0.954  -2.090   1.069  1.00  0.00    -0.017 C 
HETATM   10  C15 UNL     1       0.287  -2.028   0.542  1.00  0.00    -0.054 C 
HETATM   11  C16 UNL     1       1.220  -3.129   0.792  1.00  0.00     0.049 C 
ENDROOT
BRANCH   5  12
HETATM   12  C8  UNL     1      -2.805   1.665  -0.561  1.00  0.00     0.192 A 
HETATM   13  N3  UNL     1      -3.340   2.653  -0.859  1.00  0.00    -0.198 NA
HETATM   14  C9  UNL     1      -3.558   3.667  -0.061  1.00  0.00     0.171 A 
HETATM   15  C10 UNL     1      -3.140   3.610   1.251  1.00  0.00     0.111 A 
HETATM   16  S1  UNL     1      -2.386   1.965   1.295  1.00  0.00    -0.058 SA
BRANCH  14  17
HETATM   17  O1  UNL     1      -4.208   4.815  -0.519  1.00  0.00    -0.344 OA
HETATM   18  H7  UNL     1      -3.909   5.745  -0.225  1.00  0.00     0.219 HD
ENDBRANCH  14  17
ENDBRANCH   5  12
BRANCH   1  19
HETATM   19  C4  UNL     1       3.201   0.131  -0.310  1.00  0.00     0.039 C 
HETATM   20  C3  UNL     1       4.460   0.491  -0.135  1.00  0.00     0.098 C 
HETATM   21  F1  UNL     1       4.566  -0.418   0.833  1.00  0.00    -0.210 F 
BRANCH  20  22
HETATM   22  C2  UNL     1       4.954   1.570  -0.939  1.00  0.00     0.058 C 
HETATM   23  C1  UNL     1       6.169   1.496  -0.382  1.00  0.00     0.013 C 
ENDBRANCH  20  22
ENDBRANCH   1  19
TORSDOF 4
