REMARK  7 active torsions:
REMARK  status: ('A' for Active; 'I' for Inactive)
REMARK    1  A    between atoms: C5_5  and  C6_6 
REMARK    2  A    between atoms: C7_8  and  C8_9 
REMARK    3  A    between atoms: C7_8  and  N2_14 
REMARK    4  A    between atoms: C8_9  and  C9_10 
REMARK    5  A    between atoms: C10_11  and  C11_12 
REMARK    6  A    between atoms: N2_14  and  C13_15 
REMARK    7  A    between atoms: C14_17  and  O1_18 
ROOT
HETATM    1  C6  UNL     1       1.672  -0.185  -0.544  1.00  0.00     0.101 C 
HETATM    2  N1  UNL     1       0.562   0.093   0.008  1.00  0.00    -0.249 NA
HETATM    3  C7  UNL     1      -0.394   0.835  -0.688  1.00  0.00     0.140 C 
HETATM    4  C16 UNL     1       0.274   1.766  -1.710  1.00  0.00     0.137 C 
HETATM    5  S2  UNL     1       1.602   0.576  -2.192  1.00  0.00    -0.105 SA
ENDROOT
BRANCH   3   6
HETATM    6  C8  UNL     1      -1.370   0.004  -1.494  1.00  0.00     0.083 C 
BRANCH   6   7
HETATM    7  C9  UNL     1      -2.157  -0.944  -0.711  1.00  0.00    -0.022 C 
HETATM    8  C10 UNL     1      -3.443  -1.150  -0.482  1.00  0.00    -0.005 C 
BRANCH   8   9
HETATM    9  C11 UNL     1      -3.869  -2.227   0.382  1.00  0.00    -0.011 C 
HETATM   10  C12 UNL     1      -5.158  -2.397   0.584  1.00  0.00     0.011 C 
ENDBRANCH   8   9
ENDBRANCH   6   7
ENDBRANCH   3   6
BRANCH   3  11
HETATM   11  N2  UNL     1      -1.073   1.707   0.266  1.00  0.00    -0.340 N 
HETATM   12  H13 UNL     1      -0.841   1.694   1.298  1.00  0.00     0.164 HD
BRANCH  11  13
HETATM   13  C13 UNL     1      -2.095   2.695   0.161  1.00  0.00     0.171 A 
HETATM   14  N3  UNL     1      -2.064   3.855  -0.027  1.00  0.00    -0.200 NA
HETATM   15  C14 UNL     1      -3.147   4.633  -0.093  1.00  0.00     0.171 A 
HETATM   16  C15 UNL     1      -4.478   3.994   0.082  1.00  0.00     0.111 A 
HETATM   17  S1  UNL     1      -3.919   2.203   0.340  1.00  0.00    -0.060 SA
BRANCH  15  18
HETATM   18  O1  UNL     1      -2.915   6.006  -0.327  1.00  0.00    -0.344 OA
HETATM   19  H14 UNL     1      -2.860   6.652   0.465  1.00  0.00     0.219 HD
ENDBRANCH  15  18
ENDBRANCH  11  13
ENDBRANCH   3  11
BRANCH   1  20
HETATM   20  C5  UNL     1       2.796  -0.940  -0.003  1.00  0.00    -0.001 A 
HETATM   21  C4  UNL     1       3.917  -1.124  -0.783  1.00  0.00     0.015 A 
HETATM   22  C3  UNL     1       4.973  -1.848  -0.241  1.00  0.00     0.007 A 
HETATM   23  C2  UNL     1       4.872  -2.359   1.057  1.00  0.00    -0.062 A 
HETATM   24  C1  UNL     1       6.059  -3.124   1.553  1.00  0.00     0.048 C 
HETATM   25  C18 UNL     1       3.733  -2.158   1.816  1.00  0.00     0.007 A 
HETATM   26  C17 UNL     1       2.681  -1.438   1.278  1.00  0.00     0.015 A 
ENDBRANCH   1  20
TORSDOF 7
