REMARK  5 active torsions:
REMARK  status: ('A' for Active; 'I' for Inactive)
REMARK    1  A    between atoms: O1_1  and  C1_2 
REMARK    2  A    between atoms: S1_4  and  C3_5 
REMARK    3  A    between atoms: C3_5  and  N1_6 
REMARK    4  A    between atoms: C4_8  and  C5_9 
REMARK    5  A    between atoms: C11_16  and  C12_17 
ROOT
HETATM    1  N1  UNL     1       0.821   0.018   0.320  1.00  0.00    -0.280 N 
HETATM    2  N2  UNL     1       0.130  -0.913   1.098  1.00  0.00    -0.177 NA
HETATM    3  C4  UNL     1      -0.873  -0.843   0.292  1.00  0.00     0.093 A 
HETATM    4  C11 UNL     1      -0.256   0.143  -0.613  1.00  0.00     0.192 A 
ENDROOT
BRANCH   1   5
HETATM    5  C3  UNL     1       2.162   0.481   0.639  1.00  0.00     0.231 C 
BRANCH   5   6
HETATM    6  S1  UNL     1       3.237  -0.950   0.640  1.00  0.00    -0.086 SA
HETATM    7  C2  UNL     1       4.879  -0.430   1.024  1.00  0.00     0.086 A 
HETATM    8  C1  UNL     1       5.532  -0.700  -0.088  1.00  0.00     0.065 A 
HETATM    9  C18 UNL     1       4.769  -1.294  -1.201  1.00  0.00     0.186 A 
HETATM   10  N3  UNL     1       3.413  -1.461  -0.822  1.00  0.00    -0.178 NA
BRANCH   8  11
HETATM   11  O1  UNL     1       6.896  -0.498  -0.379  1.00  0.00    -0.363 OA
HETATM   12  H1  UNL     1       7.126   0.427  -0.728  1.00  0.00     0.217 HD
ENDBRANCH   8  11
ENDBRANCH   5   6
ENDBRANCH   1   5
BRANCH   4  13
HETATM   13  C12 UNL     1      -0.902   1.477  -0.606  1.00  0.00    -0.028 A 
HETATM   14  C13 UNL     1      -1.147   1.949   0.688  1.00  0.00     0.012 A 
HETATM   15  C14 UNL     1      -1.746   3.180   0.865  1.00  0.00     0.043 A 
HETATM   16  C15 UNL     1      -2.086   3.913  -0.245  1.00  0.00     0.116 A 
HETATM   17  F2  UNL     1      -2.673   5.119  -0.068  1.00  0.00    -0.206 F 
HETATM   18  C16 UNL     1      -1.855   3.470  -1.546  1.00  0.00     0.043 A 
HETATM   19  C17 UNL     1      -1.256   2.238  -1.723  1.00  0.00     0.012 A 
ENDBRANCH   4  13
BRANCH   3  20
HETATM   20  C5  UNL     1      -2.187  -1.490   0.243  1.00  0.00    -0.007 A 
HETATM   21  C6  UNL     1      -3.138  -1.269  -0.732  1.00  0.00     0.016 A 
HETATM   22  C7  UNL     1      -4.358  -1.912  -0.721  1.00  0.00     0.043 A 
HETATM   23  C8  UNL     1      -4.676  -2.814   0.283  1.00  0.00     0.116 A 
HETATM   24  F1  UNL     1      -5.864  -3.480   0.347  1.00  0.00    -0.206 F 
HETATM   25  C9  UNL     1      -3.757  -3.069   1.281  1.00  0.00     0.043 A 
HETATM   26  C10 UNL     1      -2.564  -2.409   1.227  1.00  0.00     0.016 A 
ENDBRANCH   3  20
TORSDOF 5
