REMARK  7 active torsions:
REMARK  status: ('A' for Active; 'I' for Inactive)
REMARK    1  A    between atoms: N1_2  and  C2_3 
REMARK    2  A    between atoms: C2_3  and  C3_4 
REMARK    3  A    between atoms: C2_3  and  C4_6 
REMARK    4  A    between atoms: C4_6  and  N2_7 
REMARK    5  A    between atoms: N2_7  and  C5_8 
REMARK    6  A    between atoms: C5_8  and  C6_9 
REMARK    7  A    between atoms: C9_14  and  C10_15 
ROOT
HETATM    1  C6  UNL     1      -0.341  -0.640   0.446  1.00  0.00     0.037 C 
HETATM    2  N3  UNL     1      -0.906  -1.670   1.004  1.00  0.00    -0.273 NA
HETATM    3  C7  UNL     1      -2.269  -1.754   0.471  1.00  0.00     0.118 A 
HETATM    4  C8  UNL     1      -3.326  -2.500   1.196  1.00  0.00     0.121 A 
HETATM    5  S1  UNL     1      -2.846  -3.012  -0.499  1.00  0.00    -0.131 SA
HETATM    6  C9  UNL     1      -2.577  -0.259   0.268  1.00  0.00     0.068 C 
HETATM    7  C15 UNL     1      -1.292   0.045  -0.524  1.00  0.00     0.069 C 
ENDROOT
BRANCH   1   8
HETATM    8  C5  UNL     1       1.017   0.043   0.509  1.00  0.00     0.323 C 
BRANCH   8   9
HETATM    9  N2  UNL     1       1.830  -0.233  -0.624  1.00  0.00     0.090 NA
HETATM   10  H10 UNL     1       2.049  -1.276  -0.655  1.00  0.00     0.316 HD
BRANCH   9  11
HETATM   11  C4  UNL     1       2.948   0.568  -0.892  1.00  0.00     0.307 C 
BRANCH  11  12
HETATM   12  C2  UNL     1       4.126   0.608  -0.009  1.00  0.00     0.276 C 
BRANCH  12  13
HETATM   13  N1  UNL     1       4.796  -0.637   0.226  1.00  0.00     0.087 NA
HETATM   14  C1  UNL     1       6.179  -0.425   0.583  1.00  0.00     0.307 C 
HETATM   15  H4  UNL     1       4.785  -1.174  -0.684  1.00  0.00     0.316 HD
ENDBRANCH  12  13
BRANCH  12  16
HETATM   16  C3  UNL     1       4.055   1.554   1.141  1.00  0.00     0.259 C 
HETATM   17  F1  UNL     1       3.448   1.121   2.266  1.00  0.00    -0.253 F 
ENDBRANCH  12  16
ENDBRANCH  11  12
ENDBRANCH   9  11
ENDBRANCH   8   9
ENDBRANCH   1   8
BRANCH   6  18
HETATM   18  C10 UNL     1      -3.808   0.059  -0.386  1.00  0.00    -0.012 C 
HETATM   19  C11 UNL     1      -4.571   0.964   0.266  1.00  0.00     0.120 C 
HETATM   20  F2  UNL     1      -4.174   1.505   1.436  1.00  0.00    -0.208 F 
HETATM   21  C12 UNL     1      -5.877   1.401  -0.271  1.00  0.00     0.220 C 
HETATM   22  N4  UNL     1      -5.944   1.206  -1.719  1.00  0.00    -0.281 NA
HETATM   23  C13 UNL     1      -5.373   0.202  -2.234  1.00  0.00     0.080 C 
HETATM   24  C14 UNL     1      -4.390  -0.405  -1.629  1.00  0.00     0.044 C 
ENDBRANCH   6  18
TORSDOF 7
