REMARK  3 active torsions:
REMARK  status: ('A' for Active; 'I' for Inactive)
REMARK    1  A    between atoms: O1_1  and  C1_2 
REMARK    2  A    between atoms: C3_5  and  N1_6 
REMARK    3  A    between atoms: C4_8  and  C5_9 
ROOT
HETATM    1  N1  UNL     1      -1.215   0.800   0.239  1.00  0.00    -0.227 N 
HETATM    2  N2  UNL     1      -0.031   1.324   0.717  1.00  0.00    -0.177 NA
HETATM    3  C4  UNL     1       1.010   0.720   0.286  1.00  0.00     0.048 C 
HETATM    4  C10 UNL     1       0.542  -0.382  -0.617  1.00  0.00     0.101 C 
HETATM    5  C11 UNL     1      -0.932  -0.497  -0.270  1.00  0.00     0.111 C 
HETATM    6  C12 UNL     1      -1.058  -1.570   0.745  1.00  0.00     0.015 C 
HETATM    7  C13 UNL     1      -1.498  -2.812   0.576  1.00  0.00     0.042 C 
HETATM    8  C14 UNL     1      -1.949  -3.321  -0.730  1.00  0.00     0.128 C 
HETATM    9  F2  UNL     1      -1.588  -4.609  -1.044  1.00  0.00    -0.205 F 
HETATM   10  C15 UNL     1      -2.654  -2.511  -1.480  1.00  0.00     0.029 C 
HETATM   11  P2  UNL     1      -1.946  -1.048  -1.710  1.00  0.00    -0.007 P 
ENDROOT
BRANCH   3  12
HETATM   12  C5  UNL     1       2.458   0.951   0.543  1.00  0.00     0.088 A 
HETATM   13  C6  UNL     1       3.067  -0.267   1.158  1.00  0.00    -0.008 A 
HETATM   14  C7  UNL     1       4.032  -1.085   0.822  1.00  0.00     0.039 A 
HETATM   15  C8  UNL     1       4.858  -1.013  -0.379  1.00  0.00     0.116 A 
HETATM   16  F1  UNL     1       5.839  -1.912  -0.641  1.00  0.00    -0.206 F 
HETATM   17  C9  UNL     1       4.624  -0.026  -1.230  1.00  0.00     0.047 A 
HETATM   18  P1  UNL     1       3.352   1.286  -1.063  1.00  0.00    -0.089 P 
HETATM   19  H7  UNL     1       2.455   1.331  -2.188  1.00  0.00     0.062 HD
ENDBRANCH   3  12
BRANCH   1  20
HETATM   20  C3  UNL     1      -2.506   1.527   0.288  1.00  0.00     0.193 A 
HETATM   21  S1  UNL     1      -3.835   0.543  -0.422  1.00  0.00    -0.058 SA
HETATM   22  C2  UNL     1      -5.106   1.910  -0.089  1.00  0.00     0.111 A 
HETATM   23  C1  UNL     1      -4.209   2.919   0.540  1.00  0.00     0.171 A 
HETATM   24  N3  UNL     1      -2.937   2.601   0.668  1.00  0.00    -0.198 NA
BRANCH  23  25
HETATM   25  O1  UNL     1      -4.456   4.208   1.054  1.00  0.00    -0.344 OA
HETATM   26  H1  UNL     1      -4.169   5.034   0.555  1.00  0.00     0.219 HD
ENDBRANCH  23  25
ENDBRANCH   1  20
TORSDOF 3
