REMARK  1 active torsions:
REMARK  status: ('A' for Active; 'I' for Inactive)
REMARK    1  A    between atoms: C4_5  and  C5_6 
ROOT
HETATM    1  C5  UNL     1      -1.354   0.018  -1.203  1.00  0.00     0.151 C 
HETATM    2  C6  UNL     1      -1.139  -1.449  -1.615  1.00  0.00     0.093 C 
HETATM    3  C7  UNL     1       0.203  -1.714  -1.191  1.00  0.00     0.057 C 
HETATM    4  N1  UNL     1      -0.064  -1.161  -0.052  1.00  0.00    -0.174 NA
HETATM    5  N2  UNL     1      -0.217   0.181  -0.332  1.00  0.00    -0.236 N 
HETATM    6  C8  UNL     1       0.494   1.356   0.075  1.00  0.00     0.192 A 
HETATM    7  N3  UNL     1       1.719   1.344   0.007  1.00  0.00    -0.198 NA
HETATM    8  C9  UNL     1       2.447   2.403   0.376  1.00  0.00     0.178 A 
HETATM    9  C10 UNL     1       1.761   3.577   0.861  1.00  0.00     0.111 A 
HETATM   10  S1  UNL     1      -0.053   2.926   0.705  1.00  0.00    -0.058 SA
HETATM   11  O1  UNL     1       3.699   1.870   0.107  1.00  0.00    -0.304 OA
HETATM   12  C11 UNL     1       4.213   0.691   0.534  1.00  0.00     0.143 C 
HETATM   13  C12 UNL     1       4.393  -0.592   0.740  1.00  0.00     0.038 C 
HETATM   14  C13 UNL     1       3.847  -1.940   0.455  1.00  0.00     0.218 C 
HETATM   15  F2  UNL     1       3.661  -2.667   1.645  1.00  0.00    -0.241 F 
HETATM   16  C14 UNL     1       2.573  -1.951  -0.263  1.00  0.00     0.016 C 
HETATM   17  C15 UNL     1       1.566  -2.099  -1.052  1.00  0.00     0.028 C 
ENDROOT
BRANCH   1  18
HETATM   18  C4  UNL     1      -2.585   0.148  -0.424  1.00  0.00    -0.033 A 
HETATM   19  C3  UNL     1      -2.795  -0.452   0.793  1.00  0.00     0.012 A 
HETATM   20  C2  UNL     1      -3.986  -0.306   1.512  1.00  0.00     0.043 A 
HETATM   21  C1  UNL     1      -4.974   0.486   0.939  1.00  0.00     0.116 A 
HETATM   22  F1  UNL     1      -6.129   0.641   1.613  1.00  0.00    -0.206 F 
HETATM   23  C17 UNL     1      -4.794   1.106  -0.286  1.00  0.00     0.043 A 
HETATM   24  C16 UNL     1      -3.593   0.922  -0.947  1.00  0.00     0.012 A 
ENDBRANCH   1  18
TORSDOF 1
