REMARK  8 active torsions:
REMARK  status: ('A' for Active; 'I' for Inactive)
REMARK    1  A    between atoms: C2_2  and  C3_3 
REMARK    2  A    between atoms: C3_3  and  C4_4 
REMARK    3  A    between atoms: C3_3  and  C7_8 
REMARK    4  A    between atoms: C4_4  and  C5_5 
REMARK    5  A    between atoms: C5_5  and  C6_6 
REMARK    6  A    between atoms: N2_10  and  C8_11 
REMARK    7  A    between atoms: C9_13  and  O1_14 
REMARK    8  A    between atoms: C11_17  and  C12_18 
ROOT
HETATM    1  C7  UNL     1       1.290  -0.220   0.227  1.00  0.00     0.075 C 
HETATM    2  N1  UNL     1       0.383  -1.020   0.677  1.00  0.00    -0.173 NA
HETATM    3  N2  UNL     1      -0.861  -0.449   0.694  1.00  0.00    -0.236 N 
HETATM    4  C11 UNL     1      -0.640   0.977   0.662  1.00  0.00     0.151 C 
HETATM    5  C18 UNL     1       0.649   1.063  -0.123  1.00  0.00     0.095 C 
ENDROOT
BRANCH   1   6
HETATM    6  C3  UNL     1       2.683  -0.579   0.107  1.00  0.00     0.031 C 
BRANCH   6   7
HETATM    7  C2  UNL     1       3.523   0.328  -0.372  1.00  0.00    -0.141 C 
HETATM    8  C1  UNL     1       4.189   1.215  -1.098  1.00  0.00     0.097 C 
ENDBRANCH   6   7
BRANCH   6   9
HETATM    9  C4  UNL     1       3.325  -1.807   0.434  1.00  0.00     0.020 C 
BRANCH   9  10
HETATM   10  C5  UNL     1       4.546  -2.278   0.387  1.00  0.00     0.006 C 
BRANCH  10  11
HETATM   11  C6  UNL     1       5.908  -1.908   0.014  1.00  0.00     0.249 C 
HETATM   12  F1  UNL     1       6.777  -1.995   1.104  1.00  0.00    -0.251 F 
ENDBRANCH  10  11
ENDBRANCH   9  10
ENDBRANCH   6   9
ENDBRANCH   1   6
BRANCH   3  13
HETATM   13  C8  UNL     1      -2.062  -1.189   0.737  1.00  0.00     0.192 A 
HETATM   14  N3  UNL     1      -2.334  -2.476   0.760  1.00  0.00    -0.198 NA
HETATM   15  C9  UNL     1      -3.628  -2.789   0.804  1.00  0.00     0.171 A 
HETATM   16  C10 UNL     1      -4.725  -1.822   0.828  1.00  0.00     0.111 A 
HETATM   17  S1  UNL     1      -3.663  -0.278   0.777  1.00  0.00    -0.058 SA
BRANCH  15  18
HETATM   18  O1  UNL     1      -3.721  -4.203   0.823  1.00  0.00    -0.344 OA
HETATM   19  H7  UNL     1      -4.062  -4.719   1.606  1.00  0.00     0.219 HD
ENDBRANCH  15  18
ENDBRANCH   3  13
BRANCH   4  20
HETATM   20  C12 UNL     1      -1.708   1.726  -0.047  1.00  0.00    -0.033 A 
HETATM   21  C13 UNL     1      -2.149   1.249  -1.264  1.00  0.00     0.012 A 
HETATM   22  C14 UNL     1      -3.139   2.006  -1.850  1.00  0.00     0.043 A 
HETATM   23  C15 UNL     1      -3.670   3.151  -1.295  1.00  0.00     0.116 A 
HETATM   24  F2  UNL     1      -4.643   3.885  -1.883  1.00  0.00    -0.206 F 
HETATM   25  C16 UNL     1      -3.194   3.591  -0.072  1.00  0.00     0.043 A 
HETATM   26  C17 UNL     1      -2.212   2.862   0.534  1.00  0.00     0.012 A 
ENDBRANCH   4  20
TORSDOF 8
