REMARK  10 active torsions:
REMARK  status: ('A' for Active; 'I' for Inactive)
REMARK    1  A    between atoms: C3_3  and  C4_4 
REMARK    2  A    between atoms: C3_3  and  C6_7 
REMARK    3  A    between atoms: C4_4  and  C5_5 
REMARK    4  A    between atoms: N2_9  and  C7_10 
REMARK    5  A    between atoms: C8_12  and  O1_13 
REMARK    6  A    between atoms: C10_16  and  C11_17 
REMARK    7  A    between atoms: C11_17  and  C12_18 
REMARK    8  A    between atoms: C13_19  and  C14_20 
REMARK    9  A    between atoms: C14_20  and  P1_21 
REMARK   10  A    between atoms: P1_21  and  C15_22 
ROOT
HETATM    1  C6  UNL     1      -1.563  -0.526   0.299  1.00  0.00     0.063 C 
HETATM    2  N1  UNL     1      -2.027   0.640   0.125  1.00  0.00    -0.174 NA
HETATM    3  N2  UNL     1      -1.062   1.618   0.262  1.00  0.00    -0.240 N 
HETATM    4  C10 UNL     1       0.254   0.959   0.270  1.00  0.00     0.122 C 
HETATM    5  C16 UNL     1      -0.105  -0.445   0.596  1.00  0.00     0.089 C 
ENDROOT
BRANCH   4   6
HETATM    6  C11 UNL     1       0.899   1.113  -1.087  1.00  0.00     0.055 C 
BRANCH   6   7
HETATM    7  C12 UNL     1       2.204   0.539  -1.233  1.00  0.00    -0.016 C 
HETATM    8  C13 UNL     1       2.429   0.047  -0.037  1.00  0.00     0.051 C 
BRANCH   8   9
HETATM    9  C14 UNL     1       3.675  -0.480  -0.243  1.00  0.00    -0.127 C 
BRANCH   9  10
HETATM   10  P1  UNL     1       4.970  -1.017  -0.480  1.00  0.00    -0.041 P 
HETATM   11  H16 UNL     1       5.395  -1.201  -0.554  1.00  0.00     0.071 HD
BRANCH  10  12
HETATM   12  C15 UNL     1       7.213  -1.916  -0.923  1.00  0.00     0.158 C 
HETATM   13 CL1  UNL     1       6.778  -3.428  -0.221  1.00  0.00    -0.125 Cl
ENDBRANCH  10  12
ENDBRANCH   9  10
ENDBRANCH   8   9
ENDBRANCH   6   7
ENDBRANCH   4   6
BRANCH   3  14
HETATM   14  C7  UNL     1      -1.171   3.032   0.386  1.00  0.00     0.192 A 
HETATM   15  N3  UNL     1      -0.282   4.006   0.520  1.00  0.00    -0.198 NA
HETATM   16  C8  UNL     1      -0.776   5.221   0.606  1.00  0.00     0.171 A 
HETATM   17  C9  UNL     1      -2.197   5.496   0.560  1.00  0.00     0.111 A 
HETATM   18  S1  UNL     1      -2.796   3.781   0.372  1.00  0.00    -0.058 SA
BRANCH  16  19
HETATM   19  O1  UNL     1       0.305   6.123   0.743  1.00  0.00    -0.344 OA
HETATM   20  H9  UNL     1       0.796   6.496  -0.039  1.00  0.00     0.219 HD
ENDBRANCH  16  19
ENDBRANCH   3  14
BRANCH   1  21
HETATM   21  C3  UNL     1      -2.349  -1.753   0.215  1.00  0.00    -0.034 C 
HETATM   22  C2  UNL     1      -1.671  -2.897   0.440  1.00  0.00    -0.022 C 
HETATM   23  C1  UNL     1      -1.991  -4.322   0.481  1.00  0.00     0.036 C 
BRANCH  21  24
HETATM   24  C4  UNL     1      -3.798  -1.839  -0.075  1.00  0.00     0.071 C 
BRANCH  24  25
HETATM   25  C5  UNL     1      -4.214  -1.314  -1.407  1.00  0.00     0.226 C 
HETATM   26  F1  UNL     1      -3.895   0.011  -1.518  1.00  0.00    -0.255 F 
ENDBRANCH  24  25
ENDBRANCH  21  24
ENDBRANCH   1  21
TORSDOF 10
