REMARK  3 active torsions:
REMARK  status: ('A' for Active; 'I' for Inactive)
REMARK    1  A    between atoms: O1_2  and  C2_3 
REMARK    2  A    between atoms: C2_3  and  C3_5 
REMARK    3  A    between atoms: C4_6  and  O3_7 
ROOT
HETATM    1  C3  UNL     1      -1.424  -0.911  -0.269  1.00  0.00     0.111 A 
HETATM    2  C4  UNL     1      -2.646  -0.452  -0.488  1.00  0.00     0.102 A 
HETATM    3  C6  UNL     1      -2.788   0.984  -0.617  1.00  0.00     0.012 A 
HETATM    4  C7  UNL     1      -4.099   1.349  -0.855  1.00  0.00     0.015 A 
HETATM    5  C8  UNL     1      -4.528   2.643  -1.025  1.00  0.00     0.001 A 
HETATM    6  C9  UNL     1      -3.615   3.664  -0.961  1.00  0.00     0.001 A 
HETATM    7  C10 UNL     1      -2.298   3.354  -0.727  1.00  0.00     0.016 A 
HETATM    8  C11 UNL     1      -1.909   2.040  -0.562  1.00  0.00     0.018 A 
HETATM    9  C12 UNL     1      -0.443   1.962  -0.332  1.00  0.00     0.124 A 
HETATM   10  S1  UNL     1      -0.046   0.243  -0.144  1.00  0.00    -0.077 SA
HETATM   11  C13 UNL     1       1.713   0.427   0.111  1.00  0.00     0.091 A 
HETATM   12  C14 UNL     1       1.841   1.763   0.031  1.00  0.00     0.148 A 
HETATM   13  O4  UNL     1       0.720   2.525  -0.196  1.00  0.00    -0.297 OA
HETATM   14  C15 UNL     1       3.243   2.198   0.213  1.00  0.00     0.218 A 
HETATM   15  O5  UNL     1       3.576   3.411   0.174  1.00  0.00    -0.284 OA
HETATM   16  C16 UNL     1       4.285   1.185   0.447  1.00  0.00     0.031 A 
HETATM   17  C17 UNL     1       5.600   1.641   0.614  1.00  0.00     0.016 A 
HETATM   18  C18 UNL     1       6.559   0.672   0.832  1.00  0.00     0.001 A 
HETATM   19  C19 UNL     1       6.329  -0.687   0.898  1.00  0.00     0.001 A 
HETATM   20  C20 UNL     1       5.028  -1.109   0.731  1.00  0.00     0.016 A 
HETATM   21  C21 UNL     1       4.042  -0.197   0.513  1.00  0.00     0.030 A 
HETATM   22  C22 UNL     1       2.650  -0.632   0.332  1.00  0.00     0.202 A 
HETATM   23  O6  UNL     1       2.288  -1.821   0.365  1.00  0.00    -0.286 OA
ENDROOT
BRANCH   1  24
HETATM   24  C2  UNL     1      -1.023  -2.262  -0.109  1.00  0.00     0.302 C 
HETATM   25  O2  UNL     1      -0.316  -3.247   0.073  1.00  0.00    -0.259 OA
BRANCH  24  26
HETATM   26  O1  UNL     1      -2.054  -3.165  -0.213  1.00  0.00    -0.322 OA
HETATM   27  C1  UNL     1      -1.858  -4.544  -0.086  1.00  0.00     0.213 C 
ENDBRANCH  24  26
ENDBRANCH   1  24
BRANCH   2  28
HETATM   28  O3  UNL     1      -3.666  -1.379  -0.574  1.00  0.00    -0.353 OA
HETATM   29  C5  UNL     1      -4.557  -1.742   0.433  1.00  0.00     0.210 C 
ENDBRANCH   2  28
TORSDOF 3
