REMARK  3 active torsions:
REMARK  status: ('A' for Active; 'I' for Inactive)
REMARK    1  A    between atoms: C2_2  and  O1_3 
REMARK    2  A    between atoms: C2_2  and  C3_4 
REMARK    3  A    between atoms: C11_15  and  C12_16 
ROOT
HETATM    1  C3  UNL     1      -0.540   1.419   0.569  1.00  0.00     0.079 C 
HETATM    2  C4  UNL     1      -1.701   1.348   1.237  1.00  0.00     0.020 C 
HETATM    3  C5  UNL     1      -2.801   0.736   1.943  1.00  0.00     0.087 C 
HETATM    4  C6  UNL     1      -3.285  -0.412   2.377  1.00  0.00     0.102 C 
HETATM    5  F1  UNL     1      -4.229   0.511   2.779  1.00  0.00    -0.210 F 
HETATM    6  C7  UNL     1      -3.398  -1.852   2.634  1.00  0.00     0.035 C 
HETATM    7  C8  UNL     1      -2.354  -2.450   2.111  1.00  0.00    -0.018 C 
HETATM    8  C9  UNL     1      -1.164  -3.040   1.503  1.00  0.00     0.083 C 
HETATM    9  C10 UNL     1      -0.281  -2.010   0.830  1.00  0.00     0.038 C 
HETATM   10  N1  UNL     1       0.372  -0.966   1.214  1.00  0.00    -0.180 NA
HETATM   11  N2  UNL     1      -0.043   0.103   0.438  1.00  0.00    -0.258 N 
HETATM   12  C11 UNL     1       0.110  -0.398  -0.880  1.00  0.00     0.149 C 
HETATM   13  C18 UNL     1       0.119  -1.911  -0.597  1.00  0.00     0.089 C 
ENDROOT
BRANCH  12  14
HETATM   14  C12 UNL     1       1.397  -0.067  -1.551  1.00  0.00    -0.033 A 
HETATM   15  C13 UNL     1       1.328   0.379  -2.874  1.00  0.00     0.011 A 
HETATM   16  C14 UNL     1       2.444   0.697  -3.596  1.00  0.00     0.024 A 
HETATM   17  C15 UNL     1       3.674   0.563  -2.966  1.00  0.00     0.034 A 
HETATM   18 CL1  UNL     1       5.107   0.964  -3.875  1.00  0.00    -0.084 Cl
HETATM   19  C16 UNL     1       3.731   0.118  -1.649  1.00  0.00     0.024 A 
HETATM   20  C17 UNL     1       2.605  -0.208  -0.908  1.00  0.00     0.011 A 
ENDBRANCH  12  14
BRANCH   1  21
HETATM   21  C2  UNL     1      -0.088   2.688   0.142  1.00  0.00     0.071 C 
HETATM   22  C1  UNL     1       1.036   2.741  -0.491  1.00  0.00     0.073 C 
BRANCH  21  23
HETATM   23  O1  UNL     1      -0.811   3.842   0.382  1.00  0.00    -0.363 OA
HETATM   24  H3  UNL     1      -0.595   4.305   1.275  1.00  0.00     0.217 HD
ENDBRANCH  21  23
ENDBRANCH   1  21
TORSDOF 3
