REMARK  2 active torsions:
REMARK  status: ('A' for Active; 'I' for Inactive)
REMARK    1  A    between atoms: N2_11  and  C9_12 
REMARK    2  A    between atoms: C10_14  and  O1_15 
ROOT
HETATM    1  C1  UNL     1      -1.818  -1.338   1.491  1.00  0.00     0.013 C 
HETATM    2  C2  UNL     1      -1.761  -0.878   0.245  1.00  0.00    -0.012 C 
HETATM    3  C3  UNL     1      -1.455  -1.791  -0.889  1.00  0.00     0.041 C 
HETATM    4  C4  UNL     1      -1.082  -3.100  -0.334  1.00  0.00     0.012 C 
HETATM    5  C5  UNL     1       0.205  -3.414  -0.163  1.00  0.00     0.095 C 
HETATM    6  F1  UNL     1       0.272  -4.703   0.357  1.00  0.00    -0.211 F 
HETATM    7  C6  UNL     1       1.615  -2.995  -0.169  1.00  0.00     0.125 C 
HETATM    8  C7  UNL     1       1.814  -1.496  -0.182  1.00  0.00     0.035 C 
HETATM    9  C8  UNL     1       3.234  -1.021  -0.354  1.00  0.00     0.068 C 
HETATM   10  N1  UNL     1       0.887  -0.711  -0.022  1.00  0.00    -0.179 NA
HETATM   11  N2  UNL     1       0.561   0.592   0.049  1.00  0.00    -0.245 N 
HETATM   12  C12 UNL     1      -0.615   1.162  -0.592  1.00  0.00     0.172 C 
HETATM   13  C13 UNL     1      -1.918   0.523  -0.231  1.00  0.00     0.024 A 
HETATM   14  C14 UNL     1      -2.778   0.484  -1.462  1.00  0.00    -0.009 A 
HETATM   15  C15 UNL     1      -3.913   1.153  -1.331  1.00  0.00     0.021 A 
HETATM   16  C16 UNL     1      -3.881   1.691   0.014  1.00  0.00     0.031 A 
HETATM   17 CL1  UNL     1      -5.233   2.663   0.593  1.00  0.00    -0.085 Cl
HETATM   18  C17 UNL     1      -2.771   1.351   0.654  1.00  0.00     0.013 A 
ENDROOT
BRANCH  11  19
HETATM   19  C9  UNL     1       1.451   1.505   0.801  1.00  0.00     0.191 A 
HETATM   20  N3  UNL     1       2.157   2.098   0.174  1.00  0.00    -0.198 NA
HETATM   21  C10 UNL     1       3.087   2.981   0.378  1.00  0.00     0.171 A 
HETATM   22  C11 UNL     1       3.219   3.232   1.686  1.00  0.00     0.111 A 
HETATM   23  S1  UNL     1       1.925   2.115   2.526  1.00  0.00    -0.058 SA
BRANCH  21  24
HETATM   24  O1  UNL     1       4.050   3.822  -0.158  1.00  0.00    -0.344 OA
HETATM   25  H11 UNL     1       3.905   4.348  -1.018  1.00  0.00     0.219 HD
ENDBRANCH  21  24
ENDBRANCH  11  19
TORSDOF 2
