REMARK  6 active torsions:
REMARK  status: ('A' for Active; 'I' for Inactive)
REMARK    1  A    between atoms: C2_2  and  C3_3 
REMARK    2  A    between atoms: C2_2  and  N1_10 
REMARK    3  A    between atoms: N1_10  and  C9_11 
REMARK    4  A    between atoms: N1_10  and  C15_19 
REMARK    5  A    between atoms: C11_14  and  N2_15 
REMARK    6  A    between atoms: C16_21  and  O1_22 
ROOT
HETATM    1  N1  UNL     1       0.111   0.665   0.458  1.00  0.00    -0.318 N 
ENDROOT
BRANCH   1   2
HETATM    2  C2  UNL     1       1.381   0.173   0.888  1.00  0.00     0.121 C 
HETATM    3  C1  UNL     1       1.229  -0.557   2.189  1.00  0.00     0.038 C 
BRANCH   2   4
HETATM    4  C3  UNL     1       2.197  -0.508  -0.111  1.00  0.00    -0.035 A 
HETATM    5  C4  UNL     1       2.851  -1.697   0.153  1.00  0.00     0.011 A 
HETATM    6  C5  UNL     1       3.626  -2.328  -0.824  1.00  0.00     0.024 A 
HETATM    7  C6  UNL     1       3.722  -1.735  -2.059  1.00  0.00     0.034 A 
HETATM    8 CL1  UNL     1       4.672  -2.453  -3.346  1.00  0.00    -0.084 Cl
HETATM    9  C7  UNL     1       3.061  -0.538  -2.319  1.00  0.00     0.024 A 
HETATM   10  C8  UNL     1       2.287   0.095  -1.349  1.00  0.00     0.011 A 
ENDBRANCH   2   4
ENDBRANCH   1   2
BRANCH   1  11
HETATM   11  C9  UNL     1      -1.045  -0.085   0.174  1.00  0.00     0.055 C 
HETATM   12  C10 UNL     1      -1.905  -0.465   1.108  1.00  0.00     0.153 C 
HETATM   13  F1  UNL     1      -1.806  -0.198   2.434  1.00  0.00    -0.206 F 
HETATM   14  C11 UNL     1      -3.146  -1.247   0.946  1.00  0.00     0.304 C 
HETATM   15  C12 UNL     1      -3.309  -1.779  -0.423  1.00  0.00     0.011 C 
HETATM   16  C13 UNL     1      -2.454  -1.392  -1.365  1.00  0.00    -0.022 C 
HETATM   17  C14 UNL     1      -1.299  -0.460  -1.246  1.00  0.00     0.087 C 
BRANCH  14  18
HETATM   18  N2  UNL     1      -3.185  -2.414   1.834  1.00  0.00     0.093 N 
HETATM   19  H10 UNL     1      -4.165  -2.578   2.166  1.00  0.00     0.314 HD
HETATM   20  H11 UNL     1      -2.528  -2.173   2.629  1.00  0.00     0.314 HD
ENDBRANCH  14  18
ENDBRANCH   1  11
BRANCH   1  21
HETATM   21  C15 UNL     1      -0.167   2.098   0.245  1.00  0.00     0.176 A 
HETATM   22  N3  UNL     1      -0.110   2.933  -0.654  1.00  0.00    -0.200 NA
HETATM   23  C16 UNL     1      -0.472   4.199  -0.428  1.00  0.00     0.171 A 
HETATM   24  C17 UNL     1      -0.949   4.530   0.981  1.00  0.00     0.111 A 
HETATM   25  S1  UNL     1      -0.756   2.806   1.737  1.00  0.00    -0.059 SA
BRANCH  23  26
HETATM   26  O1  UNL     1      -0.305   4.923  -1.628  1.00  0.00    -0.344 OA
HETATM   27  H16 UNL     1      -1.055   5.146  -2.253  1.00  0.00     0.219 HD
ENDBRANCH  23  26
ENDBRANCH   1  21
TORSDOF 6
