REMARK  4 active torsions:
REMARK  status: ('A' for Active; 'I' for Inactive)
REMARK    1  A    between atoms: O1_1  and  C1_2 
REMARK    2  A    between atoms: C6_8  and  C7_9 
REMARK    3  A    between atoms: N2_11  and  C8_12 
REMARK    4  A    between atoms: C10_16  and  C11_17 
ROOT
HETATM    1  C7  UNL     1       1.308  -0.008  -0.413  1.00  0.00     0.070 C 
HETATM    2  N1  UNL     1       0.888   1.166  -0.181  1.00  0.00    -0.173 NA
HETATM    3  N2  UNL     1      -0.488   1.256   0.001  1.00  0.00    -0.237 N 
HETATM    4  C10 UNL     1      -1.045   0.048  -0.515  1.00  0.00     0.151 C 
HETATM    5  C17 UNL     1       0.125  -0.910  -0.406  1.00  0.00     0.094 C 
ENDROOT
BRANCH   1   6
HETATM    6  C6  UNL     1       2.687  -0.426  -0.646  1.00  0.00     0.024 A 
HETATM    7  C1  UNL     1       3.695   0.527  -0.623  1.00  0.00     0.081 A 
HETATM    8  C2  UNL     1       4.996   0.150  -0.840  1.00  0.00     0.079 A 
HETATM    9  C3  UNL     1       5.350  -1.165  -1.086  1.00  0.00     0.119 A 
HETATM   10  F1  UNL     1       6.617  -1.604  -1.308  1.00  0.00    -0.206 F 
HETATM   11  C4  UNL     1       4.330  -2.092  -1.103  1.00  0.00     0.043 A 
HETATM   12  C5  UNL     1       3.009  -1.729  -0.886  1.00  0.00     0.019 A 
BRANCH   7  13
HETATM   13  O1  UNL     1       3.371   1.862  -0.378  1.00  0.00    -0.360 OA
HETATM   14  H1  UNL     1       2.971   2.398  -1.127  1.00  0.00     0.217 HD
ENDBRANCH   7  13
ENDBRANCH   1   6
BRANCH   3  15
HETATM   15  C8  UNL     1      -1.113   2.385   0.597  1.00  0.00     0.183 A 
HETATM   16  N3  UNL     1      -1.461   3.048   1.584  1.00  0.00    -0.255 NA
HETATM   17  C9  UNL     1      -2.109   4.160   1.057  1.00  0.00     0.234 A 
HETATM   18  S1  UNL     1      -1.774   3.505  -0.568  1.00  0.00    -0.069 SA
ENDBRANCH   3  15
BRANCH   4  19
HETATM   19  C11 UNL     1      -2.163  -0.527   0.231  1.00  0.00    -0.033 A 
HETATM   20  C12 UNL     1      -2.206  -1.903   0.495  1.00  0.00     0.011 A 
HETATM   21  C13 UNL     1      -3.229  -2.505   1.191  1.00  0.00     0.024 A 
HETATM   22  C14 UNL     1      -4.285  -1.763   1.672  1.00  0.00     0.034 A 
HETATM   23 CL1  UNL     1      -5.583  -2.501   2.551  1.00  0.00    -0.084 Cl
HETATM   24  C15 UNL     1      -4.286  -0.414   1.438  1.00  0.00     0.024 A 
HETATM   25  C16 UNL     1      -3.242   0.154   0.736  1.00  0.00     0.011 A 
ENDBRANCH   4  19
TORSDOF 4
