REMARK  6 active torsions:
REMARK  status: ('A' for Active; 'I' for Inactive)
REMARK    1  A    between atoms: N1_1  and  C1_2 
REMARK    2  A    between atoms: C1_2  and  O1_3 
REMARK    3  A    between atoms: C2_4  and  S1_5 
REMARK    4  A    between atoms: S1_5  and  C3_6 
REMARK    5  A    between atoms: C3_6  and  N2_7 
REMARK    6  A    between atoms: C11_16  and  C12_17 
ROOT
HETATM    1  N2  UNL     1       0.775  -0.184   0.002  1.00  0.00    -0.295 N 
HETATM    2  C4  UNL     1       0.559  -1.542   0.061  1.00  0.00     0.149 C 
HETATM    3  C5  UNL     1       0.761  -2.720  -0.713  1.00  0.00     0.048 C 
HETATM    4  C6  UNL     1      -0.204  -3.718  -0.056  1.00  0.00    -0.023 C 
HETATM    5  C7  UNL     1      -1.475  -3.459   0.334  1.00  0.00     0.019 C 
HETATM    6  C8  UNL     1      -2.656  -2.603   0.490  1.00  0.00     0.030 C 
HETATM    7 CL1  UNL     1      -4.047  -3.316   1.366  1.00  0.00    -0.085 Cl
HETATM    8  C9  UNL     1      -2.950  -1.353   0.116  1.00  0.00     0.003 C 
HETATM    9  C10 UNL     1      -2.028  -0.503  -0.633  1.00  0.00     0.090 C 
HETATM   10  C11 UNL     1      -1.474   0.710  -0.120  1.00  0.00     0.068 C 
HETATM   11  N3  UNL     1      -0.234   0.780   0.134  1.00  0.00    -0.180 NA
ENDROOT
BRANCH   1  12
HETATM   12  C3  UNL     1       2.120   0.409  -0.087  1.00  0.00     0.223 C 
BRANCH  12  13
HETATM   13  S1  UNL     1       2.982  -0.162  -1.582  1.00  0.00    -0.116 SA
BRANCH  13  14
HETATM   14  C2  UNL     1       4.621   0.562  -1.689  1.00  0.00     0.101 C 
HETATM   15  C1  UNL     1       5.364  -0.011  -0.759  1.00  0.00     0.139 C 
BRANCH  15  16
HETATM   16  N1  UNL     1       4.755  -1.003   0.065  1.00  0.00    -0.380 N 
HETATM   17  H1  UNL     1       4.861  -1.140   1.102  1.00  0.00     0.158 HD
HETATM   18  H2  UNL     1       4.120  -1.681  -0.436  1.00  0.00     0.158 HD
ENDBRANCH  15  16
BRANCH  15  19
HETATM   19  O1  UNL     1       6.715   0.326  -0.565  1.00  0.00    -0.346 OA
HETATM   20  H3  UNL     1       6.850   1.095   0.104  1.00  0.00     0.219 HD
ENDBRANCH  15  19
ENDBRANCH  13  14
ENDBRANCH  12  13
ENDBRANCH   1  12
BRANCH  10  21
HETATM   21  C12 UNL     1      -2.174   1.942   0.216  1.00  0.00    -0.009 A 
HETATM   22  C13 UNL     1      -1.529   3.029   0.757  1.00  0.00     0.016 A 
HETATM   23  C14 UNL     1      -2.201   4.217   1.076  1.00  0.00     0.043 A 
HETATM   24  C15 UNL     1      -3.555   4.336   0.855  1.00  0.00     0.116 A 
HETATM   25  F1  UNL     1      -4.217   5.478   1.159  1.00  0.00    -0.206 F 
HETATM   26  C16 UNL     1      -4.212   3.253   0.314  1.00  0.00     0.043 A 
HETATM   27  C17 UNL     1      -3.527   2.097   0.009  1.00  0.00     0.016 A 
ENDBRANCH  10  21
TORSDOF 6
