REMARK  4 active torsions:
REMARK  status: ('A' for Active; 'I' for Inactive)
REMARK    1  A    between atoms: N1_1  and  C1_2 
REMARK    2  A    between atoms: C8_10  and  C9_11 
REMARK    3  A    between atoms: N2_18  and  C15_19 
REMARK    4  A    between atoms: C16_21  and  O1_22 
ROOT
HETATM    1  C1  UNL     1      -1.974  -0.945  -1.083  1.00  0.00     0.275 A 
HETATM    2  C2  UNL     1      -3.380  -1.326  -0.789  1.00  0.00     0.053 A 
HETATM    3  C3  UNL     1      -4.007  -1.819   0.267  1.00  0.00     0.114 A 
HETATM    4  F1  UNL     1      -5.329  -2.105   0.337  1.00  0.00    -0.206 F 
HETATM    5  C4  UNL     1      -3.103  -2.038   1.405  1.00  0.00     0.040 A 
HETATM    6  C5  UNL     1      -1.820  -1.741   1.285  1.00  0.00     0.010 A 
HETATM    7  C6  UNL     1      -1.093  -1.188   0.112  1.00  0.00     0.089 A 
HETATM    8  C7  UNL     1       0.146  -1.982  -0.146  1.00  0.00     0.068 C 
HETATM    9  C8  UNL     1       0.759  -1.027   0.858  1.00  0.00     0.123 C 
HETATM   10  N2  UNL     1      -0.249  -0.056   0.482  1.00  0.00    -0.336 N 
ENDROOT
BRANCH   1  11
HETATM   11  N1  UNL     1      -1.892   0.394  -1.588  1.00  0.00     0.089 N 
HETATM   12  H1  UNL     1      -1.858   0.394  -2.619  1.00  0.00     0.313 HD
HETATM   13  H2  UNL     1      -2.669   1.007  -1.245  1.00  0.00     0.313 HD
ENDBRANCH   1  11
BRANCH  10  14
HETATM   14  C15 UNL     1      -0.474   1.377   0.432  1.00  0.00     0.172 A 
HETATM   15  N3  UNL     1      -0.270   2.254  -0.444  1.00  0.00    -0.200 NA
HETATM   16  C16 UNL     1      -0.585   3.507  -0.195  1.00  0.00     0.171 A 
HETATM   17  C17 UNL     1      -1.138   3.893   1.007  1.00  0.00     0.111 A 
HETATM   18  S1  UNL     1      -1.238   2.322   1.921  1.00  0.00    -0.060 SA
BRANCH  16  19
HETATM   19  O1  UNL     1      -0.293   4.363  -1.281  1.00  0.00    -0.344 OA
HETATM   20  H14 UNL     1      -0.114   5.333  -1.063  1.00  0.00     0.219 HD
ENDBRANCH  16  19
ENDBRANCH  10  14
BRANCH   9  21
HETATM   21  C9  UNL     1       2.145  -0.659   0.476  1.00  0.00    -0.035 A 
HETATM   22  C10 UNL     1       3.257  -0.775   1.308  1.00  0.00     0.010 A 
HETATM   23  C11 UNL     1       4.509  -0.409   0.872  1.00  0.00     0.019 A 
HETATM   24  C12 UNL     1       4.715   0.089  -0.406  1.00  0.00     0.011 A 
HETATM   25 BR1  UNL     1       6.456   0.600  -1.017  1.00  0.00    -0.051 Br
HETATM   26  C13 UNL     1       3.604   0.207  -1.242  1.00  0.00     0.019 A 
HETATM   27  C14 UNL     1       2.354  -0.164  -0.791  1.00  0.00     0.010 A 
ENDBRANCH   9  21
TORSDOF 4
