REMARK  2 active torsions:
REMARK  status: ('A' for Active; 'I' for Inactive)
REMARK    1  A    between atoms: N2_17  and  S1_18 
REMARK    2  A    between atoms: C15_20  and  O1_21 
ROOT
HETATM    1  C1  UNL     1      -3.460  -1.928   1.149  1.00  0.00     0.018 C 
HETATM    2  C2  UNL     1      -2.679  -2.195  -0.072  1.00  0.00     0.028 C 
HETATM    3  C3  UNL     1      -2.320  -0.979  -0.772  1.00  0.00    -0.018 C 
HETATM    4  C4  UNL     1      -2.278   0.031   0.045  1.00  0.00     0.009 C 
HETATM    5  C5  UNL     1      -1.979   1.450   0.059  1.00  0.00    -0.027 A 
HETATM    6  C6  UNL     1      -2.456   2.699  -0.016  1.00  0.00     0.031 A 
HETATM    7  C7  UNL     1      -1.612   3.789   0.026  1.00  0.00     0.011 A 
HETATM    8 BR1  UNL     1      -2.684   5.358  -0.108  1.00  0.00    -0.051 Br
HETATM    9  C8  UNL     1      -0.265   3.596   0.147  1.00  0.00     0.020 A 
HETATM   10  C9  UNL     1       0.255   2.336   0.228  1.00  0.00     0.011 A 
HETATM   11  C10 UNL     1      -0.506   1.211   0.194  1.00  0.00    -0.027 A 
HETATM   12  C11 UNL     1       0.057  -0.090   0.323  1.00  0.00     0.133 C 
HETATM   13  C12 UNL     1       0.159  -0.938  -0.924  1.00  0.00     0.085 C 
HETATM   14  C13 UNL     1      -0.515  -2.067  -0.227  1.00  0.00     0.020 C 
HETATM   15  C14 UNL     1      -1.418  -2.944   0.317  1.00  0.00     0.007 C 
HETATM   16  N1  UNL     1       0.709  -2.061   0.701  1.00  0.00    -0.312 N 
HETATM   17  N2  UNL     1       1.168  -0.633   0.935  1.00  0.00    -0.141 NA
HETATM   18  H14 UNL     1       1.291  -2.831   1.251  1.00  0.00     0.181 HD
ENDROOT
BRANCH  17  19
HETATM   19  S1  UNL     1       2.755  -0.475   0.565  1.00  0.00     0.063 SA
HETATM   20  N3  UNL     1       3.738   0.922   0.599  1.00  0.00    -0.175 NA
HETATM   21  C15 UNL     1       5.092   0.549   0.181  1.00  0.00     0.177 A 
HETATM   22  C16 UNL     1       5.593  -0.615  -0.181  1.00  0.00     0.117 A 
HETATM   23  S2  UNL     1       4.360  -1.898  -0.128  1.00  0.00    -0.036 SA
BRANCH  21  24
HETATM   24  O1  UNL     1       5.847   1.753   0.233  1.00  0.00    -0.344 OA
HETATM   25  H15 UNL     1       6.281   2.153  -0.575  1.00  0.00     0.219 HD
ENDBRANCH  21  24
ENDBRANCH  17  19
TORSDOF 2
