REMARK  5 active torsions:
REMARK  status: ('A' for Active; 'I' for Inactive)
REMARK    1  A    between atoms: C4_5  and  C5_6 
REMARK    2  A    between atoms: C5_6  and  C6_7 
REMARK    3  A    between atoms: C5_6  and  N1_12 
REMARK    4  A    between atoms: C6_7  and  C7_8 
REMARK    5  A    between atoms: C7_8  and  C8_9 
ROOT
HETATM    1  C5  UNL     1       0.074   0.329   0.790  1.00  0.00     0.140 C 
ENDROOT
BRANCH   1   2
HETATM    2  C4  UNL     1      -0.782   1.229   0.029  1.00  0.00    -0.034 A 
HETATM    3  C3  UNL     1      -1.126   2.465   0.543  1.00  0.00     0.011 A 
HETATM    4  C2  UNL     1      -1.926   3.258  -0.255  1.00  0.00     0.019 A 
HETATM    5  C1  UNL     1      -2.409   2.932  -1.504  1.00  0.00     0.011 A 
HETATM    6 BR1  UNL     1      -3.506   4.097  -2.523  1.00  0.00    -0.051 Br
HETATM    7  C15 UNL     1      -2.027   1.685  -1.955  1.00  0.00     0.019 A 
HETATM    8  C14 UNL     1      -1.217   0.814  -1.216  1.00  0.00     0.011 A 
ENDBRANCH   1   2
BRANCH   1   9
HETATM    9  C6  UNL     1       1.451   0.299   0.050  1.00  0.00     0.036 C 
BRANCH   9  10
HETATM   10  C7  UNL     1       2.430  -0.584   0.738  1.00  0.00     0.036 C 
BRANCH  10  11
HETATM   11  C8  UNL     1       3.709  -0.534  -0.058  1.00  0.00    -0.080 A 
HETATM   12  C9  UNL     1       5.039  -0.284  -0.236  1.00  0.00    -0.019 A 
HETATM   13  C10 UNL     1       4.281  -0.813  -1.400  1.00  0.00     0.061 A 
ENDBRANCH  10  11
ENDBRANCH   9  10
ENDBRANCH   1   9
BRANCH   1  14
HETATM   14  N1  UNL     1      -0.224  -1.003   1.082  1.00  0.00    -0.252 N 
HETATM   15  N2  UNL     1      -0.162  -2.360   1.530  1.00  0.00    -0.106 NA
HETATM   16  O1  UNL     1      -1.323  -2.865   2.053  1.00  0.00    -0.236 OA
HETATM   17  H11 UNL     1       0.156  -2.955   0.705  1.00  0.00     0.180 HD
HETATM   18  C11 UNL     1      -2.588  -2.779   1.497  1.00  0.00     0.377 A 
HETATM   19  C12 UNL     1      -3.959  -2.614   0.840  1.00  0.00     0.375 A 
HETATM   20  N3  UNL     1      -2.787  -1.727   0.631  1.00  0.00     0.099 N 
HETATM   21  S1  UNL     1      -3.359  -0.987  -0.143  1.00  0.00     0.106 SA
HETATM   22  C13 UNL     1      -1.623  -1.041   0.569  1.00  0.00     0.297 A 
ENDBRANCH   1  14
TORSDOF 5
