REMARK  3 active torsions:
REMARK  status: ('A' for Active; 'I' for Inactive)
REMARK    1  A    between atoms: S1_2  and  C2_3 
REMARK    2  A    between atoms: C2_3  and  C3_4 
REMARK    3  A    between atoms: C9_10  and  C10_11 
ROOT
HETATM    1  C3  UNL     1       2.552  -0.565   0.644  1.00  0.00    -0.055 C 
HETATM    2  C4  UNL     1       2.378   0.616   1.235  1.00  0.00    -0.015 C 
HETATM    3  C5  UNL     1       1.228   1.434   0.702  1.00  0.00     0.029 C 
HETATM    4  C6  UNL     1       1.595   2.130  -0.561  1.00  0.00     0.016 C 
HETATM    5  C7  UNL     1       0.062   0.512   0.607  1.00  0.00     0.117 C 
HETATM    6  C8  UNL     1      -1.113   1.050  -0.181  1.00  0.00     0.089 C 
HETATM    7  C9  UNL     1      -1.906  -0.234  -0.225  1.00  0.00     0.066 C 
HETATM    8  N1  UNL     1      -1.034  -1.201  -0.171  1.00  0.00    -0.180 NA
HETATM    9  N2  UNL     1       0.276  -0.712  -0.096  1.00  0.00    -0.295 N 
HETATM   10  C16 UNL     1       1.654  -1.016  -0.467  1.00  0.00     0.179 C 
ENDROOT
BRANCH   7  11
HETATM   11  C10 UNL     1      -3.359  -0.342  -0.309  1.00  0.00    -0.010 A 
HETATM   12  C11 UNL     1      -4.129   0.805  -0.356  1.00  0.00     0.016 A 
HETATM   13  C12 UNL     1      -5.499   0.663  -0.435  1.00  0.00     0.043 A 
HETATM   14  C13 UNL     1      -6.050  -0.608  -0.464  1.00  0.00     0.116 A 
HETATM   15  F1  UNL     1      -7.410  -0.766  -0.542  1.00  0.00    -0.206 F 
HETATM   16  C14 UNL     1      -5.280  -1.763  -0.417  1.00  0.00     0.043 A 
HETATM   17  C15 UNL     1      -3.911  -1.602  -0.338  1.00  0.00     0.016 A 
ENDBRANCH   7  11
BRANCH   1  18
HETATM   18  C2  UNL     1       3.647  -1.508   1.047  1.00  0.00     0.109 C 
BRANCH  18  19
HETATM   19  S1  UNL     1       4.720  -1.802  -0.386  1.00  0.00    -0.169 SA
HETATM   20  C1  UNL     1       5.599  -0.304  -0.865  1.00  0.00     0.090 C 
ENDBRANCH  18  19
ENDBRANCH   1  18
TORSDOF 3
