REMARK  4 active torsions:
REMARK  status: ('A' for Active; 'I' for Inactive)
REMARK    1  A    between atoms: O1_1  and  C1_2 
REMARK    2  A    between atoms: C3_5  and  N1_6 
REMARK    3  A    between atoms: C4_8  and  C5_9 
REMARK    4  A    between atoms: C12_17  and  C13_18 
ROOT
HETATM    1  N1  UNL     1      -0.050   0.913  -0.655  1.00  0.00    -0.237 N 
HETATM    2  N2  UNL     1       1.350   0.875  -0.543  1.00  0.00    -0.173 NA
HETATM    3  C4  UNL     1       1.754  -0.295  -0.170  1.00  0.00     0.067 C 
HETATM    4  C11 UNL     1       0.555  -1.169  -0.000  1.00  0.00     0.093 C 
HETATM    5  C12 UNL     1      -0.383  -0.444  -0.955  1.00  0.00     0.136 C 
ENDROOT
BRANCH   5   6
HETATM    6  C13 UNL     1      -1.780  -0.826  -0.779  1.00  0.00    -0.099 A 
HETATM    7  C14 UNL     1      -2.522  -1.284  -1.778  1.00  0.00    -0.006 A 
HETATM    8  C15 UNL     1      -3.912  -1.642  -1.515  1.00  0.00     0.013 A 
HETATM    9  C16 UNL     1      -4.490  -1.539  -0.329  1.00  0.00    -0.020 A 
HETATM   10 BR1  UNL     1      -6.321  -2.046  -0.130  1.00  0.00    -0.057 Br
HETATM   11  C17 UNL     1      -3.901  -1.058   0.963  1.00  0.00    -0.002 A 
HETATM   12  B1  UNL     1      -2.381  -0.671   0.653  1.00  0.00     0.197 B 
HETATM   13  H14 UNL     1      -1.675  -0.665   1.622  1.00  0.00    -0.021 HD
ENDBRANCH   5   6
BRANCH   1  14
HETATM   14  C3  UNL     1      -0.778   2.171  -0.466  1.00  0.00     0.192 A 
HETATM   15  S1  UNL     1      -1.119   3.317  -1.944  1.00  0.00    -0.058 SA
HETATM   16  C2  UNL     1      -2.000   4.511  -0.794  1.00  0.00     0.111 A 
HETATM   17  C1  UNL     1      -1.893   3.875   0.444  1.00  0.00     0.171 A 
HETATM   18  N3  UNL     1      -1.253   2.721   0.414  1.00  0.00    -0.198 NA
BRANCH  17  19
HETATM   19  O1  UNL     1      -2.398   4.367   1.641  1.00  0.00    -0.344 OA
HETATM   20  H1  UNL     1      -2.010   5.216   2.075  1.00  0.00     0.219 HD
ENDBRANCH  17  19
ENDBRANCH   1  14
BRANCH   3  21
HETATM   21  C5  UNL     1       3.111  -0.718   0.052  1.00  0.00    -0.010 A 
HETATM   22  C6  UNL     1       3.450  -1.991   0.450  1.00  0.00     0.016 A 
HETATM   23  C7  UNL     1       4.750  -2.382   0.658  1.00  0.00     0.043 A 
HETATM   24  C8  UNL     1       5.767  -1.456   0.460  1.00  0.00     0.116 A 
HETATM   25  F1  UNL     1       7.079  -1.741   0.638  1.00  0.00    -0.206 F 
HETATM   26  C9  UNL     1       5.505  -0.161   0.061  1.00  0.00     0.043 A 
HETATM   27  C10 UNL     1       4.159   0.157  -0.130  1.00  0.00     0.016 A 
ENDBRANCH   3  21
TORSDOF 4
