REMARK  2 active torsions:
REMARK  status: ('A' for Active; 'I' for Inactive)
REMARK    1  A    between atoms: C8_8  and  C9_9 
REMARK    2  A    between atoms: S1_21  and  O1_22 
ROOT
HETATM    1  C1  UNL     1       4.960   1.887   1.598  1.00  0.00     0.018 C 
HETATM    2  C2  UNL     1       3.861   1.139   0.859  1.00  0.00     0.006 C 
HETATM    3  C3  UNL     1       4.254  -0.085   0.362  1.00  0.00     0.070 C 
HETATM    4  C4  UNL     1       3.213  -0.863  -0.356  1.00  0.00    -0.022 C 
HETATM    5  C5  UNL     1       1.967  -1.102  -0.865  1.00  0.00    -0.003 C 
HETATM    6  C6  UNL     1       0.598  -0.574  -1.027  1.00  0.00     0.141 C 
HETATM    7  C7  UNL     1      -0.412  -1.529  -0.438  1.00  0.00     0.093 C 
HETATM    8  C8  UNL     1      -1.582  -0.588  -0.278  1.00  0.00     0.067 C 
HETATM    9  N1  UNL     1      -1.085   0.600  -0.187  1.00  0.00    -0.173 NA
HETATM   10  N2  UNL     1       0.309   0.628  -0.265  1.00  0.00    -0.236 N 
HETATM   11  C15 UNL     1       0.912   1.719   0.359  1.00  0.00     0.207 A 
HETATM   12  N3  UNL     1       1.934   1.061   0.334  1.00  0.00    -0.217 NA
HETATM   13  C16 UNL     1       2.678   2.052   0.952  1.00  0.00     0.101 A 
HETATM   14  S1  UNL     1       1.510   3.140   1.125  1.00  0.00     0.031 S 
ENDROOT
BRANCH   8  15
HETATM   15  C9  UNL     1      -2.985  -1.044  -0.245  1.00  0.00    -0.010 A 
HETATM   16  C10 UNL     1      -3.310  -2.377  -0.365  1.00  0.00     0.016 A 
HETATM   17  C11 UNL     1      -4.665  -2.664  -0.318  1.00  0.00     0.043 A 
HETATM   18  C12 UNL     1      -5.643  -1.686  -0.162  1.00  0.00     0.116 A 
HETATM   19  F1  UNL     1      -6.973  -1.999  -0.118  1.00  0.00    -0.206 F 
HETATM   20  C13 UNL     1      -5.257  -0.366  -0.047  1.00  0.00     0.043 A 
HETATM   21  C14 UNL     1      -3.933  -0.033  -0.087  1.00  0.00     0.016 A 
ENDBRANCH   8  15
BRANCH  14  22
HETATM   22  O1  UNL     1       1.321   4.876   0.972  1.00  0.00    -0.328 OA
HETATM   23  H14 UNL     1       1.079   5.077   0.014  1.00  0.00     0.227 HD
ENDBRANCH  14  22
TORSDOF 2
