REMARK  3 active torsions:
REMARK  status: ('A' for Active; 'I' for Inactive)
REMARK    1  A    between atoms: C6_6  and  S1_7 
REMARK    2  A    between atoms: S1_7  and  C7_8 
REMARK    3  A    between atoms: C8_9  and  O1_10 
ROOT
HETATM    1  C1  UNL     1      -1.332   4.100   0.976  1.00  0.00     0.043 C 
HETATM    2  C2  UNL     1      -0.677   2.855   0.489  1.00  0.00    -0.086 C 
HETATM    3  C3  UNL     1      -0.698   1.805   1.302  1.00  0.00    -0.008 C 
HETATM    4  C4  UNL     1      -0.077   0.542   0.900  1.00  0.00     0.029 C 
HETATM    5  C5  UNL     1       1.389   0.555   1.261  1.00  0.00     0.028 C 
HETATM    6  C6  UNL     1       2.112  -0.139   0.377  1.00  0.00     0.091 C 
HETATM    7  N1  UNL     1       1.164  -0.619  -0.574  1.00  0.00    -0.252 N 
HETATM    8  N2  UNL     1       0.765  -1.604  -1.482  1.00  0.00    -0.179 NA
HETATM    9  C9  UNL     1      -0.548  -1.639  -1.525  1.00  0.00     0.038 C 
HETATM   10  C10 UNL     1      -1.733  -2.561  -1.707  1.00  0.00     0.087 C 
HETATM   11  C11 UNL     1      -2.759  -2.391  -0.660  1.00  0.00     0.021 C 
HETATM   12  C12 UNL     1      -3.345  -1.966   0.476  1.00  0.00     0.112 C 
HETATM   13  F1  UNL     1      -4.650  -2.406   0.709  1.00  0.00    -0.206 F 
HETATM   14  C13 UNL     1      -2.940  -1.204   1.646  1.00  0.00     0.038 C 
HETATM   15  C14 UNL     1      -1.904  -0.582   2.235  1.00  0.00    -0.022 C 
HETATM   16  C15 UNL     1      -0.680  -0.688   1.447  1.00  0.00     0.047 C 
HETATM   17  C16 UNL     1      -1.017  -0.244  -1.320  1.00  0.00     0.091 C 
HETATM   18  C17 UNL     1       0.100   0.406  -0.616  1.00  0.00     0.076 C 
HETATM   19  C18 UNL     1       0.602   1.628  -1.268  1.00  0.00     0.039 C 
HETATM   20  C19 UNL     1      -0.063   2.902  -0.857  1.00  0.00     0.036 C 
ENDROOT
BRANCH   6  21
HETATM   21  S1  UNL     1       3.856  -0.456   0.303  1.00  0.00    -0.081 SA
BRANCH  21  22
HETATM   22  C7  UNL     1       4.283  -1.451  -1.094  1.00  0.00     0.075 C 
HETATM   23  C8  UNL     1       5.341  -2.217  -0.796  1.00  0.00     0.138 C 
BRANCH  23  24
HETATM   24  O1  UNL     1       5.809  -2.031   0.499  1.00  0.00    -0.372 OA
HETATM   25  H8  UNL     1       5.202  -1.955   1.300  1.00  0.00     0.216 HD
ENDBRANCH  23  24
ENDBRANCH  21  22
ENDBRANCH   6  21
TORSDOF 3
