REMARK  5 active torsions:
REMARK  status: ('A' for Active; 'I' for Inactive)
REMARK    1  A    between atoms: C3_3  and  C4_4 
REMARK    2  A    between atoms: C4_4  and  N1_5 
REMARK    3  A    between atoms: N1_5  and  C5_6 
REMARK    4  A    between atoms: C6_8  and  O1_9 
REMARK    5  A    between atoms: C9_13  and  N3_14 
ROOT
HETATM    1  C1  UNL     1       2.032  -4.193   0.530  1.00  0.00     0.048 C 
HETATM    2  C2  UNL     1       1.415  -2.926   0.128  1.00  0.00    -0.058 A 
HETATM    3  C3  UNL     1       1.826  -1.745  -0.337  1.00  0.00    -0.054 A 
HETATM    4  C8  UNL     1       1.020  -0.578  -0.673  1.00  0.00     0.067 A 
HETATM    5  C9  UNL     1      -0.455  -0.755  -0.523  1.00  0.00     0.134 A 
HETATM    6  C17 UNL     1      -0.869  -2.074  -0.006  1.00  0.00     0.001 A 
HETATM    7  C18 UNL     1      -0.045  -3.064   0.294  1.00  0.00     0.005 A 
ENDROOT
BRANCH   3   8
HETATM    8  C4  UNL     1       3.305  -1.689  -0.494  1.00  0.00     0.156 C 
BRANCH   8   9
HETATM    9  N1  UNL     1       3.820  -0.621   0.324  1.00  0.00    -0.365 N 
HETATM   10  H6  UNL     1       4.229  -0.848   1.257  1.00  0.00     0.162 HD
BRANCH   9  11
HETATM   11  C5  UNL     1       3.942   0.762   0.224  1.00  0.00     0.169 A 
HETATM   12  N2  UNL     1       4.272   1.850   0.985  1.00  0.00    -0.200 NA
HETATM   13  C6  UNL     1       4.260   2.961   0.277  1.00  0.00     0.171 A 
HETATM   14  C7  UNL     1       3.968   3.216  -1.115  1.00  0.00     0.111 A 
HETATM   15  S1  UNL     1       3.626   1.404  -1.503  1.00  0.00    -0.060 SA
BRANCH  13  16
HETATM   16  O1  UNL     1       4.616   3.990   1.181  1.00  0.00    -0.344 OA
HETATM   17  H7  UNL     1       4.313   4.946   0.995  1.00  0.00     0.219 HD
ENDBRANCH  13  16
ENDBRANCH   9  11
ENDBRANCH   8   9
ENDBRANCH   3   8
BRANCH   5  18
HETATM   18  N3  UNL     1      -1.009   0.240   0.355  1.00  0.00    -0.288 NA
HETATM   19  C10 UNL     1      -2.163   0.727   0.135  1.00  0.00     0.015 C 
HETATM   20  C11 UNL     1      -2.687   1.749   1.070  1.00  0.00     0.062 C 
HETATM   21  C15 UNL     1      -3.186   0.484  -0.933  1.00  0.00     0.054 C 
HETATM   22  C12 UNL     1      -3.838   1.116   1.867  1.00  0.00     0.075 C 
HETATM   23  C13 UNL     1      -4.869   0.722   0.876  1.00  0.00     0.091 C 
HETATM   24  F1  UNL     1      -6.213   0.603   1.124  1.00  0.00    -0.211 F 
HETATM   25  C14 UNL     1      -4.568   0.442  -0.368  1.00  0.00     0.021 C 
HETATM   26  C16 UNL     1      -3.129   1.599  -1.954  1.00  0.00     0.020 C 
ENDBRANCH   5  18
TORSDOF 5
