REMARK  6 active torsions:
REMARK  status: ('A' for Active; 'I' for Inactive)
REMARK    1  A    between atoms: N2_4  and  C2_5 
REMARK    2  A    between atoms: C2_5  and  S1_6 
REMARK    3  A    between atoms: S1_6  and  C3_7 
REMARK    4  A    between atoms: C4_8  and  N3_9 
REMARK    5  A    between atoms: N3_9  and  C5_10 
REMARK    6  A    between atoms: C11_17  and  C12_18 
ROOT
HETATM    1  C2  UNL     1      -1.592  -0.763   1.601  1.00  0.00     0.223 C 
ENDROOT
BRANCH   1   2
HETATM    2  N2  UNL     1      -1.902  -1.080   0.202  1.00  0.00    -0.284 N 
HETATM    3  N1  UNL     1      -0.785  -1.408  -0.576  1.00  0.00    -0.149 NA
HETATM    4  C1  UNL     1      -1.045  -1.312  -1.835  1.00  0.00     0.207 C 
HETATM    5  F1  UNL     1      -0.276  -1.532  -2.937  1.00  0.00    -0.187 F 
HETATM    6  C18 UNL     1      -2.453  -0.877  -2.025  1.00  0.00     0.125 C 
HETATM    7  C11 UNL     1      -3.057  -1.162  -0.664  1.00  0.00     0.146 C 
BRANCH   7   8
HETATM    8  C12 UNL     1      -4.109  -0.172  -0.322  1.00  0.00    -0.033 A 
HETATM    9  C13 UNL     1      -3.783   1.134  -0.057  1.00  0.00     0.009 A 
HETATM   10  C14 UNL     1      -4.756   2.083   0.268  1.00  0.00     0.001 A 
HETATM   11  C15 UNL     1      -6.074   1.656   0.316  1.00  0.00     0.000 A 
HETATM   12  C16 UNL     1      -6.418   0.338   0.051  1.00  0.00     0.001 A 
HETATM   13  C17 UNL     1      -5.433  -0.574  -0.268  1.00  0.00     0.009 A 
ENDBRANCH   7   8
ENDBRANCH   1   2
BRANCH   1  14
HETATM   14  S1  UNL     1      -0.494   0.655   1.753  1.00  0.00    -0.119 SA
BRANCH  14  15
HETATM   15  C3  UNL     1       1.130   0.372   1.111  1.00  0.00     0.063 C 
HETATM   16  C4  UNL     1       2.388   0.305   1.513  1.00  0.00     0.094 C 
BRANCH  16  17
HETATM   17  N3  UNL     1       3.367   0.032   0.519  1.00  0.00    -0.374 N 
HETATM   18  H5  UNL     1       3.521   0.921  -0.005  1.00  0.00     0.164 HD
BRANCH  17  19
HETATM   19  C5  UNL     1       4.167  -1.039   0.040  1.00  0.00     0.098 C 
HETATM   20  C6  UNL     1       5.478  -0.868  -0.022  1.00  0.00    -0.022 C 
HETATM   21  C7  UNL     1       6.300  -1.962  -0.510  1.00  0.00     0.007 C 
HETATM   22  C10 UNL     1       6.105   0.381   0.386  1.00  0.00    -0.003 C 
HETATM   23  C8  UNL     1       7.572  -2.192  -0.515  1.00  0.00    -0.105 C 
HETATM   24  B1  UNL     1       8.536  -0.579  -0.207  1.00  0.00     0.210 B 
HETATM   25  C9  UNL     1       7.389   0.652   0.364  1.00  0.00    -0.079 C 
ENDBRANCH  17  19
ENDBRANCH  16  17
ENDBRANCH  14  15
ENDBRANCH   1  14
TORSDOF 6
