REMARK  4 active torsions:
REMARK  status: ('A' for Active; 'I' for Inactive)
REMARK    1  A    between atoms: C5_5  and  C6_6 
REMARK    2  A    between atoms: C8_8  and  C9_9 
REMARK    3  A    between atoms: N2_17  and  C15_18 
REMARK    4  A    between atoms: C16_20  and  O1_21 
ROOT
HETATM    1  C6  UNL     1      -0.144  -0.450  -0.606  1.00  0.00     0.152 C 
HETATM    2  C7  UNL     1       0.704  -1.243   0.345  1.00  0.00     0.094 C 
HETATM    3  C8  UNL     1       2.040  -0.598   0.062  1.00  0.00     0.067 C 
HETATM    4  N1  UNL     1       1.775   0.621  -0.262  1.00  0.00    -0.173 NA
HETATM    5  N2  UNL     1       0.398   0.883  -0.234  1.00  0.00    -0.236 N 
ENDROOT
BRANCH   1   6
HETATM    6  C5  UNL     1      -1.583  -0.490  -0.405  1.00  0.00    -0.015 A 
HETATM    7  C4  UNL     1      -2.316   0.614  -0.829  1.00  0.00     0.011 A 
HETATM    8  C3  UNL     1      -3.689   0.706  -0.734  1.00  0.00     0.007 A 
HETATM    9  C2  UNL     1      -4.435  -0.342  -0.188  1.00  0.00    -0.061 A 
HETATM   10  C1  UNL     1      -5.909  -0.368  -0.034  1.00  0.00     0.048 C 
HETATM   11  C19 UNL     1      -3.739  -1.460   0.246  1.00  0.00     0.026 A 
HETATM   12  C18 UNL     1      -2.362  -1.479   0.117  1.00  0.00     0.019 A 
HETATM   13 BR1  UNL     1      -1.489  -3.051   0.748  1.00  0.00    -0.050 Br
ENDBRANCH   1   6
BRANCH   5  14
HETATM   14  C15 UNL     1      -0.064   2.204   0.110  1.00  0.00     0.192 A 
HETATM   15  N3  UNL     1       0.115   3.198  -0.569  1.00  0.00    -0.198 NA
HETATM   16  C16 UNL     1      -0.335   4.397  -0.249  1.00  0.00     0.171 A 
HETATM   17  C17 UNL     1      -1.067   4.516   0.963  1.00  0.00     0.111 A 
HETATM   18  S1  UNL     1      -1.029   2.720   1.571  1.00  0.00    -0.058 SA
BRANCH  16  19
HETATM   19  O1  UNL     1      -0.121   5.543  -1.042  1.00  0.00    -0.344 OA
HETATM   20  H13 UNL     1       0.201   6.417  -0.627  1.00  0.00     0.219 HD
ENDBRANCH  16  19
ENDBRANCH   5  14
BRANCH   3  21
HETATM   21  C9  UNL     1       3.338  -1.272   0.129  1.00  0.00    -0.010 A 
HETATM   22  C10 UNL     1       3.399  -2.604   0.516  1.00  0.00     0.016 A 
HETATM   23  C11 UNL     1       4.567  -3.338   0.587  1.00  0.00     0.043 A 
HETATM   24  C12 UNL     1       5.746  -2.700   0.252  1.00  0.00     0.116 A 
HETATM   25  F1  UNL     1       6.927  -3.383   0.300  1.00  0.00    -0.206 F 
HETATM   26  C13 UNL     1       5.690  -1.376  -0.132  1.00  0.00     0.043 A 
HETATM   27  C14 UNL     1       4.513  -0.640  -0.203  1.00  0.00     0.016 A 
ENDBRANCH   3  21
TORSDOF 4
