REMARK  2 active torsions:
REMARK  status: ('A' for Active; 'I' for Inactive)
REMARK    1  A    between atoms: N2_11  and  C9_12 
REMARK    2  A    between atoms: C10_14  and  O2_15 
ROOT
HETATM    1  C1  UNL     1       1.464  -0.985  -3.136  1.00  0.00     0.021 C 
HETATM    2  C2  UNL     1       1.260  -0.730  -1.875  1.00  0.00    -0.043 C 
HETATM    3  C3  UNL     1       2.366  -0.549  -0.899  1.00  0.00     0.007 C 
HETATM    4  C4  UNL     1       2.815  -0.320   0.343  1.00  0.00     0.010 C 
HETATM    5  C5  UNL     1       2.254  -0.079   1.651  1.00  0.00     0.112 A 
HETATM    6  O1  UNL     1       3.174   0.057   2.688  1.00  0.00     0.000 OA
HETATM    7  C6  UNL     1       4.165   1.082   2.609  1.00  0.00     0.000 C 
HETATM    8  C7  UNL     1       1.540   0.128   2.717  1.00  0.00     0.083 A 
HETATM    9  C8  UNL     1       0.182   0.113   2.142  1.00  0.00     0.019 C 
HETATM   10  N1  UNL     1       0.834   0.289   1.011  1.00  0.00    -0.277 N 
HETATM   11  N2  UNL     1       0.118   0.407  -0.151  1.00  0.00    -0.257 N 
HETATM   12  C12 UNL     1       0.007  -0.620  -1.115  1.00  0.00     0.143 C 
HETATM   13  C13 UNL     1      -1.303  -0.704  -1.749  1.00  0.00     0.035 C 
HETATM   14  C14 UNL     1      -1.972  -1.983  -2.038  1.00  0.00     0.040 C 
HETATM   15  C15 UNL     1      -2.367  -2.793  -0.841  1.00  0.00     0.173 A 
HETATM   16  C16 UNL     1      -2.526  -3.037   0.492  1.00  0.00     0.149 A 
HETATM   17  F1  UNL     1      -2.037  -1.909  -0.034  1.00  0.00    -0.381 F 
HETATM   18  C17 UNL     1      -2.225  -2.257   1.743  1.00  0.00     0.015 C 
HETATM   19  C18 UNL     1      -1.828  -1.281   2.568  1.00  0.00    -0.022 C 
HETATM   20  C19 UNL     1      -1.288  -0.014   1.999  1.00  0.00     0.081 C 
ENDROOT
BRANCH  11  21
HETATM   21  C9  UNL     1      -0.559   1.617  -0.537  1.00  0.00     0.190 A 
HETATM   22  N3  UNL     1      -1.633   2.344  -0.420  1.00  0.00    -0.198 NA
HETATM   23  C10 UNL     1      -1.724   3.459  -1.072  1.00  0.00     0.171 A 
HETATM   24  C11 UNL     1      -0.669   3.929  -1.930  1.00  0.00     0.111 A 
HETATM   25  S1  UNL     1       0.476   2.536  -1.666  1.00  0.00    -0.058 SA
BRANCH  23  26
HETATM   26  O2  UNL     1      -2.832   4.292  -1.003  1.00  0.00    -0.344 OA
HETATM   27  H9  UNL     1      -3.122   4.773  -0.159  1.00  0.00     0.219 HD
ENDBRANCH  23  26
ENDBRANCH  11  21
TORSDOF 2
