REMARK  3 active torsions:
REMARK  status: ('A' for Active; 'I' for Inactive)
REMARK    1  A    between atoms: O1_1  and  C1_2 
REMARK    2  A    between atoms: C3_5  and  N1_6 
REMARK    3  A    between atoms: C4_8  and  C5_9 
ROOT
HETATM    1  N1  UNL     1      -0.959   0.371  -0.121  1.00  0.00    -0.233 N 
HETATM    2  N2  UNL     1       0.435   0.606   0.007  1.00  0.00    -0.173 NA
HETATM    3  C4  UNL     1       1.424  -0.130  -0.283  1.00  0.00     0.065 C 
HETATM    4  C11 UNL     1       1.366  -1.490  -0.854  1.00  0.00     0.066 C 
HETATM    5  C12 UNL     1       0.705  -2.344   0.237  1.00  0.00     0.042 C 
HETATM    6  C13 UNL     1      -0.734  -2.015   0.368  1.00  0.00    -0.055 C 
HETATM    7  C14 UNL     1      -1.357  -3.164   0.660  1.00  0.00    -0.018 C 
HETATM    8  C15 UNL     1      -2.848  -3.056   0.838  1.00  0.00     0.054 C 
HETATM    9  C16 UNL     1      -3.388  -2.267  -0.304  1.00  0.00    -0.025 C 
HETATM   10  C17 UNL     1      -2.768  -1.125  -0.614  1.00  0.00     0.001 C 
HETATM   11  C18 UNL     1      -1.610  -0.847   0.272  1.00  0.00     0.164 C 
ENDROOT
BRANCH   1  12
HETATM   12  C3  UNL     1      -1.872   1.392  -0.682  1.00  0.00     0.192 A 
HETATM   13  S1  UNL     1      -2.604   1.749  -2.304  1.00  0.00    -0.058 SA
HETATM   14  C2  UNL     1      -3.505   3.276  -1.620  1.00  0.00     0.111 A 
HETATM   15  C1  UNL     1      -3.091   3.234  -0.311  1.00  0.00     0.171 A 
HETATM   16  N3  UNL     1      -2.281   2.265   0.069  1.00  0.00    -0.198 NA
BRANCH  15  17
HETATM   17  O1  UNL     1      -3.588   4.262   0.519  1.00  0.00    -0.344 OA
HETATM   18  H1  UNL     1      -3.115   4.512   1.379  1.00  0.00     0.219 HD
ENDBRANCH  15  17
ENDBRANCH   1  12
BRANCH   3  19
HETATM   19  C5  UNL     1       2.699   0.514   0.016  1.00  0.00    -0.010 A 
HETATM   20  C6  UNL     1       2.693   1.786   0.547  1.00  0.00     0.016 A 
HETATM   21  C7  UNL     1       3.866   2.452   0.863  1.00  0.00     0.043 A 
HETATM   22  C8  UNL     1       5.097   1.843   0.647  1.00  0.00     0.116 A 
HETATM   23  F1  UNL     1       6.284   2.464   0.945  1.00  0.00    -0.206 F 
HETATM   24  C9  UNL     1       5.142   0.559   0.113  1.00  0.00     0.043 A 
HETATM   25  C10 UNL     1       3.944  -0.045  -0.178  1.00  0.00     0.016 A 
ENDBRANCH   3  19
TORSDOF 3
