REMARK  2 active torsions:
REMARK  status: ('A' for Active; 'I' for Inactive)
REMARK    1  A    between atoms: O1_2  and  C2_3 
REMARK    2  A    between atoms: C2_3  and  C3_5 
ROOT
HETATM    1  C3  UNL     1      -1.423   0.984  -0.703  1.00  0.00     0.163 C 
HETATM    2  C4  UNL     1      -1.573  -0.540  -0.524  1.00  0.00     0.161 A 
HETATM    3  C5  UNL     1      -1.394  -0.948   0.789  1.00  0.00     0.197 C 
HETATM    4  O3  UNL     1      -0.588  -0.374   1.834  1.00  0.00    -0.375 OA
HETATM    5  C6  UNL     1       0.795   0.012   1.657  1.00  0.00     0.208 C 
HETATM    6  C7  UNL     1       0.910   0.686   0.320  1.00  0.00    -0.021 A 
HETATM    7  C8  UNL     1       2.003   1.092  -0.392  1.00  0.00    -0.043 A 
HETATM    8  C9  UNL     1       3.477   0.985  -0.193  1.00  0.00     0.063 C 
HETATM    9  C10 UNL     1       3.658  -0.399  -0.346  1.00  0.00     0.004 C 
HETATM   10  C11 UNL     1       3.224  -1.823  -0.589  1.00  0.00    -0.026 C 
HETATM   11  C12 UNL     1       2.036  -2.315  -0.782  1.00  0.00    -0.004 C 
HETATM   12  C13 UNL     1       0.646  -2.609  -0.964  1.00  0.00     0.002 C 
HETATM   13  C14 UNL     1      -0.612  -2.811  -1.117  1.00  0.00     0.035 C 
HETATM   14  C15 UNL     1      -1.812  -1.948  -1.046  1.00  0.00     0.087 A 
HETATM   15  O4  UNL     1      -2.883  -1.368  -1.037  1.00  0.00    -0.330 OA
HETATM   16  C16 UNL     1       1.055   1.658  -1.424  1.00  0.00     0.017 A 
HETATM   17  C17 UNL     1       0.065   1.226  -0.721  1.00  0.00    -0.032 A 
ENDROOT
BRANCH   1  18
HETATM   18  C2  UNL     1      -2.165   1.720   0.271  1.00  0.00     0.270 C 
HETATM   19  O2  UNL     1      -3.024   2.537  -0.217  1.00  0.00    -0.264 OA
BRANCH  18  20
HETATM   20  O1  UNL     1      -2.397   1.968   1.583  1.00  0.00    -0.326 OA
HETATM   21  C1  UNL     1      -3.293   2.859   2.180  1.00  0.00     0.213 C 
ENDBRANCH  18  20
ENDBRANCH   1  18
TORSDOF 2
