REMARK  5 active torsions:
REMARK  status: ('A' for Active; 'I' for Inactive)
REMARK    1  A    between atoms: C5_5  and  C6_6 
REMARK    2  A    between atoms: C8_8  and  C9_9 
REMARK    3  A    between atoms: C15_16  and  S1_18 
REMARK    4  A    between atoms: S1_18  and  C16_19 
REMARK    5  A    between atoms: C17_20  and  O1_21 
ROOT
HETATM    1  C6  UNL     1       0.199  -0.247   0.722  1.00  0.00     0.098 C 
HETATM    2  C7  UNL     1      -1.022  -0.760  -0.014  1.00  0.00     0.075 C 
HETATM    3  C8  UNL     1      -1.863   0.485   0.030  1.00  0.00     0.044 C 
HETATM    4  N1  UNL     1      -1.123   1.538   0.131  1.00  0.00    -0.239 NA
HETATM    5  C15 UNL     1       0.286   1.158   0.168  1.00  0.00     0.257 C 
HETATM    6  F1  UNL     1       0.836   1.139  -1.090  1.00  0.00    -0.203 F 
ENDROOT
BRANCH   1   7
HETATM    7  C5  UNL     1       1.403  -1.059   0.531  1.00  0.00    -0.048 A 
HETATM    8  C4  UNL     1       2.093  -1.557   1.641  1.00  0.00     0.008 A 
HETATM    9  C3  UNL     1       3.221  -2.320   1.477  1.00  0.00     0.007 A 
HETATM   10  C2  UNL     1       3.681  -2.603   0.219  1.00  0.00    -0.062 A 
HETATM   11  C1  UNL     1       4.910  -3.437   0.134  1.00  0.00     0.048 C 
HETATM   12  C19 UNL     1       3.004  -2.114  -0.896  1.00  0.00     0.007 A 
HETATM   13  C18 UNL     1       1.855  -1.336  -0.735  1.00  0.00     0.008 A 
ENDBRANCH   1   7
BRANCH   5  14
HETATM   14  S1  UNL     1       1.257   2.267   1.202  1.00  0.00    -0.072 SA
BRANCH  14  15
HETATM   15  C16 UNL     1       1.278   3.894   0.431  1.00  0.00     0.074 C 
HETATM   16  C17 UNL     1       2.074   4.392  -0.509  1.00  0.00     0.138 C 
BRANCH  16  17
HETATM   17  O1  UNL     1       2.891   3.304  -0.733  1.00  0.00    -0.372 OA
HETATM   18  H16 UNL     1       3.818   3.206  -0.342  1.00  0.00     0.216 HD
ENDBRANCH  16  17
ENDBRANCH  14  15
ENDBRANCH   5  14
BRANCH   3  19
HETATM   19  C9  UNL     1      -3.322   0.502  -0.033  1.00  0.00    -0.012 A 
HETATM   20  C10 UNL     1      -4.002   1.688   0.015  1.00  0.00     0.013 A 
HETATM   21  C11 UNL     1      -5.393   1.701  -0.045  1.00  0.00     0.001 A 
HETATM   22  C12 UNL     1      -6.097   0.505  -0.154  1.00  0.00     0.000 A 
HETATM   23  C13 UNL     1      -5.432  -0.720  -0.205  1.00  0.00     0.001 A 
HETATM   24  C14 UNL     1      -4.039  -0.671  -0.141  1.00  0.00     0.013 A 
ENDBRANCH   3  19
TORSDOF 5
