REMARK  5 active torsions:
REMARK  status: ('A' for Active; 'I' for Inactive)
REMARK    1  A    between atoms: O1_2  and  C2_3 
REMARK    2  A    between atoms: C6_7  and  C7_8 
REMARK    3  A    between atoms: C9_10  and  C10_11 
REMARK    4  A    between atoms: P1_19  and  C15_20 
REMARK    5  A    between atoms: C16_22  and  O2_23 
ROOT
HETATM    1  C7  UNL     1      -0.528   0.092  -0.146  1.00  0.00     0.081 C 
HETATM    2  C8  UNL     1      -0.970  -1.290   0.269  1.00  0.00     0.073 C 
HETATM    3  C9  UNL     1      -2.345  -1.179   0.833  1.00  0.00     0.041 C 
HETATM    4  N2  UNL     1      -2.790  -0.085   1.328  1.00  0.00    -0.260 NA
HETATM    5  P1  UNL     1      -1.441   1.070   1.147  1.00  0.00     0.079 P 
ENDROOT
BRANCH   1   6
HETATM    6  C6  UNL     1       0.933   0.272  -0.089  1.00  0.00    -0.041 A 
HETATM    7  C5  UNL     1       1.701  -0.618  -0.936  1.00  0.00     0.010 A 
HETATM    8  C4  UNL     1       3.016  -0.517  -0.940  1.00  0.00     0.021 A 
HETATM    9  C3  UNL     1       3.881   0.385  -0.198  1.00  0.00     0.026 A 
HETATM   10  C2  UNL     1       5.188   0.363  -0.310  1.00  0.00     0.152 C 
HETATM   11  S2  UNL     1       3.081   1.551   0.897  1.00  0.00    -0.100 SA
HETATM   12  C18 UNL     1       1.337   1.215   0.722  1.00  0.00     0.058 A 
BRANCH  10  13
HETATM   13  O1  UNL     1       5.956   1.254   0.428  1.00  0.00    -0.366 OA
HETATM   14  C1  UNL     1       7.311   0.915   0.653  1.00  0.00     0.209 C 
ENDBRANCH  10  13
ENDBRANCH   1   6
BRANCH   5  15
HETATM   15  C15 UNL     1      -2.081   2.643   0.549  1.00  0.00     0.127 A 
HETATM   16  N3  UNL     1      -3.134   3.388   0.669  1.00  0.00    -0.215 NA
HETATM   17  C16 UNL     1      -3.130   4.531  -0.018  1.00  0.00     0.169 A 
HETATM   18  C17 UNL     1      -1.996   5.010  -0.917  1.00  0.00     0.109 A 
HETATM   19  S1  UNL     1      -0.872   3.509  -0.622  1.00  0.00    -0.075 SA
BRANCH  17  20
HETATM   20  O2  UNL     1      -4.342   5.211   0.227  1.00  0.00    -0.344 OA
HETATM   21  H13 UNL     1      -4.462   6.163  -0.067  1.00  0.00     0.219 HD
ENDBRANCH  17  20
ENDBRANCH   5  15
BRANCH   3  22
HETATM   22  C10 UNL     1      -3.237  -2.399   0.820  1.00  0.00     0.179 C 
HETATM   23  C11 UNL     1      -3.439  -2.852  -0.602  1.00  0.00     0.009 C 
HETATM   24  C12 UNL     1      -3.453  -4.153  -0.853  1.00  0.00     0.043 C 
HETATM   25  C13 UNL     1      -3.271  -5.075   0.269  1.00  0.00     0.146 C 
HETATM   26  F1  UNL     1      -3.538  -6.408   0.072  1.00  0.00    -0.204 F 
HETATM   27  C14 UNL     1      -2.865  -4.681   1.446  1.00  0.00     0.122 C 
HETATM   28  N1  UNL     1      -2.633  -3.460   1.603  1.00  0.00    -0.269 NA
ENDBRANCH   3  22
TORSDOF 5
