REMARK  5 active torsions:
REMARK  status: ('A' for Active; 'I' for Inactive)
REMARK    1  A    between atoms: O1_2  and  C2_3 
REMARK    2  A    between atoms: C5_6  and  O2_7 
REMARK    3  A    between atoms: O2_7  and  C6_8 
REMARK    4  A    between atoms: C8_10  and  C9_11 
REMARK    5  A    between atoms: N2_19  and  C15_20 
ROOT
HETATM    1  C6  UNL     1      -0.370  -0.149  -0.122  1.00  0.00     0.261 C 
HETATM    2  C7  UNL     1      -1.323   0.673  -1.004  1.00  0.00     0.118 C 
HETATM    3  C8  UNL     1      -2.479   0.776  -0.075  1.00  0.00     0.069 C 
HETATM    4  N1  UNL     1      -2.449  -0.239   0.753  1.00  0.00    -0.172 NA
HETATM    5  N2  UNL     1      -1.347  -1.048   0.465  1.00  0.00    -0.215 N 
ENDROOT
BRANCH   1   6
HETATM    6  O2  UNL     1       0.606  -0.789  -0.861  1.00  0.00    -0.324 OA
BRANCH   6   7
HETATM    7  C5  UNL     1       1.945  -0.569  -0.600  1.00  0.00     0.071 A 
HETATM    8  C4  UNL     1       2.622   0.212   0.311  1.00  0.00     0.039 A 
HETATM    9  C3  UNL     1       3.995   0.221   0.326  1.00  0.00     0.039 A 
HETATM   10  C2  UNL     1       4.747  -0.532  -0.546  1.00  0.00     0.068 A 
HETATM   11  C19 UNL     1       4.101  -1.316  -1.460  1.00  0.00     0.039 A 
HETATM   12  C18 UNL     1       2.709  -1.336  -1.489  1.00  0.00     0.039 A 
BRANCH  10  13
HETATM   13  O1  UNL     1       6.128  -0.476  -0.475  1.00  0.00    -0.356 OA
HETATM   14  C1  UNL     1       6.785   0.330   0.463  1.00  0.00     0.210 C 
ENDBRANCH  10  13
ENDBRANCH   6   7
ENDBRANCH   1   6
BRANCH   5  15
HETATM   15  C15 UNL     1      -1.058  -2.413   0.626  1.00  0.00     0.191 A 
HETATM   16  N3  UNL     1      -0.179  -3.195   0.424  1.00  0.00    -0.235 NA
HETATM   17  C16 UNL     1      -0.260  -4.487   0.722  1.00  0.00     0.127 A 
HETATM   18  C17 UNL     1      -1.467  -5.029   1.330  1.00  0.00     0.072 A 
HETATM   19  S1  UNL     1      -2.464  -3.412   1.409  1.00  0.00    -0.061 SA
ENDBRANCH   5  15
BRANCH   3  20
HETATM   20  C9  UNL     1      -3.506   1.800  -0.033  1.00  0.00    -0.009 A 
HETATM   21  C10 UNL     1      -4.497   1.700   0.922  1.00  0.00     0.016 A 
HETATM   22  C11 UNL     1      -5.494   2.655   0.994  1.00  0.00     0.043 A 
HETATM   23  C12 UNL     1      -5.467   3.699   0.092  1.00  0.00     0.116 A 
HETATM   24  F1  UNL     1      -6.407   4.701   0.076  1.00  0.00    -0.206 F 
HETATM   25  C13 UNL     1      -4.469   3.801  -0.871  1.00  0.00     0.043 A 
HETATM   26  C14 UNL     1      -3.456   2.840  -0.953  1.00  0.00     0.016 A 
ENDBRANCH   3  20
TORSDOF 5
