REMARK  4 active torsions:
REMARK  status: ('A' for Active; 'I' for Inactive)
REMARK    1  A    between atoms: O1_1  and  C1_2 
REMARK    2  A    between atoms: C3_5  and  N1_6 
REMARK    3  A    between atoms: C4_8  and  C5_9 
REMARK    4  A    between atoms: C12_17  and  C13_18 
ROOT
HETATM    1  N1  UNL     1      -1.333  -0.261  -0.504  1.00  0.00    -0.240 N 
HETATM    2  N2  UNL     1      -0.209   0.476  -0.118  1.00  0.00    -0.174 NA
HETATM    3  C4  UNL     1       0.875  -0.193  -0.305  1.00  0.00     0.067 C 
HETATM    4  C11 UNL     1       0.561  -1.533  -0.865  1.00  0.00     0.090 C 
HETATM    5  C12 UNL     1      -0.885  -1.377  -1.267  1.00  0.00     0.132 C 
ENDROOT
BRANCH   1   6
HETATM    6  C3  UNL     1      -2.537   0.366  -0.001  1.00  0.00     0.192 A 
HETATM    7  S1  UNL     1      -3.506   1.453  -1.246  1.00  0.00    -0.058 SA
HETATM    8  C2  UNL     1      -4.809   1.892   0.028  1.00  0.00     0.111 A 
HETATM    9  C1  UNL     1      -4.256   1.128   1.155  1.00  0.00     0.171 A 
HETATM   10  N3  UNL     1      -3.151   0.418   1.046  1.00  0.00    -0.198 NA
BRANCH   9  11
HETATM   11  O1  UNL     1      -5.074   1.289   2.290  1.00  0.00    -0.344 OA
HETATM   12  H1  UNL     1      -4.736   1.147   3.239  1.00  0.00     0.219 HD
ENDBRANCH   9  11
ENDBRANCH   1   6
BRANCH   5  13
HETATM   13  C13 UNL     1      -1.575  -2.683  -0.952  1.00  0.00     0.142 C 
HETATM   14 CL1  UNL     1      -1.355  -3.155   0.742  1.00  0.00    -0.128 Cl
ENDBRANCH   5  13
BRANCH   3  15
HETATM   15  C5  UNL     1       2.245   0.275  -0.009  1.00  0.00    -0.010 A 
HETATM   16  C6  UNL     1       2.295   1.551   0.529  1.00  0.00     0.016 A 
HETATM   17  C7  UNL     1       3.541   2.087   0.839  1.00  0.00     0.043 A 
HETATM   18  C8  UNL     1       4.671   1.342   0.603  1.00  0.00     0.116 A 
HETATM   19  F1  UNL     1       5.854   1.914   0.921  1.00  0.00    -0.206 F 
HETATM   20  C9  UNL     1       4.569   0.058   0.057  1.00  0.00     0.043 A 
HETATM   21  C10 UNL     1       3.338  -0.489  -0.256  1.00  0.00     0.016 A 
ENDBRANCH   3  15
TORSDOF 4
