REMARK  2 active torsions:
REMARK  status: ('A' for Active; 'I' for Inactive)
REMARK    1  A    between atoms: C7_10  and  C8_11 
REMARK    2  A    between atoms: C8_11  and  C9_12 
ROOT
HETATM    1  C1  UNL     1       2.554   3.672   1.235  1.00  0.00     0.110 C 
HETATM    2  S1  UNL     1       3.367   2.515   0.119  1.00  0.00    -0.056 SA
HETATM    3  C2  UNL     1       2.598   0.911   0.219  1.00  0.00     0.163 A 
HETATM    4  N1  UNL     1       3.472   0.643  -0.632  1.00  0.00    -0.281 N 
HETATM    5  C3  UNL     1       3.721  -0.607  -1.286  1.00  0.00     0.314 C 
HETATM    6  O1  UNL     1       3.084  -1.644  -0.547  1.00  0.00    -0.343 OA
HETATM    7  C4  UNL     1       2.554  -2.678  -1.319  1.00  0.00     0.133 C 
HETATM    8  C5  UNL     1       1.396  -2.022  -1.001  1.00  0.00     0.009 C 
HETATM    9  C6  UNL     1       0.595  -0.964  -0.362  1.00  0.00     0.069 C 
HETATM   10  C7  UNL     1       0.743   0.123   0.409  1.00  0.00    -0.002 C 
HETATM   11  N2  UNL     1       1.575   1.054   1.152  1.00  0.00    -0.342 N 
HETATM   12  H19 UNL     1       1.355   1.530   1.998  1.00  0.00     0.167 HD
ENDROOT
BRANCH  10  13
HETATM   13  C8  UNL     1      -0.609   0.542   0.539  1.00  0.00     0.066 C 
BRANCH  13  14
HETATM   14  C9  UNL     1      -1.729  -0.199  -0.128  1.00  0.00    -0.018 A 
HETATM   15  C10 UNL     1      -1.565  -0.226  -1.644  1.00  0.00     0.020 C 
HETATM   16  C11 UNL     1      -2.935   0.620   0.144  1.00  0.00    -0.014 A 
HETATM   17  C12 UNL     1      -4.122   0.523   0.715  1.00  0.00     0.038 A 
HETATM   18  C13 UNL     1      -4.356  -0.806   1.266  1.00  0.00     0.112 A 
HETATM   19  F1  UNL     1      -5.504  -1.125   1.894  1.00  0.00    -0.206 F 
HETATM   20  C14 UNL     1      -3.324  -1.599   1.062  1.00  0.00     0.016 A 
HETATM   21  C15 UNL     1      -2.006  -1.540   0.442  1.00  0.00     0.043 A 
ENDBRANCH  13  14
ENDBRANCH  10  13
TORSDOF 2
