REMARK  5 active torsions:
REMARK  status: ('A' for Active; 'I' for Inactive)
REMARK    1  A    between atoms: C2_2  and  C3_3 
REMARK    2  A    between atoms: C3_3  and  C4_4 
REMARK    3  A    between atoms: C5_5  and  O1_6 
REMARK    4  A    between atoms: C11_15  and  C12_16 
REMARK    5  A    between atoms: C15_19  and  O2_20 
ROOT
HETATM    1  C4  UNL     1       2.994  -0.362  -0.011  1.00  0.00     0.022 C 
HETATM    2  C5  UNL     1       2.769   0.414   1.307  1.00  0.00     0.079 C 
HETATM    3  C6  UNL     1       2.027   1.492   1.774  1.00  0.00     0.079 C 
HETATM    4  C7  UNL     1       1.087   2.446   1.130  1.00  0.00     0.232 C 
HETATM    5  F1  UNL     1       0.658   3.342   2.060  1.00  0.00    -0.211 F 
HETATM    6  N1  UNL     1       1.858   3.311   0.136  1.00  0.00    -0.216 NA
HETATM    7  C8  UNL     1       1.941   2.477  -0.902  1.00  0.00     0.187 C 
HETATM    8  N2  UNL     1       2.506   1.381  -1.815  1.00  0.00    -0.227 NA
HETATM    9  C9  UNL     1       2.073   0.199  -1.020  1.00  0.00     0.051 C 
HETATM   10  C10 UNL     1       0.556  -0.055  -1.264  1.00  0.00     0.071 C 
HETATM   11  C11 UNL     1      -0.172   0.509  -0.053  1.00  0.00     0.044 C 
HETATM   12  C19 UNL     1      -0.072   1.878   0.376  1.00  0.00     0.131 C 
HETATM   13  S1  UNL     1       0.192   2.981  -1.142  1.00  0.00    -0.079 SA
ENDROOT
BRANCH  11  14
HETATM   14  C12 UNL     1      -1.628   0.224  -0.321  1.00  0.00    -0.052 A 
HETATM   15  C13 UNL     1      -2.314   0.901  -1.322  1.00  0.00     0.010 A 
HETATM   16  C14 UNL     1      -3.644   0.665  -1.594  1.00  0.00     0.037 A 
HETATM   17  C15 UNL     1      -4.342  -0.275  -0.857  1.00  0.00     0.068 A 
HETATM   18  C17 UNL     1      -3.685  -0.963   0.143  1.00  0.00     0.037 A 
HETATM   19  C18 UNL     1      -2.352  -0.726   0.415  1.00  0.00     0.010 A 
BRANCH  17  20
HETATM   20  O2  UNL     1      -5.674  -0.462  -1.183  1.00  0.00    -0.356 OA
HETATM   21  C16 UNL     1      -6.537  -1.380  -0.536  1.00  0.00     0.210 C 
ENDBRANCH  17  20
ENDBRANCH  11  14
BRANCH   1  22
HETATM   22  C3  UNL     1       3.878  -1.263   0.043  1.00  0.00     0.015 C 
BRANCH  22  23
HETATM   23  C2  UNL     1       4.904  -2.167   0.445  1.00  0.00    -0.009 C 
HETATM   24  C1  UNL     1       5.654  -3.145  -0.026  1.00  0.00     0.011 C 
ENDBRANCH  22  23
ENDBRANCH   1  22
BRANCH   2  25
HETATM   25  O1  UNL     1       3.499  -0.046   2.418  1.00  0.00    -0.360 OA
HETATM   26  H5  UNL     1       4.138   0.647   2.800  1.00  0.00     0.217 HD
ENDBRANCH   2  25
TORSDOF 5
