REMARK  7 active torsions:
REMARK  status: ('A' for Active; 'I' for Inactive)
REMARK    1  A    between atoms: O1_1  and  C1_2 
REMARK    2  A    between atoms: C3_5  and  C4_6 
REMARK    3  A    between atoms: C4_6  and  N1_7 
REMARK    4  A    between atoms: C5_9  and  C6_10 
REMARK    5  A    between atoms: C13_18  and  C14_19 
REMARK    6  A    between atoms: C14_19  and  C15_20 
REMARK    7  A    between atoms: C16_21  and  C17_22 
ROOT
HETATM    1  N1  UNL     1      -0.652   0.712   0.982  1.00  0.00    -0.294 N 
HETATM    2  N2  UNL     1       0.708   0.442   1.223  1.00  0.00    -0.180 NA
HETATM    3  C5  UNL     1       1.151  -0.466   0.403  1.00  0.00     0.066 C 
HETATM    4  C12 UNL     1       0.025  -0.882  -0.496  1.00  0.00     0.089 C 
HETATM    5  C13 UNL     1      -1.152  -0.546   0.430  1.00  0.00     0.114 C 
ENDROOT
BRANCH   1   6
HETATM    6  C4  UNL     1      -1.275   1.965   1.256  1.00  0.00     0.212 C 
BRANCH   6   7
HETATM    7  C3  UNL     1      -0.671   3.098   0.510  1.00  0.00     0.097 A 
HETATM    8  S1  UNL     1      -1.287   3.556  -1.118  1.00  0.00    -0.081 SA
HETATM    9  C2  UNL     1      -0.040   4.976  -1.299  1.00  0.00     0.109 A 
HETATM   10  C1  UNL     1       0.628   4.829  -0.052  1.00  0.00     0.169 A 
HETATM   11  N3  UNL     1       0.280   3.889   0.805  1.00  0.00    -0.220 NA
BRANCH  10  12
HETATM   12  O1  UNL     1       1.696   5.633   0.404  1.00  0.00    -0.344 OA
HETATM   13  H1  UNL     1       1.664   6.179   1.238  1.00  0.00     0.219 HD
ENDBRANCH  10  12
ENDBRANCH   6   7
ENDBRANCH   1   6
BRANCH   5  14
HETATM   14  C14 UNL     1      -2.418  -0.347  -0.347  1.00  0.00     0.054 C 
BRANCH  14  15
HETATM   15  C15 UNL     1      -2.872  -1.655  -0.879  1.00  0.00    -0.027 C 
HETATM   16  C16 UNL     1      -4.028  -2.266  -0.626  1.00  0.00    -0.016 C 
BRANCH  16  17
HETATM   17  C17 UNL     1      -4.756  -3.508  -0.973  1.00  0.00     0.141 C 
HETATM   18 CL1  UNL     1      -3.749  -4.481  -2.081  1.00  0.00    -0.126 Cl
ENDBRANCH  16  17
ENDBRANCH  14  15
ENDBRANCH   5  14
BRANCH   3  19
HETATM   19  C6  UNL     1       2.517  -0.978   0.383  1.00  0.00    -0.010 A 
HETATM   20  C7  UNL     1       3.405  -0.457   1.304  1.00  0.00     0.016 A 
HETATM   21  C8  UNL     1       4.682  -0.969   1.248  1.00  0.00     0.043 A 
HETATM   22  C9  UNL     1       5.042  -1.926   0.343  1.00  0.00     0.116 A 
HETATM   23  F1  UNL     1       6.296  -2.398   0.321  1.00  0.00    -0.206 F 
HETATM   24  C10 UNL     1       4.139  -2.438  -0.575  1.00  0.00     0.043 A 
HETATM   25  C11 UNL     1       2.859  -1.940  -0.535  1.00  0.00     0.016 A 
ENDBRANCH   3  19
TORSDOF 7
