REMARK  2 active torsions:
REMARK  status: ('A' for Active; 'I' for Inactive)
REMARK    1  A    between atoms: C5_5  and  C6_6 
REMARK    2  A    between atoms: C10_13  and  O1_14 
ROOT
HETATM    1  C6  UNL     1       0.116   0.063   1.821  1.00  0.00     0.141 C 
HETATM    2  C7  UNL     1       0.707  -1.331   2.009  1.00  0.00     0.088 C 
HETATM    3  C8  UNL     1       0.970  -1.773   0.622  1.00  0.00     0.043 C 
HETATM    4  N1  UNL     1       1.450  -0.575   0.602  1.00  0.00    -0.183 NA
HETATM    5  N2  UNL     1       0.312   0.214   0.396  1.00  0.00    -0.267 N 
HETATM    6  C9  UNL     1      -0.145   0.763  -0.865  1.00  0.00     0.270 C 
HETATM    7  N3  UNL     1       0.769   1.659  -0.721  1.00  0.00    -0.258 NA
HETATM    8  C10 UNL     1       0.884   2.657  -1.760  1.00  0.00     0.307 C 
HETATM    9  S1  UNL     1       2.385   2.394  -2.759  1.00  0.00    -0.087 SA
HETATM   10  C11 UNL     1       2.323   0.915  -3.710  1.00  0.00     0.048 C 
HETATM   11  C12 UNL     1       2.092  -0.358  -3.650  1.00  0.00     0.021 C 
HETATM   12  C13 UNL     1       1.764  -1.644  -3.116  1.00  0.00     0.216 A 
HETATM   13  C14 UNL     1       1.479  -2.830  -2.710  1.00  0.00     0.085 A 
HETATM   14  F1  UNL     1       1.729  -2.927  -4.031  1.00  0.00    -0.357 F 
HETATM   15  C15 UNL     1       1.120  -3.410  -1.444  1.00  0.00     0.022 C 
HETATM   16  C16 UNL     1       1.131  -2.384  -0.656  1.00  0.00     0.074 C 
ENDROOT
BRANCH   1  17
HETATM   17  C5  UNL     1      -1.312   0.128   2.215  1.00  0.00    -0.055 A 
HETATM   18  C2  UNL     1      -2.331   1.175   2.207  1.00  0.00     0.016 A 
HETATM   19  C1  UNL     1      -2.033   2.364   3.096  1.00  0.00     0.015 C 
HETATM   20  C3  UNL     1      -3.242   0.159   2.772  1.00  0.00     0.036 A 
HETATM   21  C4  UNL     1      -2.121  -0.756   2.712  1.00  0.00    -0.021 A 
ENDBRANCH   1  17
BRANCH   8  22
HETATM   22  O1  UNL     1      -0.239   2.663  -2.579  1.00  0.00    -0.366 OA
HETATM   23  H13 UNL     1      -0.046   2.274  -3.471  1.00  0.00     0.213 HD
ENDBRANCH   8  22
TORSDOF 2
