REMARK  5 active torsions:
REMARK  status: ('A' for Active; 'I' for Inactive)
REMARK    1  A    between atoms: O1_1  and  C1_2 
REMARK    2  A    between atoms: N1_4  and  S1_5 
REMARK    3  A    between atoms: C3_7  and  C4_8 
REMARK    4  A    between atoms: C4_8  and  C5_9 
REMARK    5  A    between atoms: C5_9  and  C6_10 
ROOT
HETATM    1  C1  UNL     1      -4.288  -1.092   1.161  1.00  0.00     0.181 C 
HETATM    2  C2  UNL     1      -3.677  -0.063   1.742  1.00  0.00     0.195 C 
HETATM    3  N1  UNL     1      -2.428   0.136   1.168  1.00  0.00    -0.174 N 
HETATM    4  N2  UNL     1      -1.186   0.021   0.855  1.00  0.00    -0.318 NA
HETATM    5  C3  UNL     1      -0.055  -0.024   0.603  1.00  0.00     0.108 C 
HETATM    6  C12 UNL     1       0.087  -1.224  -0.224  1.00  0.00     0.036 C 
HETATM    7  C13 UNL     1      -0.767  -2.143  -0.626  1.00  0.00     0.121 A 
HETATM    8  C14 UNL     1      -1.967  -2.879  -0.820  1.00  0.00     0.086 A 
HETATM    9 CL1  UNL     1      -0.632  -3.673  -1.728  1.00  0.00    -0.194 Cl
HETATM   10  C15 UNL     1      -2.970  -3.666  -1.102  1.00  0.00     0.021 C 
HETATM   11  C16 UNL     1      -3.964  -2.941  -0.336  1.00  0.00     0.117 C 
HETATM   12  N3  UNL     1      -4.702  -2.194   0.392  1.00  0.00    -0.236 NA
ENDROOT
BRANCH   5  13
HETATM   13  C4  UNL     1       1.294   0.560   0.667  1.00  0.00     0.079 C 
BRANCH  13  14
HETATM   14  C5  UNL     1       1.720   0.945  -0.733  1.00  0.00     0.045 C 
BRANCH  14  15
HETATM   15  C6  UNL     1       3.058   1.551  -0.768  1.00  0.00    -0.058 A 
HETATM   16  C7  UNL     1       4.243   0.831  -0.955  1.00  0.00     0.007 A 
HETATM   17  C8  UNL     1       5.413   1.544  -0.967  1.00  0.00     0.001 A 
HETATM   18  C9  UNL     1       5.464   2.912  -0.806  1.00  0.00     0.000 A 
HETATM   19  C10 UNL     1       4.323   3.633  -0.622  1.00  0.00     0.001 A 
HETATM   20  C11 UNL     1       3.132   2.937  -0.606  1.00  0.00     0.007 A 
ENDBRANCH  14  15
ENDBRANCH  13  14
ENDBRANCH   5  13
BRANCH   3  21
HETATM   21  S1  UNL     1      -2.901   1.532   0.161  1.00  0.00    -0.030 SA
HETATM   22  H3  UNL     1      -3.577   0.969  -0.968  1.00  0.00     0.129 HD
ENDBRANCH   3  21
BRANCH   1  23
HETATM   23  O1  UNL     1      -5.580  -1.398   1.658  1.00  0.00    -0.344 OA
HETATM   24  H1  UNL     1      -6.231  -0.640   1.846  1.00  0.00     0.219 HD
ENDBRANCH   1  23
TORSDOF 5
