REMARK  2 active torsions:
REMARK  status: ('A' for Active; 'I' for Inactive)
REMARK    1  A    between atoms: C2_2  and  C3_3 
REMARK    2  A    between atoms: C8_9  and  S1_10 
ROOT
HETATM    1  C3  UNL     1      -2.666   0.948   0.618  1.00  0.00    -0.080 C 
HETATM    2  C4  UNL     1      -1.647   1.669   1.086  1.00  0.00    -0.001 C 
HETATM    3  C5  UNL     1      -0.169   1.734   1.188  1.00  0.00    -0.017 C 
HETATM    4  C6  UNL     1       1.050   1.233   0.939  1.00  0.00     0.074 C 
HETATM    5  C7  UNL     1       2.057   0.280   0.404  1.00  0.00     0.170 A 
HETATM    6  N1  UNL     1       3.382   0.768   0.556  1.00  0.00    -0.265 NA
HETATM    7  C8  UNL     1       2.900   0.553  -0.686  1.00  0.00     0.181 A 
HETATM    8  N2  UNL     1       1.927  -1.105   0.905  1.00  0.00    -0.358 N 
HETATM    9  C11 UNL     1       0.885  -1.947   0.412  1.00  0.00     0.052 A 
HETATM   10  C12 UNL     1      -0.480  -1.805   0.501  1.00  0.00     0.038 A 
HETATM   11  C13 UNL     1      -1.597  -2.507  -0.005  1.00  0.00    -0.056 A 
HETATM   12  C14 UNL     1      -1.229  -3.571  -0.739  1.00  0.00     0.009 A 
HETATM   13  C15 UNL     1       0.099  -3.855  -0.919  1.00  0.00     0.026 A 
HETATM   14  C16 UNL     1       1.083  -3.069  -0.363  1.00  0.00     0.060 A 
HETATM   15 CL1  UNL     1       2.764  -3.466  -0.594  1.00  0.00    -0.082 Cl
HETATM   16  C17 UNL     1      -2.681  -1.575   0.537  1.00  0.00     0.043 C 
HETATM   17  C18 UNL     1      -2.273  -0.228  -0.099  1.00  0.00     0.038 C 
HETATM   18  H12 UNL     1       2.329  -1.849   1.549  1.00  0.00     0.162 HD
ENDROOT
BRANCH   7  19
HETATM   19  S1  UNL     1       4.552   1.142  -1.098  1.00  0.00    -0.151 SA
HETATM   20  C9  UNL     1       4.632   1.114  -2.888  1.00  0.00     0.027 A 
HETATM   21  C10 UNL     1       5.859   1.530  -2.603  1.00  0.00     0.089 A 
HETATM   22  O1  UNL     1       5.869   1.576  -1.209  1.00  0.00     0.000 OA
HETATM   23  H11 UNL     1       6.254   2.355  -0.679  1.00  0.00     0.000 HD
ENDBRANCH   7  19
BRANCH   1  24
HETATM   24  C2  UNL     1      -4.038   1.388   0.823  1.00  0.00     0.029 C 
HETATM   25  C1  UNL     1      -4.135   2.694   1.590  1.00  0.00     0.010 C 
ENDBRANCH   1  24
TORSDOF 2
