REMARK  1 active torsions:
REMARK  status: ('A' for Active; 'I' for Inactive)
REMARK    1  A    between atoms: C4_5  and  N1_6 
ROOT
HETATM    1  N1  UNL     1       0.470  -0.544  -0.909  1.00  0.00    -0.209 N 
HETATM    2  N2  UNL     1       0.722  -0.521  -2.257  1.00  0.00    -0.177 NA
HETATM    3  C5  UNL     1       0.036   0.108  -3.168  1.00  0.00     0.150 C 
HETATM    4  C6  UNL     1      -1.026   0.745  -2.352  1.00  0.00    -0.016 A 
HETATM    5  C7  UNL     1      -1.231   2.105  -2.274  1.00  0.00     0.014 A 
HETATM    6  C8  UNL     1      -2.143   2.594  -1.361  1.00  0.00     0.025 A 
HETATM    7  C9  UNL     1      -2.820   1.711  -0.554  1.00  0.00     0.040 A 
HETATM    8 CL1  UNL     1      -3.995   2.037   0.662  1.00  0.00    -0.084 Cl
HETATM    9  C10 UNL     1      -2.551   0.384  -0.703  1.00  0.00    -0.031 A 
HETATM   10  C11 UNL     1      -1.674  -0.192  -1.583  1.00  0.00     0.022 A 
HETATM   11  C12 UNL     1      -2.908  -0.830   0.076  1.00  0.00     0.081 C 
HETATM   12  C13 UNL     1      -1.603  -1.453   0.571  1.00  0.00    -0.025 A 
HETATM   13  C14 UNL     1      -1.791  -2.308   1.615  1.00  0.00     0.010 A 
HETATM   14  C15 UNL     1      -0.804  -3.005   2.271  1.00  0.00     0.001 A 
HETATM   15  C16 UNL     1       0.503  -2.852   1.869  1.00  0.00     0.002 A 
HETATM   16  C17 UNL     1       0.691  -1.968   0.791  1.00  0.00     0.032 A 
HETATM   17  C18 UNL     1      -0.283  -1.260   0.118  1.00  0.00     0.067 A 
ENDROOT
BRANCH   1  18
HETATM   18  C4  UNL     1       1.283   0.546  -0.190  1.00  0.00     0.194 A 
HETATM   19  S1  UNL     1       1.002   2.343   0.361  1.00  0.00    -0.060 SA
HETATM   20  C3  UNL     1       2.621   2.514   1.050  1.00  0.00     0.080 A 
HETATM   21  C2  UNL     1       3.171   1.214   0.786  1.00  0.00     0.040 A 
HETATM   22  C1  UNL     1       4.573   0.807   1.178  1.00  0.00     0.071 C 
HETATM   23  N3  UNL     1       2.448   0.303   0.172  1.00  0.00    -0.227 NA
ENDBRANCH   1  18
TORSDOF 1
