REMARK  4 active torsions:
REMARK  status: ('A' for Active; 'I' for Inactive)
REMARK    1  A    between atoms: C5_5  and  C6_6 
REMARK    2  A    between atoms: N2_8  and  C7_9 
REMARK    3  A    between atoms: C8_11  and  O1_12 
REMARK    4  A    between atoms: C10_15  and  C11_16 
ROOT
HETATM    1  C6  UNL     1      -1.005  -0.107  -0.104  1.00  0.00     0.065 C 
HETATM    2  N1  UNL     1      -0.201   0.631   0.584  1.00  0.00    -0.174 NA
HETATM    3  N2  UNL     1       1.082   0.071   0.650  1.00  0.00    -0.236 N 
HETATM    4  C10 UNL     1       0.847  -1.345   0.501  1.00  0.00     0.151 C 
HETATM    5  C16 UNL     1      -0.245  -1.305  -0.578  1.00  0.00     0.094 C 
ENDROOT
BRANCH   1   6
HETATM    6  C5  UNL     1      -2.411   0.130  -0.399  1.00  0.00    -0.009 A 
HETATM    7  C4  UNL     1      -3.240  -0.628  -1.106  1.00  0.00     0.011 A 
HETATM    8  C3  UNL     1      -4.568  -0.068  -1.186  1.00  0.00     0.005 A 
HETATM    9  C2  UNL     1      -4.529   1.065  -0.501  1.00  0.00    -0.061 A 
HETATM   10  C1  UNL     1      -5.762   1.901  -0.387  1.00  0.00     0.045 C 
HETATM   11  C17 UNL     1      -3.173   1.316   0.069  1.00  0.00     0.146 A 
HETATM   12 CL1  UNL     1      -3.255   1.320   1.849  1.00  0.00    -0.115 Cl
ENDBRANCH   1   6
BRANCH   3  13
HETATM   13  C7  UNL     1       2.246   0.900   0.828  1.00  0.00     0.192 A 
HETATM   14  N3  UNL     1       2.968   1.424   0.120  1.00  0.00    -0.198 NA
HETATM   15  C8  UNL     1       4.022   2.175   0.375  1.00  0.00     0.171 A 
HETATM   16  C9  UNL     1       4.291   2.353   1.710  1.00  0.00     0.111 A 
HETATM   17  S1  UNL     1       2.945   1.384   2.530  1.00  0.00    -0.058 SA
BRANCH  15  18
HETATM   18  O1  UNL     1       4.799   2.740  -0.659  1.00  0.00    -0.344 OA
HETATM   19  H6  UNL     1       4.504   3.591  -1.120  1.00  0.00     0.219 HD
ENDBRANCH  15  18
ENDBRANCH   3  13
BRANCH   4  20
HETATM   20  C11 UNL     1       2.038  -2.101   0.032  1.00  0.00    -0.032 A 
HETATM   21  C12 UNL     1       2.425  -2.752  -1.059  1.00  0.00     0.010 A 
HETATM   22  C13 UNL     1       3.766  -3.298  -0.881  1.00  0.00     0.013 A 
HETATM   23  C14 UNL     1       4.112  -2.877   0.306  1.00  0.00    -0.025 A 
HETATM   24  C15 UNL     1       3.179  -2.233   0.954  1.00  0.00     0.021 A 
ENDBRANCH   4  20
TORSDOF 4
