REMARK  3 active torsions:
REMARK  status: ('A' for Active; 'I' for Inactive)
REMARK    1  A    between atoms: O1_1  and  C1_2 
REMARK    2  A    between atoms: C3_5  and  N1_6 
REMARK    3  A    between atoms: C10_13  and  C11_14 
ROOT
HETATM    1  N1  UNL     1      -1.371   0.081   0.107  1.00  0.00    -0.242 N 
HETATM    2  C4  UNL     1      -1.387  -0.654   1.286  1.00  0.00     0.181 C 
HETATM    3  C5  UNL     1      -2.314  -1.792   1.336  1.00  0.00    -0.005 C 
HETATM    4  C6  UNL     1      -1.739  -2.982   1.258  1.00  0.00    -0.003 C 
HETATM    5  C7  UNL     1      -0.333  -3.322   1.084  1.00  0.00    -0.004 C 
HETATM    6  C8  UNL     1       0.815  -2.678   0.858  1.00  0.00    -0.021 C 
HETATM    7  C9  UNL     1       1.672  -1.545   0.613  1.00  0.00     0.089 C 
HETATM    8  C10 UNL     1       1.026  -0.231   0.312  1.00  0.00     0.068 C 
HETATM    9  N2  UNL     1      -0.050   0.398   0.121  1.00  0.00    -0.174 NA
ENDROOT
BRANCH   1  10
HETATM   10  C3  UNL     1      -2.358   0.457  -0.779  1.00  0.00     0.192 A 
HETATM   11  S1  UNL     1      -2.657  -0.762  -2.183  1.00  0.00    -0.058 SA
HETATM   12  C2  UNL     1      -4.005   0.241  -2.976  1.00  0.00     0.111 A 
HETATM   13  C1  UNL     1      -3.990   1.347  -2.016  1.00  0.00     0.171 A 
HETATM   14  N3  UNL     1      -3.221   1.490  -0.954  1.00  0.00    -0.198 NA
BRANCH  13  15
HETATM   15  O1  UNL     1      -4.834   2.478  -2.084  1.00  0.00    -0.344 OA
HETATM   16  H1  UNL     1      -5.661   2.509  -1.495  1.00  0.00     0.219 HD
ENDBRANCH  13  15
ENDBRANCH   1  10
BRANCH   8  17
HETATM   17  C11 UNL     1       2.095   0.791   0.137  1.00  0.00    -0.009 A 
HETATM   18  C12 UNL     1       3.473   0.552   0.230  1.00  0.00     0.015 A 
HETATM   19  C13 UNL     1       4.512   1.434   0.092  1.00  0.00     0.024 A 
HETATM   20  C14 UNL     1       4.160   2.735  -0.175  1.00  0.00     0.034 A 
HETATM   21 CL1  UNL     1       5.412   3.927  -0.367  1.00  0.00    -0.084 Cl
HETATM   22  C15 UNL     1       2.854   3.120  -0.295  1.00  0.00     0.024 A 
HETATM   23  C16 UNL     1       1.911   2.153  -0.137  1.00  0.00     0.015 A 
ENDBRANCH   8  17
TORSDOF 3
