REMARK  1 active torsions:
REMARK  status: ('A' for Active; 'I' for Inactive)
REMARK    1  A    between atoms: C4_5  and  C5_6 
ROOT
HETATM    1  C5  UNL     1      -1.824   0.047   0.466  1.00  0.00     0.066 C 
HETATM    2  N1  UNL     1      -1.211  -0.443   1.461  1.00  0.00    -0.180 NA
HETATM    3  N2  UNL     1       0.181  -0.160   1.420  1.00  0.00    -0.290 N 
HETATM    4  C6  UNL     1       1.128  -0.137   2.512  1.00  0.00     0.223 C 
HETATM    5  S1  UNL     1       1.775   1.480   2.912  1.00  0.00    -0.119 SA
HETATM    6  C7  UNL     1       2.795   2.206   1.681  1.00  0.00     0.066 C 
HETATM    7  C8  UNL     1       3.968   1.799   1.302  1.00  0.00     0.123 C 
HETATM    8  N3  UNL     1       5.069   0.948   1.339  1.00  0.00    -0.273 NA
HETATM    9  C9  UNL     1       5.266  -0.144   0.744  1.00  0.00     0.116 C 
HETATM   10  C10 UNL     1       4.350  -0.794  -0.157  1.00  0.00     0.015 C 
HETATM   11  C11 UNL     1       3.186  -0.797  -0.769  1.00  0.00    -0.025 C 
HETATM   12  C12 UNL     1       1.969  -1.028  -1.556  1.00  0.00     0.029 C 
HETATM   13  C13 UNL     1       0.707  -1.148  -0.760  1.00  0.00     0.031 C 
HETATM   14  C14 UNL     1       0.455   0.093   0.017  1.00  0.00     0.111 C 
HETATM   15  C15 UNL     1      -0.865   0.758  -0.410  1.00  0.00     0.088 C 
ENDROOT
BRANCH   1  16
HETATM   16  C4  UNL     1      -3.275  -0.064   0.205  1.00  0.00    -0.010 A 
HETATM   17  C3  UNL     1      -4.081  -0.751   1.086  1.00  0.00     0.015 A 
HETATM   18  C2  UNL     1      -5.456  -0.885   0.884  1.00  0.00     0.024 A 
HETATM   19  C1  UNL     1      -5.970  -0.291  -0.248  1.00  0.00     0.034 A 
HETATM   20 CL1  UNL     1      -7.650  -0.343  -0.676  1.00  0.00    -0.084 Cl
HETATM   21  C17 UNL     1      -5.174   0.398  -1.137  1.00  0.00     0.024 A 
HETATM   22  C16 UNL     1      -3.818   0.527  -0.933  1.00  0.00     0.015 A 
ENDBRANCH   1  16
TORSDOF 1
