REMARK  1 active torsions:
REMARK  status: ('A' for Active; 'I' for Inactive)
REMARK    1  A    between atoms: S1_1  and  C1_2 
ROOT
HETATM    1  C1  UNL     1       1.263   2.279  -1.178  1.00  0.00     0.075 C 
HETATM    2  C2  UNL     1       1.725   1.276  -0.412  1.00  0.00     0.072 C 
HETATM    3  C3  UNL     1       3.120   0.791  -0.564  1.00  0.00     0.174 C 
HETATM    4  N1  UNL     1       3.142  -0.622  -0.936  1.00  0.00    -0.236 NA
HETATM    5  N2  UNL     1       4.500  -1.041  -0.854  1.00  0.00    -0.256 NA
HETATM    6  C4  UNL     1       4.430  -1.418   0.554  1.00  0.00     0.130 C 
HETATM    7  C5  UNL     1       2.934  -1.381   0.282  1.00  0.00     0.111 C 
HETATM    8  C6  UNL     1       2.356  -2.704  -0.006  1.00  0.00    -0.008 C 
HETATM    9  C7  UNL     1       1.016  -2.883  -0.121  1.00  0.00    -0.023 C 
HETATM   10  C8  UNL     1       0.291  -1.594   0.081  1.00  0.00     0.053 C 
HETATM   11  C9  UNL     1      -1.072  -1.486   0.025  1.00  0.00     0.016 C 
HETATM   12  C10 UNL     1      -1.484  -0.110   0.260  1.00  0.00    -0.024 C 
HETATM   13  C11 UNL     1      -2.805   0.477   0.304  1.00  0.00    -0.028 A 
HETATM   14  C12 UNL     1      -3.940  -0.269   0.110  1.00  0.00     0.013 A 
HETATM   15  C13 UNL     1      -5.232   0.212   0.136  1.00  0.00     0.024 A 
HETATM   16  C14 UNL     1      -5.433   1.555   0.374  1.00  0.00     0.034 A 
HETATM   17 CL1  UNL     1      -7.040   2.247   0.422  1.00  0.00    -0.084 Cl
HETATM   18  C15 UNL     1      -4.319   2.328   0.571  1.00  0.00     0.024 A 
HETATM   19  C16 UNL     1      -3.053   1.800   0.536  1.00  0.00     0.013 A 
HETATM   20  C17 UNL     1      -0.511   0.751   0.467  1.00  0.00     0.150 C 
HETATM   21  O1  UNL     1       0.847   0.714   0.525  1.00  0.00    -0.325 OA
HETATM   22  H5  UNL     1       4.739  -1.825  -1.500  1.00  0.00     0.140 HD
ENDROOT
BRANCH   1  23
HETATM   23  S1  UNL     1      -0.227   3.229  -1.434  1.00  0.00    -0.152 SA
HETATM   24  H1  UNL     1      -1.117   2.392  -2.148  1.00  0.00     0.106 HD
ENDBRANCH   1  23
TORSDOF 1
