REMARK  3 active torsions:
REMARK  status: ('A' for Active; 'I' for Inactive)
REMARK    1  A    between atoms: C5_8  and  N2_9 
REMARK    2  A    between atoms: C5_8  and  C6_10 
REMARK    3  A    between atoms: C13_18  and  C14_19 
ROOT
HETATM    1  C1  UNL     1       0.861   2.616   2.270  1.00  0.00     0.187 C 
HETATM    2  N1  UNL     1       1.135   2.111   0.919  1.00  0.00    -0.259 N 
HETATM    3  C2  UNL     1       1.374   3.124  -0.135  1.00  0.00     0.231 C 
HETATM    4  S1  UNL     1      -0.083   3.997  -0.606  1.00  0.00    -0.121 SA
HETATM    5  C3  UNL     1      -1.325   3.187  -1.581  1.00  0.00     0.243 C 
HETATM    6  O1  UNL     1      -1.867   2.025  -1.002  1.00  0.00    -0.378 OA
HETATM    7  C4  UNL     1      -0.903   1.002  -1.108  1.00  0.00     0.215 C 
HETATM    8  C5  UNL     1      -1.189  -0.148  -0.207  1.00  0.00     0.209 C 
HETATM    9  C12 UNL     1       0.043  -1.059  -0.227  1.00  0.00     0.124 C 
HETATM   10  C13 UNL     1       1.235  -0.280   0.294  1.00  0.00     0.121 C 
HETATM   11  N3  UNL     1       1.146   0.864   0.582  1.00  0.00    -0.332 NA
ENDROOT
BRANCH   8  12
HETATM   12  N2  UNL     1      -1.306   0.396   1.167  1.00  0.00     0.095 N 
HETATM   13  H10 UNL     1      -1.802   1.303   1.034  1.00  0.00     0.314 HD
HETATM   14  H11 UNL     1      -1.962  -0.230   1.687  1.00  0.00     0.314 HD
ENDBRANCH   8  12
BRANCH   8  15
HETATM   15  C6  UNL     1      -2.435  -0.843  -0.513  1.00  0.00    -0.017 A 
HETATM   16  C7  UNL     1      -2.713  -1.927   0.304  1.00  0.00     0.013 A 
HETATM   17  C8  UNL     1      -3.829  -2.697   0.168  1.00  0.00     0.043 A 
HETATM   18  C9  UNL     1      -4.740  -2.395  -0.834  1.00  0.00     0.116 A 
HETATM   19  F1  UNL     1      -5.864  -3.168  -0.972  1.00  0.00    -0.206 F 
HETATM   20  C10 UNL     1      -4.495  -1.314  -1.674  1.00  0.00     0.043 A 
HETATM   21  C11 UNL     1      -3.352  -0.552  -1.507  1.00  0.00     0.013 A 
ENDBRANCH   8  15
BRANCH  10  22
HETATM   22  C14 UNL     1       2.492  -0.999   0.401  1.00  0.00     0.003 A 
HETATM   23  C15 UNL     1       3.657  -0.426   0.831  1.00  0.00     0.016 A 
HETATM   24  C16 UNL     1       4.914  -0.948   0.995  1.00  0.00     0.024 A 
HETATM   25  C17 UNL     1       4.959  -2.307   0.650  1.00  0.00     0.034 A 
HETATM   26 CL1  UNL     1       6.505  -3.149   0.798  1.00  0.00    -0.084 Cl
HETATM   27  C18 UNL     1       3.854  -3.006   0.202  1.00  0.00     0.024 A 
HETATM   28  C19 UNL     1       2.622  -2.356   0.076  1.00  0.00     0.016 A 
ENDBRANCH  10  22
TORSDOF 3
