REMARK  4 active torsions:
REMARK  status: ('A' for Active; 'I' for Inactive)
REMARK    1  A    between atoms: O1_2  and  C2_3 
REMARK    2  A    between atoms: C6_9  and  N3_10 
REMARK    3  A    between atoms: N3_10  and  C7_11 
REMARK    4  A    between atoms: C14_18  and  O2_19 
ROOT
HETATM    1  C2  UNL     1      -3.055   0.758  -0.100  1.00  0.00     0.103 A 
HETATM    2  C3  UNL     1      -2.192   1.729   0.397  1.00  0.00     0.072 A 
HETATM    3  C4  UNL     1      -0.822   1.483   0.547  1.00  0.00     0.075 A 
HETATM    4  N1  UNL     1      -0.016   2.447   1.031  1.00  0.00    -0.241 NA
HETATM    5  C5  UNL     1       1.306   2.189   1.167  1.00  0.00     0.236 A 
HETATM    6  N2  UNL     1       1.805   0.970   0.817  1.00  0.00    -0.224 NA
HETATM    7  C6  UNL     1       0.977   0.030   0.338  1.00  0.00     0.142 A 
HETATM    8  C12 UNL     1      -0.378   0.223   0.172  1.00  0.00     0.042 A 
HETATM    9  C13 UNL     1      -1.205  -0.759  -0.322  1.00  0.00     0.057 A 
HETATM   10  C14 UNL     1      -2.543  -0.460  -0.447  1.00  0.00     0.102 A 
ENDROOT
BRANCH   7  11
HETATM   11  N3  UNL     1       1.583  -1.197   0.004  1.00  0.00    -0.340 N 
HETATM   12  H6  UNL     1       1.204  -2.089  -0.382  1.00  0.00     0.167 HD
BRANCH  11  13
HETATM   13  C7  UNL     1       2.983  -1.385   0.179  1.00  0.00     0.039 A 
HETATM   14  C8  UNL     1       3.849  -2.224   0.764  1.00  0.00     0.030 A 
HETATM   15  C9  UNL     1       5.002  -1.441   0.290  1.00  0.00     0.011 A 
HETATM   16  C10 UNL     1       4.144  -0.615  -0.286  1.00  0.00    -0.035 A 
HETATM   17  C11 UNL     1       4.389   0.624  -1.094  1.00  0.00     0.050 C 
ENDBRANCH  11  13
ENDBRANCH   7  11
BRANCH  10  18
HETATM   18  O2  UNL     1      -3.378  -1.464  -0.951  1.00  0.00    -0.353 OA
HETATM   19  C15 UNL     1      -2.820  -2.721  -1.304  1.00  0.00     0.210 C 
ENDBRANCH  10  18
BRANCH   1  20
HETATM   20  O1  UNL     1      -4.415   0.970  -0.259  1.00  0.00    -0.353 OA
HETATM   21  C1  UNL     1      -4.937   2.228   0.101  1.00  0.00     0.210 C 
ENDBRANCH   1  20
TORSDOF 4
