REMARK  7 active torsions:
REMARK  status: ('A' for Active; 'I' for Inactive)
REMARK    1  A    between atoms: C3_3  and  C4_4 
REMARK    2  A    between atoms: C11_13  and  O3_14 
REMARK    3  A    between atoms: O3_14  and  C12_15 
REMARK    4  A    between atoms: C12_15  and  C13_16 
REMARK    5  A    between atoms: C13_16  and  N1_17 
REMARK    6  A    between atoms: N1_17  and  C15_19 
REMARK    7  A    between atoms: C15_19  and  C16_20 
ROOT
HETATM    1  C4  UNL     1      -5.146  -0.426   0.927  1.00  0.00     0.090 C 
HETATM    2  C5  UNL     1      -5.779  -1.497   0.102  1.00  0.00     0.102 C 
HETATM    3  C6  UNL     1      -5.378  -1.219  -1.324  1.00  0.00     0.185 C 
HETATM    4  O1  UNL     1      -6.166  -1.081  -2.271  1.00  0.00    -0.290 OA
HETATM    5  C7  UNL     1      -3.918  -1.121  -1.502  1.00  0.00     0.136 A 
HETATM    6  O2  UNL     1      -3.178  -1.233  -2.582  1.00  0.00    -0.304 OA
HETATM    7  C8  UNL     1      -1.905  -1.079  -2.316  1.00  0.00     0.098 A 
HETATM    8  C9  UNL     1      -1.823  -0.846  -0.939  1.00  0.00     0.018 A 
HETATM    9  C10 UNL     1      -0.619  -0.636  -0.301  1.00  0.00     0.053 A 
HETATM   10  C11 UNL     1       0.558  -0.652  -1.021  1.00  0.00     0.081 A 
HETATM   11  C18 UNL     1       0.492  -0.881  -2.385  1.00  0.00     0.010 A 
HETATM   12  C19 UNL     1       1.575  -0.929  -3.249  1.00  0.00     0.015 A 
HETATM   13  C20 UNL     1       1.504  -1.157  -4.598  1.00  0.00     0.001 A 
HETATM   14  C21 UNL     1       0.269  -1.357  -5.165  1.00  0.00     0.001 A 
HETATM   15  C22 UNL     1      -0.863  -1.327  -4.378  1.00  0.00     0.015 A 
HETATM   16  C23 UNL     1      -0.729  -1.093  -3.028  1.00  0.00     0.012 A 
HETATM   17  C24 UNL     1      -3.110  -0.869  -0.395  1.00  0.00     0.061 A 
HETATM   18  C25 UNL     1      -3.665  -0.695   0.963  1.00  0.00     0.171 C 
HETATM   19  O4  UNL     1      -2.859  -0.791   1.940  1.00  0.00    -0.291 OA
ENDROOT
BRANCH  10  20
HETATM   20  O3  UNL     1       1.863  -0.473  -0.619  1.00  0.00    -0.349 OA
BRANCH  20  21
HETATM   21  C12 UNL     1       2.308  -0.218   0.697  1.00  0.00     0.195 C 
BRANCH  21  22
HETATM   22  C13 UNL     1       3.810  -0.096   0.623  1.00  0.00     0.143 C 
BRANCH  22  23
HETATM   23  N1  UNL     1       4.497   0.160   1.812  1.00  0.00    -0.415 N 
HETATM   24  C14 UNL     1       4.554  -0.812   2.826  1.00  0.00     0.143 C 
BRANCH  23  25
HETATM   25  C15 UNL     1       4.909   1.481   2.105  1.00  0.00     0.116 C 
BRANCH  25  26
HETATM   26  C16 UNL     1       6.004   1.921   1.125  1.00  0.00     0.015 C 
HETATM   27  C17 UNL     1       7.201   1.023   1.210  1.00  0.00     0.006 C 
ENDBRANCH  25  26
ENDBRANCH  23  25
ENDBRANCH  22  23
ENDBRANCH  21  22
ENDBRANCH  20  21
ENDBRANCH  10  20
BRANCH   1  28
HETATM   28  C3  UNL     1      -5.695  -0.278   2.285  1.00  0.00    -0.018 C 
HETATM   29  C2  UNL     1      -6.298   0.865   2.659  1.00  0.00    -0.034 C 
HETATM   30  C1  UNL     1      -6.388   1.971   1.648  1.00  0.00     0.036 C 
ENDBRANCH   1  28
TORSDOF 7
