REMARK  4 active torsions:
REMARK  status: ('A' for Active; 'I' for Inactive)
REMARK    1  A    between atoms: O1_1  and  C1_2 
REMARK    2  A    between atoms: C3_5  and  N1_6 
REMARK    3  A    between atoms: C4_8  and  C5_9 
REMARK    4  A    between atoms: C12_17  and  C13_18 
ROOT
HETATM    1  N1  UNL     1      -0.595  -0.809   0.302  1.00  0.00    -0.236 N 
HETATM    2  N2  UNL     1       0.722  -1.324   0.186  1.00  0.00    -0.173 NA
HETATM    3  C4  UNL     1       1.549  -0.365  -0.154  1.00  0.00     0.067 C 
HETATM    4  C11 UNL     1       0.739   0.905  -0.278  1.00  0.00     0.094 C 
HETATM    5  C12 UNL     1      -0.341   0.522   0.747  1.00  0.00     0.151 C 
ENDROOT
BRANCH   1   6
HETATM    6  C3  UNL     1      -1.702  -1.713  -0.034  1.00  0.00     0.192 A 
HETATM    7  S1  UNL     1      -2.337  -1.907  -1.814  1.00  0.00    -0.058 SA
HETATM    8  C2  UNL     1      -3.593  -3.116  -1.256  1.00  0.00     0.111 A 
HETATM    9  C1  UNL     1      -3.350  -3.184   0.131  1.00  0.00     0.171 A 
HETATM   10  N3  UNL     1      -2.370  -2.418   0.575  1.00  0.00    -0.198 NA
BRANCH   9  11
HETATM   11  O1  UNL     1      -4.055  -3.985   1.047  1.00  0.00    -0.344 OA
HETATM   12  H1  UNL     1      -3.703  -4.841   1.420  1.00  0.00     0.219 HD
ENDBRANCH   9  11
ENDBRANCH   1   6
BRANCH   5  13
HETATM   13  C13 UNL     1      -1.437   1.476   0.631  1.00  0.00    -0.033 A 
HETATM   14  C14 UNL     1      -2.239   1.636  -0.470  1.00  0.00     0.012 A 
HETATM   15  C15 UNL     1      -3.255   2.594  -0.428  1.00  0.00     0.043 A 
HETATM   16  C16 UNL     1      -3.484   3.386   0.680  1.00  0.00     0.116 A 
HETATM   17  F1  UNL     1      -4.469   4.308   0.707  1.00  0.00    -0.206 F 
HETATM   18  C17 UNL     1      -2.696   3.248   1.798  1.00  0.00     0.043 A 
HETATM   19  C18 UNL     1      -1.695   2.294   1.737  1.00  0.00     0.012 A 
ENDBRANCH   5  13
BRANCH   3  20
HETATM   20  C5  UNL     1       2.989  -0.402  -0.390  1.00  0.00    -0.010 A 
HETATM   21  C6  UNL     1       3.716   0.714  -0.747  1.00  0.00     0.015 A 
HETATM   22  C7  UNL     1       5.075   0.605  -0.955  1.00  0.00     0.024 A 
HETATM   23  C8  UNL     1       5.661  -0.633  -0.796  1.00  0.00     0.034 A 
HETATM   24 CL1  UNL     1       7.407  -0.679  -1.082  1.00  0.00    -0.084 Cl
HETATM   25  C9  UNL     1       5.008  -1.796  -0.442  1.00  0.00     0.024 A 
HETATM   26  C10 UNL     1       3.643  -1.609  -0.249  1.00  0.00     0.015 A 
ENDBRANCH   3  20
TORSDOF 4
