REMARK  7 active torsions:
REMARK  status: ('A' for Active; 'I' for Inactive)
REMARK    1  A    between atoms: N1_1  and  C1_2 
REMARK    2  A    between atoms: C1_2  and  O1_3 
REMARK    3  A    between atoms: C2_4  and  S1_5 
REMARK    4  A    between atoms: S1_5  and  C3_6 
REMARK    5  A    between atoms: C3_6  and  N2_7 
REMARK    6  A    between atoms: C4_9  and  C5_10 
REMARK    7  A    between atoms: C12_18  and  C13_19 
ROOT
HETATM    1  N2  UNL     1       1.038  -0.375  -0.468  1.00  0.00    -0.286 N 
HETATM    2  N3  UNL     1       0.154   0.702  -0.550  1.00  0.00    -0.179 NA
HETATM    3  C4  UNL     1      -1.022   0.444  -0.094  1.00  0.00     0.067 C 
HETATM    4  C11 UNL     1      -0.960  -0.992   0.369  1.00  0.00     0.093 C 
HETATM    5  C12 UNL     1       0.093  -1.460  -0.649  1.00  0.00     0.144 C 
ENDROOT
BRANCH   1   6
HETATM    6  C3  UNL     1       2.436  -0.056  -0.257  1.00  0.00     0.223 C 
BRANCH   6   7
HETATM    7  S1  UNL     1       3.031   0.980  -1.627  1.00  0.00    -0.116 SA
BRANCH   7   8
HETATM    8  C2  UNL     1       2.177   2.569  -1.532  1.00  0.00     0.095 C 
HETATM    9  C1  UNL     1       2.596   3.217  -0.442  1.00  0.00     0.118 C 
BRANCH   9  10
HETATM   10  N1  UNL     1       2.666   4.293   0.510  1.00  0.00    -0.283 NA
HETATM   11  H1  UNL     1       1.925   4.961   0.756  1.00  0.00     0.126 HD
HETATM   12  H2  UNL     1       1.831   4.915   0.675  1.00  0.00     0.126 HD
ENDBRANCH   9  10
BRANCH   9  13
HETATM   13  O1  UNL     1       3.529   2.862   0.553  1.00  0.00    -0.350 OA
HETATM   14  H3  UNL     1       4.280   2.231   0.262  1.00  0.00     0.218 HD
ENDBRANCH   9  13
ENDBRANCH   7   8
ENDBRANCH   6   7
ENDBRANCH   1   6
BRANCH   5  15
HETATM   15  C13 UNL     1       0.569  -2.783  -0.283  1.00  0.00    -0.033 A 
HETATM   16  C14 UNL     1       1.737  -3.408  -0.658  1.00  0.00     0.012 A 
HETATM   17  C15 UNL     1       2.143  -4.666  -0.271  1.00  0.00     0.043 A 
HETATM   18  C16 UNL     1       1.316  -5.386   0.570  1.00  0.00     0.116 A 
HETATM   19  F1  UNL     1       1.709  -6.617   0.952  1.00  0.00    -0.206 F 
HETATM   20  C17 UNL     1       0.131  -4.811   0.979  1.00  0.00     0.043 A 
HETATM   21  C18 UNL     1      -0.226  -3.561   0.568  1.00  0.00     0.012 A 
ENDBRANCH   5  15
BRANCH   3  22
HETATM   22  C5  UNL     1      -2.223   1.279   0.005  1.00  0.00    -0.010 A 
HETATM   23  C6  UNL     1      -3.394   0.783   0.539  1.00  0.00     0.015 A 
HETATM   24  C7  UNL     1      -4.542   1.539   0.647  1.00  0.00     0.024 A 
HETATM   25  C8  UNL     1      -4.468   2.854   0.182  1.00  0.00     0.034 A 
HETATM   26 CL1  UNL     1      -5.894   3.861   0.293  1.00  0.00    -0.084 Cl
HETATM   27  C9  UNL     1      -3.305   3.359  -0.353  1.00  0.00     0.024 A 
HETATM   28  C10 UNL     1      -2.173   2.579  -0.447  1.00  0.00     0.015 A 
ENDBRANCH   3  22
TORSDOF 7
