REMARK  4 active torsions:
REMARK  status: ('A' for Active; 'I' for Inactive)
REMARK    1  A    between atoms: C4_4  and  C5_5 
REMARK    2  A    between atoms: C4_4  and  C8_12 
REMARK    3  A    between atoms: C6_7  and  N2_8 
REMARK    4  A    between atoms: C12_16  and  N3_17 
ROOT
HETATM    1  C1  UNL     1      -2.224  -3.354  -1.559  1.00  0.00     0.048 C 
HETATM    2  C2  UNL     1      -1.465  -2.601  -0.544  1.00  0.00    -0.065 A 
HETATM    3  C3  UNL     1      -1.053  -1.365  -0.737  1.00  0.00    -0.004 A 
HETATM    4  C4  UNL     1      -0.284  -0.429   0.137  1.00  0.00     0.041 A 
HETATM    5  C14 UNL     1       0.067  -1.032   1.458  1.00  0.00     0.046 A 
HETATM    6  C15 UNL     1      -0.431  -2.426   1.601  1.00  0.00    -0.025 A 
HETATM    7  C16 UNL     1      -1.115  -3.175   0.751  1.00  0.00     0.002 A 
ENDROOT
BRANCH   4   8
HETATM    8  C5  UNL     1       1.005  -0.054  -0.565  1.00  0.00     0.261 C 
HETATM    9  N1  UNL     1       1.734   0.854   0.303  1.00  0.00    -0.234 NA
HETATM   10  C6  UNL     1       2.987   1.080   0.014  1.00  0.00     0.159 C 
HETATM   11  S1  UNL     1       3.782   0.294  -1.409  1.00  0.00    -0.067 SA
HETATM   12  C7  UNL     1       2.651  -1.094  -1.813  1.00  0.00     0.252 C 
HETATM   13  O1  UNL     1       1.697  -1.239  -0.811  1.00  0.00    -0.353 OA
BRANCH  10  14
HETATM   14  N2  UNL     1       3.821   1.948   0.778  1.00  0.00    -0.379 N 
HETATM   15  H6  UNL     1       4.033   2.916   1.122  1.00  0.00     0.158 HD
HETATM   16  H7  UNL     1       4.582   1.332   1.192  1.00  0.00     0.158 HD
ENDBRANCH  10  14
ENDBRANCH   4   8
BRANCH   4  17
HETATM   17  C8  UNL     1      -1.162   0.794   0.304  1.00  0.00     0.009 A 
HETATM   18  C9  UNL     1      -2.462   0.413   0.940  1.00  0.00     0.025 C 
HETATM   19  C10 UNL     1      -1.350   1.514  -0.962  1.00  0.00    -0.010 A 
HETATM   20  C11 UNL     1      -0.877   2.762  -0.886  1.00  0.00     0.026 A 
HETATM   21  C12 UNL     1      -0.341   2.929   0.473  1.00  0.00     0.022 A 
HETATM   22  C13 UNL     1      -0.504   1.805   1.150  1.00  0.00     0.017 A 
BRANCH  21  23
HETATM   23  N3  UNL     1       0.273   4.084   1.044  1.00  0.00    -0.399 N 
HETATM   24  H15 UNL     1       1.157   4.103   1.612  1.00  0.00     0.156 HD
HETATM   25  H16 UNL     1      -0.172   5.033   0.910  1.00  0.00     0.156 HD
ENDBRANCH  21  23
ENDBRANCH   4  17
TORSDOF 4
