REMARK  5 active torsions:
REMARK  status: ('A' for Active; 'I' for Inactive)
REMARK    1  A    between atoms: C5_5  and  C6_6 
REMARK    2  A    between atoms: C8_8  and  C9_9 
REMARK    3  A    between atoms: N1_16  and  C15_17 
REMARK    4  A    between atoms: C15_17  and  S1_18 
REMARK    5  A    between atoms: C16_20  and  O1_21 
ROOT
HETATM    1  C6  UNL     1       0.491  -0.598   0.502  1.00  0.00     0.106 C 
HETATM    2  C7  UNL     1       0.815   0.855   0.785  1.00  0.00     0.051 C 
HETATM    3  C8  UNL     1      -0.549   1.484   0.702  1.00  0.00     0.110 C 
HETATM    4  N1  UNL     1      -1.309   0.622  -0.127  1.00  0.00    -0.233 NA
HETATM    5  N3  UNL     1      -0.478  -0.412  -0.570  1.00  0.00    -0.249 NA
HETATM    6  H18 UNL     1      -0.977  -1.265  -0.845  1.00  0.00     0.141 HD
ENDROOT
BRANCH   4   7
HETATM    7  C15 UNL     1      -2.365   0.032   0.631  1.00  0.00     0.188 C 
BRANCH   7   8
HETATM    8  S1  UNL     1      -3.302  -1.114  -0.559  1.00  0.00    -0.101 SA
HETATM    9  N2  UNL     1      -4.611  -1.508   1.379  1.00  0.00    -0.152 NA
HETATM   10  C16 UNL     1      -5.445  -2.672  -0.099  1.00  0.00     0.256 A 
HETATM   11  C17 UNL     1      -4.629  -2.088  -0.302  1.00  0.00     0.043 A 
HETATM   12  C18 UNL     1      -4.159  -1.747  -0.403  1.00  0.00     0.043 A 
BRANCH  10  13
HETATM   13  O1  UNL     1      -5.262  -3.753   0.958  1.00  0.00    -0.374 OA
HETATM   14  H17 UNL     1      -4.403  -4.155   0.673  1.00  0.00     0.212 HD
ENDBRANCH  10  13
ENDBRANCH   7   8
ENDBRANCH   4   7
BRANCH   3  15
HETATM   15  C9  UNL     1      -0.489   2.883   0.203  1.00  0.00    -0.039 A 
HETATM   16  C10 UNL     1      -1.715   3.377  -0.218  1.00  0.00     0.012 A 
HETATM   17  C11 UNL     1      -1.796   4.680  -0.711  1.00  0.00     0.043 A 
HETATM   18  C12 UNL     1      -0.661   5.464  -0.776  1.00  0.00     0.116 A 
HETATM   19  F1  UNL     1      -0.790   6.716  -1.260  1.00  0.00    -0.206 F 
HETATM   20  C13 UNL     1       0.536   4.923  -0.343  1.00  0.00     0.043 A 
HETATM   21  C14 UNL     1       0.665   3.641   0.151  1.00  0.00     0.012 A 
ENDBRANCH   3  15
BRANCH   1  22
HETATM   22  C5  UNL     1       1.694  -1.348   0.067  1.00  0.00    -0.039 A 
HETATM   23  C4  UNL     1       2.908  -0.839   0.541  1.00  0.00     0.009 A 
HETATM   24  C3  UNL     1       4.132  -1.427   0.220  1.00  0.00     0.007 A 
HETATM   25  C2  UNL     1       4.181  -2.544  -0.588  1.00  0.00    -0.062 A 
HETATM   26  C1  UNL     1       5.484  -3.151  -0.917  1.00  0.00     0.048 C 
HETATM   27  C20 UNL     1       2.977  -3.018  -1.037  1.00  0.00     0.007 A 
HETATM   28  C19 UNL     1       1.745  -2.449  -0.729  1.00  0.00     0.009 A 
ENDBRANCH   1  22
TORSDOF 5
