REMARK  1 active torsions:
REMARK  status: ('A' for Active; 'I' for Inactive)
REMARK    1  A    between atoms: C4_5  and  C5_6 
ROOT
HETATM    1  C5  UNL     1       0.450  -0.174  -0.227  1.00  0.00     0.194 C 
HETATM    2  C6  UNL     1      -0.278   1.046  -0.902  1.00  0.00     0.080 C 
HETATM    3  C7  UNL     1      -1.724   0.773  -0.506  1.00  0.00    -0.033 A 
HETATM    4  C8  UNL     1      -1.878  -0.506  -0.880  1.00  0.00     0.022 A 
HETATM    5  C9  UNL     1      -3.002  -0.816  -0.168  1.00  0.00    -0.016 A 
HETATM    6  C10 UNL     1      -3.844  -0.152   0.689  1.00  0.00     0.014 A 
HETATM    7  C11 UNL     1      -3.446   1.178   0.888  1.00  0.00     0.025 A 
HETATM    8  C12 UNL     1      -2.314   1.718   0.271  1.00  0.00     0.040 A 
HETATM    9 CL1  UNL     1      -1.772   3.347   0.484  1.00  0.00    -0.084 Cl
HETATM   10  C13 UNL     1      -3.195  -2.292  -0.202  1.00  0.00     0.155 C 
HETATM   11  N1  UNL     1      -2.043  -2.700   0.285  1.00  0.00    -0.131 NA
HETATM   12  N2  UNL     1      -1.032  -1.740   0.669  1.00  0.00     0.013 N 
HETATM   13  F2  UNL     1      -0.312  -2.491   1.562  1.00  0.00    -0.050 F 
HETATM   14  O1  UNL     1      -0.221  -0.649   0.839  1.00  0.00    -0.223 OA
ENDROOT
BRANCH   1  15
HETATM   15  C4  UNL     1       1.899   0.057  -0.157  1.00  0.00    -0.026 A 
HETATM   16  C3  UNL     1       2.376   0.700   0.982  1.00  0.00     0.013 A 
HETATM   17  C2  UNL     1       3.749   0.940   1.090  1.00  0.00     0.043 A 
HETATM   18  C1  UNL     1       4.642   0.562   0.107  1.00  0.00     0.116 A 
HETATM   19  F1  UNL     1       5.969   0.801   0.226  1.00  0.00    -0.206 F 
HETATM   20  C15 UNL     1       4.147  -0.068  -1.002  1.00  0.00     0.043 A 
HETATM   21  C14 UNL     1       2.798  -0.324  -1.147  1.00  0.00     0.013 A 
ENDBRANCH   1  15
TORSDOF 1
