REMARK  3 active torsions:
REMARK  status: ('A' for Active; 'I' for Inactive)
REMARK    1  A    between atoms: C4_5  and  C5_6 
REMARK    2  A    between atoms: C5_6  and  C6_7 
REMARK    3  A    between atoms: C5_6  and  C9_14 
ROOT
HETATM    1  C5  UNL     1      -0.092  -0.064   0.773  1.00  0.00     0.110 C 
ENDROOT
BRANCH   1   2
HETATM    2  C4  UNL     1      -0.040   1.411   0.592  1.00  0.00    -0.043 A 
HETATM    3  C3  UNL     1       0.427   2.224   1.632  1.00  0.00     0.011 A 
HETATM    4  C2  UNL     1       0.504   3.581   1.539  1.00  0.00     0.043 A 
HETATM    5  C1  UNL     1       0.119   4.229   0.396  1.00  0.00     0.116 A 
HETATM    6  F1  UNL     1       0.187   5.564   0.285  1.00  0.00    -0.206 F 
HETATM    7  C16 UNL     1      -0.343   3.466  -0.642  1.00  0.00     0.043 A 
HETATM    8  C15 UNL     1      -0.420   2.093  -0.545  1.00  0.00     0.011 A 
ENDBRANCH   1   2
BRANCH   1   9
HETATM    9  C6  UNL     1      -1.320  -0.572   0.149  1.00  0.00     0.085 C 
HETATM   10  N1  UNL     1      -2.315  -0.073  -0.485  1.00  0.00    -0.225 NA
HETATM   11  C7  UNL     1      -3.418  -0.804  -1.007  1.00  0.00     0.438 C 
HETATM   12  F2  UNL     1      -4.396  -1.005  -0.054  1.00  0.00    -0.193 F 
HETATM   13  O1  UNL     1      -3.062  -1.966  -1.683  1.00  0.00    -0.329 OA
HETATM   14  C8  UNL     1      -2.589  -2.973  -0.874  1.00  0.00     0.253 C 
HETATM   15  S1  UNL     1      -1.398  -2.359   0.355  1.00  0.00    -0.087 SA
ENDBRANCH   1   9
BRANCH   1  16
HETATM   16  C9  UNL     1       1.149  -0.747   0.339  1.00  0.00    -0.043 A 
HETATM   17  C10 UNL     1       1.181  -1.141  -0.964  1.00  0.00     0.010 A 
HETATM   18  C11 UNL     1       2.324  -1.792  -1.439  1.00  0.00     0.024 A 
HETATM   19  C12 UNL     1       3.393  -2.018  -0.575  1.00  0.00     0.034 A 
HETATM   20 CL1  UNL     1       4.825  -2.828  -1.152  1.00  0.00    -0.084 Cl
HETATM   21  C13 UNL     1       3.332  -1.605   0.747  1.00  0.00     0.024 A 
HETATM   22  C14 UNL     1       2.206  -0.964   1.219  1.00  0.00     0.010 A 
ENDBRANCH   1  16
TORSDOF 3
