REMARK  5 active torsions:
REMARK  status: ('A' for Active; 'I' for Inactive)
REMARK    1  A    between atoms: C2_2  and  C17_20 
REMARK    2  A    between atoms: C3_3  and  C4_4 
REMARK    3  A    between atoms: C5_5  and  C6_6 
REMARK    4  A    between atoms: N2_10  and  C9_11 
REMARK    5  A    between atoms: C17_20  and  O1_21 
ROOT
HETATM    1  C6  UNL     1      -0.132  -0.308  -0.476  1.00  0.00    -0.045 C 
HETATM    2  C7  UNL     1      -1.325   0.110  -0.072  1.00  0.00    -0.008 A 
HETATM    3  C8  UNL     1      -1.490   1.145   0.943  1.00  0.00     0.148 A 
HETATM    4  N1  UNL     1      -2.750   1.423   1.106  1.00  0.00    -0.187 NA
HETATM    5  N2  UNL     1      -3.516   0.624   0.244  1.00  0.00    -0.278 N 
HETATM    6  C12 UNL     1      -2.697  -0.316  -0.493  1.00  0.00     0.144 A 
HETATM    7  C13 UNL     1      -2.981  -1.740  -0.170  1.00  0.00     0.058 C 
HETATM    8  C14 UNL     1      -1.804  -2.619  -0.409  1.00  0.00    -0.028 C 
HETATM    9  C15 UNL     1      -0.576  -2.628  -0.914  1.00  0.00    -0.026 C 
HETATM   10  C16 UNL     1      -0.002  -1.362  -1.508  1.00  0.00     0.066 C 
ENDROOT
BRANCH   1  11
HETATM   11  C5  UNL     1       1.036   0.306   0.131  1.00  0.00     0.008 C 
HETATM   12  C4  UNL     1       2.298   0.024  -0.139  1.00  0.00     0.001 C 
BRANCH  12  13
HETATM   13  C3  UNL     1       3.467   0.635   0.465  1.00  0.00     0.004 C 
HETATM   14  C2  UNL     1       4.706   0.319   0.162  1.00  0.00    -0.061 C 
HETATM   15  C1  UNL     1       4.985  -0.723  -0.857  1.00  0.00     0.045 C 
BRANCH  14  16
HETATM   16  C17 UNL     1       5.815   1.015   0.848  1.00  0.00     0.198 C 
BRANCH  16  17
HETATM   17  O1  UNL     1       6.594   1.673  -0.117  1.00  0.00    -0.397 OA
HETATM   18  H20 UNL     1       7.145   2.320   0.391  1.00  0.00     0.209 HD
ENDBRANCH  16  17
ENDBRANCH  14  16
ENDBRANCH  12  13
ENDBRANCH   1  11
BRANCH   5  19
HETATM   19  C9  UNL     1      -4.970   0.666   0.049  1.00  0.00     0.194 A 
HETATM   20  C10 UNL     1      -5.639   1.677   0.876  1.00  0.00     0.018 A 
HETATM   21  C11 UNL     1      -6.006   2.473  -0.101  1.00  0.00     0.046 A 
HETATM   22  S1  UNL     1      -5.336   1.551  -1.464  1.00  0.00    -0.111 SA
ENDBRANCH   5  19
TORSDOF 5
