REMARK  1 active torsions:
REMARK  status: ('A' for Active; 'I' for Inactive)
REMARK    1  A    between atoms: C6_11  and  C7_12 
ROOT
HETATM    1  C1  UNL     1       6.017   0.166  -0.647  1.00  0.00     0.050 C 
HETATM    2  C2  UNL     1       4.521   0.189  -0.657  1.00  0.00    -0.036 C 
HETATM    3  C3  UNL     1       3.946  -1.011  -0.862  1.00  0.00     0.158 C 
HETATM    4  O1  UNL     1       3.055  -2.049  -1.042  1.00  0.00    -0.289 OA
HETATM    5  S1  UNL     1       2.565  -2.988   0.335  1.00  0.00     0.016 SA
HETATM    6  C4  UNL     1       2.036  -1.856   1.649  1.00  0.00     0.255 C 
HETATM    7  N1  UNL     1       0.812  -1.145   1.245  1.00  0.00    -0.271 NA
HETATM    8  C5  UNL     1       0.042  -1.862   0.461  1.00  0.00     0.224 C 
HETATM    9  N2  UNL     1      -1.032  -0.958   0.234  1.00  0.00    -0.255 N 
HETATM   10  N3  UNL     1      -2.260  -0.736   0.851  1.00  0.00    -0.179 NA
HETATM   11  C6  UNL     1      -2.879   0.266   0.301  1.00  0.00     0.046 A 
HETATM   12  C12 UNL     1      -2.020   0.821  -0.806  1.00  0.00     0.089 A 
HETATM   13  C13 UNL     1      -0.801  -0.089  -0.872  1.00  0.00     0.139 A 
HETATM   14  C14 UNL     1       0.425   0.736  -0.700  1.00  0.00     0.004 C 
HETATM   15  C15 UNL     1       1.372   1.630  -0.526  1.00  0.00     0.040 C 
HETATM   16  C16 UNL     1       2.727   2.129  -0.403  1.00  0.00     0.116 C 
HETATM   17  F1  UNL     1       2.599   3.460  -0.184  1.00  0.00    -0.206 F 
HETATM   18  C17 UNL     1       3.853   1.462  -0.474  1.00  0.00     0.051 C 
ENDROOT
BRANCH  11  19
HETATM   19  C7  UNL     1      -4.194   0.885   0.593  1.00  0.00     0.082 A 
HETATM   20  C8  UNL     1      -5.057   0.807  -0.618  1.00  0.00    -0.011 A 
HETATM   21  C9  UNL     1      -6.155   0.101  -0.340  1.00  0.00     0.020 A 
HETATM   22  C10 UNL     1      -6.114  -0.344   1.062  1.00  0.00     0.031 A 
HETATM   23 CL1  UNL     1      -7.351  -1.299   1.855  1.00  0.00    -0.085 Cl
HETATM   24  C11 UNL     1      -4.981   0.119   1.571  1.00  0.00     0.011 A 
ENDBRANCH  11  19
TORSDOF 1
