REMARK  4 active torsions:
REMARK  status: ('A' for Active; 'I' for Inactive)
REMARK    1  A    between atoms: C5_5  and  C6_6 
REMARK    2  A    between atoms: N2_8  and  C7_9 
REMARK    3  A    between atoms: C8_11  and  O1_12 
REMARK    4  A    between atoms: C10_15  and  C11_16 
ROOT
HETATM    1  C6  UNL     1       1.426   0.171   0.187  1.00  0.00     0.085 C 
HETATM    2  N1  UNL     1       0.700   1.219   0.321  1.00  0.00    -0.172 NA
HETATM    3  N2  UNL     1      -0.654   0.903   0.455  1.00  0.00    -0.236 N 
HETATM    4  C10 UNL     1      -0.720  -0.504   0.781  1.00  0.00     0.151 C 
HETATM    5  C17 UNL     1       0.560  -1.042   0.221  1.00  0.00     0.096 C 
ENDROOT
BRANCH   1   6
HETATM    6  C5  UNL     1       2.888   0.042   0.018  1.00  0.00     0.078 A 
HETATM    7  C4  UNL     1       3.715   0.656   0.942  1.00  0.00     0.035 A 
HETATM    8  C3  UNL     1       5.037   0.400   0.582  1.00  0.00     0.028 A 
HETATM    9  C2  UNL     1       4.935  -0.372  -0.566  1.00  0.00     0.025 A 
HETATM   10  C1  UNL     1       6.039  -0.939  -1.392  1.00  0.00     0.070 C 
HETATM   11  N4  UNL     1       3.644  -0.574  -0.885  1.00  0.00    -0.257 N 
HETATM   12 CL2  UNL     1       2.915  -1.449  -2.195  1.00  0.00     0.019 Cl
ENDBRANCH   1   6
BRANCH   3  13
HETATM   13  C7  UNL     1      -1.603   1.994   0.247  1.00  0.00     0.192 A 
HETATM   14  N3  UNL     1      -2.183   2.390  -0.822  1.00  0.00    -0.198 NA
HETATM   15  C8  UNL     1      -3.009   3.417  -0.740  1.00  0.00     0.171 A 
HETATM   16  C9  UNL     1      -3.321   4.140   0.457  1.00  0.00     0.111 A 
HETATM   17  S1  UNL     1      -2.225   3.148   1.634  1.00  0.00    -0.058 SA
BRANCH  15  18
HETATM   18  O1  UNL     1      -3.579   3.750  -1.986  1.00  0.00    -0.344 OA
HETATM   19  H6  UNL     1      -3.768   4.698  -2.255  1.00  0.00     0.219 HD
ENDBRANCH  15  18
ENDBRANCH   3  13
BRANCH   4  20
HETATM   20  C11 UNL     1      -1.910  -1.189   0.235  1.00  0.00    -0.033 A 
HETATM   21  C12 UNL     1      -3.166  -0.625   0.324  1.00  0.00     0.011 A 
HETATM   22  C13 UNL     1      -4.293  -1.256  -0.184  1.00  0.00     0.024 A 
HETATM   23  C14 UNL     1      -4.155  -2.482  -0.797  1.00  0.00     0.034 A 
HETATM   24 CL1  UNL     1      -5.566  -3.307  -1.451  1.00  0.00    -0.084 Cl
HETATM   25  C15 UNL     1      -2.894  -3.068  -0.896  1.00  0.00     0.024 A 
HETATM   26  C16 UNL     1      -1.772  -2.428  -0.384  1.00  0.00     0.011 A 
ENDBRANCH   4  20
TORSDOF 4
