REMARK  6 active torsions:
REMARK  status: ('A' for Active; 'I' for Inactive)
REMARK    1  A    between atoms: N2_15  and  C13_16 
REMARK    2  A    between atoms: C13_16  and  S1_17 
REMARK    3  A    between atoms: S1_17  and  C14_18 
REMARK    4  A    between atoms: C15_19  and  C16_20 
REMARK    5  A    between atoms: C16_20  and  O1_21 
REMARK    6  A    between atoms: O1_21  and  N3_22 
ROOT
HETATM    1  C1  UNL     1      -1.513  -3.755  -2.145  1.00  0.00     0.019 C 
HETATM    2  C2  UNL     1      -0.768  -3.226  -1.325  1.00  0.00    -0.063 C 
HETATM    3  C3  UNL     1       0.115  -2.618  -0.339  1.00  0.00     0.111 C 
HETATM    4 CL1  UNL     1       1.629  -3.472  -0.122  1.00  0.00    -0.072 Cl
HETATM    5  C4  UNL     1      -0.399  -1.538   0.199  1.00  0.00     0.067 A 
HETATM    6  C5  UNL     1      -1.749  -1.143  -0.279  1.00  0.00     0.123 A 
HETATM    7  C6  UNL     1      -1.953   0.081   0.556  1.00  0.00     0.070 A 
HETATM    8  C7  UNL     1      -3.156   0.881   0.478  1.00  0.00    -0.009 A 
HETATM    9  C8  UNL     1      -3.314   1.999   1.255  1.00  0.00     0.013 A 
HETATM   10  C9  UNL     1      -4.395   2.825   1.268  1.00  0.00     0.001 A 
HETATM   11  C10 UNL     1      -5.428   2.530   0.438  1.00  0.00     0.000 A 
HETATM   12  C11 UNL     1      -5.346   1.407  -0.386  1.00  0.00     0.001 A 
HETATM   13  C12 UNL     1      -4.213   0.584  -0.367  1.00  0.00     0.013 A 
HETATM   14  N1  UNL     1      -0.962   0.343   1.336  1.00  0.00    -0.175 NA
HETATM   15  N2  UNL     1       0.049  -0.611   1.180  1.00  0.00    -0.262 N 
ENDROOT
BRANCH  15  16
HETATM   16  C13 UNL     1       1.322  -0.696   1.852  1.00  0.00     0.229 C 
BRANCH  16  17
HETATM   17  S1  UNL     1       2.190   0.864   1.462  1.00  0.00    -0.120 SA
BRANCH  17  18
HETATM   18  C14 UNL     1       2.521   0.885  -0.290  1.00  0.00     0.045 C 
HETATM   19  C15 UNL     1       3.632   0.546  -0.920  1.00  0.00     0.008 C 
BRANCH  19  20
HETATM   20  C16 UNL     1       4.955   0.048  -0.469  1.00  0.00     0.221 C 
BRANCH  20  21
HETATM   21  O1  UNL     1       5.963   0.943  -0.868  1.00  0.00    -0.305 OA
BRANCH  21  22
HETATM   22  N3  UNL     1       7.144   0.442  -0.512  1.00  0.00    -0.215 NA
HETATM   23  H15 UNL     1       7.106   0.031   0.447  1.00  0.00     0.150 HD
HETATM   24  H16 UNL     1       7.935   1.094  -0.661  1.00  0.00     0.150 HD
ENDBRANCH  21  22
ENDBRANCH  20  21
ENDBRANCH  19  20
ENDBRANCH  17  18
ENDBRANCH  16  17
ENDBRANCH  15  16
TORSDOF 6
