REMARK  11 active torsions:
REMARK  status: ('A' for Active; 'I' for Inactive)
REMARK    1  A    between atoms: C2_2  and  C3_3 
REMARK    2  A    between atoms: C3_3  and  O1_4 
REMARK    3  A    between atoms: C3_3  and  C4_5 
REMARK    4  A    between atoms: C5_6  and  O2_7 
REMARK    5  A    between atoms: O2_7  and  C6_8 
REMARK    6  A    between atoms: C6_8  and  C7_9 
REMARK    7  A    between atoms: C7_9  and  N1_10 
REMARK    8  A    between atoms: C18_21  and  O3_22 
REMARK    9  A    between atoms: O3_22  and  C19_23 
REMARK   10  A    between atoms: C19_23  and  C20_24 
REMARK   11  A    between atoms: C20_24  and  C21_25 
ROOT
HETATM    1  C4  UNL     1       0.432  -0.399  -0.208  1.00  0.00     0.016 A 
HETATM    2  C5  UNL     1      -0.693   0.067   0.361  1.00  0.00     0.087 A 
HETATM    3  C12 UNL     1      -0.479   1.099   1.360  1.00  0.00     0.007 A 
HETATM    4  C13 UNL     1      -1.226   1.878   2.209  1.00  0.00     0.015 A 
HETATM    5  C14 UNL     1      -0.572   2.774   3.042  1.00  0.00     0.001 A 
HETATM    6  C15 UNL     1       0.798   2.930   3.068  1.00  0.00     0.001 A 
HETATM    7  C16 UNL     1       1.546   2.134   2.202  1.00  0.00     0.011 A 
HETATM    8  C17 UNL     1       0.891   1.244   1.374  1.00  0.00    -0.012 A 
HETATM    9  C18 UNL     1       1.556   0.334   0.389  1.00  0.00     0.190 A 
ENDROOT
BRANCH   9  10
HETATM   10  O3  UNL     1       2.467  -0.501   0.926  1.00  0.00    -0.376 OA
BRANCH  10  11
HETATM   11  C19 UNL     1       3.769  -0.351   0.564  1.00  0.00     0.173 C 
BRANCH  11  12
HETATM   12  C20 UNL     1       4.038  -0.493  -0.902  1.00  0.00     0.065 C 
BRANCH  12  13
HETATM   13  C21 UNL     1       5.529  -0.276  -1.082  1.00  0.00    -0.053 A 
HETATM   14  C22 UNL     1       6.463  -1.275  -1.038  1.00  0.00     0.026 A 
HETATM   15  C23 UNL     1       7.790  -0.913  -1.223  1.00  0.00     0.116 A 
HETATM   16  N2  UNL     1       8.186   0.369  -1.441  1.00  0.00    -0.273 NA
HETATM   17  C24 UNL     1       7.254   1.345  -1.483  1.00  0.00     0.116 A 
HETATM   18  C25 UNL     1       5.929   1.025  -1.304  1.00  0.00     0.026 A 
ENDBRANCH  12  13
ENDBRANCH  11  12
ENDBRANCH  10  11
ENDBRANCH   9  10
BRANCH   1  19
HETATM   19  C3  UNL     1       0.313  -1.461  -1.228  1.00  0.00     0.152 C 
BRANCH  19  20
HETATM   20  C2  UNL     1       0.891  -2.790  -0.767  1.00  0.00     0.032 C 
HETATM   21  C1  UNL     1       0.890  -3.806  -1.883  1.00  0.00     0.008 C 
ENDBRANCH  19  20
BRANCH  19  22
HETATM   22  O1  UNL     1      -0.974  -1.667  -1.634  1.00  0.00    -0.391 OA
HETATM   23  H7  UNL     1      -1.341  -2.476  -1.175  1.00  0.00     0.210 HD
ENDBRANCH  19  22
ENDBRANCH   1  19
BRANCH   2  24
HETATM   24  O2  UNL     1      -2.024  -0.318   0.119  1.00  0.00    -0.348 OA
BRANCH  24  25
HETATM   25  C6  UNL     1      -2.798   0.597  -0.633  1.00  0.00     0.206 C 
BRANCH  25  26
HETATM   26  C7  UNL     1      -4.223   0.117  -0.801  1.00  0.00     0.299 C 
BRANCH  26  27
HETATM   27  N1  UNL     1      -4.901  -0.060   0.452  1.00  0.00     0.090 N 
HETATM   28  C8  UNL     1      -5.146   1.195   1.135  1.00  0.00     0.272 C 
HETATM   29  C9  UNL     1      -6.565   1.588   0.774  1.00  0.00     0.032 C 
HETATM   30  C10 UNL     1      -7.264   0.281   0.577  1.00  0.00     0.032 C 
HETATM   31  C11 UNL     1      -6.173  -0.672   0.223  1.00  0.00     0.272 C 
ENDBRANCH  26  27
ENDBRANCH  25  26
ENDBRANCH  24  25
ENDBRANCH   2  24
TORSDOF 11
