REMARK  7 active torsions:
REMARK  status: ('A' for Active; 'I' for Inactive)
REMARK    1  A    between atoms: N1_1  and  O1_2 
REMARK    2  A    between atoms: O1_2  and  C1_3 
REMARK    3  A    between atoms: N2_6  and  C3_7 
REMARK    4  A    between atoms: C3_7  and  C4_8 
REMARK    5  A    between atoms: C3_7  and  C12_17 
REMARK    6  A    between atoms: C4_8  and  C5_9 
REMARK    7  A    between atoms: C5_9  and  C6_10 
ROOT
HETATM    1  C3  UNL     1       0.619   0.178  -0.270  1.00  0.00     0.126 C 
ENDROOT
BRANCH   1   2
HETATM    2  N2  UNL     1       1.309  -0.980  -0.671  1.00  0.00    -0.155 NA
HETATM    3  S1  UNL     1       1.712  -1.960   0.738  1.00  0.00    -0.028 SA
HETATM    4  C2  UNL     1       3.337  -1.210   1.016  1.00  0.00     0.123 C 
HETATM    5  C1  UNL     1       3.549  -0.637  -0.160  1.00  0.00     0.188 C 
HETATM    6  N3  UNL     1       2.583  -0.741  -1.199  1.00  0.00    -0.286 N 
HETATM    7  H17 UNL     1       3.119  -0.603  -2.108  1.00  0.00     0.184 HD
BRANCH   5   8
HETATM    8  O1  UNL     1       4.781  -0.147   0.254  1.00  0.00    -0.225 OA
BRANCH   8   9
HETATM    9  N1  UNL     1       5.984  -0.654  -0.201  1.00  0.00    -0.304 N 
HETATM   10  H1  UNL     1       6.365  -0.151  -1.018  1.00  0.00     0.184 HD
HETATM   11  H2  UNL     1       6.652  -0.893   0.544  1.00  0.00     0.184 HD
ENDBRANCH   8   9
ENDBRANCH   5   8
ENDBRANCH   1   2
BRANCH   1  12
HETATM   12  C4  UNL     1      -0.797  -0.070   0.099  1.00  0.00     0.032 C 
BRANCH  12  13
HETATM   13  C5  UNL     1      -0.959  -1.030   1.214  1.00  0.00     0.040 C 
BRANCH  13  14
HETATM   14  C6  UNL     1      -2.449  -1.136   1.520  1.00  0.00    -0.058 A 
HETATM   15  C7  UNL     1      -3.025  -0.293   2.439  1.00  0.00     0.009 A 
HETATM   16  C8  UNL     1      -4.365  -0.327   2.769  1.00  0.00     0.024 A 
HETATM   17  C9  UNL     1      -5.164  -1.277   2.124  1.00  0.00     0.034 A 
HETATM   18 CL1  UNL     1      -6.883  -1.467   2.415  1.00  0.00    -0.084 Cl
HETATM   19  C10 UNL     1      -4.593  -2.118   1.208  1.00  0.00     0.024 A 
HETATM   20  C11 UNL     1      -3.241  -2.088   0.872  1.00  0.00     0.009 A 
ENDBRANCH  13  14
ENDBRANCH  12  13
ENDBRANCH   1  12
BRANCH   1  21
HETATM   21  C12 UNL     1       0.601   1.251  -1.316  1.00  0.00    -0.037 A 
HETATM   22  C13 UNL     1       0.315   0.837  -2.600  1.00  0.00     0.010 A 
HETATM   23  C14 UNL     1       0.283   1.781  -3.613  1.00  0.00     0.024 A 
HETATM   24  C15 UNL     1       0.538   3.102  -3.315  1.00  0.00     0.034 A 
HETATM   25 CL2  UNL     1       0.493   4.276  -4.611  1.00  0.00    -0.084 Cl
HETATM   26  C16 UNL     1       0.830   3.550  -2.030  1.00  0.00     0.024 A 
HETATM   27  C17 UNL     1       0.852   2.581  -1.048  1.00  0.00     0.010 A 
ENDBRANCH   1  21
TORSDOF 7
