REMARK  3 active torsions:
REMARK  status: ('A' for Active; 'I' for Inactive)
REMARK    1  A    between atoms: S1_1  and  C1_2 
REMARK    2  A    between atoms: C4_8  and  C5_9 
REMARK    3  A    between atoms: C12_17  and  C13_18 
ROOT
HETATM    1  C1  UNL     1      -2.481   1.326   1.948  1.00  0.00     0.162 C 
HETATM    2  C2  UNL     1      -1.412   1.536   1.180  1.00  0.00     0.071 C 
HETATM    3  N1  UNL     1      -0.814   2.878   1.115  1.00  0.00    -0.244 NA
HETATM    4  C3  UNL     1       0.512   2.797   1.300  1.00  0.00     0.222 C 
HETATM    5  N2  UNL     1       0.766   1.420   1.002  1.00  0.00    -0.296 N 
HETATM    6  N3  UNL     1       0.278   0.926  -0.287  1.00  0.00    -0.216 NA
HETATM    7  C4  UNL     1      -0.904   0.319   0.422  1.00  0.00     0.104 C 
HETATM    8  C11 UNL     1      -0.072  -0.597   1.340  1.00  0.00     0.070 C 
HETATM    9  C12 UNL     1       1.285   0.103   1.443  1.00  0.00     0.139 C 
HETATM   10  H4  UNL     1       0.880   0.231  -0.693  1.00  0.00     0.148 HD
ENDROOT
BRANCH   7  11
HETATM   11  C5  UNL     1      -1.829  -0.322  -0.444  1.00  0.00    -0.028 A 
HETATM   12  C6  UNL     1      -3.115  -0.673  -0.242  1.00  0.00     0.011 A 
HETATM   13  C7  UNL     1      -3.965  -1.295  -1.134  1.00  0.00     0.024 A 
HETATM   14  C8  UNL     1      -3.448  -1.601  -2.394  1.00  0.00     0.034 A 
HETATM   15 CL1  UNL     1      -4.508  -2.389  -3.540  1.00  0.00    -0.084 Cl
HETATM   16  C9  UNL     1      -2.133  -1.269  -2.672  1.00  0.00     0.024 A 
HETATM   17  C10 UNL     1      -1.331  -0.639  -1.715  1.00  0.00     0.011 A 
ENDBRANCH   7  11
BRANCH   1  18
HETATM   18  S1  UNL     1      -3.281   2.565   2.935  1.00  0.00    -0.224 SA
HETATM   19  H1  UNL     1      -2.578   3.791   2.730  1.00  0.00     0.086 HD
ENDBRANCH   1  18
BRANCH   9  20
HETATM   20  C13 UNL     1       2.307  -0.316   0.528  1.00  0.00    -0.034 A 
HETATM   21  C14 UNL     1       2.451  -1.556  -0.012  1.00  0.00     0.011 A 
HETATM   22  C15 UNL     1       3.473  -1.853  -0.885  1.00  0.00     0.019 A 
HETATM   23  C16 UNL     1       4.391  -0.891  -1.242  1.00  0.00     0.011 A 
HETATM   24 BR1  UNL     1       5.824  -1.278  -2.457  1.00  0.00    -0.051 Br
HETATM   25  C17 UNL     1       4.279   0.365  -0.721  1.00  0.00     0.019 A 
HETATM   26  C18 UNL     1       3.261   0.632   0.140  1.00  0.00     0.011 A 
ENDBRANCH   9  20
TORSDOF 3
