REMARK  4 active torsions:
REMARK  status: ('A' for Active; 'I' for Inactive)
REMARK    1  A    between atoms: O1_1  and  C1_2 
REMARK    2  A    between atoms: C3_5  and  N1_6 
REMARK    3  A    between atoms: C4_8  and  C5_9 
REMARK    4  A    between atoms: C12_17  and  C13_18 
ROOT
HETATM    1  N1  UNL     1      -0.250   0.991  -0.320  1.00  0.00    -0.236 N 
HETATM    2  N2  UNL     1       1.162   1.090  -0.191  1.00  0.00    -0.173 NA
HETATM    3  C4  UNL     1       1.664  -0.010   0.248  1.00  0.00     0.067 C 
HETATM    4  C11 UNL     1       0.527  -0.981   0.453  1.00  0.00     0.094 C 
HETATM    5  C12 UNL     1      -0.421  -0.381  -0.603  1.00  0.00     0.157 C 
ENDROOT
BRANCH   5   6
HETATM    6  C13 UNL     1      -1.754  -0.957  -0.524  1.00  0.00    -0.005 A 
HETATM    7  C14 UNL     1      -2.927  -0.459  -0.164  1.00  0.00     0.017 A 
HETATM    8  C15 UNL     1      -4.214  -1.141  -0.124  1.00  0.00     0.025 A 
HETATM    9  C16 UNL     1      -4.507  -2.395  -0.430  1.00  0.00     0.039 A 
HETATM   10 CL2  UNL     1      -6.142  -3.061  -0.322  1.00  0.00    -0.084 Cl
HETATM   11  C17 UNL     1      -3.443  -3.316  -0.892  1.00  0.00     0.060 A 
HETATM   12  S2  UNL     1      -1.900  -2.719  -1.005  1.00  0.00    -0.173 SA
HETATM   13  H13 UNL     1      -1.027  -3.334  -1.968  1.00  0.00     0.100 HD
ENDBRANCH   5   6
BRANCH   1  14
HETATM   14  C3  UNL     1      -1.028   2.219  -0.149  1.00  0.00     0.192 A 
HETATM   15  S1  UNL     1      -1.231   2.763  -1.956  1.00  0.00    -0.058 SA
HETATM   16  C2  UNL     1      -2.221   4.282  -1.396  1.00  0.00     0.111 A 
HETATM   17  C1  UNL     1      -2.204   4.082   0.040  1.00  0.00     0.171 A 
HETATM   18  N3  UNL     1      -1.564   3.008   0.440  1.00  0.00    -0.198 NA
BRANCH  17  19
HETATM   19  O1  UNL     1      -2.761   4.848   1.087  1.00  0.00    -0.344 OA
HETATM   20  H1  UNL     1      -3.767   4.959   1.160  1.00  0.00     0.219 HD
ENDBRANCH  17  19
ENDBRANCH   1  14
BRANCH   3  21
HETATM   21  C5  UNL     1       3.066  -0.279   0.503  1.00  0.00    -0.010 A 
HETATM   22  C6  UNL     1       4.011   0.692   0.279  1.00  0.00     0.015 A 
HETATM   23  C7  UNL     1       5.336   0.371   0.538  1.00  0.00     0.024 A 
HETATM   24  C8  UNL     1       5.731  -0.872   1.004  1.00  0.00     0.034 A 
HETATM   25 CL1  UNL     1       7.391  -1.279   1.330  1.00  0.00    -0.084 Cl
HETATM   26  C9  UNL     1       4.780  -1.855   1.230  1.00  0.00     0.024 A 
HETATM   27  C10 UNL     1       3.451  -1.524   0.968  1.00  0.00     0.015 A 
ENDBRANCH   3  21
TORSDOF 4
