REMARK  4 active torsions:
REMARK  status: ('A' for Active; 'I' for Inactive)
REMARK    1  A    between atoms: C3_3  and  C4_4 
REMARK    2  A    between atoms: C5_6  and  C6_7 
REMARK    3  A    between atoms: C6_7  and  C7_8 
REMARK    4  A    between atoms: C14_18  and  O1_19 
ROOT
HETATM    1  C6  UNL     1      -0.799  -0.252  -0.332  1.00  0.00     0.148 C 
HETATM    2  N1  UNL     1      -0.554  -0.439  -1.730  1.00  0.00    -0.355 N 
HETATM    3  C13 UNL     1      -1.780  -0.957  -2.410  1.00  0.00     0.200 A 
HETATM    4  N2  UNL     1      -3.009  -1.467  -2.714  1.00  0.00    -0.180 NA
HETATM    5  C14 UNL     1      -3.902  -1.808  -1.648  1.00  0.00     0.217 A 
HETATM    6  C15 UNL     1      -3.094  -1.451  -0.578  1.00  0.00     0.177 A 
HETATM    7  S1  UNL     1      -3.335  -1.599  -2.608  1.00  0.00    -0.059 SA
HETATM    8  N3  UNL     1      -1.937  -0.957   0.240  1.00  0.00    -0.365 N 
HETATM    9  H11 UNL     1      -0.124  -0.481  -2.667  1.00  0.00     0.159 HD
HETATM   10  H13 UNL     1      -2.427  -1.346   1.044  1.00  0.00     0.158 HD
ENDROOT
BRANCH   1  11
HETATM   11  C5  UNL     1       0.365  -0.881   0.401  1.00  0.00     0.050 C 
HETATM   12  C4  UNL     1       1.528  -0.576  -0.093  1.00  0.00     0.011 C 
HETATM   13 BR1  UNL     1       2.023   0.512  -1.547  1.00  0.00    -0.051 Br
BRANCH  12  14
HETATM   14  C3  UNL     1       2.770  -1.073   0.461  1.00  0.00     0.014 C 
HETATM   15  C2  UNL     1       4.061  -0.991   0.243  1.00  0.00    -0.030 C 
HETATM   16  C1  UNL     1       5.224  -1.573   0.912  1.00  0.00     0.036 C 
ENDBRANCH  12  14
ENDBRANCH   1  11
BRANCH   1  17
HETATM   17  C7  UNL     1      -0.815   1.177   0.066  1.00  0.00    -0.006 A 
HETATM   18  C8  UNL     1      -0.922   2.294  -0.722  1.00  0.00     0.013 A 
HETATM   19  C9  UNL     1      -0.936   3.542  -0.154  1.00  0.00     0.024 A 
HETATM   20  C10 UNL     1      -0.842   3.644   1.214  1.00  0.00     0.034 A 
HETATM   21 CL1  UNL     1      -0.862   5.248   1.925  1.00  0.00    -0.084 Cl
HETATM   22  C11 UNL     1      -0.729   2.555   2.089  1.00  0.00     0.024 A 
HETATM   23  C12 UNL     1      -0.722   1.319   1.429  1.00  0.00     0.013 A 
ENDBRANCH   1  17
BRANCH   5  24
HETATM   24  O1  UNL     1      -4.757  -2.131  -0.437  1.00  0.00    -0.363 OA
HETATM   25  H12 UNL     1      -5.100  -3.042  -0.319  1.00  0.00     0.213 HD
ENDBRANCH   5  24
TORSDOF 4
