REMARK  4 active torsions:
REMARK  status: ('A' for Active; 'I' for Inactive)
REMARK    1  A    between atoms: O1_1  and  C1_2 
REMARK    2  A    between atoms: C3_5  and  N1_6 
REMARK    3  A    between atoms: C4_8  and  C5_9 
REMARK    4  A    between atoms: C11_16  and  C12_17 
ROOT
HETATM    1  N1  UNL     1      -0.252   0.958   0.156  1.00  0.00    -0.237 N 
HETATM    2  N2  UNL     1      -1.132  -0.001   0.681  1.00  0.00    -0.178 NA
HETATM    3  C4  UNL     1      -1.297  -0.974  -0.178  1.00  0.00     0.046 C 
HETATM    4  C10 UNL     1      -0.475  -0.698  -1.412  1.00  0.00     0.089 C 
HETATM    5  C11 UNL     1       0.482   0.383  -0.954  1.00  0.00     0.151 C 
ENDROOT
BRANCH   1   6
HETATM    6  C3  UNL     1      -0.058   2.327   0.602  1.00  0.00     0.192 A 
HETATM    7  S1  UNL     1      -1.196   3.544  -0.313  1.00  0.00    -0.058 SA
HETATM    8  C2  UNL     1      -0.526   4.964   0.616  1.00  0.00     0.111 A 
HETATM    9  C1  UNL     1       0.448   4.295   1.467  1.00  0.00     0.171 A 
HETATM   10  N3  UNL     1       0.538   2.987   1.318  1.00  0.00    -0.198 NA
BRANCH   9  11
HETATM   11  O1  UNL     1       1.311   4.861   2.433  1.00  0.00    -0.344 OA
HETATM   12  H1  UNL     1       1.653   5.816   2.329  1.00  0.00     0.219 HD
ENDBRANCH   9  11
ENDBRANCH   1   6
BRANCH   5  13
HETATM   13  C12 UNL     1       1.758  -0.244  -0.568  1.00  0.00    -0.033 A 
HETATM   14  C13 UNL     1       1.896  -1.077   0.520  1.00  0.00     0.011 A 
HETATM   15  C14 UNL     1       3.135  -1.639   0.830  1.00  0.00     0.019 A 
HETATM   16  C15 UNL     1       4.252  -1.371   0.051  1.00  0.00     0.011 A 
HETATM   17 BR1  UNL     1       5.980  -2.095   0.400  1.00  0.00    -0.051 Br
HETATM   18  C16 UNL     1       4.129  -0.539  -1.042  1.00  0.00     0.019 A 
HETATM   19  C17 UNL     1       2.892   0.004  -1.326  1.00  0.00     0.011 A 
ENDBRANCH   5  13
BRANCH   3  20
HETATM   20  C5  UNL     1      -2.121  -2.208  -0.092  1.00  0.00     0.082 A 
HETATM   21  C6  UNL     1      -2.870  -2.346   1.164  1.00  0.00    -0.011 A 
HETATM   22  C7  UNL     1      -4.177  -2.372   0.962  1.00  0.00     0.020 A 
HETATM   23  C8  UNL     1      -4.416  -2.251  -0.488  1.00  0.00     0.031 A 
HETATM   24 CL1  UNL     1      -5.815  -2.205  -1.545  1.00  0.00    -0.085 Cl
HETATM   25  C9  UNL     1      -3.237  -2.156  -1.102  1.00  0.00     0.011 A 
ENDBRANCH   3  20
TORSDOF 4
