REMARK  5 active torsions:
REMARK  status: ('A' for Active; 'I' for Inactive)
REMARK    1  A    between atoms: C9_9  and  N1_10 
REMARK    2  A    between atoms: N1_10  and  N2_11 
REMARK    3  A    between atoms: N1_10  and  C16_19 
REMARK    4  A    between atoms: N2_11  and  C10_12 
REMARK    5  A    between atoms: C17_21  and  O1_22 
ROOT
HETATM    1  N1  UNL     1      -0.382   0.861  -0.709  1.00  0.00    -0.259 N 
ENDROOT
BRANCH   1   2
HETATM    2  C9  UNL     1       0.992   0.558  -1.131  1.00  0.00     0.144 C 
HETATM    3  C5  UNL     1       1.501  -0.708  -0.603  1.00  0.00    -0.026 A 
HETATM    4  C4  UNL     1       1.153  -2.114  -0.310  1.00  0.00     0.011 A 
HETATM    5  C6  UNL     1       2.765  -0.604  -0.228  1.00  0.00    -0.040 A 
HETATM    6  C3  UNL     1       2.149  -2.796   0.204  1.00  0.00     0.012 A 
HETATM    7  C2  UNL     1       3.261  -1.872   0.295  1.00  0.00    -0.039 A 
HETATM    8  C1  UNL     1       4.463  -2.166   0.763  1.00  0.00     0.024 C 
HETATM    9  C7  UNL     1       3.226   0.764  -0.475  1.00  0.00     0.042 C 
HETATM   10  C8  UNL     1       1.958   1.574  -0.587  1.00  0.00     0.037 C 
ENDBRANCH   1   2
BRANCH   1  11
HETATM   11  N2  UNL     1      -1.425  -0.016  -1.018  1.00  0.00    -0.294 N 
HETATM   12  H10 UNL     1      -1.484   0.259  -2.044  1.00  0.00     0.187 HD
BRANCH  11  13
HETATM   13  C10 UNL     1      -2.268  -0.983  -0.461  1.00  0.00     0.070 A 
HETATM   14  C11 UNL     1      -3.197  -1.599  -1.282  1.00  0.00     0.033 A 
HETATM   15  C12 UNL     1      -3.977  -2.533  -0.638  1.00  0.00     0.002 A 
HETATM   16  C13 UNL     1      -3.892  -2.870   0.694  1.00  0.00     0.002 A 
HETATM   17  C14 UNL     1      -2.944  -2.217   1.450  1.00  0.00     0.026 A 
HETATM   18  C15 UNL     1      -2.123  -1.260   0.859  1.00  0.00     0.062 A 
HETATM   19 CL1  UNL     1      -0.989  -0.534   1.948  1.00  0.00    -0.082 Cl
ENDBRANCH  11  13
ENDBRANCH   1  11
BRANCH   1  20
HETATM   20  C16 UNL     1      -0.578   2.119   0.033  1.00  0.00     0.190 A 
HETATM   21  N3  UNL     1      -0.620   2.708   1.032  1.00  0.00    -0.198 NA
HETATM   22  C17 UNL     1      -0.875   4.000   1.089  1.00  0.00     0.171 A 
HETATM   23  C18 UNL     1      -1.128   4.798  -0.149  1.00  0.00     0.111 A 
HETATM   24  S1  UNL     1      -0.932   3.360  -1.366  1.00  0.00    -0.058 SA
BRANCH  22  25
HETATM   25  O1  UNL     1      -0.898   4.599   2.370  1.00  0.00    -0.344 OA
HETATM   26  H15 UNL     1      -1.555   5.336   2.587  1.00  0.00     0.219 HD
ENDBRANCH  22  25
ENDBRANCH   1  20
TORSDOF 5
