REMARK  1 active torsions:
REMARK  status: ('A' for Active; 'I' for Inactive)
REMARK    1  A    between atoms: C7_7  and  C8_8 
ROOT
HETATM    1  C1  UNL     1      -3.663  -1.311  -0.689  1.00  0.00     0.068 C 
HETATM    2  C2  UNL     1      -2.634  -0.240  -0.723  1.00  0.00     0.004 A 
HETATM    3  C3  UNL     1      -2.620   0.595  -1.751  1.00  0.00     0.024 A 
HETATM    4  C4  UNL     1      -1.642   1.672  -1.856  1.00  0.00     0.000 A 
HETATM    5  C5  UNL     1      -0.741   1.798  -0.863  1.00  0.00     0.005 A 
HETATM    6  C6  UNL     1      -0.642   0.949   0.335  1.00  0.00     0.161 A 
HETATM    7  C7  UNL     1       0.658   0.426   0.685  1.00  0.00     0.068 C 
HETATM    8  N1  UNL     1       0.955   0.111   1.922  1.00  0.00    -0.260 NA
HETATM    9  C14 UNL     1       0.078   0.232   3.062  1.00  0.00     0.277 C 
HETATM   10  C15 UNL     1       0.786  -0.051   4.303  1.00  0.00     0.097 C 
HETATM   11  N2  UNL     1       1.340  -0.294   5.291  1.00  0.00    -0.194 NA
HETATM   12  S1  UNL     1      -1.270  -0.936   2.908  1.00  0.00    -0.108 SA
HETATM   13  C16 UNL     1      -1.910  -1.146   1.267  1.00  0.00     0.201 C 
HETATM   14  N3  UNL     1      -1.653  -0.099   0.330  1.00  0.00    -0.362 N 
ENDROOT
BRANCH   7  15
HETATM   15  C8  UNL     1       1.813   0.152  -0.161  1.00  0.00    -0.009 A 
HETATM   16  C9  UNL     1       1.873   0.347  -1.521  1.00  0.00     0.015 A 
HETATM   17  C10 UNL     1       2.962   0.096  -2.325  1.00  0.00     0.024 A 
HETATM   18  C11 UNL     1       4.111  -0.394  -1.748  1.00  0.00     0.034 A 
HETATM   19 CL1  UNL     1       5.561  -0.754  -2.655  1.00  0.00    -0.084 Cl
HETATM   20  C12 UNL     1       4.103  -0.607  -0.388  1.00  0.00     0.024 A 
HETATM   21  C13 UNL     1       2.996  -0.338   0.343  1.00  0.00     0.015 A 
ENDBRANCH   7  15
TORSDOF 1
