REMARK  5 active torsions:
REMARK  status: ('A' for Active; 'I' for Inactive)
REMARK    1  A    between atoms: N1_1  and  C1_2 
REMARK    2  A    between atoms: C1_2  and  O1_3 
REMARK    3  A    between atoms: C2_4  and  N2_5 
REMARK    4  A    between atoms: C3_7  and  C4_8 
REMARK    5  A    between atoms: C11_16  and  C12_17 
ROOT
HETATM    1  N2  UNL     1      -0.741   0.846  -0.065  1.00  0.00    -0.268 N 
HETATM    2  N3  UNL     1       0.644   1.136  -0.160  1.00  0.00    -0.176 NA
HETATM    3  C3  UNL     1       1.335   0.056  -0.016  1.00  0.00     0.067 C 
HETATM    4  C10 UNL     1       0.400  -1.104   0.201  1.00  0.00     0.094 C 
HETATM    5  C11 UNL     1      -0.845  -0.555  -0.461  1.00  0.00     0.148 C 
ENDROOT
BRANCH   1   6
HETATM    6  C2  UNL     1      -1.618   1.883   0.353  1.00  0.00     0.162 C 
HETATM    7  C1  UNL     1      -1.510   3.087  -0.186  1.00  0.00     0.129 C 
BRANCH   7   8
HETATM    8  N1  UNL     1      -0.451   3.127  -1.164  1.00  0.00    -0.282 NA
HETATM    9  H1  UNL     1      -0.115   3.559  -2.049  1.00  0.00     0.126 HD
HETATM   10  H2  UNL     1      -0.542   3.784  -1.988  1.00  0.00     0.126 HD
ENDBRANCH   7   8
BRANCH   7  11
HETATM   11  O1  UNL     1      -2.336   4.126   0.185  1.00  0.00    -0.350 OA
HETATM   12  H3  UNL     1      -2.242   4.647   1.052  1.00  0.00     0.218 HD
ENDBRANCH   7  11
ENDBRANCH   1   6
BRANCH   5  13
HETATM   13  C12 UNL     1      -2.087  -1.202  -0.037  1.00  0.00    -0.033 A 
HETATM   14  C13 UNL     1      -2.102  -2.468   0.537  1.00  0.00     0.011 A 
HETATM   15  C14 UNL     1      -3.313  -3.051   0.928  1.00  0.00     0.019 A 
HETATM   16  C15 UNL     1      -4.500  -2.387   0.753  1.00  0.00     0.011 A 
HETATM   17 BR1  UNL     1      -6.168  -3.183   1.289  1.00  0.00    -0.051 Br
HETATM   18  C16 UNL     1      -4.475  -1.118   0.177  1.00  0.00     0.019 A 
HETATM   19  C17 UNL     1      -3.285  -0.542  -0.209  1.00  0.00     0.011 A 
ENDBRANCH   5  13
BRANCH   3  20
HETATM   20  C4  UNL     1       2.790  -0.067  -0.049  1.00  0.00    -0.010 A 
HETATM   21  C5  UNL     1       3.437  -1.266   0.116  1.00  0.00     0.015 A 
HETATM   22  C6  UNL     1       4.826  -1.291   0.070  1.00  0.00     0.024 A 
HETATM   23  C7  UNL     1       5.600  -0.146  -0.138  1.00  0.00     0.034 A 
HETATM   24 CL1  UNL     1       7.344  -0.278  -0.181  1.00  0.00    -0.084 Cl
HETATM   25  C8  UNL     1       4.923   1.043  -0.301  1.00  0.00     0.024 A 
HETATM   26  C9  UNL     1       3.552   1.071  -0.255  1.00  0.00     0.015 A 
ENDBRANCH   3  20
TORSDOF 5
