REMARK  2 active torsions:
REMARK  status: ('A' for Active; 'I' for Inactive)
REMARK    1  A    between atoms: C5_5  and  C6_6 
REMARK    2  A    between atoms: C11_12  and  C12_13 
ROOT
HETATM    1  C6  UNL     1       0.866  -1.159   0.262  1.00  0.00    -0.015 A 
HETATM    2  C7  UNL     1       1.089  -2.544   0.310  1.00  0.00     0.036 A 
HETATM    3  C8  UNL     1       0.161  -3.444   0.794  1.00  0.00     0.035 A 
HETATM    4 CL1  UNL     1       0.428  -5.173   0.860  1.00  0.00    -0.084 Cl
HETATM    5  C9  UNL     1      -1.039  -2.944   1.249  1.00  0.00     0.024 A 
HETATM    6  C10 UNL     1      -1.231  -1.596   1.191  1.00  0.00     0.012 A 
HETATM    7  C11 UNL     1      -0.330  -0.652   0.713  1.00  0.00    -0.012 A 
ENDROOT
BRANCH   7   8
HETATM    8  C12 UNL     1      -0.594   0.808   0.657  1.00  0.00     0.109 C 
HETATM    9  C13 UNL     1       0.273   1.687   1.496  1.00  0.00     0.052 C 
HETATM   10  C14 UNL     1      -0.384   1.186  -0.742  1.00  0.00     0.157 C 
HETATM   11  N1  UNL     1      -1.001   0.928  -1.876  1.00  0.00    -0.140 NA
HETATM   12  O1  UNL     1      -2.136   0.105  -1.820  1.00  0.00    -0.194 OA
HETATM   13  C15 UNL     1      -3.224   0.239  -0.923  1.00  0.00     0.196 A 
HETATM   14  C16 UNL     1      -4.458   0.007  -1.249  1.00  0.00     0.046 A 
HETATM   15  N2  UNL     1      -2.992   0.648   0.422  1.00  0.00    -0.205 N 
HETATM   16  C17 UNL     1      -5.541   0.170  -0.250  1.00  0.00     0.131 A 
HETATM   17  S1  UNL     1      -4.592   0.758   1.182  1.00  0.00    -0.024 SA
HETATM   18  N3  UNL     1      -1.915   0.942   1.174  1.00  0.00    -0.298 N 
HETATM   19  C18 UNL     1      -2.108   0.999   2.546  1.00  0.00     0.174 C 
ENDBRANCH   7   8
BRANCH   1  20
HETATM   20  C5  UNL     1       2.031  -0.478  -0.266  1.00  0.00    -0.025 A 
HETATM   21  C4  UNL     1       2.980   0.403   0.210  1.00  0.00     0.013 A 
HETATM   22  C3  UNL     1       3.976   0.919  -0.581  1.00  0.00     0.007 A 
HETATM   23  C2  UNL     1       4.105   0.595  -1.914  1.00  0.00    -0.062 A 
HETATM   24  C1  UNL     1       5.238   1.248  -2.604  1.00  0.00     0.048 C 
HETATM   25  C20 UNL     1       3.178  -0.284  -2.435  1.00  0.00     0.007 A 
HETATM   26  C19 UNL     1       2.176  -0.800  -1.631  1.00  0.00     0.013 A 
ENDBRANCH   1  20
TORSDOF 2
