REMARK  4 active torsions:
REMARK  status: ('A' for Active; 'I' for Inactive)
REMARK    1  A    between atoms: C3_3  and  C4_4 
REMARK    2  A    between atoms: C6_6  and  C7_7 
REMARK    3  A    between atoms: N2_15  and  C13_16 
REMARK    4  A    between atoms: C14_18  and  O1_19 
ROOT
HETATM    1  C1  UNL     1       3.043  -3.040  -0.300  1.00  0.00     0.012 C 
HETATM    2  C2  UNL     1       1.922  -2.651  -0.537  1.00  0.00    -0.115 C 
HETATM    3  C3  UNL     1       0.558  -2.204  -0.824  1.00  0.00     0.120 C 
ENDROOT
BRANCH   3   4
HETATM    4  C4  UNL     1       0.514  -0.777  -1.291  1.00  0.00     0.129 C 
HETATM    5  C5  UNL     1      -0.891  -0.312  -1.589  1.00  0.00     0.090 C 
HETATM    6  C6  UNL     1      -1.346   0.200  -0.251  1.00  0.00     0.067 C 
HETATM    7  N1  UNL     1      -0.306   0.438   0.464  1.00  0.00    -0.174 NA
HETATM    8  N2  UNL     1       0.881   0.149  -0.217  1.00  0.00    -0.249 N 
BRANCH   6   9
HETATM    9  C7  UNL     1      -2.735   0.392   0.154  1.00  0.00    -0.010 A 
HETATM   10  C8  UNL     1      -3.000   0.870   1.415  1.00  0.00     0.015 A 
HETATM   11  C9  UNL     1      -4.325   1.037   1.761  1.00  0.00     0.024 A 
HETATM   12  C10 UNL     1      -5.372   0.745   0.897  1.00  0.00     0.034 A 
HETATM   13 CL1  UNL     1      -7.059   0.957   1.336  1.00  0.00    -0.084 Cl
HETATM   14  C11 UNL     1      -5.111   0.264  -0.370  1.00  0.00     0.024 A 
HETATM   15  C12 UNL     1      -3.766   0.101  -0.705  1.00  0.00     0.015 A 
ENDBRANCH   6   9
BRANCH   8  16
HETATM   16  C13 UNL     1       2.192   0.673   0.096  1.00  0.00     0.135 A 
HETATM   17  N3  UNL     1       2.802  -0.005   1.011  1.00  0.00    -0.209 NA
HETATM   18  C14 UNL     1       4.095   0.311   1.486  1.00  0.00     0.170 A 
HETATM   19  C15 UNL     1       4.693   1.364   0.949  1.00  0.00     0.103 A 
HETATM   20  S1  UNL     1       4.097   2.476  -0.320  1.00  0.00    -0.130 SA
HETATM   21  C16 UNL     1       2.445   1.867  -0.756  1.00  0.00     0.159 A 
BRANCH  18  22
HETATM   22  O1  UNL     1       4.773  -0.402   2.468  1.00  0.00    -0.344 OA
HETATM   23  H11 UNL     1       5.655  -0.872   2.321  1.00  0.00     0.219 HD
ENDBRANCH  18  22
ENDBRANCH   8  16
ENDBRANCH   3   4
TORSDOF 4
