REMARK  5 active torsions:
REMARK  status: ('A' for Active; 'I' for Inactive)
REMARK    1  A    between atoms: O1_2  and  C2_3 
REMARK    2  A    between atoms: C5_6  and  C6_7 
REMARK    3  A    between atoms: C8_9  and  C9_10 
REMARK    4  A    between atoms: N2_18  and  C15_19 
REMARK    5  A    between atoms: C16_21  and  O2_22 
ROOT
HETATM    1  C6  UNL     1       0.005  -0.703   1.272  1.00  0.00     0.151 C 
HETATM    2  C7  UNL     1      -1.245   0.139   1.389  1.00  0.00     0.094 C 
HETATM    3  C8  UNL     1      -1.955  -0.103   0.107  1.00  0.00     0.067 C 
HETATM    4  N1  UNL     1      -1.406  -1.086  -0.549  1.00  0.00    -0.173 NA
HETATM    5  N2  UNL     1      -0.328  -1.589   0.176  1.00  0.00    -0.236 N 
ENDROOT
BRANCH   1   6
HETATM    6  C5  UNL     1       1.201   0.121   0.971  1.00  0.00    -0.033 A 
HETATM    7  C4  UNL     1       1.143   0.644  -0.303  1.00  0.00     0.012 A 
HETATM    8  C3  UNL     1       2.168   1.455  -0.802  1.00  0.00     0.037 A 
HETATM    9  C2  UNL     1       3.250   1.716   0.034  1.00  0.00     0.068 A 
HETATM   10  C19 UNL     1       3.302   1.188   1.311  1.00  0.00     0.037 A 
HETATM   11  C18 UNL     1       2.290   0.398   1.778  1.00  0.00     0.012 A 
BRANCH   9  12
HETATM   12  O1  UNL     1       4.266   2.521  -0.464  1.00  0.00    -0.356 OA
HETATM   13  C1  UNL     1       5.397   2.843   0.298  1.00  0.00     0.210 C 
ENDBRANCH   9  12
ENDBRANCH   1   6
BRANCH   5  14
HETATM   14  C15 UNL     1       0.221  -2.820  -0.273  1.00  0.00     0.192 A 
HETATM   15  N3  UNL     1       0.117  -3.630  -1.062  1.00  0.00    -0.198 NA
HETATM   16  C16 UNL     1       0.827  -4.730  -1.229  1.00  0.00     0.171 A 
HETATM   17  C17 UNL     1       1.822  -4.956  -0.364  1.00  0.00     0.111 A 
HETATM   18  S1  UNL     1       1.692  -3.475   0.739  1.00  0.00    -0.058 SA
BRANCH  16  19
HETATM   19  O2  UNL     1       0.520  -5.607  -2.291  1.00  0.00    -0.344 OA
HETATM   20  H13 UNL     1       0.054  -6.484  -2.043  1.00  0.00     0.219 HD
ENDBRANCH  16  19
ENDBRANCH   5  14
BRANCH   3  21
HETATM   21  C9  UNL     1      -3.121   0.684  -0.335  1.00  0.00    -0.010 A 
HETATM   22  C10 UNL     1      -3.637   1.718   0.435  1.00  0.00     0.015 A 
HETATM   23  C11 UNL     1      -4.711   2.476   0.076  1.00  0.00     0.024 A 
HETATM   24  C12 UNL     1      -5.320   2.187  -1.139  1.00  0.00     0.034 A 
HETATM   25 CL1  UNL     1      -6.716   3.169  -1.610  1.00  0.00    -0.084 Cl
HETATM   26  C13 UNL     1      -4.841   1.165  -1.941  1.00  0.00     0.024 A 
HETATM   27  C14 UNL     1      -3.736   0.409  -1.539  1.00  0.00     0.015 A 
ENDBRANCH   3  21
TORSDOF 5
