REMARK  0 active torsions:
REMARK  status: ('A' for Active; 'I' for Inactive)
ROOT
HETATM    1  O1  UNL     1       1.788   1.546  -0.840  1.00  0.00     0.000 OA
HETATM    2  C1  UNL     1       2.579   0.805   0.032  1.00  0.00     0.092 A 
HETATM    3  C2  UNL     1       2.500   2.060   0.429  1.00  0.00     0.103 A 
HETATM    4  S1  UNL     1       1.481   2.993  -0.700  1.00  0.00    -0.003 SA
HETATM    5  N1  UNL     1      -0.208   2.445  -0.615  1.00  0.00    -0.230 N 
HETATM    6  N2  UNL     1      -1.140   1.989  -1.620  1.00  0.00    -0.170 NA
HETATM    7  C3  UNL     1      -1.863   1.107  -0.957  1.00  0.00     0.058 C 
HETATM    8  C4  UNL     1      -2.299  -0.305  -0.771  1.00  0.00     0.040 C 
HETATM    9  C5  UNL     1      -1.497  -0.817   0.203  1.00  0.00    -0.035 C 
HETATM   10  C6  UNL     1      -1.051  -2.202  -0.066  1.00  0.00     0.011 C 
HETATM   11  C7  UNL     1       0.096  -2.756   0.349  1.00  0.00     0.000 C 
HETATM   12  C8  UNL     1       0.673  -4.084   0.172  1.00  0.00    -0.006 C 
HETATM   13  C9  UNL     1       1.608  -4.228  -0.728  1.00  0.00    -0.104 C 
HETATM   14  B1  UNL     1       2.807  -2.858  -0.898  1.00  0.00     0.234 B 
HETATM   15  C10 UNL     1       1.905  -1.190  -1.012  1.00  0.00     0.031 C 
HETATM   16  N3  UNL     1       2.777  -0.595  -0.249  1.00  0.00    -0.274 NA
HETATM   17  C11 UNL     1      -1.032  -0.166   1.466  1.00  0.00     0.009 C 
HETATM   18  C12 UNL     1      -0.559   1.102   1.362  1.00  0.00     0.002 C 
HETATM   19  C13 UNL     1      -0.948   2.386   0.668  1.00  0.00     0.146 C 
HETATM   20  C14 UNL     1      -2.349   2.166   0.031  1.00  0.00     0.093 C 
HETATM   21  H1  UNL     1       1.538   1.191  -1.772  1.00  0.00     0.000 HD
ENDROOT
TORSDOF 0
