REMARK  4 active torsions:
REMARK  status: ('A' for Active; 'I' for Inactive)
REMARK    1  A    between atoms: O1_1  and  C1_2 
REMARK    2  A    between atoms: C4_5  and  C5_6 
REMARK    3  A    between atoms: N2_18  and  C15_19 
REMARK    4  A    between atoms: C16_21  and  O2_22 
ROOT
HETATM    1  C5  UNL     1      -0.740  -0.170   1.262  1.00  0.00     0.146 C 
HETATM    2  C6  UNL     1       0.024  -1.418   1.577  1.00  0.00     0.038 C 
HETATM    3  C7  UNL     1       1.095  -1.751   0.560  1.00  0.00     0.064 C 
HETATM    4  C8  UNL     1       1.899  -0.546   0.230  1.00  0.00     0.065 C 
HETATM    5  C9  UNL     1       3.291  -0.650  -0.145  1.00  0.00    -0.010 A 
HETATM    6  C10 UNL     1       3.992   0.501  -0.441  1.00  0.00     0.015 A 
HETATM    7  C11 UNL     1       5.335   0.509  -0.813  1.00  0.00     0.024 A 
HETATM    8  C12 UNL     1       5.987  -0.697  -0.887  1.00  0.00     0.034 A 
HETATM    9 CL1  UNL     1       7.672  -0.748  -1.348  1.00  0.00    -0.084 Cl
HETATM   10  C13 UNL     1       5.299  -1.864  -0.593  1.00  0.00     0.024 A 
HETATM   11  C14 UNL     1       3.959  -1.855  -0.223  1.00  0.00     0.015 A 
HETATM   12  N1  UNL     1       1.364   0.626   0.275  1.00  0.00    -0.173 NA
HETATM   13  N2  UNL     1       0.029   0.851   0.624  1.00  0.00    -0.237 N 
ENDROOT
BRANCH   1  14
HETATM   14  C4  UNL     1      -1.977  -0.525   0.483  1.00  0.00    -0.033 A 
HETATM   15  C3  UNL     1      -1.990  -0.725  -0.882  1.00  0.00     0.012 A 
HETATM   16  C2  UNL     1      -3.180  -1.051  -1.525  1.00  0.00     0.037 A 
HETATM   17  C1  UNL     1      -4.365  -1.182  -0.821  1.00  0.00     0.065 A 
HETATM   18  C19 UNL     1      -4.387  -0.991   0.529  1.00  0.00     0.037 A 
HETATM   19  C18 UNL     1      -3.200  -0.673   1.118  1.00  0.00     0.012 A 
BRANCH  17  20
HETATM   20  O1  UNL     1      -5.516  -1.510  -1.522  1.00  0.00    -0.361 OA
HETATM   21  H1  UNL     1      -6.400  -1.388  -1.074  1.00  0.00     0.217 HD
ENDBRANCH  17  20
ENDBRANCH   1  14
BRANCH  13  22
HETATM   22  C15 UNL     1      -0.648   2.090   0.373  1.00  0.00     0.192 A 
HETATM   23  N3  UNL     1      -1.837   2.479   0.613  1.00  0.00    -0.198 NA
HETATM   24  C16 UNL     1      -2.176   3.715   0.254  1.00  0.00     0.171 A 
HETATM   25  C17 UNL     1      -1.239   4.607  -0.390  1.00  0.00     0.111 A 
HETATM   26  S1  UNL     1       0.241   3.439  -0.429  1.00  0.00    -0.058 SA
BRANCH  24  27
HETATM   27  O2  UNL     1      -3.523   3.981   0.591  1.00  0.00    -0.344 OA
HETATM   28  H13 UNL     1      -4.296   3.568   0.105  1.00  0.00     0.219 HD
ENDBRANCH  24  27
ENDBRANCH  13  22
TORSDOF 4
