REMARK  3 active torsions:
REMARK  status: ('A' for Active; 'I' for Inactive)
REMARK    1  A    between atoms: O1_2  and  C2_3 
REMARK    2  A    between atoms: C5_6  and  C6_7 
REMARK    3  A    between atoms: C8_10  and  C9_11 
ROOT
HETATM    1  C6  UNL     1       0.148  -1.327  -0.030  1.00  0.00     0.044 C 
HETATM    2  C7  UNL     1      -0.258  -1.589  -1.452  1.00  0.00     0.158 C 
HETATM    3  N1  UNL     1      -1.636  -1.173  -1.494  1.00  0.00    -0.293 NA
HETATM    4  C8  UNL     1      -1.991  -0.412  -0.545  1.00  0.00     0.039 C 
HETATM    5  C15 UNL     1      -0.816  -0.189   0.349  1.00  0.00     0.070 C 
ENDROOT
BRANCH   1   6
HETATM    6  C5  UNL     1       1.530  -0.775   0.006  1.00  0.00    -0.052 A 
HETATM    7  C4  UNL     1       1.738   0.336  -0.799  1.00  0.00     0.010 A 
HETATM    8  C3  UNL     1       2.974   0.966  -0.875  1.00  0.00     0.037 A 
HETATM    9  C2  UNL     1       4.025   0.458  -0.117  1.00  0.00     0.068 A 
HETATM   10  C17 UNL     1       3.797  -0.651   0.680  1.00  0.00     0.037 A 
HETATM   11  C16 UNL     1       2.573  -1.278   0.758  1.00  0.00     0.010 A 
BRANCH   9  12
HETATM   12  O1  UNL     1       5.256   1.091  -0.196  1.00  0.00    -0.356 OA
HETATM   13  C1  UNL     1       6.313   0.556   0.586  1.00  0.00     0.210 C 
ENDBRANCH   9  12
ENDBRANCH   1   6
BRANCH   4  14
HETATM   14  C9  UNL     1      -3.327   0.147  -0.358  1.00  0.00    -0.012 A 
HETATM   15  C10 UNL     1      -4.311  -0.162  -1.279  1.00  0.00     0.015 A 
HETATM   16  C11 UNL     1      -5.585   0.353  -1.127  1.00  0.00     0.024 A 
HETATM   17  C12 UNL     1      -5.845   1.183  -0.031  1.00  0.00     0.034 A 
HETATM   18 CL1  UNL     1      -7.430   1.886   0.250  1.00  0.00    -0.084 Cl
HETATM   19  C13 UNL     1      -4.859   1.502   0.907  1.00  0.00     0.024 A 
HETATM   20  C14 UNL     1      -3.583   0.965   0.723  1.00  0.00     0.015 A 
ENDBRANCH   4  14
TORSDOF 3
