REMARK  2 active torsions:
REMARK  status: ('A' for Active; 'I' for Inactive)
REMARK    1  A    between atoms: O1_2  and  C2_3 
REMARK    2  A    between atoms: C5_6  and  C6_7 
ROOT
HETATM    1  C6  UNL     1       0.682   1.191  -0.536  1.00  0.00     0.113 C 
HETATM    2  C7  UNL     1      -0.334   0.453   0.192  1.00  0.00     0.070 C 
HETATM    3  C8  UNL     1      -1.702   0.986  -0.131  1.00  0.00     0.000 C 
HETATM    4  S1  UNL     1      -1.342   2.005  -1.466  1.00  0.00    -0.127 SA
HETATM    5  N1  UNL     1       0.185   0.691  -1.849  1.00  0.00    -0.249 NA
HETATM    6  C9  UNL     1      -0.237  -0.434  -1.089  1.00  0.00     0.107 C 
HETATM    7  C10 UNL     1      -1.548  -1.144  -1.229  1.00  0.00     0.222 C 
HETATM    8  O2  UNL     1      -1.875  -1.956  -0.128  1.00  0.00    -0.278 OA
HETATM    9  N2  UNL     1      -3.170  -1.749   0.365  1.00  0.00    -0.266 N 
HETATM   10  C11 UNL     1      -3.797  -0.414   0.462  1.00  0.00     0.067 A 
HETATM   11  C12 UNL     1      -5.101  -0.314   0.732  1.00  0.00     0.056 A 
HETATM   12  C13 UNL     1      -5.645   0.947   0.716  1.00  0.00     0.036 A 
HETATM   13 CL1  UNL     1      -7.362   1.007   1.078  1.00  0.00    -0.084 Cl
HETATM   14  C14 UNL     1      -4.940   2.099   0.442  1.00  0.00     0.025 A 
HETATM   15  C15 UNL     1      -3.597   2.144   0.149  1.00  0.00     0.016 A 
HETATM   16  C16 UNL     1      -3.168   0.854   0.196  1.00  0.00     0.006 A 
HETATM   17  H8  UNL     1      -1.794   2.753  -2.352  1.00  0.00     0.112 HD
HETATM   18  H12 UNL     1      -3.941  -2.338   0.726  1.00  0.00     0.194 HD
ENDROOT
BRANCH   1  19
HETATM   19  C5  UNL     1       2.085   0.677  -0.295  1.00  0.00    -0.039 A 
HETATM   20  C4  UNL     1       2.467   0.158   0.912  1.00  0.00     0.011 A 
HETATM   21  C3  UNL     1       3.738  -0.317   1.156  1.00  0.00     0.037 A 
HETATM   22  C2  UNL     1       4.633  -0.237   0.082  1.00  0.00     0.068 A 
HETATM   23  C18 UNL     1       4.264   0.283  -1.140  1.00  0.00     0.037 A 
HETATM   24  C17 UNL     1       2.977   0.751  -1.350  1.00  0.00     0.011 A 
BRANCH  22  25
HETATM   25  O1  UNL     1       5.944  -0.708   0.280  1.00  0.00    -0.356 OA
HETATM   26  C1  UNL     1       6.285  -1.235   1.549  1.00  0.00     0.210 C 
ENDBRANCH  22  25
ENDBRANCH   1  19
TORSDOF 2
