REMARK  4 active torsions:
REMARK  status: ('A' for Active; 'I' for Inactive)
REMARK    1  A    between atoms: O1_2  and  C2_3 
REMARK    2  A    between atoms: C5_6  and  C6_7 
REMARK    3  A    between atoms: C8_9  and  C9_10 
REMARK    4  A    between atoms: N2_18  and  C15_19 
ROOT
HETATM    1  C6  UNL     1      -0.118  -0.720  -0.496  1.00  0.00     0.150 C 
HETATM    2  C7  UNL     1       0.785   0.165   0.378  1.00  0.00     0.094 C 
HETATM    3  C8  UNL     1       2.057  -0.040  -0.403  1.00  0.00     0.067 C 
HETATM    4  N1  UNL     1       1.709  -0.269  -1.617  1.00  0.00    -0.175 NA
HETATM    5  N2  UNL     1       0.307  -0.246  -1.777  1.00  0.00    -0.254 N 
ENDROOT
BRANCH   1   6
HETATM    6  C5  UNL     1      -1.498  -0.432  -0.123  1.00  0.00    -0.033 A 
HETATM    7  C4  UNL     1      -2.505  -0.631  -1.046  1.00  0.00     0.012 A 
HETATM    8  C3  UNL     1      -3.842  -0.372  -0.745  1.00  0.00     0.037 A 
HETATM    9  C2  UNL     1      -4.188   0.103   0.522  1.00  0.00     0.068 A 
HETATM   10  C17 UNL     1      -3.187   0.306   1.453  1.00  0.00     0.037 A 
HETATM   11  C16 UNL     1      -1.873   0.041   1.126  1.00  0.00     0.012 A 
BRANCH   9  12
HETATM   12  O1  UNL     1      -5.537   0.311   0.672  1.00  0.00    -0.356 OA
HETATM   13  C1  UNL     1      -6.188   0.779   1.813  1.00  0.00     0.210 C 
ENDBRANCH   9  12
ENDBRANCH   1   6
BRANCH   5  14
HETATM   14  C15 UNL     1      -0.261   0.186  -3.011  1.00  0.00     0.219 C 
HETATM   15  N3  UNL     1      -0.122  -0.770  -3.837  1.00  0.00    -0.294 NA
HETATM   16  H14 UNL     1      -0.413  -0.814  -4.820  1.00  0.00     0.187 HD
ENDBRANCH   5  14
BRANCH   3  17
HETATM   17  C9  UNL     1       3.431   0.008   0.108  1.00  0.00    -0.010 A 
HETATM   18  C10 UNL     1       4.423  -0.217  -0.823  1.00  0.00     0.015 A 
HETATM   19  C11 UNL     1       5.740  -0.182  -0.392  1.00  0.00     0.024 A 
HETATM   20  C12 UNL     1       6.016   0.075   0.949  1.00  0.00     0.034 A 
HETATM   21 CL1  UNL     1       7.660   0.127   1.535  1.00  0.00    -0.084 Cl
HETATM   22  C13 UNL     1       4.983   0.292   1.839  1.00  0.00     0.024 A 
HETATM   23  C14 UNL     1       3.650   0.266   1.448  1.00  0.00     0.015 A 
ENDBRANCH   3  17
TORSDOF 4
