REMARK  8 active torsions:
REMARK  status: ('A' for Active; 'I' for Inactive)
REMARK    1  A    between atoms: C3_3  and  C4_4 
REMARK    2  A    between atoms: C5_5  and  C6_6 
REMARK    3  A    between atoms: C6_6  and  C7_7 
REMARK    4  A    between atoms: C7_7  and  C8_8 
REMARK    5  A    between atoms: N2_10  and  C9_11 
REMARK    6  A    between atoms: C10_13  and  O1_14 
REMARK    7  A    between atoms: C12_17  and  C13_18 
REMARK    8  A    between atoms: C18_24  and  O2_25 
ROOT
HETATM    1  C8  UNL     1       0.763   0.550   0.904  1.00  0.00     0.057 C 
HETATM    2  N1  UNL     1       0.426  -0.299  -0.008  1.00  0.00    -0.174 NA
HETATM    3  N2  UNL     1      -0.979  -0.448  -0.117  1.00  0.00    -0.238 N 
HETATM    4  C12 UNL     1      -1.351   0.891   0.230  1.00  0.00     0.135 C 
HETATM    5  C19 UNL     1      -0.505   1.052   1.485  1.00  0.00     0.091 C 
ENDROOT
BRANCH   4   6
HETATM    6  C13 UNL     1      -2.730   1.216   0.385  1.00  0.00    -0.088 C 
HETATM    7  B1  UNL     1      -3.278   2.601  -0.737  1.00  0.00     0.206 B 
HETATM    8  C14 UNL     1      -4.973   3.082  -0.621  1.00  0.00    -0.081 C 
HETATM    9  C15 UNL     1      -5.715   2.980   0.493  1.00  0.00    -0.016 C 
HETATM   10  C16 UNL     1      -5.316   2.473   1.803  1.00  0.00    -0.002 C 
HETATM   11  C17 UNL     1      -4.471   1.483   2.130  1.00  0.00     0.008 C 
HETATM   12  C18 UNL     1      -3.647   0.557   1.317  1.00  0.00     0.157 C 
BRANCH  12  13
HETATM   13  O2  UNL     1      -4.465  -0.314   0.570  1.00  0.00    -0.389 OA
HETATM   14  H18 UNL     1      -5.214   0.231   0.213  1.00  0.00     0.210 HD
ENDBRANCH  12  13
ENDBRANCH   4   6
BRANCH   3  15
HETATM   15  C9  UNL     1      -1.838  -1.562  -0.472  1.00  0.00     0.192 A 
HETATM   16  N3  UNL     1      -2.321  -2.545   0.260  1.00  0.00    -0.198 NA
HETATM   17  C10 UNL     1      -3.095  -3.407  -0.405  1.00  0.00     0.171 A 
HETATM   18  C11 UNL     1      -3.381  -3.275  -1.813  1.00  0.00     0.111 A 
HETATM   19  S1  UNL     1      -2.377  -1.704  -2.120  1.00  0.00    -0.058 SA
BRANCH  17  20
HETATM   20  O1  UNL     1      -3.539  -4.400   0.495  1.00  0.00    -0.344 OA
HETATM   21  H10 UNL     1      -3.079  -5.262   0.660  1.00  0.00     0.219 HD
ENDBRANCH  17  20
ENDBRANCH   3  15
BRANCH   1  22
HETATM   22  C7  UNL     1       2.190   0.527   0.825  1.00  0.00     0.029 C 
BRANCH  22  23
HETATM   23  C6  UNL     1       3.472   0.576   0.830  1.00  0.00     0.002 C 
BRANCH  23  24
HETATM   24  C5  UNL     1       3.917  -0.373  -0.226  1.00  0.00     0.000 C 
HETATM   25  C4  UNL     1       5.207  -0.578  -0.502  1.00  0.00    -0.000 C 
BRANCH  25  26
HETATM   26  C3  UNL     1       6.511  -0.113  -0.046  1.00  0.00    -0.004 C 
HETATM   27  C2  UNL     1       7.805  -0.272  -0.271  1.00  0.00    -0.031 C 
HETATM   28  C1  UNL     1       8.269  -1.210  -1.320  1.00  0.00     0.036 C 
ENDBRANCH  25  26
ENDBRANCH  23  24
ENDBRANCH  22  23
ENDBRANCH   1  22
TORSDOF 8
