REMARK  4 active torsions:
REMARK  status: ('A' for Active; 'I' for Inactive)
REMARK    1  A    between atoms: C4_4  and  C5_5 
REMARK    2  A    between atoms: C6_6  and  C7_7 
REMARK    3  A    between atoms: N1_8  and  C8_9 
REMARK    4  A    between atoms: C9_11  and  O1_12 
ROOT
HETATM    1  C1  UNL     1       5.045  -1.561   1.237  1.00  0.00     0.017 C 
HETATM    2  C2  UNL     1       4.443  -1.430   0.190  1.00  0.00    -0.089 C 
HETATM    3  C3  UNL     1       3.706  -1.268  -1.044  1.00  0.00     0.063 C 
HETATM    4  C4  UNL     1       2.441  -0.887  -0.999  1.00  0.00     0.009 C 
ENDROOT
BRANCH   4   5
HETATM    5  C5  UNL     1       1.804  -0.635   0.280  1.00  0.00    -0.001 C 
HETATM    6  C6  UNL     1       0.541  -0.253   0.369  1.00  0.00     0.002 C 
BRANCH   6   7
HETATM    7  C7  UNL     1      -0.395  -0.025  -0.744  1.00  0.00     0.153 C 
HETATM    8  N1  UNL     1      -1.701  -0.589  -0.508  1.00  0.00    -0.237 N 
HETATM    9  N3  UNL     1      -2.585   0.183  -1.264  1.00  0.00    -0.185 NA
HETATM   10  C11 UNL     1      -2.089   1.351  -1.492  1.00  0.00     0.128 C 
HETATM   11  C12 UNL     1      -0.741   1.446  -0.856  1.00  0.00     0.042 A 
HETATM   12  C13 UNL     1      -0.923   2.031   0.472  1.00  0.00    -0.008 A 
HETATM   13  C17 UNL     1       0.221   2.223  -1.672  1.00  0.00     0.050 A 
HETATM   14  C14 UNL     1      -0.437   3.079   1.111  1.00  0.00     0.016 A 
HETATM   15  C15 UNL     1       0.508   3.849   0.319  1.00  0.00     0.007 A 
HETATM   16 BR1  UNL     1       1.353   5.408   1.007  1.00  0.00    -0.051 Br
HETATM   17  C16 UNL     1       0.721   3.377  -0.895  1.00  0.00    -0.006 A 
BRANCH   8  18
HETATM   18  C8  UNL     1      -2.195  -1.657   0.261  1.00  0.00     0.192 A 
HETATM   19  N2  UNL     1      -3.202  -2.216   0.542  1.00  0.00    -0.198 NA
HETATM   20  C9  UNL     1      -3.283  -3.260   1.358  1.00  0.00     0.171 A 
HETATM   21  C10 UNL     1      -2.125  -3.783   1.961  1.00  0.00     0.111 A 
HETATM   22  S1  UNL     1      -0.857  -2.599   1.226  1.00  0.00    -0.058 SA
BRANCH  20  23
HETATM   23  O1  UNL     1      -4.572  -3.792   1.571  1.00  0.00    -0.344 OA
HETATM   24  H7  UNL     1      -5.143  -4.148   0.829  1.00  0.00     0.219 HD
ENDBRANCH  20  23
ENDBRANCH   8  18
ENDBRANCH   6   7
ENDBRANCH   4   5
TORSDOF 4
