REMARK  0 active torsions:
REMARK  status: ('A' for Active; 'I' for Inactive)
ROOT
HETATM    1  C1  UNL     1       6.139   0.725   1.793  1.00  0.00     0.148 C 
HETATM    2  N1  UNL     1       4.862   0.221   1.241  1.00  0.00    -0.392 N 
HETATM    3  C2  UNL     1       3.844   0.498   2.208  1.00  0.00     0.086 C 
HETATM    4  C3  UNL     1       2.525   0.432   2.119  1.00  0.00     0.031 C 
HETATM    5  C4  UNL     1       1.641   0.047   0.983  1.00  0.00    -0.002 C 
HETATM    6  C5  UNL     1       0.459  -0.022   1.639  1.00  0.00     0.014 C 
HETATM    7  C6  UNL     1      -0.811  -0.383   0.950  1.00  0.00     0.007 C 
HETATM    8  C7  UNL     1      -1.172  -0.105  -0.326  1.00  0.00    -0.037 C 
HETATM    9  C8  UNL     1      -0.318   0.655  -1.314  1.00  0.00     0.066 C 
HETATM   10  C9  UNL     1       1.054   0.052  -1.452  1.00  0.00     0.022 C 
HETATM   11  C10 UNL     1       1.902  -0.210  -0.464  1.00  0.00     0.076 C 
HETATM   12  O1  UNL     1       3.006  -0.751  -1.164  1.00  0.00    -0.349 OA
HETATM   13  C11 UNL     1       4.248  -1.224  -0.733  1.00  0.00     0.195 C 
HETATM   14  C12 UNL     1       5.147  -0.334  -0.019  1.00  0.00     0.148 C 
HETATM   15  C13 UNL     1      -0.211   2.073  -0.803  1.00  0.00     0.181 C 
HETATM   16  O2  UNL     1      -1.200   2.925  -1.309  1.00  0.00    -0.383 OA
HETATM   17  C14 UNL     1      -2.463   2.398  -1.014  1.00  0.00     0.246 C 
HETATM   18  C15 UNL     1      -2.646   2.228   0.453  1.00  0.00     0.154 C 
HETATM   19  O3  UNL     1      -2.110   2.515   1.506  1.00  0.00    -0.295 OA
HETATM   20  C16 UNL     1      -3.905   1.440   0.582  1.00  0.00     0.117 C 
HETATM   21  C17 UNL     1      -3.637   0.020   0.104  1.00  0.00    -0.040 C 
HETATM   22  C18 UNL     1      -4.829  -0.596   0.197  1.00  0.00     0.006 C 
HETATM   23  C19 UNL     1      -5.315  -1.964  -0.094  1.00  0.00    -0.002 C 
HETATM   24  C20 UNL     1      -4.505  -2.993  -0.401  1.00  0.00    -0.001 C 
HETATM   25  C21 UNL     1      -3.020  -3.012  -0.517  1.00  0.00     0.196 C 
HETATM   26  O4  UNL     1      -2.456  -2.001   0.254  1.00  0.00    -0.373 OA
HETATM   27  C22 UNL     1      -2.492  -0.764  -0.398  1.00  0.00     0.181 C 
ENDROOT
TORSDOF 0
