REMARK  7 active torsions:
REMARK  status: ('A' for Active; 'I' for Inactive)
REMARK    1  A    between atoms: O1_1  and  S1_2 
REMARK    2  A    between atoms: S1_2  and  C1_3 
REMARK    3  A    between atoms: C5_7  and  C6_8 
REMARK    4  A    between atoms: C6_8  and  C7_9 
REMARK    5  A    between atoms: C9_11  and  C10_12 
REMARK    6  A    between atoms: N2_20  and  C16_21 
REMARK    7  A    between atoms: C17_23  and  O2_24 
ROOT
HETATM    1  C7  UNL     1       0.030   0.504  -0.556  1.00  0.00     0.122 C 
HETATM    2  C8  UNL     1      -0.484  -0.436   0.523  1.00  0.00     0.089 C 
HETATM    3  C9  UNL     1      -1.973  -0.308   0.299  1.00  0.00     0.067 C 
HETATM    4  N1  UNL     1      -2.168   0.877  -0.221  1.00  0.00    -0.174 NA
HETATM    5  N2  UNL     1      -0.961   1.581  -0.376  1.00  0.00    -0.240 N 
ENDROOT
BRANCH   1   6
HETATM    6  C6  UNL     1       1.378   1.062  -0.309  1.00  0.00     0.062 C 
BRANCH   6   7
HETATM    7  C5  UNL     1       2.429   0.008  -0.195  1.00  0.00    -0.077 C 
HETATM    8  C4  UNL     1       2.665  -0.925  -1.326  1.00  0.00     0.060 C 
HETATM    9  C3  UNL     1       2.637  -2.345  -0.798  1.00  0.00    -0.025 C 
HETATM   10  C2  UNL     1       3.415  -2.389   0.292  1.00  0.00    -0.009 C 
HETATM   11  C1  UNL     1       4.143  -1.221   0.833  1.00  0.00     0.121 C 
HETATM   12  C19 UNL     1       3.157  -0.099   0.932  1.00  0.00    -0.003 C 
BRANCH  11  13
HETATM   13  S1  UNL     1       5.509  -0.684  -0.206  1.00  0.00    -0.003 SA
BRANCH  13  14
HETATM   14  O1  UNL     1       6.754  -1.854  -0.287  1.00  0.00    -0.329 OA
HETATM   15  H1  UNL     1       7.420  -1.773   0.446  1.00  0.00     0.227 HD
ENDBRANCH  13  14
ENDBRANCH  11  13
ENDBRANCH   6   7
ENDBRANCH   1   6
BRANCH   5  16
HETATM   16  C16 UNL     1      -0.990   2.995  -0.328  1.00  0.00     0.192 A 
HETATM   17  N3  UNL     1      -0.993   3.879  -1.242  1.00  0.00    -0.198 NA
HETATM   18  C17 UNL     1      -1.037   5.160  -0.919  1.00  0.00     0.171 A 
HETATM   19  C18 UNL     1      -1.081   5.590   0.454  1.00  0.00     0.111 A 
HETATM   20  S2  UNL     1      -1.053   3.898   1.305  1.00  0.00    -0.058 SA
BRANCH  18  21
HETATM   21  O2  UNL     1      -1.057   6.391  -1.553  1.00  0.00    -0.344 OA
HETATM   22  H16 UNL     1      -1.914   6.924  -1.748  1.00  0.00     0.219 HD
ENDBRANCH  18  21
ENDBRANCH   5  16
BRANCH   3  23
HETATM   23  C10 UNL     1      -3.011  -1.296   0.583  1.00  0.00    -0.010 A 
HETATM   24  C11 UNL     1      -4.303  -0.949   0.271  1.00  0.00     0.015 A 
HETATM   25  C12 UNL     1      -5.282  -1.857   0.524  1.00  0.00     0.024 A 
HETATM   26  C13 UNL     1      -4.946  -3.082   1.082  1.00  0.00     0.034 A 
HETATM   27 CL1  UNL     1      -6.175  -4.297   1.433  1.00  0.00    -0.084 Cl
HETATM   28  C14 UNL     1      -3.639  -3.401   1.384  1.00  0.00     0.024 A 
HETATM   29  C15 UNL     1      -2.594  -2.507   1.144  1.00  0.00     0.015 A 
ENDBRANCH   3  23
TORSDOF 7
