REMARK  5 active torsions:
REMARK  status: ('A' for Active; 'I' for Inactive)
REMARK    1  A    between atoms: O1_1  and  N1_2 
REMARK    2  A    between atoms: C4_10  and  C5_11 
REMARK    3  A    between atoms: C5_11  and  C6_12 
REMARK    4  A    between atoms: C13_19  and  C14_20 
REMARK    5  A    between atoms: C15_21  and  C16_22 
ROOT
HETATM    1  N1  UNL     1      -2.318  -0.701   0.640  1.00  0.00    -0.228 N 
HETATM    2  C1  UNL     1      -2.073  -1.994   0.188  1.00  0.00     0.195 A 
HETATM    3  N2  UNL     1      -0.891  -1.899   0.719  1.00  0.00    -0.196 NA
HETATM    4  C2  UNL     1      -0.049  -2.891   0.642  1.00  0.00     0.203 A 
HETATM    5  C3  UNL     1      -0.325  -4.176  -0.023  1.00  0.00     0.113 A 
HETATM    6  S1  UNL     1      -2.109  -3.622  -0.525  1.00  0.00    -0.058 SA
HETATM    7  O2  UNL     1       0.906  -2.097   1.372  1.00  0.00    -0.193 OA
HETATM    8  N3  UNL     1       1.336  -0.941   0.693  1.00  0.00    -0.135 NA
HETATM    9  C4  UNL     1       0.615   0.151   0.818  1.00  0.00     0.046 C 
HETATM   10  C12 UNL     1      -0.611   0.782   1.436  1.00  0.00     0.089 C 
HETATM   11  C13 UNL     1      -1.813   0.677   0.509  1.00  0.00     0.145 C 
ENDROOT
BRANCH   9  12
HETATM   12  C5  UNL     1       1.259   1.238  -0.004  1.00  0.00     0.095 C 
BRANCH  12  13
HETATM   13  C6  UNL     1       2.482   0.829  -0.697  1.00  0.00    -0.053 A 
HETATM   14  C7  UNL     1       2.560   0.288  -1.976  1.00  0.00     0.007 A 
HETATM   15  C8  UNL     1       3.797  -0.049  -2.494  1.00  0.00     0.001 A 
HETATM   16  C9  UNL     1       4.970   0.131  -1.786  1.00  0.00     0.000 A 
HETATM   17  C10 UNL     1       4.921   0.667  -0.512  1.00  0.00     0.001 A 
HETATM   18  C11 UNL     1       3.673   0.995  -0.019  1.00  0.00     0.007 A 
ENDBRANCH  12  13
ENDBRANCH   9  12
BRANCH  11  19
HETATM   19  C14 UNL     1      -2.876   1.641   0.777  1.00  0.00    -0.002 C 
HETATM   20  C15 UNL     1      -3.802   1.766  -0.169  1.00  0.00    -0.018 C 
BRANCH  20  21
HETATM   21  C16 UNL     1      -3.862   1.035  -1.452  1.00  0.00     0.112 C 
HETATM   22 BR1  UNL     1      -5.534   0.029  -1.509  1.00  0.00    -0.092 Br
ENDBRANCH  20  21
ENDBRANCH  11  19
BRANCH   1  23
HETATM   23  O1  UNL     1      -3.329  -1.052   1.477  1.00  0.00    -0.285 OA
HETATM   24  H1  UNL     1      -3.053  -1.048   2.419  1.00  0.00     0.245 HD
ENDBRANCH   1  23
TORSDOF 5
