REMARK  4 active torsions:
REMARK  status: ('A' for Active; 'I' for Inactive)
REMARK    1  A    between atoms: O1_1  and  C1_2 
REMARK    2  A    between atoms: C3_5  and  N1_6 
REMARK    3  A    between atoms: C4_8  and  C5_9 
REMARK    4  A    between atoms: C11_16  and  C12_17 
ROOT
HETATM    1  N1  UNL     1      -0.872  -1.075  -0.056  1.00  0.00    -0.236 N 
HETATM    2  N2  UNL     1       0.205  -0.817  -0.908  1.00  0.00    -0.174 NA
HETATM    3  C4  UNL     1       1.294  -0.660  -0.198  1.00  0.00     0.064 C 
HETATM    4  C10 UNL     1       0.982  -0.814   1.247  1.00  0.00     0.094 C 
HETATM    5  C11 UNL     1      -0.518  -0.532   1.242  1.00  0.00     0.151 C 
ENDROOT
BRANCH   1   6
HETATM    6  C3  UNL     1      -2.051  -1.764  -0.526  1.00  0.00     0.192 A 
HETATM    7  S1  UNL     1      -2.243  -3.648  -0.461  1.00  0.00    -0.058 SA
HETATM    8  C2  UNL     1      -3.901  -3.659  -1.197  1.00  0.00     0.111 A 
HETATM    9  C1  UNL     1      -4.057  -2.219  -1.382  1.00  0.00     0.171 A 
HETATM   10  N3  UNL     1      -3.123  -1.355  -1.035  1.00  0.00    -0.198 NA
BRANCH   9  11
HETATM   11  O1  UNL     1      -5.208  -1.627  -1.941  1.00  0.00    -0.344 OA
HETATM   12  H1  UNL     1      -6.125  -1.706  -1.549  1.00  0.00     0.219 HD
ENDBRANCH   9  11
ENDBRANCH   1   6
BRANCH   5  13
HETATM   13  C12 UNL     1      -0.745   0.913   1.370  1.00  0.00    -0.033 A 
HETATM   14  C13 UNL     1      -1.360   1.437   2.511  1.00  0.00     0.012 A 
HETATM   15  C14 UNL     1      -1.584   2.801   2.651  1.00  0.00     0.043 A 
HETATM   16  C15 UNL     1      -1.206   3.684   1.666  1.00  0.00     0.116 A 
HETATM   17  F1  UNL     1      -1.411   5.019   1.774  1.00  0.00    -0.206 F 
HETATM   18  C16 UNL     1      -0.590   3.205   0.510  1.00  0.00     0.043 A 
HETATM   19  C17 UNL     1      -0.392   1.824   0.428  1.00  0.00     0.012 A 
ENDBRANCH   5  13
BRANCH   3  20
HETATM   20  C5  UNL     1       2.579  -0.379  -0.822  1.00  0.00    -0.027 A 
HETATM   21  C6  UNL     1       2.813  -0.251  -2.097  1.00  0.00     0.010 A 
HETATM   22  C7  UNL     1       4.249   0.027  -2.229  1.00  0.00     0.015 A 
HETATM   23  C8  UNL     1       4.889   0.070  -1.072  1.00  0.00    -0.007 A 
HETATM   24 BR1  UNL     1       6.664   0.363  -0.494  1.00  0.00    -0.055 Br
HETATM   25  C9  UNL     1       3.849  -0.193  -0.042  1.00  0.00     0.087 A 
ENDBRANCH   3  20
TORSDOF 4
