REMARK  3 active torsions:
REMARK  status: ('A' for Active; 'I' for Inactive)
REMARK    1  A    between atoms: O1_2  and  C2_3 
REMARK    2  A    between atoms: C2_3  and  C3_5 
REMARK    3  A    between atoms: C19_23  and  O4_24 
ROOT
HETATM    1  C3  UNL     1      -1.588   0.093   0.368  1.00  0.00     0.087 A 
HETATM    2  C4  UNL     1      -1.208   1.101  -0.460  1.00  0.00     0.035 A 
HETATM    3  C5  UNL     1      -1.387   0.755  -1.799  1.00  0.00     0.029 A 
HETATM    4  C6  UNL     1      -1.871  -0.412  -2.422  1.00  0.00    -0.022 A 
HETATM    5  C7  UNL     1      -1.946  -0.502  -3.778  1.00  0.00     0.012 A 
HETATM    6  C8  UNL     1      -2.440  -1.710  -4.203  1.00  0.00     0.001 A 
HETATM    7  C9  UNL     1      -2.827  -2.740  -3.386  1.00  0.00     0.001 A 
HETATM    8  C10 UNL     1      -2.708  -2.537  -2.017  1.00  0.00     0.015 A 
HETATM    9  C11 UNL     1      -2.225  -1.369  -1.456  1.00  0.00     0.009 A 
HETATM   10  C12 UNL     1      -2.070  -1.083  -0.123  1.00  0.00     0.097 A 
HETATM   11  O3  UNL     1      -2.490  -2.214   0.602  1.00  0.00    -0.347 OA
HETATM   12  C13 UNL     1      -1.469  -3.058   1.171  1.00  0.00     0.205 C 
HETATM   13  C14 UNL     1      -0.525  -3.528   0.117  1.00  0.00     0.296 C 
HETATM   14  N1  UNL     1       0.533  -4.322   0.779  1.00  0.00     0.085 N 
HETATM   15  C15 UNL     1       1.806  -3.910   0.065  1.00  0.00     0.270 C 
HETATM   16  C16 UNL     1       1.977  -2.520   0.550  1.00  0.00     0.034 C 
HETATM   17  C17 UNL     1       3.044  -1.637  -0.043  1.00  0.00     0.032 C 
HETATM   18  C18 UNL     1       2.784  -0.330   0.667  1.00  0.00     0.014 C 
HETATM   19  C19 UNL     1       2.386   0.837   0.345  1.00  0.00     0.113 C 
HETATM   20  C20 UNL     1       1.943   1.862  -0.547  1.00  0.00     0.215 C 
HETATM   21  O5  UNL     1       1.718   2.187  -1.703  1.00  0.00    -0.284 OA
HETATM   22  C21 UNL     1       1.468   3.253  -0.254  1.00  0.00     0.031 A 
HETATM   23  C22 UNL     1       2.365   4.329  -0.147  1.00  0.00     0.016 A 
HETATM   24  C23 UNL     1       1.904   5.580   0.207  1.00  0.00     0.001 A 
HETATM   25  C24 UNL     1       0.578   5.807   0.458  1.00  0.00     0.001 A 
HETATM   26  C25 UNL     1      -0.349   4.798   0.366  1.00  0.00     0.016 A 
HETATM   27  C26 UNL     1       0.098   3.560   0.017  1.00  0.00     0.029 A 
HETATM   28  C27 UNL     1      -0.610   2.345  -0.221  1.00  0.00     0.194 C 
HETATM   29  O6  UNL     1      -1.847   2.737  -0.185  1.00  0.00    -0.287 OA
HETATM   30  H13 UNL     1       0.684  -4.012   1.760  1.00  0.00     0.315 HD
ENDROOT
BRANCH   1  31
HETATM   31  C2  UNL     1      -1.494   0.341   1.785  1.00  0.00     0.296 C 
HETATM   32  O2  UNL     1      -1.691  -0.177   2.890  1.00  0.00    -0.259 OA
BRANCH  31  33
HETATM   33  O1  UNL     1      -1.044   1.521   2.347  1.00  0.00    -0.322 OA
HETATM   34  C1  UNL     1      -0.978   1.692   3.767  1.00  0.00     0.213 C 
ENDBRANCH  31  33
ENDBRANCH   1  31
BRANCH  19  35
HETATM   35  O4  UNL     1       2.316   1.682   1.438  1.00  0.00    -0.357 OA
HETATM   36  H21 UNL     1       3.121   2.180   1.806  1.00  0.00     0.217 HD
ENDBRANCH  19  35
TORSDOF 3
