REMARK  4 active torsions:
REMARK  status: ('A' for Active; 'I' for Inactive)
REMARK    1  A    between atoms: C5_5  and  C6_6 
REMARK    2  A    between atoms: N2_8  and  C7_9 
REMARK    3  A    between atoms: C8_11  and  O1_12 
REMARK    4  A    between atoms: C10_15  and  C11_16 
ROOT
HETATM    1  C6  UNL     1      -1.369  -0.439  -0.375  1.00  0.00     0.069 C 
HETATM    2  N1  UNL     1      -1.093   0.717   0.122  1.00  0.00    -0.173 NA
HETATM    3  N2  UNL     1       0.268   1.027  -0.001  1.00  0.00    -0.236 N 
HETATM    4  C10 UNL     1       0.905   0.077  -0.848  1.00  0.00     0.151 C 
HETATM    5  C17 UNL     1      -0.144  -1.010  -0.934  1.00  0.00     0.094 C 
ENDROOT
BRANCH   1   6
HETATM    6  C5  UNL     1      -2.720  -1.015  -0.377  1.00  0.00     0.009 A 
HETATM    7  C4  UNL     1      -3.861  -0.285   0.174  1.00  0.00     0.016 A 
HETATM    8  C3  UNL     1      -4.989  -1.005   0.085  1.00  0.00     0.013 A 
HETATM    9  C2  UNL     1      -4.579  -2.251  -0.544  1.00  0.00    -0.027 A 
HETATM   10  C1  UNL     1      -5.434  -3.219  -0.790  1.00  0.00     0.025 C 
HETATM   11  C18 UNL     1      -3.146  -2.177  -0.802  1.00  0.00     0.032 A 
HETATM   12 BR1  UNL     1      -2.085  -3.514  -1.598  1.00  0.00    -0.049 Br
ENDBRANCH   1   6
BRANCH   3  13
HETATM   13  C7  UNL     1       0.598   2.247   0.783  1.00  0.00     0.192 A 
HETATM   14  N3  UNL     1       0.797   2.888   1.691  1.00  0.00    -0.198 NA
HETATM   15  C8  UNL     1       1.127   4.170   1.728  1.00  0.00     0.171 A 
HETATM   16  C9  UNL     1       1.254   4.842   0.491  1.00  0.00     0.111 A 
HETATM   17  S1  UNL     1       0.843   3.422  -0.701  1.00  0.00    -0.058 SA
BRANCH  15  18
HETATM   18  O1  UNL     1       1.334   4.802   2.975  1.00  0.00    -0.344 OA
HETATM   19  H5  UNL     1       0.706   5.503   3.347  1.00  0.00     0.219 HD
ENDBRANCH  15  18
ENDBRANCH   3  13
BRANCH   4  20
HETATM   20  C11 UNL     1       2.199  -0.431  -0.376  1.00  0.00    -0.033 A 
HETATM   21  C12 UNL     1       3.271  -0.495  -1.274  1.00  0.00     0.009 A 
HETATM   22  C13 UNL     1       4.551  -0.957  -1.001  1.00  0.00     0.001 A 
HETATM   23  C14 UNL     1       4.767  -1.392   0.298  1.00  0.00     0.000 A 
HETATM   24  C15 UNL     1       3.744  -1.348   1.220  1.00  0.00     0.001 A 
HETATM   25  C16 UNL     1       2.488  -0.880   0.894  1.00  0.00     0.009 A 
ENDBRANCH   4  20
TORSDOF 4
