REMARK  7 active torsions:
REMARK  status: ('A' for Active; 'I' for Inactive)
REMARK    1  A    between atoms: N1_1  and  C1_2 
REMARK    2  A    between atoms: C1_2  and  O1_3 
REMARK    3  A    between atoms: C1_2  and  S1_4 
REMARK    4  A    between atoms: S1_4  and  C2_5 
REMARK    5  A    between atoms: C2_5  and  N2_6 
REMARK    6  A    between atoms: C11_16  and  C12_17 
REMARK    7  A    between atoms: C12_17  and  C13_18 
ROOT
HETATM    1  N2  UNL     1      -1.066   0.571   1.387  1.00  0.00     0.107 N 
HETATM    2  C3  UNL     1      -0.758   2.017   1.566  1.00  0.00     0.313 C 
HETATM    3  C4  UNL     1      -1.068   2.639   0.254  1.00  0.00    -0.024 A 
HETATM    4  C5  UNL     1      -2.006   3.648   0.057  1.00  0.00     0.012 A 
HETATM    5  C6  UNL     1      -2.179   4.127  -1.226  1.00  0.00     0.043 A 
HETATM    6  C7  UNL     1      -1.426   3.598  -2.257  1.00  0.00     0.117 A 
HETATM    7  F1  UNL     1      -1.618   4.088  -3.502  1.00  0.00    -0.206 F 
HETATM    8  C8  UNL     1      -0.491   2.600  -2.091  1.00  0.00     0.050 A 
HETATM    9  C9  UNL     1      -0.336   2.137  -0.801  1.00  0.00    -0.045 A 
HETATM   10  C10 UNL     1       0.595   1.078  -0.379  1.00  0.00     0.075 C 
HETATM   11  C11 UNL     1      -0.014   0.026   0.520  1.00  0.00     0.232 C 
ENDROOT
BRANCH   1  12
HETATM   12  C2  UNL     1      -2.360   0.551   0.787  1.00  0.00     0.351 C 
BRANCH  12  13
HETATM   13  S1  UNL     1      -3.251  -0.948   1.095  1.00  0.00    -0.077 SA
BRANCH  13  14
HETATM   14  C1  UNL     1      -2.651  -2.448   0.402  1.00  0.00     0.417 C 
BRANCH  14  15
HETATM   15  N1  UNL     1      -1.425  -2.957   0.980  1.00  0.00     0.117 N 
HETATM   16  H1  UNL     1      -1.375  -2.828   1.996  1.00  0.00     0.317 HD
HETATM   17  H2  UNL     1      -1.327  -3.974   0.751  1.00  0.00     0.317 HD
ENDBRANCH  14  15
BRANCH  14  18
HETATM   18  O1  UNL     1      -2.507  -2.334  -1.006  1.00  0.00    -0.360 OA
HETATM   19  H4  UNL     1      -3.397  -2.195  -1.410  1.00  0.00     0.213 HD
ENDBRANCH  14  18
ENDBRANCH  13  14
ENDBRANCH  12  13
ENDBRANCH   1  12
BRANCH  11  20
HETATM   20  C12 UNL     1       0.994  -0.635   1.400  1.00  0.00     0.070 C 
BRANCH  20  21
HETATM   21  C13 UNL     1       2.130  -1.232   0.609  1.00  0.00    -0.074 A 
HETATM   22  C14 UNL     1       3.354  -0.791   0.849  1.00  0.00     0.005 A 
HETATM   23  C15 UNL     1       4.576  -1.234   0.198  1.00  0.00     0.022 A 
HETATM   24  P1  UNL     1       4.359  -2.380  -0.919  1.00  0.00     0.000 P 
HETATM   25 BR1  UNL     1       6.050  -3.238  -2.067  1.00  0.00    -0.051 Br
HETATM   26  C16 UNL     1       2.828  -2.850  -1.136  1.00  0.00    -0.001 A 
HETATM   27  C17 UNL     1       1.686  -2.272  -0.362  1.00  0.00     0.063 A 
ENDBRANCH  20  21
ENDBRANCH  11  20
TORSDOF 7
