REMARK  9 active torsions:
REMARK  status: ('A' for Active; 'I' for Inactive)
REMARK    1  A    between atoms: C2_2  and  C3_3 
REMARK    2  A    between atoms: C3_3  and  N1_4 
REMARK    3  A    between atoms: C3_3  and  C4_5 
REMARK    4  A    between atoms: C4_5  and  C5_6 
REMARK    5  A    between atoms: C5_6  and  C6_7 
REMARK    6  A    between atoms: C6_7  and  C7_8 
REMARK    7  A    between atoms: C9_10  and  C10_11 
REMARK    8  A    between atoms: N2_18  and  C16_19 
REMARK    9  A    between atoms: C17_21  and  O1_22 
ROOT
HETATM    1  C7  UNL     1      -0.407   0.088  -1.598  1.00  0.00     0.092 C 
HETATM    2  C8  UNL     1      -0.269  -1.143  -0.702  1.00  0.00     0.055 C 
HETATM    3  C9  UNL     1       1.127  -1.134  -1.278  1.00  0.00     0.122 C 
HETATM    4  N2  UNL     1       1.022   0.311  -1.261  1.00  0.00    -0.346 N 
ENDROOT
BRANCH   1   5
HETATM    5  C6  UNL     1      -1.286   1.190  -1.041  1.00  0.00     0.052 C 
BRANCH   5   6
HETATM    6  C5  UNL     1      -2.629   0.657  -0.815  1.00  0.00    -0.022 C 
BRANCH   6   7
HETATM    7  C4  UNL     1      -2.792   0.824   0.503  1.00  0.00     0.026 C 
BRANCH   7   8
HETATM    8  C3  UNL     1      -4.130   0.276   0.643  1.00  0.00     0.035 C 
BRANCH   8   9
HETATM    9  C2  UNL     1      -5.231  -0.074   1.337  1.00  0.00    -0.008 C 
HETATM   10  C1  UNL     1      -5.801  -0.216   2.545  1.00  0.00     0.026 C 
ENDBRANCH   8   9
BRANCH   8  11
HETATM   11  N1  UNL     1      -4.628  -0.149  -0.622  1.00  0.00    -0.398 N 
HETATM   12  H3  UNL     1      -5.116  -0.326  -1.545  1.00  0.00     0.156 HD
HETATM   13  H4  UNL     1      -4.968  -0.479  -1.539  1.00  0.00     0.156 HD
ENDBRANCH   8  11
ENDBRANCH   7   8
ENDBRANCH   6   7
ENDBRANCH   5   6
ENDBRANCH   1   5
BRANCH   4  14
HETATM   14  C16 UNL     1       1.701   1.538  -1.050  1.00  0.00     0.172 A 
HETATM   15  N3  UNL     1       1.472   2.295  -0.160  1.00  0.00    -0.200 NA
HETATM   16  C17 UNL     1       2.099   3.449   0.054  1.00  0.00     0.171 A 
HETATM   17  C18 UNL     1       3.125   3.802  -0.857  1.00  0.00     0.111 A 
HETATM   18  S1  UNL     1       3.103   2.364  -2.014  1.00  0.00    -0.060 SA
BRANCH  16  19
HETATM   19  O1  UNL     1       2.032   4.479   0.980  1.00  0.00    -0.344 OA
HETATM   20  H17 UNL     1       1.525   5.333   0.775  1.00  0.00     0.219 HD
ENDBRANCH  16  19
ENDBRANCH   4  14
BRANCH   3  21
HETATM   21  C10 UNL     1       2.161  -1.760  -0.465  1.00  0.00    -0.035 A 
HETATM   22  C11 UNL     1       3.482  -1.277  -0.411  1.00  0.00     0.012 A 
HETATM   23  C12 UNL     1       4.518  -1.846   0.342  1.00  0.00     0.043 A 
HETATM   24  C13 UNL     1       4.122  -2.964   1.055  1.00  0.00     0.116 A 
HETATM   25  F1  UNL     1       5.129  -3.537   1.795  1.00  0.00    -0.206 F 
HETATM   26  C14 UNL     1       2.859  -3.490   1.054  1.00  0.00     0.043 A 
HETATM   27  C15 UNL     1       1.899  -2.883   0.297  1.00  0.00     0.012 A 
ENDBRANCH   3  21
TORSDOF 9
