REMARK  4 active torsions:
REMARK  status: ('A' for Active; 'I' for Inactive)
REMARK    1  A    between atoms: C1_2  and  C2_3 
REMARK    2  A    between atoms: C1_2  and  C8_10 
REMARK    3  A    between atoms: C8_10  and  N2_11 
REMARK    4  A    between atoms: N2_11  and  C9_12 
ROOT
HETATM    1  C8  UNL     1      -0.714   1.181  -0.045  1.00  0.00     0.099 C 
HETATM    2  C12 UNL     1      -1.837   1.613  -0.952  1.00  0.00     0.024 C 
HETATM    3  C13 UNL     1      -1.353   2.409  -1.882  1.00  0.00    -0.015 C 
HETATM    4  C14 UNL     1      -0.708   3.448  -1.449  1.00  0.00    -0.018 C 
HETATM    5  C15 UNL     1      -0.624   3.599  -0.142  1.00  0.00    -0.011 C 
HETATM    6  C16 UNL     1      -0.052   2.394   0.515  1.00  0.00     0.070 C 
ENDROOT
BRANCH   1   7
HETATM    7  C1  UNL     1       0.184   0.299  -0.829  1.00  0.00     0.068 C 
HETATM    8  N1  UNL     1      -0.079   0.057  -2.042  1.00  0.00    -0.301 NA
HETATM    9  H1  UNL     1       0.428  -0.519  -2.716  1.00  0.00     0.186 HD
BRANCH   7  10
HETATM   10  C2  UNL     1       1.368  -0.291  -0.218  1.00  0.00    -0.009 A 
HETATM   11  C3  UNL     1       2.228  -1.109  -0.917  1.00  0.00     0.015 A 
HETATM   12  C4  UNL     1       3.363  -1.697  -0.392  1.00  0.00     0.020 A 
HETATM   13  C5  UNL     1       3.683  -1.458   0.941  1.00  0.00     0.011 A 
HETATM   14 BR1  UNL     1       5.226  -2.233   1.726  1.00  0.00    -0.051 Br
HETATM   15  C6  UNL     1       2.859  -0.648   1.685  1.00  0.00     0.020 A 
HETATM   16  C7  UNL     1       1.745  -0.098   1.093  1.00  0.00     0.015 A 
ENDBRANCH   7  10
ENDBRANCH   1   7
BRANCH   1  17
HETATM   17  N2  UNL     1      -1.270   0.417   1.074  1.00  0.00    -0.350 N 
HETATM   18  H6  UNL     1      -1.197   0.599   2.103  1.00  0.00     0.163 HD
BRANCH  17  19
HETATM   19  C9  UNL     1      -1.998  -0.716   0.562  1.00  0.00     0.167 A 
HETATM   20  N3  UNL     1      -2.245  -1.161  -0.519  1.00  0.00    -0.236 NA
HETATM   21  C10 UNL     1      -2.961  -2.258  -0.729  1.00  0.00     0.126 A 
HETATM   22  C11 UNL     1      -3.459  -2.934   0.395  1.00  0.00     0.072 A 
HETATM   23  S1  UNL     1      -2.814  -1.869   1.751  1.00  0.00    -0.063 SA
ENDBRANCH  17  19
ENDBRANCH   1  17
TORSDOF 4
