REMARK  4 active torsions:
REMARK  status: ('A' for Active; 'I' for Inactive)
REMARK    1  A    between atoms: N1_1  and  C1_2 
REMARK    2  A    between atoms: C2_3  and  C3_4 
REMARK    3  A    between atoms: C4_5  and  C5_6 
REMARK    4  A    between atoms: C6_7  and  C7_8 
ROOT
HETATM    1  C7  UNL     1      -0.104   0.828   0.061  1.00  0.00     0.115 C 
HETATM    2  C8  UNL     1      -0.480  -0.387   0.822  1.00  0.00     0.050 C 
HETATM    3  C9  UNL     1      -1.534  -1.276   0.305  1.00  0.00     0.044 C 
HETATM    4  C10 UNL     1      -2.908  -0.812   0.251  1.00  0.00    -0.032 A 
HETATM    5  C11 UNL     1      -3.530  -0.928   1.504  1.00  0.00     0.011 A 
HETATM    6  C12 UNL     1      -4.837  -0.601   1.798  1.00  0.00     0.020 A 
HETATM    7  C13 UNL     1      -5.644  -0.111   0.794  1.00  0.00     0.013 A 
HETATM    8 BR1  UNL     1      -7.467   0.409   0.939  1.00  0.00    -0.051 Br
HETATM    9  C14 UNL     1      -5.088   0.023  -0.450  1.00  0.00     0.048 A 
HETATM   10  C15 UNL     1      -3.784  -0.316  -0.687  1.00  0.00     0.037 A 
HETATM   11  N2  UNL     1      -3.004  -0.230  -1.864  1.00  0.00    -0.359 N 
HETATM   12  C16 UNL     1      -2.406   1.110  -1.775  1.00  0.00     0.268 C 
HETATM   13  N3  UNL     1      -2.195   1.516  -0.428  1.00  0.00    -0.269 N 
HETATM   14  O1  UNL     1      -0.998   1.845  -0.037  1.00  0.00    -0.266 OA
HETATM   15  S1  UNL     1      -0.776   1.005  -2.595  1.00  0.00    -0.118 SA
HETATM   16  C17 UNL     1       0.435   0.453  -1.335  1.00  0.00     0.122 C 
HETATM   17  H16 UNL     1      -2.773  -0.827  -2.696  1.00  0.00     0.162 HD
HETATM   18  H18 UNL     1      -2.980   2.073  -0.026  1.00  0.00     0.191 HD
ENDROOT
BRANCH   1  19
HETATM   19  C6  UNL     1       1.155   1.344   0.766  1.00  0.00     0.014 C 
HETATM   20  C5  UNL     1       2.314   0.685   0.600  1.00  0.00    -0.001 C 
BRANCH  20  21
HETATM   21  C4  UNL     1       3.565   1.094   1.226  1.00  0.00    -0.000 C 
HETATM   22  C3  UNL     1       4.715   0.458   1.074  1.00  0.00     0.001 C 
BRANCH  22  23
HETATM   23  C2  UNL     1       4.852  -0.735   0.253  1.00  0.00     0.016 C 
HETATM   24  C1  UNL     1       6.026  -1.334   0.134  1.00  0.00     0.080 C 
BRANCH  24  25
HETATM   25  N1  UNL     1       7.228  -0.904   0.763  1.00  0.00    -0.408 N 
HETATM   26  H1  UNL     1       7.786  -0.253   0.136  1.00  0.00     0.155 HD
HETATM   27  H2  UNL     1       7.439  -1.253   1.737  1.00  0.00     0.155 HD
ENDBRANCH  24  25
ENDBRANCH  22  23
ENDBRANCH  20  21
ENDBRANCH   1  19
TORSDOF 4
