REMARK  5 active torsions:
REMARK  status: ('A' for Active; 'I' for Inactive)
REMARK    1  A    between atoms: N1_2  and  N2_3 
REMARK    2  A    between atoms: N2_3  and  C2_4 
REMARK    3  A    between atoms: N2_3  and  C5_10 
REMARK    4  A    between atoms: C3_6  and  O1_7 
REMARK    5  A    between atoms: C7_12  and  C9_14 
ROOT
HETATM    1  C5  UNL     1       0.278  -0.947  -1.313  1.00  0.00     0.126 A 
HETATM    2  C6  UNL     1      -0.191   0.291  -2.036  1.00  0.00     0.044 A 
HETATM    3  C7  UNL     1      -1.133  -0.643  -1.209  1.00  0.00     0.008 A 
HETATM    4  C8  UNL     1      -2.091  -1.455  -2.079  1.00  0.00     0.023 C 
ENDROOT
BRANCH   1   5
HETATM    5  N2  UNL     1       1.277  -0.919  -0.308  1.00  0.00    -0.241 N 
BRANCH   5   6
HETATM    6  N1  UNL     1       1.547  -2.152   0.302  1.00  0.00    -0.194 NA
HETATM    7  C1  UNL     1       2.460  -2.936  -0.174  1.00  0.00     0.173 C 
ENDBRANCH   5   6
BRANCH   5   8
HETATM    8  C2  UNL     1       2.161   0.087   0.306  1.00  0.00     0.192 A 
HETATM    9  N3  UNL     1       2.962   0.099   1.123  1.00  0.00    -0.198 NA
HETATM   10  C3  UNL     1       3.666   1.131   1.539  1.00  0.00     0.171 A 
HETATM   11  C4  UNL     1       3.426   2.330   0.939  1.00  0.00     0.111 A 
HETATM   12  S1  UNL     1       2.119   1.874  -0.265  1.00  0.00    -0.058 SA
BRANCH  10  13
HETATM   13  O1  UNL     1       4.605   0.899   2.570  1.00  0.00    -0.344 OA
HETATM   14  H3  UNL     1       5.598   0.844   2.384  1.00  0.00     0.219 HD
ENDBRANCH  10  13
ENDBRANCH   5   8
ENDBRANCH   1   5
BRANCH   3  15
HETATM   15  C9  UNL     1      -1.814   0.072  -0.156  1.00  0.00    -0.048 A 
HETATM   16  C10 UNL     1      -3.045   0.673  -0.461  1.00  0.00     0.009 A 
HETATM   17  C11 UNL     1      -3.773   1.375   0.471  1.00  0.00     0.019 A 
HETATM   18  C12 UNL     1      -3.316   1.518   1.766  1.00  0.00     0.011 A 
HETATM   19 BR1  UNL     1      -4.272   2.474   3.101  1.00  0.00    -0.051 Br
HETATM   20  C13 UNL     1      -2.116   0.943   2.098  1.00  0.00     0.019 A 
HETATM   21  C14 UNL     1      -1.408   0.242   1.130  1.00  0.00     0.009 A 
ENDBRANCH   3  15
TORSDOF 5
