REMARK  7 active torsions:
REMARK  status: ('A' for Active; 'I' for Inactive)
REMARK    1  A    between atoms: O1_1  and  C1_2 
REMARK    2  A    between atoms: C3_5  and  N1_6 
REMARK    3  A    between atoms: C4_8  and  C5_9 
REMARK    4  A    between atoms: C5_9  and  C6_10 
REMARK    5  A    between atoms: C6_10  and  C7_11 
REMARK    6  A    between atoms: C14_19  and  C15_20 
REMARK    7  A    between atoms: C16_21  and  C17_22 
ROOT
HETATM    1  N1  UNL     1      -1.887   0.669  -0.641  1.00  0.00    -0.237 N 
HETATM    2  N2  UNL     1      -0.519   0.941  -0.715  1.00  0.00    -0.179 NA
HETATM    3  C4  UNL     1       0.186  -0.116  -0.382  1.00  0.00     0.035 C 
HETATM    4  C13 UNL     1      -0.771  -1.238  -0.062  1.00  0.00     0.088 C 
HETATM    5  C14 UNL     1      -2.008  -0.753  -0.784  1.00  0.00     0.140 C 
ENDROOT
BRANCH   3   6
HETATM    6  C5  UNL     1       1.633  -0.519  -0.245  1.00  0.00     0.061 C 
BRANCH   6   7
HETATM    7  C6  UNL     1       2.503   0.661  -0.560  1.00  0.00     0.044 C 
BRANCH   7   8
HETATM    8  C7  UNL     1       3.933   0.232  -0.409  1.00  0.00    -0.058 A 
HETATM    9  C8  UNL     1       4.500   0.373   0.865  1.00  0.00     0.009 A 
HETATM   10  C9  UNL     1       5.806   0.027   1.159  1.00  0.00     0.024 A 
HETATM   11  C10 UNL     1       6.605  -0.478   0.180  1.00  0.00     0.034 A 
HETATM   12 CL1  UNL     1       8.260  -0.932   0.481  1.00  0.00    -0.084 Cl
HETATM   13  C11 UNL     1       6.057  -0.623  -1.087  1.00  0.00     0.024 A 
HETATM   14  C12 UNL     1       4.750  -0.280  -1.394  1.00  0.00     0.009 A 
ENDBRANCH   7   8
ENDBRANCH   6   7
ENDBRANCH   3   6
BRANCH   1  15
HETATM   15  C3  UNL     1      -2.803   1.739  -0.458  1.00  0.00     0.192 A 
HETATM   16  S1  UNL     1      -3.073   2.332   1.354  1.00  0.00    -0.058 SA
HETATM   17  C2  UNL     1      -4.302   3.651   0.880  1.00  0.00     0.111 A 
HETATM   18  C1  UNL     1      -4.296   3.411  -0.584  1.00  0.00     0.171 A 
HETATM   19  N3  UNL     1      -3.559   2.480  -1.178  1.00  0.00    -0.198 NA
BRANCH  18  20
HETATM   20  O1  UNL     1      -5.166   4.297  -1.207  1.00  0.00    -0.344 OA
HETATM   21  H1  UNL     1      -5.595   4.150  -2.107  1.00  0.00     0.219 HD
ENDBRANCH  18  20
ENDBRANCH   1  15
BRANCH   5  22
HETATM   22  C15 UNL     1      -3.243  -1.329  -0.192  1.00  0.00    -0.003 C 
HETATM   23  C16 UNL     1      -3.280  -2.262   0.783  1.00  0.00    -0.018 C 
BRANCH  23  24
HETATM   24  C17 UNL     1      -4.389  -2.961   1.504  1.00  0.00     0.112 C 
HETATM   25 BR1  UNL     1      -4.299  -2.609   3.418  1.00  0.00    -0.092 Br
ENDBRANCH  23  24
ENDBRANCH   5  22
TORSDOF 7
