REMARK  5 active torsions:
REMARK  status: ('A' for Active; 'I' for Inactive)
REMARK    1  A    between atoms: C2_2  and  C3_3 
REMARK    2  A    between atoms: C3_3  and  C6_7 
REMARK    3  A    between atoms: C4_4  and  C5_5 
REMARK    4  A    between atoms: C6_7  and  C7_8 
REMARK    5  A    between atoms: C6_7  and  N1_15 
ROOT
HETATM    1  C6  UNL     1       0.218   0.014  -0.378  1.00  0.00     0.139 C 
ENDROOT
BRANCH   1   2
HETATM    2  C3  UNL     1      -0.671  -1.167  -0.378  1.00  0.00    -0.060 C 
HETATM    3  C4  UNL     1      -1.050  -1.666  -1.581  1.00  0.00    -0.011 C 
BRANCH   2   4
HETATM    4  C2  UNL     1      -1.218  -1.923   0.787  1.00  0.00     0.031 C 
HETATM    5  C1  UNL     1      -2.092  -1.119   1.692  1.00  0.00     0.010 C 
ENDBRANCH   2   4
BRANCH   3   6
HETATM    6  C5  UNL     1      -1.859  -2.752  -2.181  1.00  0.00     0.112 C 
HETATM    7 BR1  UNL     1      -0.767  -3.898  -3.311  1.00  0.00    -0.092 Br
ENDBRANCH   3   6
ENDBRANCH   1   2
BRANCH   1   8
HETATM    8  C7  UNL     1      -0.348   1.207   0.294  1.00  0.00    -0.035 A 
HETATM    9  C8  UNL     1      -0.285   1.550   1.643  1.00  0.00     0.011 A 
HETATM   10  C9  UNL     1      -0.860   2.698   2.142  1.00  0.00     0.024 A 
HETATM   11  C10 UNL     1      -1.530   3.571   1.333  1.00  0.00     0.034 A 
HETATM   12 CL1  UNL     1      -2.256   5.022   1.967  1.00  0.00    -0.084 Cl
HETATM   13  C11 UNL     1      -1.639   3.313   0.004  1.00  0.00     0.024 A 
HETATM   14  C12 UNL     1      -1.053   2.159  -0.457  1.00  0.00     0.011 A 
ENDBRANCH   1   8
BRANCH   1  15
HETATM   15  N1  UNL     1       1.552  -0.299   0.089  1.00  0.00    -0.206 NA
HETATM   16  C13 UNL     1       2.111  -1.348  -0.778  1.00  0.00     0.187 C 
HETATM   17  S1  UNL     1       3.411  -0.526  -1.783  1.00  0.00    -0.125 SA
HETATM   18  C14 UNL     1       4.470   0.288  -0.546  1.00  0.00     0.270 C 
HETATM   19  O1  UNL     1       3.613   0.569   0.521  1.00  0.00    -0.281 OA
HETATM   20  N2  UNL     1       2.379   0.827   0.090  1.00  0.00    -0.131 NA
HETATM   21  H18 UNL     1       1.981   1.529   0.746  1.00  0.00     0.174 HD
ENDBRANCH   1  15
TORSDOF 5
