REMARK  5 active torsions:
REMARK  status: ('A' for Active; 'I' for Inactive)
REMARK    1  A    between atoms: C2_2  and  C3_3 
REMARK    2  A    between atoms: C4_5  and  C5_6 
REMARK    3  A    between atoms: C5_6  and  C6_7 
REMARK    4  A    between atoms: C6_7  and  C7_8 
REMARK    5  A    between atoms: C8_10  and  O1_11 
ROOT
HETATM    1  C6  UNL     1      -0.576   0.381   0.593  1.00  0.00     0.084 C 
HETATM    2  C10 UNL     1      -1.623  -0.003   1.565  1.00  0.00     0.039 C 
HETATM    3  C11 UNL     1      -2.268  -1.330   1.390  1.00  0.00     0.019 C 
HETATM    4  C12 UNL     1      -1.357  -2.318   0.704  1.00  0.00     0.075 A 
HETATM    5  C13 UNL     1      -2.017  -3.574   0.376  1.00  0.00    -0.002 A 
HETATM    6 BR1  UNL     1      -2.661  -4.944   1.535  1.00  0.00    -0.055 Br
HETATM    7  C14 UNL     1      -2.122  -3.653  -0.941  1.00  0.00     0.017 A 
HETATM    8  C15 UNL     1      -1.551  -2.473  -1.600  1.00  0.00     0.026 A 
HETATM    9  C16 UNL     1      -1.109  -1.701  -0.651  1.00  0.00     0.015 A 
HETATM   10  N2  UNL     1      -0.467  -0.438  -0.583  1.00  0.00    -0.377 N 
HETATM   11  H16 UNL     1       0.092  -0.089  -1.391  1.00  0.00     0.160 HD
ENDROOT
BRANCH   1  12
HETATM   12  C5  UNL     1       0.768   0.398   1.305  1.00  0.00     0.067 C 
BRANCH  12  13
HETATM   13  C4  UNL     1       1.859   0.774   0.364  1.00  0.00    -0.000 C 
HETATM   14  C3  UNL     1       2.850  -0.054   0.143  1.00  0.00     0.029 C 
HETATM   15 CL1  UNL     1       2.914  -1.591   0.934  1.00  0.00    -0.085 Cl
BRANCH  14  16
HETATM   16  C2  UNL     1       3.894   0.356  -0.785  1.00  0.00     0.013 C 
HETATM   17  C1  UNL     1       4.908  -0.459  -1.028  1.00  0.00     0.013 C 
ENDBRANCH  14  16
ENDBRANCH  12  13
ENDBRANCH   1  12
BRANCH   1  18
HETATM   18  C7  UNL     1      -0.742   1.787   0.089  1.00  0.00     0.106 A 
HETATM   19  N1  UNL     1      -0.412   2.372  -1.008  1.00  0.00    -0.219 NA
HETATM   20  C8  UNL     1      -0.727   3.668  -1.116  1.00  0.00     0.169 A 
HETATM   21  C9  UNL     1      -1.395   4.365  -0.066  1.00  0.00     0.109 A 
HETATM   22  S1  UNL     1      -1.552   2.968   1.150  1.00  0.00    -0.080 SA
BRANCH  20  23
HETATM   23  O1  UNL     1      -0.300   4.162  -2.370  1.00  0.00    -0.344 OA
HETATM   24  H7  UNL     1       0.160   5.078  -2.423  1.00  0.00     0.219 HD
ENDBRANCH  20  23
ENDBRANCH   1  18
TORSDOF 5
