REMARK  5 active torsions:
REMARK  status: ('A' for Active; 'I' for Inactive)
REMARK    1  A    between atoms: O1_1  and  B1_2 
REMARK    2  A    between atoms: S1_5  and  C3_6 
REMARK    3  A    between atoms: C3_6  and  N1_7 
REMARK    4  A    between atoms: C4_9  and  C5_10 
REMARK    5  A    between atoms: C12_18  and  C13_19 
ROOT
HETATM    1  N1  UNL     1      -0.606   0.427   0.425  1.00  0.00    -0.286 N 
HETATM    2  N2  UNL     1      -0.057  -0.836   0.105  1.00  0.00    -0.179 NA
HETATM    3  C4  UNL     1       1.140  -0.785  -0.311  1.00  0.00     0.067 C 
HETATM    4  C11 UNL     1       1.553   0.669  -0.315  1.00  0.00     0.093 C 
HETATM    5  C12 UNL     1       0.529   1.280   0.588  1.00  0.00     0.144 C 
ENDROOT
BRANCH   1   6
HETATM    6  C3  UNL     1      -2.079   0.370   0.466  1.00  0.00     0.229 C 
BRANCH   6   7
HETATM    7  S1  UNL     1      -2.587  -0.857   1.715  1.00  0.00    -0.103 SA
HETATM    8  C2  UNL     1      -4.356  -0.874   1.712  1.00  0.00     0.040 A 
HETATM    9  C1  UNL     1      -4.749  -2.034   1.251  1.00  0.00    -0.016 A 
HETATM   10  B1  UNL     1      -3.556  -2.957   0.883  1.00  0.00     0.471 B 
HETATM   11  N3  UNL     1      -2.233  -2.282   1.148  1.00  0.00    -0.205 NA
BRANCH  10  12
HETATM   12  O1  UNL     1      -3.753  -4.111  -0.023  1.00  0.00    -0.443 OA
HETATM   13  H1  UNL     1      -3.982  -3.735  -0.924  1.00  0.00     0.184 HD
ENDBRANCH  10  12
ENDBRANCH   6   7
ENDBRANCH   1   6
BRANCH   5  14
HETATM   14  C13 UNL     1       0.349   2.702   0.478  1.00  0.00    -0.033 A 
HETATM   15  C14 UNL     1      -0.569   3.524   1.078  1.00  0.00     0.011 A 
HETATM   16  C15 UNL     1      -0.674   4.888   0.905  1.00  0.00     0.024 A 
HETATM   17  C16 UNL     1       0.223   5.508   0.047  1.00  0.00     0.034 A 
HETATM   18 CL1  UNL     1       0.079   7.224  -0.160  1.00  0.00    -0.084 Cl
HETATM   19  C17 UNL     1       1.174   4.718  -0.586  1.00  0.00     0.024 A 
HETATM   20  C18 UNL     1       1.247   3.340  -0.385  1.00  0.00     0.011 A 
ENDBRANCH   5  14
BRANCH   3  21
HETATM   21  C5  UNL     1       2.024  -1.897  -0.734  1.00  0.00    -0.010 A 
HETATM   22  C6  UNL     1       1.475  -3.167  -0.667  1.00  0.00     0.015 A 
HETATM   23  C7  UNL     1       2.273  -4.227  -1.054  1.00  0.00     0.020 A 
HETATM   24  C8  UNL     1       3.560  -3.998  -1.484  1.00  0.00     0.011 A 
HETATM   25 BR1  UNL     1       4.578  -5.525  -1.995  1.00  0.00    -0.051 Br
HETATM   26  C9  UNL     1       4.081  -2.718  -1.540  1.00  0.00     0.020 A 
HETATM   27  C10 UNL     1       3.302  -1.635  -1.157  1.00  0.00     0.015 A 
ENDBRANCH   3  21
TORSDOF 5
