REMARK  3 active torsions:
REMARK  status: ('A' for Active; 'I' for Inactive)
REMARK    1  A    between atoms: C4_4  and  C5_5 
REMARK    2  A    between atoms: N2_15  and  C13_16 
REMARK    3  A    between atoms: C14_18  and  O1_19 
ROOT
HETATM    1  C5  UNL     1      -0.245   0.179  -0.293  1.00  0.00     0.155 C 
HETATM    2  C6  UNL     1       1.111   0.457   0.272  1.00  0.00    -0.006 C 
HETATM    3  C7  UNL     1       1.675   1.106   1.278  1.00  0.00     0.012 C 
HETATM    4  C8  UNL     1       3.079   1.246   1.645  1.00  0.00     0.015 C 
HETATM    5  C9  UNL     1       4.024   1.184   0.723  1.00  0.00    -0.011 C 
HETATM    6 BR1  UNL     1       5.739   1.405   1.556  1.00  0.00    -0.056 Br
HETATM    7  C10 UNL     1       4.004   0.994  -0.742  1.00  0.00     0.052 C 
HETATM    8  C11 UNL     1       3.309  -0.232  -1.211  1.00  0.00     0.067 C 
HETATM    9  C12 UNL     1       1.897  -0.341  -0.719  1.00  0.00     0.063 C 
HETATM   10  N1  UNL     1       1.131  -1.304  -1.179  1.00  0.00    -0.174 NA
HETATM   11  N2  UNL     1      -0.122  -1.209  -0.560  1.00  0.00    -0.236 N 
ENDROOT
BRANCH  11  12
HETATM   12  C13 UNL     1      -0.879  -2.429  -0.377  1.00  0.00     0.192 A 
HETATM   13  N3  UNL     1      -0.788  -3.551  -0.601  1.00  0.00    -0.198 NA
HETATM   14  C14 UNL     1      -1.693  -4.477  -0.293  1.00  0.00     0.171 A 
HETATM   15  C15 UNL     1      -2.871  -4.054   0.365  1.00  0.00     0.111 A 
HETATM   16  S1  UNL     1      -2.545  -2.188   0.497  1.00  0.00    -0.058 SA
BRANCH  14  17
HETATM   17  O1  UNL     1      -1.442  -5.813  -0.631  1.00  0.00    -0.344 OA
HETATM   18  H13 UNL     1      -0.603  -6.308  -0.384  1.00  0.00     0.219 HD
ENDBRANCH  14  17
ENDBRANCH  11  12
BRANCH   1  19
HETATM   19  C4  UNL     1      -1.363   0.657   0.543  1.00  0.00     0.042 A 
HETATM   20  C3  UNL     1      -1.310   2.136   0.665  1.00  0.00    -0.017 A 
HETATM   21  C2  UNL     1      -2.441   2.373   0.067  1.00  0.00    -0.086 A 
HETATM   22  C1  UNL     1      -3.415   3.411  -0.395  1.00  0.00     0.043 C 
HETATM   23  C16 UNL     1      -2.658   0.928  -0.131  1.00  0.00     0.044 A 
ENDBRANCH   1  19
TORSDOF 3
