REMARK  6 active torsions:
REMARK  status: ('A' for Active; 'I' for Inactive)
REMARK    1  A    between atoms: O1_1  and  C1_2 
REMARK    2  A    between atoms: N1_5  and  C4_6 
REMARK    3  A    between atoms: C4_6  and  C5_7 
REMARK    4  A    between atoms: C4_6  and  C13_16 
REMARK    5  A    between atoms: C5_7  and  C6_8 
REMARK    6  A    between atoms: C6_8  and  C7_9 
ROOT
HETATM    1  C4  UNL     1      -1.098  -0.208   0.033  1.00  0.00     0.113 C 
ENDROOT
BRANCH   1   2
HETATM    2  N1  UNL     1      -1.876  -1.022  -0.863  1.00  0.00    -0.217 NA
HETATM    3  C3  UNL     1      -3.286  -0.797  -0.817  1.00  0.00     0.146 C 
HETATM    4  C2  UNL     1      -3.756  -1.800   0.173  1.00  0.00     0.046 C 
HETATM    5  C1  UNL     1      -2.852  -2.738   0.422  1.00  0.00     0.147 C 
HETATM    6  N2  UNL     1      -1.757  -2.346  -0.423  1.00  0.00    -0.299 N 
HETATM    7  H18 UNL     1      -0.948  -2.981  -0.689  1.00  0.00     0.183 HD
BRANCH   5   8
HETATM    8  O1  UNL     1      -2.881  -3.840   1.265  1.00  0.00    -0.346 OA
HETATM    9  H1  UNL     1      -2.775  -4.778   0.895  1.00  0.00     0.219 HD
ENDBRANCH   5   8
ENDBRANCH   1   2
BRANCH   1  10
HETATM   10  C5  UNL     1       0.358  -0.581  -0.154  1.00  0.00     0.031 C 
BRANCH  10  11
HETATM   11  C6  UNL     1       1.238   0.241   0.763  1.00  0.00     0.040 C 
BRANCH  11  12
HETATM   12  C7  UNL     1       2.630  -0.165   0.536  1.00  0.00    -0.058 A 
HETATM   13  C8  UNL     1       3.143  -1.194   1.300  1.00  0.00     0.008 A 
HETATM   14  C9  UNL     1       4.442  -1.606   1.121  1.00  0.00     0.019 A 
HETATM   15  C10 UNL     1       5.225  -0.987   0.178  1.00  0.00     0.011 A 
HETATM   16 BR1  UNL     1       7.026  -1.503  -0.123  1.00  0.00    -0.051 Br
HETATM   17  C11 UNL     1       4.716   0.050  -0.593  1.00  0.00     0.019 A 
HETATM   18  C12 UNL     1       3.409   0.461  -0.410  1.00  0.00     0.008 A 
ENDBRANCH  11  12
ENDBRANCH  10  11
ENDBRANCH   1  10
BRANCH   1  19
HETATM   19  C13 UNL     1      -1.279   1.252  -0.196  1.00  0.00    -0.038 A 
HETATM   20  C14 UNL     1      -1.262   1.753  -1.482  1.00  0.00     0.010 A 
HETATM   21  C15 UNL     1      -1.437   3.128  -1.639  1.00  0.00     0.024 A 
HETATM   22  C16 UNL     1      -1.622   3.987  -0.569  1.00  0.00     0.034 A 
HETATM   23 CL1  UNL     1      -1.842   5.704  -0.745  1.00  0.00    -0.084 Cl
HETATM   24  C17 UNL     1      -1.639   3.478   0.726  1.00  0.00     0.024 A 
HETATM   25  C18 UNL     1      -1.465   2.121   0.860  1.00  0.00     0.010 A 
ENDBRANCH   1  19
TORSDOF 6
