REMARK  3 active torsions:
REMARK  status: ('A' for Active; 'I' for Inactive)
REMARK    1  A    between atoms: C8_9  and  C9_10 
REMARK    2  A    between atoms: N2_18  and  C15_19 
REMARK    3  A    between atoms: C16_21  and  O1_22 
ROOT
HETATM    1  C1  UNL     1      -1.291  -1.511  -1.292  1.00  0.00     0.017 C 
HETATM    2  C2  UNL     1      -0.210  -1.598  -0.288  1.00  0.00     0.046 A 
HETATM    3  C3  UNL     1      -0.591  -2.612   0.729  1.00  0.00    -0.000 A 
HETATM    4  C4  UNL     1      -0.605  -2.610   2.046  1.00  0.00     0.007 A 
HETATM    5 BR1  UNL     1      -1.144  -4.055   3.163  1.00  0.00    -0.051 Br
HETATM    6  C5  UNL     1      -0.158  -1.351   2.645  1.00  0.00     0.018 A 
HETATM    7  C6  UNL     1       0.195  -0.397   1.830  1.00  0.00     0.015 A 
HETATM    8  C7  UNL     1       0.239  -0.318   0.343  1.00  0.00     0.129 A 
HETATM    9  C8  UNL     1      -0.272   0.945  -0.219  1.00  0.00     0.100 A 
HETATM   10  N1  UNL     1       0.898   1.361  -0.608  1.00  0.00    -0.170 NA
HETATM   11  N2  UNL     1       1.499   0.201  -0.110  1.00  0.00    -0.225 N 
ENDROOT
BRANCH   9  12
HETATM   12  C9  UNL     1      -1.551   1.629  -0.370  1.00  0.00    -0.007 A 
HETATM   13  C10 UNL     1      -1.650   2.852  -0.980  1.00  0.00     0.015 A 
HETATM   14  C11 UNL     1      -2.849   3.531  -1.139  1.00  0.00     0.020 A 
HETATM   15  C12 UNL     1      -4.002   2.935  -0.653  1.00  0.00     0.011 A 
HETATM   16 BR2  UNL     1      -5.650   3.873  -0.874  1.00  0.00    -0.051 Br
HETATM   17  C13 UNL     1      -3.975   1.690  -0.021  1.00  0.00     0.020 A 
HETATM   18  C14 UNL     1      -2.732   1.088   0.091  1.00  0.00     0.015 A 
ENDBRANCH   9  12
BRANCH  11  19
HETATM   19  C15 UNL     1       2.876  -0.076  -0.178  1.00  0.00     0.193 A 
HETATM   20  N3  UNL     1       4.013   0.572  -0.679  1.00  0.00    -0.198 NA
HETATM   21  C16 UNL     1       5.089  -0.169  -0.467  1.00  0.00     0.171 A 
HETATM   22  C17 UNL     1       5.202  -1.468   0.174  1.00  0.00     0.111 A 
HETATM   23  S1  UNL     1       3.395  -1.715   0.573  1.00  0.00    -0.058 SA
BRANCH  21  24
HETATM   24  O1  UNL     1       6.144   0.595  -1.014  1.00  0.00    -0.344 OA
HETATM   25  H12 UNL     1       6.864   0.107  -1.534  1.00  0.00     0.219 HD
ENDBRANCH  21  24
ENDBRANCH  11  19
TORSDOF 3
