REMARK  3 active torsions:
REMARK  status: ('A' for Active; 'I' for Inactive)
REMARK    1  A    between atoms: C5_5  and  C6_6 
REMARK    2  A    between atoms: C8_8  and  C9_9 
REMARK    3  A    between atoms: C15_17  and  O1_18 
ROOT
HETATM    1  C6  UNL     1       0.536   0.871   0.128  1.00  0.00     0.118 C 
HETATM    2  C7  UNL     1      -0.300  -0.069   0.932  1.00  0.00     0.050 C 
HETATM    3  C8  UNL     1      -1.751   0.279   1.053  1.00  0.00     0.088 C 
HETATM    4  S1  UNL     1      -2.189   2.012   0.803  1.00  0.00    -0.066 SA
HETATM    5  C15 UNL     1      -2.487   3.578   0.571  1.00  0.00     0.202 A 
HETATM    6  N1  UNL     1      -1.205   4.140   0.414  1.00  0.00    -0.195 NA
HETATM    7  C16 UNL     1      -0.661   2.976   0.569  1.00  0.00     0.164 A 
HETATM    8  N2  UNL     1       0.549   2.222   0.624  1.00  0.00    -0.361 N 
HETATM    9  H15 UNL     1       1.457   2.615   1.014  1.00  0.00     0.162 HD
ENDROOT
BRANCH   1  10
HETATM   10  C5  UNL     1       1.870   0.280  -0.034  1.00  0.00    -0.035 A 
HETATM   11  C4  UNL     1       2.694   0.518   1.042  1.00  0.00     0.010 A 
HETATM   12  C3  UNL     1       4.005   0.030   1.066  1.00  0.00     0.007 A 
HETATM   13  C2  UNL     1       4.503  -0.696   0.017  1.00  0.00    -0.062 A 
HETATM   14  C1  UNL     1       5.886  -1.198   0.066  1.00  0.00     0.048 C 
HETATM   15  C18 UNL     1       3.670  -0.933  -1.065  1.00  0.00     0.007 A 
HETATM   16  C17 UNL     1       2.379  -0.461  -1.103  1.00  0.00     0.010 A 
ENDBRANCH   1  10
BRANCH   3  17
HETATM   17  C9  UNL     1      -2.618  -0.653   0.262  1.00  0.00    -0.044 A 
HETATM   18  C10 UNL     1      -3.509  -1.475   0.935  1.00  0.00     0.009 A 
HETATM   19  C11 UNL     1      -4.365  -2.380   0.313  1.00  0.00     0.019 A 
HETATM   20  C12 UNL     1      -4.323  -2.464  -1.062  1.00  0.00     0.011 A 
HETATM   21 BR1  UNL     1      -5.491  -3.703  -1.942  1.00  0.00    -0.051 Br
HETATM   22  C13 UNL     1      -3.446  -1.656  -1.751  1.00  0.00     0.019 A 
HETATM   23  C14 UNL     1      -2.606  -0.765  -1.114  1.00  0.00     0.009 A 
ENDBRANCH   3  17
BRANCH   5  24
HETATM   24  O1  UNL     1      -3.863   3.770   0.615  1.00  0.00    -0.340 OA
HETATM   25  H14 UNL     1      -4.221   4.471  -0.025  1.00  0.00     0.220 HD
ENDBRANCH   5  24
TORSDOF 3
