REMARK  3 active torsions:
REMARK  status: ('A' for Active; 'I' for Inactive)
REMARK    1  A    between atoms: C4_4  and  N1_5 
REMARK    2  A    between atoms: C9_10  and  S1_11 
REMARK    3  A    between atoms: C10_13  and  C11_14 
ROOT
HETATM    1  C1  UNL     1      -5.425  -0.613   1.382  1.00  0.00     0.048 C 
HETATM    2  C2  UNL     1      -4.104  -0.570   0.708  1.00  0.00    -0.059 A 
HETATM    3  C3  UNL     1      -3.649  -1.738   0.157  1.00  0.00     0.036 A 
HETATM    4  C4  UNL     1      -2.412  -1.709  -0.477  1.00  0.00     0.033 A 
HETATM    5  C5  UNL     1      -1.648  -0.558  -0.562  1.00  0.00    -0.018 A 
HETATM    6  C6  UNL     1      -2.102   0.623  -0.007  1.00  0.00    -0.045 A 
HETATM    7  C7  UNL     1      -3.321   0.567   0.609  1.00  0.00     0.014 A 
HETATM    8  C8  UNL     1      -1.110   1.690  -0.233  1.00  0.00     0.084 C 
HETATM    9  C9  UNL     1      -0.281   1.159  -1.359  1.00  0.00     0.111 C 
HETATM   10  N2  UNL     1       1.099   1.491  -1.137  1.00  0.00    -0.271 NA
HETATM   11  C10 UNL     1       1.712   0.546  -0.511  1.00  0.00     0.042 C 
HETATM   12  C17 UNL     1       0.806  -0.585  -0.215  1.00  0.00     0.072 C 
HETATM   13  C18 UNL     1      -0.329  -0.322  -1.182  1.00  0.00     0.068 C 
ENDROOT
BRANCH  11  14
HETATM   14  C11 UNL     1       3.132   0.571  -0.130  1.00  0.00    -0.012 A 
HETATM   15  C12 UNL     1       3.729  -0.466   0.536  1.00  0.00     0.015 A 
HETATM   16  C13 UNL     1       5.064  -0.435   0.890  1.00  0.00     0.020 A 
HETATM   17  C14 UNL     1       5.847   0.643   0.586  1.00  0.00     0.011 A 
HETATM   18 BR1  UNL     1       7.685   0.645   1.093  1.00  0.00    -0.051 Br
HETATM   19  C15 UNL     1       5.282   1.706  -0.084  1.00  0.00     0.020 A 
HETATM   20  C16 UNL     1       3.944   1.646  -0.425  1.00  0.00     0.015 A 
ENDBRANCH  11  14
BRANCH   9  21
HETATM   21  S1  UNL     1      -0.874   1.694  -2.978  1.00  0.00    -0.148 SA
HETATM   22  H10 UNL     1      -0.207   2.913  -3.289  1.00  0.00     0.104 HD
ENDBRANCH   9  21
BRANCH   4  23
HETATM   23  N1  UNL     1      -1.955  -2.936  -1.045  1.00  0.00    -0.399 N 
HETATM   24  H5  UNL     1      -1.275  -3.271  -0.303  1.00  0.00     0.156 HD
HETATM   25  H6  UNL     1      -2.022  -3.588  -1.850  1.00  0.00     0.156 HD
ENDBRANCH   4  23
TORSDOF 3
