REMARK  3 active torsions:
REMARK  status: ('A' for Active; 'I' for Inactive)
REMARK    1  A    between atoms: O1_2  and  C2_3 
REMARK    2  A    between atoms: C6_8  and  N1_9 
REMARK    3  A    between atoms: N1_9  and  C7_10 
ROOT
HETATM    1  C2  UNL     1       3.240  -0.195   1.078  1.00  0.00     0.197 C 
HETATM    2  C3  UNL     1       2.441   0.732   1.999  1.00  0.00     0.206 C 
HETATM    3  O2  UNL     1       1.582   1.563   1.346  1.00  0.00    -0.384 OA
HETATM    4  C4  UNL     1       1.078   1.132   0.159  1.00  0.00     0.212 C 
HETATM    5  C5  UNL     1       1.106  -0.363  -0.018  1.00  0.00     0.039 A 
HETATM    6  C6  UNL     1      -0.005  -0.920  -0.651  1.00  0.00     0.140 A 
HETATM    7  N2  UNL     1      -0.004  -2.271  -0.849  1.00  0.00    -0.224 NA
HETATM    8  C14 UNL     1       1.088  -2.938  -0.405  1.00  0.00     0.235 A 
HETATM    9  N3  UNL     1       2.201  -2.421   0.223  1.00  0.00    -0.243 NA
HETATM   10  C15 UNL     1       2.223  -1.062   0.434  1.00  0.00     0.079 A 
ENDROOT
BRANCH   6  11
HETATM   11  N1  UNL     1      -1.081  -0.081  -1.056  1.00  0.00    -0.340 N 
HETATM   12  H9  UNL     1      -0.625   0.471  -1.814  1.00  0.00     0.167 HD
BRANCH  11  13
HETATM   13  C7  UNL     1      -2.363  -0.112  -0.482  1.00  0.00     0.041 A 
HETATM   14  C8  UNL     1      -2.561  -1.051   0.503  1.00  0.00     0.030 A 
HETATM   15  C9  UNL     1      -3.823  -1.096   1.078  1.00  0.00     0.004 A 
HETATM   16  C10 UNL     1      -4.860  -0.266   0.717  1.00  0.00     0.020 A 
HETATM   17  C11 UNL     1      -4.581   0.664  -0.293  1.00  0.00     0.019 A 
HETATM   18 BR1  UNL     1      -5.997   1.848  -0.833  1.00  0.00    -0.051 Br
HETATM   19  C12 UNL     1      -3.335   0.771  -0.920  1.00  0.00    -0.018 A 
HETATM   20  C13 UNL     1      -3.115   1.789  -1.968  1.00  0.00     0.052 C 
ENDBRANCH  11  13
ENDBRANCH   6  11
BRANCH   1  21
HETATM   21  O1  UNL     1       3.937   0.507   0.122  1.00  0.00    -0.382 OA
HETATM   22  C1  UNL     1       5.312   0.336   0.241  1.00  0.00     0.202 C 
ENDBRANCH   1  21
TORSDOF 3
