REMARK  5 active torsions:
REMARK  status: ('A' for Active; 'I' for Inactive)
REMARK    1  A    between atoms: O1_2  and  C2_3 
REMARK    2  A    between atoms: C5_6  and  O2_7 
REMARK    3  A    between atoms: O2_7  and  C6_8 
REMARK    4  A    between atoms: N2_19  and  C15_20 
REMARK    5  A    between atoms: C16_22  and  O3_23 
ROOT
HETATM    1  C6  UNL     1      -0.392  -0.026  -0.056  1.00  0.00     0.261 C 
HETATM    2  C7  UNL     1      -1.023  -1.029  -1.038  1.00  0.00     0.118 C 
HETATM    3  C8  UNL     1      -2.281  -1.342  -0.307  1.00  0.00     0.069 C 
HETATM    4  C9  UNL     1      -3.076  -2.531  -0.441  1.00  0.00    -0.010 A 
HETATM    5  C10 UNL     1      -4.223  -2.710   0.289  1.00  0.00     0.015 A 
HETATM    6  C11 UNL     1      -4.985  -3.854   0.158  1.00  0.00     0.020 A 
HETATM    7  C12 UNL     1      -4.608  -4.850  -0.717  1.00  0.00     0.011 A 
HETATM    8 BR1  UNL     1      -5.613  -6.453  -0.946  1.00  0.00    -0.051 Br
HETATM    9  C13 UNL     1      -3.455  -4.677  -1.455  1.00  0.00     0.020 A 
HETATM   10  C14 UNL     1      -2.707  -3.527  -1.309  1.00  0.00     0.015 A 
HETATM   11  N1  UNL     1      -2.576  -0.358   0.501  1.00  0.00    -0.172 NA
HETATM   12  N2  UNL     1      -1.602   0.638   0.389  1.00  0.00    -0.215 N 
ENDROOT
BRANCH   1  13
HETATM   13  O2  UNL     1       0.513   0.812  -0.677  1.00  0.00    -0.324 OA
BRANCH  13  14
HETATM   14  C5  UNL     1       1.842   0.813  -0.306  1.00  0.00     0.071 A 
HETATM   15  C4  UNL     1       2.583   0.125   0.620  1.00  0.00     0.039 A 
HETATM   16  C3  UNL     1       3.928   0.362   0.750  1.00  0.00     0.039 A 
HETATM   17  C2  UNL     1       4.600   1.278  -0.018  1.00  0.00     0.068 A 
HETATM   18  C19 UNL     1       3.886   1.983  -0.952  1.00  0.00     0.039 A 
HETATM   19  C18 UNL     1       2.513   1.756  -1.100  1.00  0.00     0.039 A 
BRANCH  17  20
HETATM   20  O1  UNL     1       5.959   1.485   0.147  1.00  0.00    -0.356 OA
HETATM   21  C1  UNL     1       6.754   0.811   1.073  1.00  0.00     0.210 C 
ENDBRANCH  17  20
ENDBRANCH  13  14
ENDBRANCH   1  13
BRANCH  12  22
HETATM   22  C15 UNL     1      -1.658   2.045   0.630  1.00  0.00     0.194 A 
HETATM   23  N3  UNL     1      -0.791   3.055   0.549  1.00  0.00    -0.198 NA
HETATM   24  C16 UNL     1      -1.299   4.230   0.879  1.00  0.00     0.171 A 
HETATM   25  C17 UNL     1      -2.642   4.517   1.301  1.00  0.00     0.111 A 
HETATM   26  S1  UNL     1      -3.248   2.743   1.186  1.00  0.00    -0.058 SA
BRANCH  24  27
HETATM   27  O3  UNL     1      -0.283   5.203   0.750  1.00  0.00    -0.344 OA
HETATM   28  H13 UNL     1      -0.215   5.788  -0.079  1.00  0.00     0.219 HD
ENDBRANCH  24  27
ENDBRANCH  12  22
TORSDOF 5
