REMARK  5 active torsions:
REMARK  status: ('A' for Active; 'I' for Inactive)
REMARK    1  A    between atoms: O1_1  and  C1_2 
REMARK    2  A    between atoms: C3_4  and  N1_5 
REMARK    3  A    between atoms: C10_12  and  O2_13 
REMARK    4  A    between atoms: O2_13  and  C11_14 
REMARK    5  A    between atoms: C11_14  and  S1_15 
ROOT
HETATM    1  N1  UNL     1      -3.470   0.809  -0.167  1.00  0.00    -0.233 NA
HETATM    2  C4  UNL     1      -2.217   0.652  -0.199  1.00  0.00     0.047 C 
HETATM    3  C5  UNL     1      -1.249   1.786  -0.161  1.00  0.00     0.064 C 
HETATM    4  C6  UNL     1      -0.169   1.746  -1.159  1.00  0.00     0.033 C 
HETATM    5  C7  UNL     1       0.766   2.896  -1.092  1.00  0.00    -0.026 C 
HETATM    6  C8  UNL     1       2.012   2.725  -0.693  1.00  0.00    -0.001 C 
HETATM    7  C9  UNL     1       2.758   1.577  -0.248  1.00  0.00     0.036 C 
HETATM    8  C10 UNL     1       3.366   0.464   0.150  1.00  0.00     0.069 C 
HETATM    9  C12 UNL     1       2.806  -0.855   0.266  1.00  0.00     0.037 C 
HETATM   10  C13 UNL     1       1.988  -1.926   0.253  1.00  0.00     0.015 C 
HETATM   11  C14 UNL     1       0.596  -1.831  -0.183  1.00  0.00    -0.018 A 
HETATM   12  C15 UNL     1      -0.026  -0.678   0.206  1.00  0.00     0.026 A 
HETATM   13  C16 UNL     1      -1.295  -0.465  -0.269  1.00  0.00    -0.011 A 
HETATM   14  C17 UNL     1      -1.922  -1.396  -1.107  1.00  0.00     0.015 A 
HETATM   15  C18 UNL     1      -1.302  -2.582  -1.507  1.00  0.00     0.021 A 
HETATM   16  C19 UNL     1      -0.015  -2.748  -1.003  1.00  0.00     0.021 A 
HETATM   17 BR1  UNL     1       1.040  -4.289  -1.411  1.00  0.00    -0.050 Br
ENDROOT
BRANCH   1  18
HETATM   18  C3  UNL     1      -4.515  -0.104  -0.191  1.00  0.00     0.156 A 
HETATM   19  C2  UNL     1      -5.552  -1.089  -0.444  1.00  0.00     0.110 A 
HETATM   20  C1  UNL     1      -5.959  -1.003   0.810  1.00  0.00     0.167 A 
HETATM   21  N2  UNL     1      -4.928  -0.028   1.047  1.00  0.00    -0.205 NA
BRANCH  20  22
HETATM   22  O1  UNL     1      -7.051  -1.838   1.125  1.00  0.00    -0.345 OA
HETATM   23  H1  UNL     1      -8.003  -1.516   0.884  1.00  0.00     0.219 HD
ENDBRANCH  20  22
ENDBRANCH   1  18
BRANCH   8  24
HETATM   24  O2  UNL     1       4.742   0.511   0.528  1.00  0.00    -0.342 OA
BRANCH  24  25
HETATM   25  C11 UNL     1       5.073   0.219   1.873  1.00  0.00     0.246 C 
BRANCH  25  26
HETATM   26  S1  UNL     1       6.848   0.584   2.039  1.00  0.00    -0.156 SA
HETATM   27  H12 UNL     1       6.951   1.977   2.340  1.00  0.00     0.103 HD
ENDBRANCH  25  26
ENDBRANCH  24  25
ENDBRANCH   8  24
TORSDOF 5
