REMARK  6 active torsions:
REMARK  status: ('A' for Active; 'I' for Inactive)
REMARK    1  A    between atoms: C2_2  and  C3_3 
REMARK    2  A    between atoms: C4_4  and  C5_5 
REMARK    3  A    between atoms: C5_5  and  O1_6 
REMARK    4  A    between atoms: O1_6  and  C6_7 
REMARK    5  A    between atoms: C7_8  and  C8_9 
REMARK    6  A    between atoms: C8_9  and  O2_10 
ROOT
HETATM    1  C6  UNL     1      -0.382   0.241  -0.312  1.00  0.00     0.132 A 
HETATM    2  C7  UNL     1      -0.954   1.413  -0.102  1.00  0.00     0.053 A 
HETATM    3  C9  UNL     1      -2.393   1.527   0.035  1.00  0.00     0.194 A 
HETATM    4  O3  UNL     1      -2.901   2.653   0.234  1.00  0.00    -0.287 OA
HETATM    5  C10 UNL     1      -3.272   0.366  -0.050  1.00  0.00     0.029 A 
HETATM    6  C11 UNL     1      -4.638   0.477   0.081  1.00  0.00     0.016 A 
HETATM    7  C12 UNL     1      -5.458  -0.642  -0.004  1.00  0.00     0.001 A 
HETATM    8  C13 UNL     1      -4.892  -1.882  -0.223  1.00  0.00     0.001 A 
HETATM    9  C14 UNL     1      -3.522  -1.971  -0.351  1.00  0.00     0.016 A 
HETATM   10  C15 UNL     1      -2.683  -0.881  -0.272  1.00  0.00     0.031 A 
HETATM   11  C16 UNL     1      -1.240  -0.955  -0.405  1.00  0.00     0.217 A 
HETATM   12  O4  UNL     1      -0.821  -2.141  -0.604  1.00  0.00    -0.284 OA
ENDROOT
BRANCH   1  13
HETATM   13  O1  UNL     1       0.956  -0.082  -0.470  1.00  0.00    -0.343 OA
BRANCH  13  14
HETATM   14  C5  UNL     1       1.731  -0.503   0.614  1.00  0.00     0.203 C 
BRANCH  14  15
HETATM   15  C4  UNL     1       3.108  -0.761   0.076  1.00  0.00    -0.000 C 
HETATM   16  C3  UNL     1       4.413  -0.446   0.129  1.00  0.00    -0.003 C 
BRANCH  16  17
HETATM   17  C2  UNL     1       5.572  -0.965  -0.627  1.00  0.00    -0.010 C 
HETATM   18  C1  UNL     1       6.590  -0.291  -0.154  1.00  0.00     0.011 C 
ENDBRANCH  16  17
ENDBRANCH  14  15
ENDBRANCH  13  14
ENDBRANCH   1  13
BRANCH   2  19
HETATM   19  C8  UNL     1      -0.133   2.641  -0.003  1.00  0.00     0.210 C 
BRANCH  19  20
HETATM   20  O2  UNL     1       1.211   2.419  -0.147  1.00  0.00    -0.396 OA
HETATM   21  H10 UNL     1       1.631   2.846  -0.922  1.00  0.00     0.209 HD
ENDBRANCH  19  20
ENDBRANCH   2  19
TORSDOF 6
