REMARK  5 active torsions:
REMARK  status: ('A' for Active; 'I' for Inactive)
REMARK    1  A    between atoms: C2_3  and  S1_4 
REMARK    2  A    between atoms: C2_3  and  N2_6 
REMARK    3  A    between atoms: C4_8  and  C5_9 
REMARK    4  A    between atoms: C12_17  and  C13_18 
REMARK    5  A    between atoms: C16_21  and  O1_22 
ROOT
HETATM    1  N2  UNL     1      -0.721   1.153  -0.465  1.00  0.00    -0.237 N 
HETATM    2  N3  UNL     1      -2.050   0.683  -0.287  1.00  0.00    -0.173 NA
HETATM    3  C4  UNL     1      -2.078  -0.585  -0.248  1.00  0.00     0.067 C 
HETATM    4  C11 UNL     1      -0.690  -1.096  -0.406  1.00  0.00     0.094 C 
HETATM    5  C12 UNL     1      -0.047   0.091  -1.104  1.00  0.00     0.151 C 
ENDROOT
BRANCH   5   6
HETATM    6  C13 UNL     1       1.401  -0.029  -0.832  1.00  0.00    -0.033 A 
HETATM    7  C14 UNL     1       2.298   1.026  -0.832  1.00  0.00     0.012 A 
HETATM    8  C15 UNL     1       3.629   0.884  -0.577  1.00  0.00     0.037 A 
HETATM    9  C16 UNL     1       4.161  -0.339  -0.301  1.00  0.00     0.068 A 
HETATM   10  C18 UNL     1       3.335  -1.446  -0.280  1.00  0.00     0.037 A 
HETATM   11  C19 UNL     1       1.992  -1.268  -0.542  1.00  0.00     0.012 A 
BRANCH   9  12
HETATM   12  O1  UNL     1       5.518  -0.483  -0.041  1.00  0.00    -0.356 OA
HETATM   13  C17 UNL     1       6.057  -1.761   0.245  1.00  0.00     0.210 C 
ENDBRANCH   9  12
ENDBRANCH   5   6
BRANCH   1  14
HETATM   14  C2  UNL     1      -0.382   2.453  -0.013  1.00  0.00     0.180 C 
HETATM   15  N1  UNL     1       0.033   3.105   1.022  1.00  0.00    -0.270 NA
HETATM   16  C1  UNL     1       0.335   2.547   2.300  1.00  0.00     0.180 C 
BRANCH  14  17
HETATM   17  S1  UNL     1      -0.705   3.359  -1.535  1.00  0.00    -0.095 SA
HETATM   18  C3  UNL     1      -0.359   5.121  -1.296  1.00  0.00     0.099 C 
ENDBRANCH  14  17
ENDBRANCH   1  14
BRANCH   3  19
HETATM   19  C5  UNL     1      -3.266  -1.430  -0.077  1.00  0.00    -0.010 A 
HETATM   20  C6  UNL     1      -4.508  -0.844   0.060  1.00  0.00     0.015 A 
HETATM   21  C7  UNL     1      -5.598  -1.684   0.219  1.00  0.00     0.020 A 
HETATM   22  C8  UNL     1      -5.472  -3.050   0.242  1.00  0.00     0.011 A 
HETATM   23 BR1  UNL     1      -6.949  -4.251   0.459  1.00  0.00    -0.051 Br
HETATM   24  C9  UNL     1      -4.244  -3.656   0.106  1.00  0.00     0.020 A 
HETATM   25  C10 UNL     1      -3.157  -2.805  -0.052  1.00  0.00     0.015 A 
ENDBRANCH   3  19
TORSDOF 5
