REMARK  3 active torsions:
REMARK  status: ('A' for Active; 'I' for Inactive)
REMARK    1  A    between atoms: O1_2  and  C2_3 
REMARK    2  A    between atoms: C7_8  and  C8_9 
REMARK    3  A    between atoms: C14_19  and  O2_20 
ROOT
HETATM    1  C2  UNL     1      -3.633   0.906  -0.965  1.00  0.00     0.054 C 
HETATM    2  C3  UNL     1      -2.411   1.026  -0.513  1.00  0.00     0.081 C 
HETATM    3  C4  UNL     1      -1.116   1.393   0.016  1.00  0.00     0.015 C 
HETATM    4  C5  UNL     1      -0.056   0.584   0.200  1.00  0.00     0.057 A 
HETATM    5  C6  UNL     1       1.185   1.191   0.772  1.00  0.00     0.122 A 
HETATM    6  C7  UNL     1       2.146   0.122   0.867  1.00  0.00     0.072 A 
HETATM    7  N1  UNL     1       1.596  -0.942   0.416  1.00  0.00    -0.155 NA
HETATM    8  N2  UNL     1       0.300  -0.770  -0.006  1.00  0.00    -0.176 N 
HETATM    9  N3  UNL     1      -0.033  -2.094  -0.467  1.00  0.00    -0.256 N 
HETATM   10  C14 UNL     1       0.388  -2.568  -1.777  1.00  0.00     0.174 C 
HETATM   11  C15 UNL     1      -0.366  -2.520  -2.839  1.00  0.00     0.061 C 
HETATM   12  S1  UNL     1      -1.947  -2.871  -2.619  1.00  0.00    -0.188 SA
HETATM   13  C16 UNL     1      -2.671  -2.170  -1.167  1.00  0.00     0.092 C 
HETATM   14  C17 UNL     1      -4.014  -1.616  -1.566  1.00  0.00    -0.015 C 
HETATM   15  C18 UNL     1      -4.256  -0.318  -1.418  1.00  0.00     0.029 C 
HETATM   16  H12 UNL     1      -0.568  -2.786   0.103  1.00  0.00     0.191 HD
HETATM   17  H14 UNL     1      -2.667  -2.913  -3.829  1.00  0.00     0.096 HD
ENDROOT
BRANCH   6  18
HETATM   18  C8  UNL     1       3.426   0.536   1.427  1.00  0.00    -0.009 A 
HETATM   19  C9  UNL     1       3.873   1.754   1.878  1.00  0.00     0.015 A 
HETATM   20  C10 UNL     1       5.141   1.873   2.364  1.00  0.00     0.020 A 
HETATM   21  C11 UNL     1       5.989   0.789   2.411  1.00  0.00     0.011 A 
HETATM   22 BR1  UNL     1       7.743   1.129   3.125  1.00  0.00    -0.051 Br
HETATM   23  C12 UNL     1       5.584  -0.453   1.970  1.00  0.00     0.020 A 
HETATM   24  C13 UNL     1       4.281  -0.572   1.472  1.00  0.00     0.015 A 
ENDBRANCH   6  18
BRANCH  10  25
HETATM   25  O2  UNL     1       1.673  -2.987  -1.402  1.00  0.00    -0.344 OA
HETATM   26  H13 UNL     1       1.865  -3.891  -0.992  1.00  0.00     0.219 HD
ENDBRANCH  10  25
BRANCH   1  27
HETATM   27  O1  UNL     1      -4.669   1.838  -1.141  1.00  0.00    -0.360 OA
HETATM   28  C1  UNL     1      -4.882   2.954  -0.343  1.00  0.00     0.209 C 
ENDBRANCH   1  27
TORSDOF 3
