REMARK  1 active torsions:
REMARK  status: ('A' for Active; 'I' for Inactive)
REMARK    1  A    between atoms: C11_15  and  O2_16 
ROOT
HETATM    1  C1  UNL     1      -3.773   2.712   1.473  1.00  0.00     0.051 C 
HETATM    2  C2  UNL     1      -2.557   2.191   0.827  1.00  0.00    -0.024 A 
HETATM    3  C3  UNL     1      -1.311   2.529   0.573  1.00  0.00     0.054 A 
HETATM    4  C4  UNL     1      -1.023   1.244  -0.125  1.00  0.00     0.218 A 
HETATM    5  C5  UNL     1      -2.316   0.930   0.157  1.00  0.00     0.113 A 
HETATM    6  O1  UNL     1      -2.406  -0.299  -0.388  1.00  0.00    -0.348 OA
HETATM    7  C6  UNL     1      -2.966  -1.494  -0.049  1.00  0.00     0.176 C 
HETATM    8  C7  UNL     1      -2.243  -2.698  -0.580  1.00  0.00     0.033 C 
HETATM    9  C8  UNL     1      -0.894  -2.969  -0.018  1.00  0.00     0.063 C 
HETATM   10  C9  UNL     1       0.116  -1.889  -0.086  1.00  0.00     0.061 C 
HETATM   11  N1  UNL     1      -0.420  -0.878  -0.538  1.00  0.00    -0.066 NA
HETATM   12  N2  UNL     1      -0.053   0.413  -0.836  1.00  0.00     0.174 N 
HETATM   13  C10 UNL     1       0.697   1.367  -1.423  1.00  0.00     0.334 A 
HETATM   14  N3  UNL     1       1.348   2.329  -2.046  1.00  0.00    -0.189 NA
HETATM   15  C11 UNL     1       2.638   2.421  -1.736  1.00  0.00     0.179 A 
HETATM   16  C12 UNL     1       3.253   1.546  -0.804  1.00  0.00     0.058 A 
HETATM   17  S1  UNL     1       1.861   0.466  -0.297  1.00  0.00     0.094 SA
HETATM   18  C13 UNL     1       4.169   0.766   0.129  1.00  0.00     0.106 C 
HETATM   19  C14 UNL     1       3.600  -0.536   0.396  1.00  0.00     0.045 C 
HETATM   20  C15 UNL     1       3.118  -1.587   0.606  1.00  0.00    -0.136 C 
HETATM   21  C16 UNL     1       2.528  -2.819   0.843  1.00  0.00     0.070 C 
HETATM   22  C17 UNL     1       1.364  -2.425   0.412  1.00  0.00     0.057 C 
ENDROOT
BRANCH  15  23
HETATM   23  O2  UNL     1       3.763   3.184  -2.046  1.00  0.00    -0.344 OA
HETATM   24  H11 UNL     1       3.838   4.116  -1.613  1.00  0.00     0.219 HD
ENDBRANCH  15  23
TORSDOF 1
