REMARK  4 active torsions:
REMARK  status: ('A' for Active; 'I' for Inactive)
REMARK    1  A    between atoms: C5_5  and  C6_6 
REMARK    2  A    between atoms: N2_8  and  C7_9 
REMARK    3  A    between atoms: C8_11  and  O1_12 
REMARK    4  A    between atoms: C10_15  and  C11_16 
ROOT
HETATM    1  C6  UNL     1      -0.948   0.475  -0.012  1.00  0.00     0.064 C 
HETATM    2  N1  UNL     1       0.035   1.056   0.594  1.00  0.00    -0.174 NA
HETATM    3  N2  UNL     1       1.207   0.945  -0.158  1.00  0.00    -0.236 N 
HETATM    4  C10 UNL     1       1.027  -0.099  -1.126  1.00  0.00     0.151 C 
HETATM    5  C17 UNL     1      -0.457  -0.117  -1.289  1.00  0.00     0.094 C 
ENDROOT
BRANCH   3   6
HETATM    6  C7  UNL     1       2.297   1.864   0.158  1.00  0.00     0.192 A 
HETATM    7  N3  UNL     1       2.568   2.842  -0.363  1.00  0.00    -0.198 NA
HETATM    8  C8  UNL     1       3.535   3.711  -0.117  1.00  0.00     0.171 A 
HETATM    9  C9  UNL     1       4.318   3.351   0.936  1.00  0.00     0.111 A 
HETATM   10  S1  UNL     1       3.609   1.765   1.520  1.00  0.00    -0.058 SA
BRANCH   8  11
HETATM   11  O1  UNL     1       3.664   4.874  -0.920  1.00  0.00    -0.344 OA
HETATM   12  H6  UNL     1       4.449   5.500  -0.840  1.00  0.00     0.219 HD
ENDBRANCH   8  11
ENDBRANCH   3   6
BRANCH   4  13
HETATM   13  C11 UNL     1       1.598  -1.396  -0.751  1.00  0.00    -0.033 A 
HETATM   14  C12 UNL     1       2.325  -2.114  -1.709  1.00  0.00     0.009 A 
HETATM   15  C13 UNL     1       2.929  -3.356  -1.511  1.00  0.00     0.001 A 
HETATM   16  C14 UNL     1       2.812  -3.932  -0.284  1.00  0.00     0.000 A 
HETATM   17  C15 UNL     1       2.093  -3.242   0.700  1.00  0.00     0.001 A 
HETATM   18  C16 UNL     1       1.512  -2.023   0.465  1.00  0.00     0.009 A 
ENDBRANCH   4  13
BRANCH   1  19
HETATM   19  C5  UNL     1      -2.302   0.447   0.562  1.00  0.00    -0.028 A 
HETATM   20  C4  UNL     1      -2.629   0.984   1.714  1.00  0.00     0.010 A 
HETATM   21  C3  UNL     1      -4.076   0.714   1.887  1.00  0.00     0.003 A 
HETATM   22  C2  UNL     1      -4.602   0.047   0.889  1.00  0.00    -0.080 A 
HETATM   23  C1  UNL     1      -6.005  -0.407   0.705  1.00  0.00     0.043 C 
HETATM   24  C18 UNL     1      -3.504  -0.171  -0.067  1.00  0.00     0.074 A 
ENDBRANCH   1  19
TORSDOF 4
