REMARK  7 active torsions:
REMARK  status: ('A' for Active; 'I' for Inactive)
REMARK    1  A    between atoms: O1_2  and  C2_3 
REMARK    2  A    between atoms: C5_6  and  C6_7 
REMARK    3  A    between atoms: C8_9  and  C9_10 
REMARK    4  A    between atoms: C9_10  and  C10_11 
REMARK    5  A    between atoms: C11_12  and  C12_13 
REMARK    6  A    between atoms: N2_16  and  C13_17 
REMARK    7  A    between atoms: C14_19  and  O2_20 
ROOT
HETATM    1  C6  UNL     1       0.134  -0.083  -1.331  1.00  0.00     0.151 C 
HETATM    2  C7  UNL     1      -0.538  -1.316  -0.733  1.00  0.00     0.089 C 
HETATM    3  C8  UNL     1      -1.950  -1.001  -1.158  1.00  0.00     0.038 C 
HETATM    4  N1  UNL     1      -2.019   0.263  -1.240  1.00  0.00    -0.178 NA
HETATM    5  N2  UNL     1      -0.824   0.917  -0.926  1.00  0.00    -0.237 N 
ENDROOT
BRANCH   1   6
HETATM    6  C5  UNL     1       1.491   0.102  -0.817  1.00  0.00    -0.033 A 
HETATM    7  C4  UNL     1       2.161  -0.973  -0.274  1.00  0.00     0.012 A 
HETATM    8  C3  UNL     1       3.455  -0.819   0.219  1.00  0.00     0.037 A 
HETATM    9  C2  UNL     1       4.125   0.379   0.196  1.00  0.00     0.068 A 
HETATM   10  C17 UNL     1       3.462   1.467  -0.346  1.00  0.00     0.037 A 
HETATM   11  C16 UNL     1       2.181   1.288  -0.829  1.00  0.00     0.012 A 
BRANCH   9  12
HETATM   12  O1  UNL     1       5.409   0.540   0.683  1.00  0.00    -0.356 OA
HETATM   13  C1  UNL     1       6.134  -0.521   1.246  1.00  0.00     0.210 C 
ENDBRANCH   9  12
ENDBRANCH   1   6
BRANCH   5  14
HETATM   14  C13 UNL     1      -0.757   2.229  -0.358  1.00  0.00     0.192 A 
HETATM   15  N3  UNL     1      -0.739   3.347  -0.631  1.00  0.00    -0.198 NA
HETATM   16  C14 UNL     1      -0.662   4.401   0.153  1.00  0.00     0.171 A 
HETATM   17  C15 UNL     1      -0.589   4.118   1.553  1.00  0.00     0.111 A 
HETATM   18  S1  UNL     1      -0.647   2.228   1.539  1.00  0.00    -0.058 SA
BRANCH  16  19
HETATM   19  O2  UNL     1      -0.664   5.636  -0.531  1.00  0.00    -0.344 OA
HETATM   20  H15 UNL     1      -1.498   6.042  -0.911  1.00  0.00     0.219 HD
ENDBRANCH  16  19
ENDBRANCH   5  14
BRANCH   3  21
HETATM   21  C9  UNL     1      -2.938  -2.087  -1.392  1.00  0.00     0.083 C 
BRANCH  21  22
HETATM   22  C10 UNL     1      -3.113  -2.849  -0.138  1.00  0.00    -0.024 C 
HETATM   23  C11 UNL     1      -4.263  -2.973   0.494  1.00  0.00    -0.016 C 
BRANCH  23  24
HETATM   24  C12 UNL     1      -5.598  -2.426   0.153  1.00  0.00     0.141 C 
HETATM   25 CL1  UNL     1      -6.191  -1.365   1.456  1.00  0.00    -0.126 Cl
ENDBRANCH  23  24
ENDBRANCH  21  22
ENDBRANCH   3  21
TORSDOF 7
