REMARK  5 active torsions:
REMARK  status: ('A' for Active; 'I' for Inactive)
REMARK    1  A    between atoms: C5_6  and  C6_7 
REMARK    2  A    between atoms: C6_7  and  C7_8 
REMARK    3  A    between atoms: N2_10  and  C8_11 
REMARK    4  A    between atoms: C9_13  and  O1_14 
REMARK    5  A    between atoms: C11_17  and  C12_18 
ROOT
HETATM    1  C7  UNL     1      -0.704  -0.688  -0.443  1.00  0.00     0.039 C 
HETATM    2  N1  UNL     1       0.170  -1.603  -0.293  1.00  0.00    -0.178 NA
HETATM    3  N2  UNL     1       1.303  -1.119   0.368  1.00  0.00    -0.237 N 
HETATM    4  C11 UNL     1       1.079   0.182   0.873  1.00  0.00     0.151 C 
HETATM    5  C18 UNL     1      -0.204   0.591   0.129  1.00  0.00     0.089 C 
ENDROOT
BRANCH   1   6
HETATM    6  C6  UNL     1      -2.052  -0.800  -1.099  1.00  0.00     0.089 C 
BRANCH   6   7
HETATM    7  C5  UNL     1      -3.143  -0.452  -0.168  1.00  0.00    -0.083 C 
HETATM    8  C4  UNL     1      -3.271  -1.255   1.073  1.00  0.00    -0.018 C 
HETATM    9  B1  UNL     1      -3.601  -0.005   2.369  1.00  0.00     0.187 B 
HETATM   10  C3  UNL     1      -4.924   1.156   1.609  1.00  0.00    -0.106 C 
HETATM   11  C2  UNL     1      -5.017   1.008   0.320  1.00  0.00    -0.068 C 
HETATM   12  C1  UNL     1      -6.362   1.335  -0.277  1.00  0.00     0.047 C 
HETATM   13  C19 UNL     1      -3.915   0.561  -0.518  1.00  0.00     0.008 C 
ENDBRANCH   6   7
ENDBRANCH   1   6
BRANCH   3  14
HETATM   14  C8  UNL     1       2.398  -2.077   0.364  1.00  0.00     0.192 A 
HETATM   15  N3  UNL     1       2.948  -2.722  -0.446  1.00  0.00    -0.198 NA
HETATM   16  C9  UNL     1       3.944  -3.563  -0.237  1.00  0.00     0.171 A 
HETATM   17  C10 UNL     1       4.392  -3.693   1.137  1.00  0.00     0.111 A 
HETATM   18  S1  UNL     1       3.230  -2.492   2.024  1.00  0.00    -0.058 SA
BRANCH  16  19
HETATM   19  O1  UNL     1       4.473  -4.242  -1.324  1.00  0.00    -0.344 OA
HETATM   20  H8  UNL     1       3.916  -4.831  -1.934  1.00  0.00     0.219 HD
ENDBRANCH  16  19
ENDBRANCH   3  14
BRANCH   4  21
HETATM   21  C12 UNL     1       2.076   1.209   0.535  1.00  0.00    -0.033 A 
HETATM   22  C13 UNL     1       1.670   2.514   0.226  1.00  0.00     0.009 A 
HETATM   23  C14 UNL     1       2.529   3.519  -0.104  1.00  0.00     0.001 A 
HETATM   24  C15 UNL     1       3.888   3.287  -0.151  1.00  0.00     0.000 A 
HETATM   25  C16 UNL     1       4.346   2.037   0.140  1.00  0.00     0.001 A 
HETATM   26  C17 UNL     1       3.442   1.050   0.469  1.00  0.00     0.009 A 
ENDBRANCH   4  21
TORSDOF 5
