REMARK  3 active torsions:
REMARK  status: ('A' for Active; 'I' for Inactive)
REMARK    1  A    between atoms: C5_5  and  C6_6 
REMARK    2  A    between atoms: N2_8  and  C7_9 
REMARK    3  A    between atoms: C10_14  and  C11_15 
ROOT
HETATM    1  C6  UNL     1       0.854   0.405   0.143  1.00  0.00     0.067 A 
HETATM    2  N1  UNL     1       0.036   1.266  -0.285  1.00  0.00    -0.173 NA
HETATM    3  N2  UNL     1      -1.212   1.109   0.327  1.00  0.00    -0.236 N 
HETATM    4  C10 UNL     1      -1.179   0.007   1.214  1.00  0.00     0.151 A 
HETATM    5  C17 UNL     1       0.232  -0.486   1.147  1.00  0.00     0.094 A 
ENDROOT
BRANCH   1   6
HETATM    6  C5  UNL     1       2.273   0.121  -0.161  1.00  0.00    -0.010 A 
HETATM    7  C4  UNL     1       3.080  -0.861   0.353  1.00  0.00     0.014 A 
HETATM    8  C3  UNL     1       4.376  -1.008  -0.006  1.00  0.00     0.007 A 
HETATM    9  C2  UNL     1       4.945  -0.149  -0.929  1.00  0.00    -0.062 A 
HETATM   10  C1  UNL     1       6.377  -0.424  -1.235  1.00  0.00     0.048 C 
HETATM   11  C19 UNL     1       4.182   0.871  -1.490  1.00  0.00     0.007 A 
HETATM   12  C18 UNL     1       2.854   0.980  -1.089  1.00  0.00     0.014 A 
ENDBRANCH   1   6
BRANCH   3  13
HETATM   13  C7  UNL     1      -2.158   2.130  -0.128  1.00  0.00     0.189 A 
HETATM   14  N3  UNL     1      -2.900   2.371  -1.280  1.00  0.00    -0.235 NA
HETATM   15  C8  UNL     1      -3.622   3.464  -1.092  1.00  0.00     0.127 A 
HETATM   16  C9  UNL     1      -3.762   4.386   0.024  1.00  0.00     0.072 A 
HETATM   17  S1  UNL     1      -2.548   3.502   1.162  1.00  0.00    -0.061 SA
ENDBRANCH   3  13
BRANCH   4  18
HETATM   18  C11 UNL     1      -2.194  -1.039   0.925  1.00  0.00    -0.033 A 
HETATM   19  C12 UNL     1      -2.021  -2.406   0.943  1.00  0.00     0.009 A 
HETATM   20  C13 UNL     1      -3.005  -3.313   0.658  1.00  0.00     0.001 A 
HETATM   21  C14 UNL     1      -4.257  -2.861   0.330  1.00  0.00     0.000 A 
HETATM   22  C15 UNL     1      -4.512  -1.507   0.290  1.00  0.00     0.001 A 
HETATM   23  C16 UNL     1      -3.490  -0.649   0.584  1.00  0.00     0.009 A 
ENDBRANCH   4  18
TORSDOF 3
