REMARK  2 active torsions:
REMARK  status: ('A' for Active; 'I' for Inactive)
REMARK    1  A    between atoms: C5_5  and  C6_6 
REMARK    2  A    between atoms: C8_11  and  O1_12 
ROOT
HETATM    1  C6  UNL     1       0.799   0.318   0.938  1.00  0.00     0.069 C 
HETATM    2  N1  UNL     1      -0.179  -0.471   1.192  1.00  0.00    -0.177 NA
HETATM    3  N2  UNL     1      -0.172  -1.855   1.105  1.00  0.00    -0.271 N 
HETATM    4  C7  UNL     1      -1.595  -2.037   1.262  1.00  0.00     0.228 C 
HETATM    5  N3  UNL     1      -2.447  -2.188   0.292  1.00  0.00    -0.219 NA
HETATM    6  C8  UNL     1      -3.845  -2.365   0.480  1.00  0.00     0.163 C 
HETATM    7  C9  UNL     1      -4.732  -1.363   0.346  1.00  0.00     0.069 C 
HETATM    8  C10 UNL     1      -3.872  -0.236  -0.001  1.00  0.00    -0.032 A 
HETATM    9  C11 UNL     1      -3.207  -0.222  -1.215  1.00  0.00     0.012 A 
HETATM   10  C12 UNL     1      -2.392   0.847  -1.542  1.00  0.00     0.008 A 
HETATM   11  C13 UNL     1      -2.246   1.895  -0.653  1.00  0.00    -0.054 A 
HETATM   12  C14 UNL     1      -2.910   1.879   0.557  1.00  0.00     0.008 A 
HETATM   13  C15 UNL     1      -3.726   0.812   0.887  1.00  0.00     0.012 A 
HETATM   14  C16 UNL     1      -1.369   3.043  -1.002  1.00  0.00     0.070 C 
HETATM   15  P1  UNL     1       0.384   2.714  -0.448  1.00  0.00    -0.119 P 
HETATM   16  C17 UNL     1       0.399   1.729   1.133  1.00  0.00     0.093 C 
HETATM   17  H6  UNL     1      -0.059  -2.878   1.027  1.00  0.00     0.190 HD
HETATM   18  H16 UNL     1       0.978   1.848  -1.459  1.00  0.00     0.058 HD
ENDROOT
BRANCH   1  19
HETATM   19  C5  UNL     1       2.169   0.072   0.498  1.00  0.00    -0.009 A 
HETATM   20  C4  UNL     1       3.064   1.100   0.298  1.00  0.00     0.014 A 
HETATM   21  C3  UNL     1       4.351   0.855  -0.121  1.00  0.00     0.007 A 
HETATM   22  C2  UNL     1       4.827  -0.406  -0.364  1.00  0.00    -0.062 A 
HETATM   23  C1  UNL     1       6.218  -0.621  -0.813  1.00  0.00     0.048 C 
HETATM   24  C19 UNL     1       3.954  -1.456  -0.172  1.00  0.00     0.007 A 
HETATM   25  C18 UNL     1       2.669  -1.188   0.248  1.00  0.00     0.014 A 
ENDBRANCH   1  19
BRANCH   6  26
HETATM   26  O1  UNL     1      -4.198  -3.677   0.816  1.00  0.00    -0.345 OA
HETATM   27  H8  UNL     1      -4.202  -4.325   0.020  1.00  0.00     0.219 HD
ENDBRANCH   6  26
TORSDOF 2
