REMARK  4 active torsions:
REMARK  status: ('A' for Active; 'I' for Inactive)
REMARK    1  A    between atoms: C2_2  and  C3_3 
REMARK    2  A    between atoms: C6_6  and  N1_7 
REMARK    3  A    between atoms: N1_7  and  C7_8 
REMARK    4  A    between atoms: N1_7  and  C10_13 
ROOT
HETATM    1  N1  UNL     1      -1.110   0.241  -0.417  1.00  0.00    -0.301 N 
ENDROOT
BRANCH   1   2
HETATM    2  C6  UNL     1       0.251   0.123  -0.150  1.00  0.00     0.039 A 
HETATM    3  C5  UNL     1       1.150   1.176  -0.343  1.00  0.00     0.030 A 
HETATM    4  C4  UNL     1       2.499   1.089  -0.089  1.00  0.00     0.013 A 
HETATM    5  C3  UNL     1       3.014  -0.095   0.385  1.00  0.00    -0.037 A 
HETATM    6  C16 UNL     1       2.202  -1.187   0.605  1.00  0.00     0.013 A 
HETATM    7  C15 UNL     1       0.862  -1.016   0.325  1.00  0.00     0.030 A 
BRANCH   5   8
HETATM    8  C2  UNL     1       4.443  -0.161   0.646  1.00  0.00     0.001 C 
HETATM    9  C1  UNL     1       5.175   0.911   0.418  1.00  0.00     0.012 C 
ENDBRANCH   5   8
ENDBRANCH   1   2
BRANCH   1  10
HETATM   10  C7  UNL     1      -1.532   1.567  -0.923  1.00  0.00     0.175 A 
HETATM   11  N2  UNL     1      -1.872   2.467  -0.319  1.00  0.00    -0.236 NA
HETATM   12  C8  UNL     1      -2.257   3.665  -0.723  1.00  0.00     0.126 A 
HETATM   13  C9  UNL     1      -2.251   3.873  -2.060  1.00  0.00     0.072 A 
HETATM   14  S1  UNL     1      -1.651   2.218  -2.705  1.00  0.00    -0.062 SA
ENDBRANCH   1  10
BRANCH   1  15
HETATM   15  C10 UNL     1      -2.161  -0.706  -0.282  1.00  0.00     0.215 A 
HETATM   16  C11 UNL     1      -2.003  -1.931  -1.087  1.00  0.00     0.020 A 
HETATM   17  C12 UNL     1      -2.002  -3.204  -0.682  1.00  0.00     0.001 A 
HETATM   18  C13 UNL     1      -2.179  -3.408   0.751  1.00  0.00     0.017 A 
HETATM   19  C14 UNL     1      -2.331  -2.433   1.633  1.00  0.00     0.085 A 
HETATM   20  N3  UNL     1      -2.314  -1.102   1.115  1.00  0.00    -0.375 N 
HETATM   21  H13 UNL     1      -2.424  -0.314   1.817  1.00  0.00     0.161 HD
ENDBRANCH   1  15
TORSDOF 4
