REMARK  1 active torsions:
REMARK  status: ('A' for Active; 'I' for Inactive)
REMARK    1  A    between atoms: C17_20  and  O1_21 
ROOT
HETATM    1  C1  UNL     1      -5.247   2.134  -0.118  1.00  0.00     0.048 C 
HETATM    2  C2  UNL     1      -4.210   1.052  -0.173  1.00  0.00    -0.060 A 
HETATM    3  C3  UNL     1      -4.590  -0.194  -0.650  1.00  0.00     0.009 A 
HETATM    4  C4  UNL     1      -3.637  -1.216  -0.708  1.00  0.00     0.032 A 
HETATM    5  C5  UNL     1      -2.335  -0.935  -0.281  1.00  0.00     0.056 A 
HETATM    6  C6  UNL     1      -1.992   0.336   0.194  1.00  0.00     0.070 A 
HETATM    7  C7  UNL     1      -2.926   1.338   0.251  1.00  0.00     0.039 A 
HETATM    8  N1  UNL     1      -0.672   0.674   0.643  1.00  0.00    -0.314 N 
HETATM    9  N2  UNL     1       0.495  -0.018   0.862  1.00  0.00    -0.191 NA
HETATM   10  C8  UNL     1       0.705  -1.135  -0.006  1.00  0.00     0.105 C 
HETATM   11  C9  UNL     1      -0.260  -2.270   0.268  1.00  0.00     0.142 C 
HETATM   12  N3  UNL     1      -1.521  -2.115  -0.424  1.00  0.00    -0.386 N 
HETATM   13  C10 UNL     1       2.061  -1.739   0.299  1.00  0.00     0.062 C 
HETATM   14  C11 UNL     1       3.156  -0.779   0.028  1.00  0.00    -0.046 A 
HETATM   15  C12 UNL     1       4.371  -1.082  -0.555  1.00  0.00     0.008 A 
HETATM   16  C13 UNL     1       5.313  -0.066  -0.750  1.00  0.00     0.001 A 
HETATM   17  C14 UNL     1       5.025   1.231  -0.360  1.00  0.00     0.001 A 
HETATM   18  C15 UNL     1       3.794   1.518   0.226  1.00  0.00     0.011 A 
HETATM   19  C16 UNL     1       2.857   0.513   0.421  1.00  0.00    -0.007 A 
HETATM   20  C17 UNL     1       1.582   0.859   1.038  1.00  0.00     0.247 C 
HETATM   21  H7  UNL     1      -0.627   1.710   0.843  1.00  0.00     0.181 HD
HETATM   22  H11 UNL     1      -1.880  -2.878  -1.061  1.00  0.00     0.159 HD
ENDROOT
BRANCH  20  23
HETATM   23  O1  UNL     1       1.267   2.178   0.634  1.00  0.00    -0.375 OA
HETATM   24  H19 UNL     1       1.313   2.261  -0.364  1.00  0.00     0.212 HD
ENDBRANCH  20  23
TORSDOF 1
