REMARK  6 active torsions:
REMARK  status: ('A' for Active; 'I' for Inactive)
REMARK    1  A    between atoms: N1_2  and  C3_4 
REMARK    2  A    between atoms: C3_4  and  C4_5 
REMARK    3  A    between atoms: C4_5  and  O1_6 
REMARK    4  A    between atoms: O1_6  and  C5_7 
REMARK    5  A    between atoms: C8_12  and  C9_13 
REMARK    6  A    between atoms: C10_14  and  O4_15 
ROOT
HETATM    1  C5  UNL     1      -1.883   0.830   0.062  1.00  0.00     0.102 C 
HETATM    2  C6  UNL     1      -0.894   1.737   0.227  1.00  0.00     0.183 C 
HETATM    3  O2  UNL     1       0.475   1.763   0.599  1.00  0.00    -0.284 OA
HETATM    4  C7  UNL     1       1.252   0.724   1.181  1.00  0.00     0.298 C 
HETATM    5  O3  UNL     1       1.866   0.925   2.308  1.00  0.00    -0.259 OA
HETATM    6  C8  UNL     1       1.509  -0.631   0.720  1.00  0.00     0.057 C 
HETATM    7  C19 UNL     1       0.554  -1.499   0.436  1.00  0.00     0.031 C 
HETATM    8  C20 UNL     1      -0.917  -1.665   0.393  1.00  0.00    -0.022 A 
HETATM    9  C21 UNL     1      -1.210  -2.999   0.535  1.00  0.00     0.012 A 
HETATM   10  C22 UNL     1      -2.549  -3.332   0.519  1.00  0.00     0.001 A 
HETATM   11  C23 UNL     1      -3.494  -2.326   0.365  1.00  0.00     0.001 A 
HETATM   12  C24 UNL     1      -3.218  -1.003   0.223  1.00  0.00     0.015 A 
HETATM   13  C25 UNL     1      -1.875  -0.642   0.236  1.00  0.00     0.009 A 
ENDROOT
BRANCH   6  14
HETATM   14  C9  UNL     1       2.887  -1.031   0.638  1.00  0.00     0.068 A 
HETATM   15  C10 UNL     1       3.329  -2.222   0.336  1.00  0.00     0.132 A 
HETATM   16  C11 UNL     1       4.743  -2.604   0.242  1.00  0.00     0.217 A 
HETATM   17  O5  UNL     1       5.187  -3.759  -0.045  1.00  0.00    -0.284 OA
HETATM   18  C12 UNL     1       5.828  -1.635   0.484  1.00  0.00     0.031 A 
HETATM   19  C13 UNL     1       7.168  -1.970   0.401  1.00  0.00     0.016 A 
HETATM   20  C17 UNL     1       5.365  -0.360   0.801  1.00  0.00     0.029 A 
HETATM   21  C14 UNL     1       8.129  -1.018   0.637  1.00  0.00     0.001 A 
HETATM   22  C15 UNL     1       7.704   0.250   0.952  1.00  0.00     0.001 A 
HETATM   23  C16 UNL     1       6.367   0.560   1.029  1.00  0.00     0.016 A 
HETATM   24  C18 UNL     1       3.950  -0.084   0.870  1.00  0.00     0.197 A 
HETATM   25  O6  UNL     1       3.796   1.130   1.161  1.00  0.00    -0.286 OA
BRANCH  15  26
HETATM   26  O4  UNL     1       2.621  -3.350   0.040  1.00  0.00    -0.356 OA
HETATM   27  H12 UNL     1       2.628  -3.833  -0.853  1.00  0.00     0.218 HD
ENDBRANCH  15  26
ENDBRANCH   6  14
BRANCH   1  28
HETATM   28  O1  UNL     1      -3.151   1.299  -0.340  1.00  0.00    -0.347 OA
BRANCH  28  29
HETATM   29  C4  UNL     1      -3.373   1.223  -1.737  1.00  0.00     0.206 C 
BRANCH  29  30
HETATM   30  C3  UNL     1      -4.702   1.760  -2.162  1.00  0.00     0.297 C 
BRANCH  30  31
HETATM   31  N1  UNL     1      -4.930   3.134  -1.846  1.00  0.00     0.082 N 
HETATM   32  C1  UNL     1      -5.052   3.357  -0.424  1.00  0.00     0.309 C 
HETATM   33  C2  UNL     1      -6.151   3.569  -2.490  1.00  0.00     0.309 C 
ENDBRANCH  30  31
ENDBRANCH  29  30
ENDBRANCH  28  29
ENDBRANCH   1  28
TORSDOF 6
