REMARK  4 active torsions:
REMARK  status: ('A' for Active; 'I' for Inactive)
REMARK    1  A    between atoms: C7_7  and  C8_8 
REMARK    2  A    between atoms: C10_10  and  C11_11 
REMARK    3  A    between atoms: N2_16  and  C15_17 
REMARK    4  A    between atoms: C16_19  and  O1_20 
ROOT
HETATM    1  C8  UNL     1      -0.358   0.542   0.044  1.00  0.00     0.152 C 
HETATM    2  C9  UNL     1      -0.071   1.610  -0.965  1.00  0.00     0.093 C 
HETATM    3  C10 UNL     1       1.022   2.304  -0.172  1.00  0.00     0.061 C 
HETATM    4  N1  UNL     1       1.597   1.336   0.502  1.00  0.00    -0.174 NA
HETATM    5  N2  UNL     1       1.003   0.099   0.236  1.00  0.00    -0.236 N 
ENDROOT
BRANCH   1   6
HETATM    6  C7  UNL     1      -1.216  -0.557  -0.295  1.00  0.00    -0.027 A 
HETATM    7  C2  UNL     1      -2.578  -0.359  -0.009  1.00  0.00    -0.054 A 
HETATM    8  C1  UNL     1      -3.055   0.904   0.601  1.00  0.00     0.049 C 
HETATM    9  C3  UNL     1      -3.500  -1.373  -0.304  1.00  0.00     0.007 A 
HETATM   10  C4  UNL     1      -3.130  -2.576  -0.872  1.00  0.00     0.001 A 
HETATM   11  C5  UNL     1      -1.804  -2.797  -1.163  1.00  0.00     0.001 A 
HETATM   12  C6  UNL     1      -0.929  -1.782  -0.860  1.00  0.00     0.010 A 
ENDBRANCH   1   6
BRANCH   5  13
HETATM   13  C15 UNL     1       1.951  -1.010   0.274  1.00  0.00     0.192 A 
HETATM   14  N3  UNL     1       2.111  -1.730   1.333  1.00  0.00    -0.198 NA
HETATM   15  C16 UNL     1       2.992  -2.708   1.287  1.00  0.00     0.171 A 
HETATM   16  C17 UNL     1       3.755  -2.984   0.121  1.00  0.00     0.111 A 
HETATM   17  S1  UNL     1       3.051  -1.621  -0.989  1.00  0.00    -0.058 SA
BRANCH  15  18
HETATM   18  O1  UNL     1       3.155  -3.487   2.456  1.00  0.00    -0.344 OA
HETATM   19  H12 UNL     1       2.917  -4.457   2.440  1.00  0.00     0.219 HD
ENDBRANCH  15  18
ENDBRANCH   5  13
BRANCH   3  20
HETATM   20  C11 UNL     1       1.300   3.722  -0.209  1.00  0.00    -0.031 A 
HETATM   21  C12 UNL     1       1.146   5.030  -0.592  1.00  0.00     0.017 A 
HETATM   22  C13 UNL     1       1.893   6.133  -0.171  1.00  0.00     0.022 A 
HETATM   23  C14 UNL     1       2.154   4.753   0.316  1.00  0.00     0.017 A 
ENDBRANCH   3  20
TORSDOF 4
