REMARK  5 active torsions:
REMARK  status: ('A' for Active; 'I' for Inactive)
REMARK    1  A    between atoms: C2_2  and  C3_3 
REMARK    2  A    between atoms: C5_5  and  C6_6 
REMARK    3  A    between atoms: N2_8  and  C7_9 
REMARK    4  A    between atoms: C8_11  and  O1_12 
REMARK    5  A    between atoms: C10_15  and  C11_16 
ROOT
HETATM    1  C6  UNL     1       1.680  -1.165   0.517  1.00  0.00     0.058 C 
HETATM    2  N1  UNL     1       1.393  -0.030   0.017  1.00  0.00    -0.174 NA
HETATM    3  N2  UNL     1       0.040   0.260   0.009  1.00  0.00    -0.237 N 
HETATM    4  C10 UNL     1      -0.560  -1.055  -0.028  1.00  0.00     0.151 C 
HETATM    5  C17 UNL     1       0.385  -1.778   0.926  1.00  0.00     0.093 C 
ENDROOT
BRANCH   3   6
HETATM    6  C7  UNL     1      -0.690   1.504   0.028  1.00  0.00     0.188 A 
HETATM    7  N3  UNL     1      -0.981   1.929  -1.085  1.00  0.00    -0.222 NA
HETATM    8  C8  UNL     1      -1.657   3.098  -0.785  1.00  0.00     0.318 A 
HETATM    9  S1  UNL     1      -1.409   2.789   0.948  1.00  0.00    -0.035 SA
BRANCH   8  10
HETATM   10  O1  UNL     1      -3.016   3.163  -1.153  1.00  0.00    -0.360 OA
HETATM   11  C9  UNL     1      -3.284   4.348  -1.835  1.00  0.00     0.205 C 
ENDBRANCH   8  10
ENDBRANCH   3   6
BRANCH   4  12
HETATM   12  C11 UNL     1      -1.951  -1.118   0.401  1.00  0.00    -0.033 A 
HETATM   13  C12 UNL     1      -2.486  -0.518   1.495  1.00  0.00     0.009 A 
HETATM   14  C13 UNL     1      -3.821  -0.586   1.893  1.00  0.00     0.001 A 
HETATM   15  C14 UNL     1      -4.658  -1.333   1.092  1.00  0.00     0.000 A 
HETATM   16  C15 UNL     1      -4.203  -1.979  -0.041  1.00  0.00     0.001 A 
HETATM   17  C16 UNL     1      -2.867  -1.857  -0.359  1.00  0.00     0.009 A 
ENDBRANCH   4  12
BRANCH   1  18
HETATM   18  C5  UNL     1       3.022  -1.757   0.667  1.00  0.00     0.035 C 
HETATM   19  C3  UNL     1       4.086  -1.123   0.273  1.00  0.00    -0.064 C 
HETATM   20  C4  UNL     1       3.977   0.220  -0.339  1.00  0.00     0.048 C 
BRANCH  19  21
HETATM   21  C2  UNL     1       5.391  -1.771   0.451  1.00  0.00    -0.020 C 
HETATM   22  C1  UNL     1       6.464  -1.120   0.048  1.00  0.00     0.031 C 
ENDBRANCH  19  21
ENDBRANCH   1  18
TORSDOF 5
