REMARK  5 active torsions:
REMARK  status: ('A' for Active; 'I' for Inactive)
REMARK    1  A    between atoms: B1_1  and  C1_2 
REMARK    2  A    between atoms: C1_2  and  S1_3 
REMARK    3  A    between atoms: S1_3  and  C2_4 
REMARK    4  A    between atoms: C2_4  and  N1_5 
REMARK    5  A    between atoms: C10_16  and  C11_17 
ROOT
HETATM    1  N1  UNL     1       0.466   0.575   0.025  1.00  0.00    -0.269 NA
HETATM    2  P1  UNL     1      -1.112   1.102  -0.570  1.00  0.00    -0.016 P 
HETATM    3  C3  UNL     1      -2.430  -0.010   0.105  1.00  0.00     0.015 A 
HETATM    4  C4  UNL     1      -2.246  -1.266   0.544  1.00  0.00     0.078 A 
HETATM    5  N2  UNL     1      -3.357  -1.999   1.036  1.00  0.00    -0.380 N 
HETATM    6  C5  UNL     1      -4.698  -1.453   1.089  1.00  0.00     0.154 A 
HETATM    7  C6  UNL     1      -4.734  -0.062   0.570  1.00  0.00    -0.065 A 
HETATM    8  C7  UNL     1      -6.091   0.515   0.615  1.00  0.00     0.045 C 
HETATM    9  C8  UNL     1      -3.726   0.658   0.103  1.00  0.00     0.020 A 
HETATM   10  S2  UNL     1      -0.689  -2.183   0.589  1.00  0.00    -0.110 SA
HETATM   11  C9  UNL     1       0.236  -1.706  -0.884  1.00  0.00     0.105 C 
HETATM   12  C10 UNL     1       1.073  -0.485  -0.726  1.00  0.00     0.106 C 
HETATM   13  H5  UNL     1      -1.167   1.131  -2.019  1.00  0.00     0.079 HD
HETATM   14  H6  UNL     1      -3.218  -2.964   1.374  1.00  0.00     0.160 HD
ENDROOT
BRANCH  12  15
HETATM   15  C11 UNL     1       2.403  -0.804  -0.217  1.00  0.00    -0.039 A 
HETATM   16  C12 UNL     1       2.626  -0.927   1.142  1.00  0.00     0.009 A 
HETATM   17  C13 UNL     1       3.900  -1.231   1.625  1.00  0.00     0.001 A 
HETATM   18  C14 UNL     1       4.988  -1.422   0.768  1.00  0.00     0.000 A 
HETATM   19  C15 UNL     1       4.758  -1.298  -0.587  1.00  0.00     0.001 A 
HETATM   20  C16 UNL     1       3.492  -0.997  -1.044  1.00  0.00     0.009 A 
ENDBRANCH  12  15
BRANCH   1  21
HETATM   21  C2  UNL     1       1.349   1.714   0.077  1.00  0.00     0.172 C 
BRANCH  21  22
HETATM   22  S1  UNL     1       1.584   2.489  -1.559  1.00  0.00    -0.143 SA
BRANCH  22  23
HETATM   23  C1  UNL     1       2.706   3.874  -1.279  1.00  0.00    -0.051 C 
BRANCH  23  24
HETATM   24  B1  UNL     1       4.013   3.367  -2.287  1.00  0.00     0.153 B 
HETATM   25  H1  UNL     1       5.718   4.769  -2.303  1.00  0.00    -0.031 HD
ENDBRANCH  23  24
ENDBRANCH  22  23
ENDBRANCH  21  22
ENDBRANCH   1  21
TORSDOF 5
