REMARK  8 active torsions:
REMARK  status: ('A' for Active; 'I' for Inactive)
REMARK    1  A    between atoms: C2_2  and  N1_3 
REMARK    2  A    between atoms: C5_7  and  N3_8 
REMARK    3  A    between atoms: N3_8  and  C6_9 
REMARK    4  A    between atoms: C10_13  and  C11_14 
REMARK    5  A    between atoms: C13_20  and  N5_21 
REMARK    6  A    between atoms: N5_21  and  C14_22 
REMARK    7  A    between atoms: C14_22  and  C15_23 
REMARK    8  A    between atoms: C15_23  and  N6_24 
ROOT
HETATM    1  N1  UNL     1      -1.448  -2.574   0.073  1.00  0.00    -0.324 N 
HETATM    2  C3  UNL     1      -0.193  -3.013   0.227  1.00  0.00     0.212 A 
HETATM    3  N2  UNL     1       0.646  -1.973   0.126  1.00  0.00    -0.236 NA
HETATM    4  C4  UNL     1      -0.033  -0.855  -0.093  1.00  0.00     0.151 A 
HETATM    5  C5  UNL     1       0.390   0.441  -0.256  1.00  0.00     0.180 A 
HETATM    6  N4  UNL     1      -0.610   1.317  -0.452  1.00  0.00    -0.043 NA
HETATM    7  C13 UNL     1      -1.905   0.969  -0.489  1.00  0.00     0.726 A 
HETATM    8  N7  UNL     1      -2.284  -0.298  -0.328  1.00  0.00    -0.042 NA
HETATM    9  C16 UNL     1      -1.361  -1.250  -0.125  1.00  0.00     0.182 A 
ENDROOT
BRANCH   5  10
HETATM   10  N3  UNL     1       1.696   0.914  -0.254  1.00  0.00    -0.338 N 
HETATM   11  H7  UNL     1       1.838   1.969  -0.285  1.00  0.00     0.167 HD
BRANCH  10  12
HETATM   12  C6  UNL     1       2.986   0.339  -0.226  1.00  0.00     0.034 A 
HETATM   13  C7  UNL     1       3.369  -0.794  -0.908  1.00  0.00     0.029 A 
HETATM   14  C8  UNL     1       4.613  -1.387  -0.869  1.00  0.00     0.003 A 
HETATM   15  C9  UNL     1       5.558  -0.798  -0.079  1.00  0.00     0.016 A 
HETATM   16  C10 UNL     1       5.283   0.339   0.647  1.00  0.00     0.050 A 
HETATM   17  C12 UNL     1       4.019   0.864   0.551  1.00  0.00     0.045 A 
BRANCH  16  18
HETATM   18  C11 UNL     1       6.343   0.945   1.493  1.00  0.00     0.417 C 
HETATM   19  F1  UNL     1       5.796   1.849   2.377  1.00  0.00    -0.166 F 
HETATM   20  F2  UNL     1       7.241   1.670   0.705  1.00  0.00    -0.166 F 
HETATM   21  F3  UNL     1       7.067  -0.005   2.175  1.00  0.00    -0.166 F 
ENDBRANCH  16  18
ENDBRANCH  10  12
ENDBRANCH   5  10
BRANCH   7  22
HETATM   22  N5  UNL     1      -2.848   2.038  -0.712  1.00  0.00    -0.221 N 
HETATM   23  H12 UNL     1      -3.176   2.348  -1.649  1.00  0.00     0.177 HD
BRANCH  22  24
HETATM   24  C14 UNL     1      -3.360   2.714   0.461  1.00  0.00     0.168 C 
BRANCH  24  25
HETATM   25  C15 UNL     1      -4.334   3.822   0.052  1.00  0.00     0.286 C 
BRANCH  25  26
HETATM   26  N6  UNL     1      -5.425   3.215  -0.675  1.00  0.00     0.079 N 
HETATM   27  H17 UNL     1      -5.431   3.537  -1.671  1.00  0.00     0.312 HD
HETATM   28  H18 UNL     1      -6.357   3.397  -0.231  1.00  0.00     0.312 HD
ENDBRANCH  25  26
ENDBRANCH  24  25
ENDBRANCH  22  24
ENDBRANCH   7  22
BRANCH   1  29
HETATM   29  C2  UNL     1      -2.648  -3.393   0.116  1.00  0.00     0.127 C 
HETATM   30  C1  UNL     1      -3.040  -3.928  -1.223  1.00  0.00     0.027 C 
ENDBRANCH   1  29
TORSDOF 8
