REMARK  8 active torsions:
REMARK  status: ('A' for Active; 'I' for Inactive)
REMARK    1  A    between atoms: C2_2  and  N1_3 
REMARK    2  A    between atoms: C5_7  and  N3_8 
REMARK    3  A    between atoms: N3_8  and  C6_9 
REMARK    4  A    between atoms: C9_12  and  C10_13 
REMARK    5  A    between atoms: C12_18  and  N5_19 
REMARK    6  A    between atoms: N5_19  and  C13_20 
REMARK    7  A    between atoms: C13_20  and  C14_21 
REMARK    8  A    between atoms: C14_21  and  N6_22 
ROOT
HETATM    1  N1  UNL     1      -1.175  -3.100  -0.748  1.00  0.00    -0.324 N 
HETATM    2  C3  UNL     1       0.129  -3.494  -0.722  1.00  0.00     0.212 A 
HETATM    3  N2  UNL     1       0.949  -2.438  -0.566  1.00  0.00    -0.236 NA
HETATM    4  C4  UNL     1       0.205  -1.322  -0.485  1.00  0.00     0.151 A 
HETATM    5  C5  UNL     1       0.455   0.034  -0.326  1.00  0.00     0.180 A 
HETATM    6  N4  UNL     1      -0.587   0.889  -0.289  1.00  0.00    -0.043 NA
HETATM    7  C12 UNL     1      -1.852   0.453  -0.401  1.00  0.00     0.726 A 
HETATM    8  N7  UNL     1      -2.107  -0.860  -0.555  1.00  0.00    -0.042 NA
HETATM    9  C15 UNL     1      -1.104  -1.755  -0.599  1.00  0.00     0.182 A 
ENDROOT
BRANCH   5  10
HETATM   10  N3  UNL     1       1.832   0.358  -0.220  1.00  0.00    -0.338 N 
HETATM   11  H7  UNL     1       2.185   0.534  -1.166  1.00  0.00     0.167 HD
BRANCH  10  12
HETATM   12  C6  UNL     1       2.607   0.433   0.956  1.00  0.00     0.046 A 
HETATM   13  C7  UNL     1       2.363   0.614   2.245  1.00  0.00     0.031 A 
HETATM   14  C8  UNL     1       3.803   0.509   2.446  1.00  0.00     0.018 A 
HETATM   15  C9  UNL     1       4.041   0.329   1.153  1.00  0.00     0.039 A 
BRANCH  15  16
HETATM   16  C10 UNL     1       5.241   0.117   0.306  1.00  0.00     0.269 C 
HETATM   17  C11 UNL     1       5.359   1.231  -0.725  1.00  0.00     0.096 C 
HETATM   18  F1  UNL     1       6.359   0.091   1.103  1.00  0.00    -0.201 F 
HETATM   19  F2  UNL     1       5.166  -1.088  -0.393  1.00  0.00    -0.201 F 
ENDBRANCH  15  16
ENDBRANCH  10  12
ENDBRANCH   5  10
BRANCH   7  20
HETATM   20  N5  UNL     1      -2.915   1.394  -0.355  1.00  0.00    -0.221 N 
HETATM   21  H13 UNL     1      -3.892   1.067  -0.441  1.00  0.00     0.177 HD
BRANCH  20  22
HETATM   22  C13 UNL     1      -2.663   2.797  -0.191  1.00  0.00     0.168 C 
BRANCH  22  23
HETATM   23  C14 UNL     1      -3.959   3.584  -0.174  1.00  0.00     0.286 C 
BRANCH  23  24
HETATM   24  N6  UNL     1      -3.629   4.996  -0.005  1.00  0.00     0.079 N 
HETATM   25  H18 UNL     1      -3.220   5.292  -0.940  1.00  0.00     0.312 HD
HETATM   26  H19 UNL     1      -2.891   5.112   0.714  1.00  0.00     0.312 HD
ENDBRANCH  23  24
ENDBRANCH  22  23
ENDBRANCH  20  22
ENDBRANCH   7  20
BRANCH   1  27
HETATM   27  C2  UNL     1      -2.365  -3.892  -0.894  1.00  0.00     0.127 C 
HETATM   28  C1  UNL     1      -2.937  -4.372   0.413  1.00  0.00     0.027 C 
ENDBRANCH   1  27
TORSDOF 8
