REMARK  4 active torsions:
REMARK  status: ('A' for Active; 'I' for Inactive)
REMARK    1  A    between atoms: C2_2  and  N1_3 
REMARK    2  A    between atoms: C5_7  and  N3_8 
REMARK    3  A    between atoms: N3_8  and  C6_9 
REMARK    4  A    between atoms: C10_13  and  C11_14 
ROOT
HETATM    1  N3  UNL     1      -0.680  -0.298   0.461  1.00  0.00    -0.364 N 
HETATM    2  H8  UNL     1      -0.409   0.646   0.808  1.00  0.00     0.165 HD
ENDROOT
BRANCH   1   3
HETATM    3  C5  UNL     1       0.316  -1.308   0.417  1.00  0.00     0.120 C 
HETATM    4  C4  UNL     1       1.617  -1.069   0.503  1.00  0.00     0.104 C 
HETATM    5  N2  UNL     1       2.675  -2.045   0.466  1.00  0.00    -0.242 NA
HETATM    6  C13 UNL     1       2.380   0.201   0.660  1.00  0.00     0.326 C 
HETATM    7  C3  UNL     1       3.784  -1.494   0.106  1.00  0.00     0.208 C 
HETATM    8  N1  UNL     1       3.557  -0.108  -0.126  1.00  0.00    -0.340 N 
HETATM    9  F4  UNL     1       1.700   1.285   0.185  1.00  0.00    -0.220 F 
BRANCH   8  10
HETATM   10  C2  UNL     1       4.336   0.777  -0.961  1.00  0.00     0.122 C 
HETATM   11  C1  UNL     1       5.095   1.829  -0.188  1.00  0.00     0.026 C 
ENDBRANCH   8  10
ENDBRANCH   1   3
BRANCH   1  12
HETATM   12  C6  UNL     1      -2.007  -0.519   0.057  1.00  0.00     0.032 A 
HETATM   13  C7  UNL     1      -2.487  -1.716  -0.424  1.00  0.00     0.029 A 
HETATM   14  C8  UNL     1      -3.815  -1.909  -0.817  1.00  0.00     0.003 A 
HETATM   15  C9  UNL     1      -4.679  -0.865  -0.721  1.00  0.00     0.016 A 
HETATM   16  C10 UNL     1      -4.262   0.354  -0.249  1.00  0.00     0.050 A 
HETATM   17  C12 UNL     1      -2.955   0.488   0.121  1.00  0.00     0.045 A 
BRANCH  16  18
HETATM   18  C11 UNL     1      -5.255   1.448  -0.174  1.00  0.00     0.417 C 
HETATM   19  F1  UNL     1      -5.067   2.218   0.980  1.00  0.00    -0.166 F 
HETATM   20  F2  UNL     1      -5.022   2.301  -1.245  1.00  0.00    -0.166 F 
HETATM   21  F3  UNL     1      -6.546   0.962  -0.210  1.00  0.00    -0.166 F 
ENDBRANCH  16  18
ENDBRANCH   1  12
TORSDOF 4
