REMARK  8 active torsions:
REMARK  status: ('A' for Active; 'I' for Inactive)
REMARK    1  A    between atoms: C2_2  and  N1_3 
REMARK    2  A    between atoms: C5_7  and  N3_8 
REMARK    3  A    between atoms: N3_8  and  C6_9 
REMARK    4  A    between atoms: C10_13  and  C11_14 
REMARK    5  A    between atoms: C11_14  and  C12_15 
REMARK    6  A    between atoms: C14_19  and  C15_20 
REMARK    7  A    between atoms: C15_20  and  C16_21 
REMARK    8  A    between atoms: C16_21  and  N5_22 
ROOT
HETATM    1  N1  UNL     1      -2.543   2.001   0.169  1.00  0.00    -0.324 N 
HETATM    2  C3  UNL     1      -1.396   2.696   0.249  1.00  0.00     0.212 A 
HETATM    3  N2  UNL     1      -0.373   1.842   0.073  1.00  0.00    -0.236 NA
HETATM    4  C4  UNL     1      -0.835   0.619  -0.117  1.00  0.00     0.150 A 
HETATM    5  C5  UNL     1      -0.160  -0.560  -0.335  1.00  0.00     0.163 A 
HETATM    6  N4  UNL     1      -0.956  -1.633  -0.486  1.00  0.00    -0.213 NA
HETATM    7  C14 UNL     1      -2.296  -1.574  -0.432  1.00  0.00     0.132 A 
HETATM    8  N6  UNL     1      -2.918  -0.399  -0.218  1.00  0.00    -0.213 NA
HETATM    9  C17 UNL     1      -2.199   0.723  -0.056  1.00  0.00     0.165 A 
ENDROOT
BRANCH   5  10
HETATM   10  N3  UNL     1       1.235  -0.758  -0.419  1.00  0.00    -0.339 N 
HETATM   11  H7  UNL     1       1.566  -1.763  -0.534  1.00  0.00     0.167 HD
BRANCH  10  12
HETATM   12  C6  UNL     1       2.372   0.071  -0.396  1.00  0.00     0.034 A 
HETATM   13  C7  UNL     1       2.537   1.292  -1.006  1.00  0.00     0.029 A 
HETATM   14  C8  UNL     1       3.659   2.087  -0.928  1.00  0.00     0.003 A 
HETATM   15  C9  UNL     1       4.702   1.611  -0.172  1.00  0.00     0.007 A 
HETATM   16  C10 UNL     1       4.663   0.403   0.490  1.00  0.00    -0.054 A 
HETATM   17  C13 UNL     1       3.497  -0.312   0.347  1.00  0.00     0.036 A 
BRANCH  16  18
HETATM   18  C11 UNL     1       5.781  -0.156   1.327  1.00  0.00     0.070 C 
BRANCH  18  19
HETATM   19  C12 UNL     1       6.644  -0.965   0.380  1.00  0.00     0.226 C 
HETATM   20  F1  UNL     1       7.150  -0.157  -0.633  1.00  0.00    -0.255 F 
ENDBRANCH  18  19
ENDBRANCH  16  18
ENDBRANCH  10  12
ENDBRANCH   5  10
BRANCH   7  21
HETATM   21  C15 UNL     1      -2.994  -2.897  -0.624  1.00  0.00     0.110 C 
BRANCH  21  22
HETATM   22  C16 UNL     1      -4.470  -2.692  -0.543  1.00  0.00     0.274 C 
BRANCH  22  23
HETATM   23  N5  UNL     1      -5.162  -3.970  -0.726  1.00  0.00     0.078 N 
HETATM   24  H20 UNL     1      -4.702  -4.580  -1.410  1.00  0.00     0.312 HD
HETATM   25  H21 UNL     1      -6.179  -3.835  -0.823  1.00  0.00     0.312 HD
ENDBRANCH  22  23
ENDBRANCH  21  22
ENDBRANCH   7  21
BRANCH   1  26
HETATM   26  C2  UNL     1      -3.885   2.526   0.301  1.00  0.00     0.127 C 
HETATM   27  C1  UNL     1      -4.313   2.498   1.739  1.00  0.00     0.027 C 
ENDBRANCH   1  26
TORSDOF 8
