REMARK  4 active torsions:
REMARK  status: ('A' for Active; 'I' for Inactive)
REMARK    1  A    between atoms: C2_2  and  N1_3 
REMARK    2  A    between atoms: N3_8  and  C6_9 
REMARK    3  A    between atoms: C10_13  and  C11_14 
REMARK    4  A    between atoms: C13_19  and  N4_20 
ROOT
HETATM    1  N1  UNL     1       3.313  -0.281  -0.976  1.00  0.00    -0.324 N 
HETATM    2  C3  UNL     1       3.288   0.426  -2.121  1.00  0.00     0.212 A 
HETATM    3  N2  UNL     1       2.061   0.960  -2.243  1.00  0.00    -0.239 NA
HETATM    4  C4  UNL     1       1.346   0.572  -1.168  1.00  0.00     0.121 A 
HETATM    5  C5  UNL     1       0.049   0.828  -0.791  1.00  0.00     0.151 A 
HETATM    6  N3  UNL     1      -0.376   0.276   0.376  1.00  0.00    -0.153 N 
HETATM    7  C13 UNL     1       0.389  -0.494   1.169  1.00  0.00     0.728 A 
HETATM    8  N5  UNL     1       1.668  -0.755   0.813  1.00  0.00    -0.042 NA
HETATM    9  C14 UNL     1       2.130  -0.226  -0.340  1.00  0.00     0.180 A 
ENDROOT
BRANCH   6  10
HETATM   10  C6  UNL     1      -1.726   0.574   0.716  1.00  0.00     0.057 A 
HETATM   11  C7  UNL     1      -2.190   1.220   1.841  1.00  0.00     0.030 A 
HETATM   12  C8  UNL     1      -3.556   1.417   1.993  1.00  0.00     0.003 A 
HETATM   13  C9  UNL     1      -4.426   0.962   1.015  1.00  0.00     0.016 A 
HETATM   14  C10 UNL     1      -3.997   0.315  -0.118  1.00  0.00     0.050 A 
HETATM   15  C12 UNL     1      -2.620   0.122  -0.260  1.00  0.00     0.046 A 
BRANCH  14  16
HETATM   16  C11 UNL     1      -4.948  -0.171  -1.168  1.00  0.00     0.417 C 
HETATM   17  F1  UNL     1      -6.014  -0.803  -0.581  1.00  0.00    -0.166 F 
HETATM   18  F2  UNL     1      -4.240  -1.025  -2.018  1.00  0.00    -0.166 F 
HETATM   19  F3  UNL     1      -5.350   0.902  -1.964  1.00  0.00    -0.166 F 
ENDBRANCH  14  16
ENDBRANCH   6  10
BRANCH   7  20
HETATM   20  N4  UNL     1      -0.063  -0.995   2.269  1.00  0.00    -0.115 NA
HETATM   21  H12 UNL     1      -1.024  -0.836   2.600  1.00  0.00     0.206 HD
ENDBRANCH   7  20
BRANCH   1  22
HETATM   22  C2  UNL     1       4.499  -0.969  -0.575  1.00  0.00     0.127 C 
HETATM   23  C1  UNL     1       5.362  -0.042   0.284  1.00  0.00     0.027 C 
ENDBRANCH   1  22
TORSDOF 4
