REMARK  7 active torsions:
REMARK  status: ('A' for Active; 'I' for Inactive)
REMARK    1  A    between atoms: C2_2  and  N1_3 
REMARK    2  A    between atoms: C5_7  and  N3_8 
REMARK    3  A    between atoms: N3_8  and  C6_9 
REMARK    4  A    between atoms: C12_17  and  N6_18 
REMARK    5  A    between atoms: N6_18  and  C13_19 
REMARK    6  A    between atoms: C13_19  and  C14_20 
REMARK    7  A    between atoms: C14_20  and  N7_21 
ROOT
HETATM    1  C6  UNL     1       2.938   0.765   0.813  1.00  0.00     0.046 A 
HETATM    2  C7  UNL     1       3.523  -0.118   0.031  1.00  0.00     0.005 A 
HETATM    3  C8  UNL     1       4.554   0.330  -0.636  1.00  0.00     0.037 A 
HETATM    4  C9  UNL     1       4.623   1.767  -0.304  1.00  0.00     0.047 A 
HETATM    5  C10 UNL     1       5.550   2.739  -0.804  1.00  0.00     0.099 C 
HETATM    6  N4  UNL     1       6.305   3.538  -1.196  1.00  0.00    -0.191 NA
HETATM    7  C11 UNL     1       3.667   2.025   0.554  1.00  0.00     0.053 A 
ENDROOT
BRANCH   1   8
HETATM    8  N3  UNL     1       1.852   0.541   1.700  1.00  0.00    -0.338 N 
HETATM    9  H7  UNL     1       1.841   0.748   2.734  1.00  0.00     0.167 HD
BRANCH   8  10
HETATM   10  C5  UNL     1       0.664  -0.020   1.138  1.00  0.00     0.180 A 
HETATM   11  C4  UNL     1       0.442  -1.383   1.063  1.00  0.00     0.151 A 
HETATM   12  N2  UNL     1       1.227  -2.412   1.467  1.00  0.00    -0.236 NA
HETATM   13  C15 UNL     1      -0.675  -1.964   0.537  1.00  0.00     0.182 A 
HETATM   14  C3  UNL     1       0.591  -3.578   1.187  1.00  0.00     0.212 A 
HETATM   15  N1  UNL     1      -0.601  -3.310   0.604  1.00  0.00    -0.324 N 
HETATM   16  N8  UNL     1      -1.587  -1.075   0.074  1.00  0.00    -0.042 NA
HETATM   17  C12 UNL     1      -1.426   0.243   0.121  1.00  0.00     0.726 A 
HETATM   18  N5  UNL     1      -0.302   0.790   0.652  1.00  0.00    -0.043 NA
BRANCH  15  19
HETATM   19  C2  UNL     1      -1.633  -4.222   0.126  1.00  0.00     0.127 C 
HETATM   20  C1  UNL     1      -1.421  -4.604  -1.323  1.00  0.00     0.027 C 
ENDBRANCH  15  19
BRANCH  17  21
HETATM   21  N6  UNL     1      -2.428   1.140  -0.385  1.00  0.00    -0.221 N 
HETATM   22  H10 UNL     1      -3.304   0.722  -0.798  1.00  0.00     0.177 HD
BRANCH  21  23
HETATM   23  C13 UNL     1      -2.184   2.546  -0.300  1.00  0.00     0.168 C 
BRANCH  23  24
HETATM   24  C14 UNL     1      -3.379   3.270  -0.895  1.00  0.00     0.286 C 
BRANCH  24  25
HETATM   25  N7  UNL     1      -3.107   4.692  -0.797  1.00  0.00     0.079 N 
HETATM   26  H15 UNL     1      -2.087   4.814  -1.060  1.00  0.00     0.312 HD
HETATM   27  H16 UNL     1      -3.673   5.151  -1.551  1.00  0.00     0.312 HD
ENDBRANCH  24  25
ENDBRANCH  23  24
ENDBRANCH  21  23
ENDBRANCH  17  21
ENDBRANCH   8  10
ENDBRANCH   1   8
TORSDOF 7
