REMARK  8 active torsions:
REMARK  status: ('A' for Active; 'I' for Inactive)
REMARK    1  A    between atoms: C2_2  and  N1_3 
REMARK    2  A    between atoms: C5_7  and  O1_8 
REMARK    3  A    between atoms: O1_8  and  C6_9 
REMARK    4  A    between atoms: C10_13  and  C11_14 
REMARK    5  A    between atoms: C13_20  and  N4_21 
REMARK    6  A    between atoms: N4_21  and  C14_22 
REMARK    7  A    between atoms: C14_22  and  C15_23 
REMARK    8  A    between atoms: C15_23  and  N5_24 
ROOT
HETATM    1  N1  UNL     1      -1.009  -2.491   0.125  1.00  0.00    -0.324 N 
HETATM    2  C3  UNL     1       0.304  -2.764   0.007  1.00  0.00     0.212 A 
HETATM    3  N2  UNL     1       0.917  -1.623  -0.375  1.00  0.00    -0.235 NA
HETATM    4  C4  UNL     1       0.010  -0.640  -0.498  1.00  0.00     0.158 A 
HETATM    5  C5  UNL     1       0.012   0.695  -0.843  1.00  0.00     0.221 A 
HETATM    6  N3  UNL     1      -1.105   1.440  -0.875  1.00  0.00    -0.035 NA
HETATM    7  C13 UNL     1      -2.297   0.899  -0.564  1.00  0.00     0.726 A 
HETATM    8  N6  UNL     1      -2.299  -0.404  -0.228  1.00  0.00    -0.042 NA
HETATM    9  C16 UNL     1      -1.208  -1.182  -0.184  1.00  0.00     0.183 A 
ENDROOT
BRANCH   5  10
HETATM   10  O1  UNL     1       1.224   1.280  -1.168  1.00  0.00    -0.290 OA
BRANCH  10  11
HETATM   11  C6  UNL     1       2.404   0.554  -1.149  1.00  0.00     0.078 A 
HETATM   12  C7  UNL     1       2.904  -0.134  -2.235  1.00  0.00     0.037 A 
HETATM   13  C8  UNL     1       4.101  -0.814  -2.051  1.00  0.00     0.004 A 
HETATM   14  C9  UNL     1       4.802  -0.842  -0.876  1.00  0.00     0.016 A 
HETATM   15  C10 UNL     1       4.249  -0.128   0.191  1.00  0.00     0.050 A 
HETATM   16  C12 UNL     1       3.065   0.568   0.077  1.00  0.00     0.053 A 
BRANCH  15  17
HETATM   17  C11 UNL     1       4.963  -0.118   1.496  1.00  0.00     0.417 C 
HETATM   18  F1  UNL     1       4.332  -0.959   2.396  1.00  0.00    -0.166 F 
HETATM   19  F2  UNL     1       5.006   1.161   1.995  1.00  0.00    -0.166 F 
HETATM   20  F3  UNL     1       6.249  -0.586   1.335  1.00  0.00    -0.166 F 
ENDBRANCH  15  17
ENDBRANCH  10  11
ENDBRANCH   5  10
BRANCH   7  21
HETATM   21  N4  UNL     1      -3.498   1.659  -0.588  1.00  0.00    -0.221 N 
HETATM   22  H11 UNL     1      -4.390   1.184  -0.339  1.00  0.00     0.177 HD
BRANCH  21  23
HETATM   23  C14 UNL     1      -3.496   3.046  -0.944  1.00  0.00     0.168 C 
BRANCH  23  24
HETATM   24  C15 UNL     1      -2.644   3.902  -0.030  1.00  0.00     0.286 C 
BRANCH  24  25
HETATM   25  N5  UNL     1      -3.146   3.799   1.321  1.00  0.00     0.079 N 
HETATM   26  H16 UNL     1      -3.859   4.521   1.531  1.00  0.00     0.312 HD
HETATM   27  H17 UNL     1      -3.492   2.821   1.441  1.00  0.00     0.312 HD
ENDBRANCH  24  25
ENDBRANCH  23  24
ENDBRANCH  21  23
ENDBRANCH   7  21
BRANCH   1  28
HETATM   28  C2  UNL     1      -2.050  -3.424   0.515  1.00  0.00     0.127 C 
HETATM   29  C1  UNL     1      -2.235  -3.412   2.036  1.00  0.00     0.027 C 
ENDBRANCH   1  28
TORSDOF 8
