REMARK  1 active torsions:
REMARK  status: ('A' for Active; 'I' for Inactive)
REMARK    1  A    between atoms: C2_2  and  N1_3 
ROOT
HETATM    1  N1  UNL     1       3.127   0.531   0.887  1.00  0.00    -0.325 N 
HETATM    2  C3  UNL     1       3.187   1.871   0.872  1.00  0.00     0.211 A 
HETATM    3  N2  UNL     1       1.900   2.195   0.659  1.00  0.00    -0.242 NA
HETATM    4  C4  UNL     1       1.095   1.132   0.549  1.00  0.00     0.106 A 
HETATM    5  C5  UNL     1       1.908   0.008   0.700  1.00  0.00     0.153 A 
HETATM    6  N3  UNL     1       1.662  -1.289   0.680  1.00  0.00    -0.271 NA
HETATM    7  C6  UNL     1       0.328  -1.737   0.476  1.00  0.00     0.156 C 
HETATM    8  C7  UNL     1      -0.006  -1.701  -0.989  1.00  0.00     0.069 C 
HETATM    9  C8  UNL     1      -1.483  -1.885  -1.237  1.00  0.00     0.092 C 
HETATM   10  N4  UNL     1      -1.744  -0.843  -0.594  1.00  0.00    -0.261 NA
HETATM   11  C9  UNL     1      -2.921  -0.238  -0.311  1.00  0.00     0.104 A 
HETATM   12  C10 UNL     1      -4.191  -0.701  -0.322  1.00  0.00     0.065 A 
HETATM   13 CL1  UNL     1      -4.389  -2.363  -0.798  1.00  0.00    -0.082 Cl
HETATM   14  C11 UNL     1      -5.175   0.185   0.041  1.00  0.00     0.026 A 
HETATM   15  C12 UNL     1      -5.010   1.497   0.416  1.00  0.00     0.004 A 
HETATM   16  C13 UNL     1      -3.722   1.972   0.427  1.00  0.00     0.031 A 
HETATM   17  C14 UNL     1      -2.691   1.100   0.064  1.00  0.00     0.059 A 
HETATM   18  N5  UNL     1      -1.410   1.745   0.123  1.00  0.00    -0.375 N 
HETATM   19  C15 UNL     1      -0.042   1.787   0.348  1.00  0.00     0.166 C 
HETATM   20  H15 UNL     1      -1.367   2.786  -0.135  1.00  0.00     0.160 HD
ENDROOT
BRANCH   1  21
HETATM   21  C2  UNL     1       4.346  -0.266   1.095  1.00  0.00     0.127 C 
HETATM   22  C1  UNL     1       5.021  -0.583  -0.204  1.00  0.00     0.027 C 
ENDBRANCH   1  21
TORSDOF 1
