REMARK  7 active torsions:
REMARK  status: ('A' for Active; 'I' for Inactive)
REMARK    1  A    between atoms: C2_2  and  N1_3 
REMARK    2  A    between atoms: C5_7  and  N3_8 
REMARK    3  A    between atoms: N3_8  and  C6_9 
REMARK    4  A    between atoms: C13_18  and  N6_19 
REMARK    5  A    between atoms: N6_19  and  C14_20 
REMARK    6  A    between atoms: C14_20  and  C15_21 
REMARK    7  A    between atoms: C15_21  and  N7_22 
ROOT
HETATM    1  C6  UNL     1       3.092   0.222  -0.427  1.00  0.00     0.035 A 
HETATM    2  C7  UNL     1       2.758   0.170   0.889  1.00  0.00     0.029 A 
HETATM    3  C8  UNL     1       3.752   0.227   1.835  1.00  0.00     0.004 A 
HETATM    4  C9  UNL     1       5.082   0.338   1.439  1.00  0.00     0.023 A 
HETATM    5  C10 UNL     1       5.396   0.390   0.085  1.00  0.00     0.046 A 
HETATM    6  C11 UNL     1       6.770   0.505  -0.356  1.00  0.00     0.099 C 
HETATM    7  N4  UNL     1       7.886   0.584  -0.723  1.00  0.00    -0.191 NA
HETATM    8  C12 UNL     1       4.389   0.332  -0.884  1.00  0.00     0.052 A 
ENDROOT
BRANCH   1   9
HETATM    9  N3  UNL     1       2.089   0.165  -1.404  1.00  0.00    -0.339 N 
HETATM   10  H8  UNL     1       2.247   0.199  -2.438  1.00  0.00     0.167 HD
BRANCH   9  11
HETATM   11  C5  UNL     1       0.690   0.052  -1.173  1.00  0.00     0.165 C 
HETATM   12  C4  UNL     1       0.496  -1.317  -1.152  1.00  0.00     0.169 C 
HETATM   13  N2  UNL     1       0.232  -2.606  -1.417  1.00  0.00    -0.252 NA
HETATM   14  C3  UNL     1      -1.047  -3.080  -1.439  1.00  0.00     0.210 C 
HETATM   15  N1  UNL     1      -1.824  -2.633  -0.419  1.00  0.00    -0.336 N 
HETATM   16  C16 UNL     1      -1.872  -1.373   0.062  1.00  0.00     0.230 C 
HETATM   17  N8  UNL     1      -1.242  -0.375   0.698  1.00  0.00    -0.058 NA
HETATM   18  C13 UNL     1      -1.169   0.809   0.064  1.00  0.00     0.725 C 
HETATM   19  N5  UNL     1      -0.345   0.889  -0.996  1.00  0.00    -0.044 NA
BRANCH  15  20
HETATM   20  C2  UNL     1      -2.662  -3.672   0.166  1.00  0.00     0.126 C 
HETATM   21  C1  UNL     1      -3.998  -3.750  -0.529  1.00  0.00     0.027 C 
ENDBRANCH  15  20
BRANCH  18  22
HETATM   22  N6  UNL     1      -1.933   1.928   0.498  1.00  0.00    -0.221 N 
HETATM   23  H13 UNL     1      -2.557   1.814   1.323  1.00  0.00     0.177 HD
BRANCH  22  24
HETATM   24  C14 UNL     1      -1.815   3.179  -0.225  1.00  0.00     0.168 C 
BRANCH  24  25
HETATM   25  C15 UNL     1      -2.740   4.187   0.460  1.00  0.00     0.286 C 
BRANCH  25  26
HETATM   26  N7  UNL     1      -2.303   4.326   1.830  1.00  0.00     0.079 N 
HETATM   27  H18 UNL     1      -1.266   4.189   1.854  1.00  0.00     0.312 HD
HETATM   28  H19 UNL     1      -2.729   3.549   2.385  1.00  0.00     0.312 HD
ENDBRANCH  25  26
ENDBRANCH  24  25
ENDBRANCH  22  24
ENDBRANCH  18  22
ENDBRANCH   9  11
ENDBRANCH   1   9
TORSDOF 7
