REMARK  2 active torsions:
REMARK  status: ('A' for Active; 'I' for Inactive)
REMARK    1  A    between atoms: C4_6  and  N3_7 
REMARK    2  A    between atoms: N3_7  and  C5_8 
ROOT
HETATM    1  C5  UNL     1       2.491  -0.041  -0.784  1.00  0.00     0.035 A 
HETATM    2  C6  UNL     1       3.040  -1.304  -0.801  1.00  0.00     0.029 A 
HETATM    3  C7  UNL     1       4.081  -1.600   0.042  1.00  0.00     0.004 A 
HETATM    4  C8  UNL     1       4.619  -0.692   0.920  1.00  0.00     0.023 A 
HETATM    5  C9  UNL     1       4.075   0.585   0.947  1.00  0.00     0.046 A 
HETATM    6  C10 UNL     1       4.661   1.509   1.875  1.00  0.00     0.099 C 
HETATM    7  N4  UNL     1       5.124   2.269   2.616  1.00  0.00    -0.191 NA
HETATM    8  C11 UNL     1       3.027   0.899   0.105  1.00  0.00     0.052 A 
ENDROOT
BRANCH   1   9
HETATM    9  N3  UNL     1       1.432   0.526  -1.537  1.00  0.00    -0.339 N 
HETATM   10  H6  UNL     1       1.343   1.068  -2.425  1.00  0.00     0.167 HD
BRANCH   9  11
HETATM   11  C4  UNL     1       0.167   0.275  -0.894  1.00  0.00     0.155 C 
HETATM   12  N2  UNL     1       0.164   0.208   0.613  1.00  0.00    -0.214 NA
HETATM   13  C3  UNL     1      -1.020  -0.221   1.128  1.00  0.00     0.131 C 
HETATM   14  C2  UNL     1      -2.018   0.882   1.426  1.00  0.00     0.350 C 
HETATM   15  N7  UNL     1      -1.706  -1.435   1.426  1.00  0.00    -0.363 N 
HETATM   16  N1  UNL     1      -2.822   1.201   0.292  1.00  0.00     0.097 N 
HETATM   17  C1  UNL     1      -3.228   2.590   0.430  1.00  0.00     0.310 C 
HETATM   18  C13 UNL     1      -2.333   1.028  -1.032  1.00  0.00     0.334 C 
HETATM   19  C12 UNL     1      -1.169   0.048  -1.088  1.00  0.00     0.095 C 
HETATM   20  N5  UNL     1      -1.937  -1.181  -1.308  1.00  0.00    -0.319 N 
HETATM   21  N6  UNL     1      -1.899  -2.499  -0.782  1.00  0.00    -0.222 NA
HETATM   22  H13 UNL     1      -2.667  -0.910  -2.034  1.00  0.00     0.180 HD
HETATM   23  C14 UNL     1      -1.525  -2.618   0.591  1.00  0.00     0.232 C 
HETATM   24  H14 UNL     1      -2.768  -2.961  -1.069  1.00  0.00     0.148 HD
HETATM   25  H17 UNL     1      -2.233  -1.119   2.266  1.00  0.00     0.162 HD
ENDBRANCH   9  11
ENDBRANCH   1   9
TORSDOF 2
