REMARK  10 active torsions:
REMARK  status: ('A' for Active; 'I' for Inactive)
REMARK    1  A    between atoms: O1_2  and  C2_3 
REMARK    2  A    between atoms: C2_3  and  C3_5 
REMARK    3  A    between atoms: C3_5  and  C4_6 
REMARK    4  A    between atoms: C5_7  and  C6_8 
REMARK    5  A    between atoms: C11_13  and  C12_14 
REMARK    6  A    between atoms: C12_14  and  O3_15 
REMARK    7  A    between atoms: O3_15  and  C13_16 
REMARK    8  A    between atoms: C13_16  and  C14_17 
REMARK    9  A    between atoms: C14_17  and  C15_18 
REMARK   10  A    between atoms: C15_18  and  N1_19 
ROOT
HETATM    1  C6  UNL     1      -1.502  -1.599   0.435  1.00  0.00    -0.028 A 
HETATM    2  C7  UNL     1      -1.914  -2.626  -0.386  1.00  0.00     0.012 A 
HETATM    3  C8  UNL     1      -1.040  -3.629  -0.800  1.00  0.00     0.001 A 
HETATM    4  C9  UNL     1       0.260  -3.566  -0.362  1.00  0.00     0.001 A 
HETATM    5  C10 UNL     1       0.639  -2.528   0.457  1.00  0.00     0.010 A 
HETATM    6  C11 UNL     1      -0.205  -1.526   0.879  1.00  0.00    -0.024 A 
ENDROOT
BRANCH   6   7
HETATM    7  C12 UNL     1       0.229  -0.404   1.781  1.00  0.00     0.207 C 
BRANCH   7   8
HETATM    8  O3  UNL     1       0.337   0.744   1.040  1.00  0.00    -0.387 OA
BRANCH   8   9
HETATM    9  C13 UNL     1       1.239   0.734   0.012  1.00  0.00     0.169 C 
BRANCH   9  10
HETATM   10  C14 UNL     1       2.638   0.518   0.490  1.00  0.00     0.056 C 
BRANCH  10  11
HETATM   11  C15 UNL     1       3.627   0.510  -0.677  1.00  0.00     0.273 C 
BRANCH  11  12
HETATM   12  N1  UNL     1       4.971   0.298  -0.135  1.00  0.00     0.080 N 
HETATM   13  C16 UNL     1       5.338   1.494   0.631  1.00  0.00     0.309 C 
HETATM   14  C17 UNL     1       5.870   0.201  -1.262  1.00  0.00     0.309 C 
ENDBRANCH  11  12
ENDBRANCH  10  11
ENDBRANCH   9  10
ENDBRANCH   8   9
ENDBRANCH   7   8
ENDBRANCH   6   7
BRANCH   1  15
HETATM   15  C5  UNL     1      -2.498  -0.600   0.799  1.00  0.00     0.008 C 
HETATM   16  C4  UNL     1      -3.754  -0.563   0.418  1.00  0.00    -0.016 C 
BRANCH  16  17
HETATM   17  C3  UNL     1      -4.669   0.534   0.875  1.00  0.00     0.138 C 
BRANCH  17  18
HETATM   18  C2  UNL     1      -5.135   1.252  -0.362  1.00  0.00     0.261 C 
HETATM   19  O2  UNL     1      -4.581   0.641  -1.311  1.00  0.00    -0.265 OA
BRANCH  18  20
HETATM   20  O1  UNL     1      -5.981   2.302  -0.062  1.00  0.00    -0.326 OA
HETATM   21  C1  UNL     1      -6.494   3.068  -1.152  1.00  0.00     0.213 C 
ENDBRANCH  18  20
ENDBRANCH  17  18
ENDBRANCH  16  17
ENDBRANCH   1  15
TORSDOF 10
