REMARK  7 active torsions:
REMARK  status: ('A' for Active; 'I' for Inactive)
REMARK    1  A    between atoms: C2_2  and  C3_3 
REMARK    2  A    between atoms: C3_3  and  N3_15 
REMARK    3  A    between atoms: N1_4  and  C4_5 
REMARK    4  A    between atoms: C4_5  and  N2_6 
REMARK    5  A    between atoms: N2_6  and  C5_7 
REMARK    6  A    between atoms: N3_15  and  C11_16 
REMARK    7  A    between atoms: C11_16  and  C12_17 
ROOT
HETATM    1  C3  UNL     1       0.011  -2.575  -0.060  1.00  0.00     0.096 C 
HETATM    2  N1  UNL     1       1.009  -1.818   0.007  1.00  0.00    -0.258 NA
ENDROOT
BRANCH   1   3
HETATM    3  C2  UNL     1       0.340  -4.032  -0.248  1.00  0.00     0.073 C 
HETATM    4  C1  UNL     1      -0.236  -4.592  -1.516  1.00  0.00     0.013 C 
ENDBRANCH   1   3
BRANCH   1   5
HETATM    5  N3  UNL     1      -1.389  -2.373   0.002  1.00  0.00    -0.375 N 
HETATM    6  H13 UNL     1      -2.114  -3.047  -0.284  1.00  0.00     0.161 HD
BRANCH   5   7
HETATM    7  C11 UNL     1      -1.793  -1.064   0.531  1.00  0.00     0.150 C 
BRANCH   7   8
HETATM    8  C12 UNL     1      -3.292  -0.985   0.561  1.00  0.00     0.020 C 
HETATM    9  C13 UNL     1      -3.991  -0.097  -0.088  1.00  0.00     0.035 C 
HETATM   10  C14 UNL     1      -5.416   0.235  -0.261  1.00  0.00     0.168 C 
HETATM   11  N5  UNL     1      -3.756   1.005  -0.962  1.00  0.00    -0.320 N 
HETATM   12  N4  UNL     1      -4.980   0.650  -1.583  1.00  0.00    -0.233 NA
HETATM   13  H19 UNL     1      -4.804  -0.181  -2.201  1.00  0.00     0.147 HD
HETATM   14  C15 UNL     1      -2.690   1.984  -1.063  1.00  0.00     0.171 C 
ENDBRANCH   7   8
ENDBRANCH   5   7
ENDBRANCH   1   5
BRANCH   2  15
HETATM   15  C4  UNL     1       1.138  -0.429   0.175  1.00  0.00     0.273 C 
BRANCH  15  16
HETATM   16  N2  UNL     1       2.554  -0.028   0.341  1.00  0.00    -0.366 N 
HETATM   17  H8  UNL     1       3.273  -0.795   0.318  1.00  0.00     0.162 HD
BRANCH  16  18
HETATM   18  C5  UNL     1       3.026   1.300   0.530  1.00  0.00     0.071 C 
HETATM   19  C6  UNL     1       3.054   1.983   1.664  1.00  0.00     0.037 C 
HETATM   20  C7  UNL     1       3.513   3.319   1.932  1.00  0.00     0.004 C 
HETATM   21  C8  UNL     1       4.399   4.036   1.280  1.00  0.00     0.024 C 
HETATM   22  C9  UNL     1       5.208   3.763   0.105  1.00  0.00     0.040 C 
HETATM   23 CL1  UNL     1       6.703   4.686  -0.022  1.00  0.00    -0.084 Cl
HETATM   24  C10 UNL     1       4.952   2.913  -0.867  1.00  0.00     0.075 C 
HETATM   25  S1  UNL     1       3.560   1.797  -1.118  1.00  0.00    -0.083 SA
ENDBRANCH  16  18
ENDBRANCH  15  16
ENDBRANCH   2  15
TORSDOF 7
