REMARK  6 active torsions:
REMARK  status: ('A' for Active; 'I' for Inactive)
REMARK    1  A    between atoms: C4_6  and  N3_7 
REMARK    2  A    between atoms: N3_7  and  C5_8 
REMARK    3  A    between atoms: C12_17  and  N6_18 
REMARK    4  A    between atoms: N6_18  and  C13_19 
REMARK    5  A    between atoms: C13_19  and  C14_20 
REMARK    6  A    between atoms: C14_20  and  N7_21 
ROOT
HETATM    1  C5  UNL     1       2.997   0.444   0.238  1.00  0.00     0.035 A 
HETATM    2  C6  UNL     1       3.446  -0.466  -0.728  1.00  0.00     0.029 A 
HETATM    3  C7  UNL     1       4.707  -0.439  -1.284  1.00  0.00     0.004 A 
HETATM    4  C8  UNL     1       5.603   0.553  -0.866  1.00  0.00     0.023 A 
HETATM    5  C9  UNL     1       5.173   1.460   0.089  1.00  0.00     0.046 A 
HETATM    6  C10 UNL     1       6.055   2.503   0.546  1.00  0.00     0.099 C 
HETATM    7  N4  UNL     1       6.770   3.357   0.899  1.00  0.00    -0.191 NA
HETATM    8  C11 UNL     1       3.912   1.415   0.629  1.00  0.00     0.052 A 
ENDROOT
BRANCH   1   9
HETATM    9  N3  UNL     1       1.701   0.439   0.809  1.00  0.00    -0.338 N 
HETATM   10  H5  UNL     1       1.554   0.942   1.709  1.00  0.00     0.167 HD
BRANCH   9  11
HETATM   11  C4  UNL     1       0.509  -0.158   0.357  1.00  0.00     0.180 A 
HETATM   12  C3  UNL     1       0.107  -1.468   0.427  1.00  0.00     0.151 A 
HETATM   13  N2  UNL     1       0.819  -2.507   0.955  1.00  0.00    -0.236 NA
HETATM   14  C15 UNL     1      -1.104  -1.923  -0.041  1.00  0.00     0.182 A 
HETATM   15  C2  UNL     1       0.033  -3.619   0.810  1.00  0.00     0.211 A 
HETATM   16  N1  UNL     1      -1.117  -3.259   0.213  1.00  0.00    -0.328 N 
HETATM   17  C1  UNL     1      -2.303  -4.007  -0.179  1.00  0.00     0.159 C 
HETATM   18  N8  UNL     1      -1.943  -1.002  -0.606  1.00  0.00    -0.042 NA
HETATM   19  C12 UNL     1      -1.541   0.293  -0.674  1.00  0.00     0.726 A 
HETATM   20  N5  UNL     1      -0.351   0.683  -0.203  1.00  0.00    -0.043 NA
BRANCH  19  21
HETATM   21  N6  UNL     1      -2.580   1.083  -1.288  1.00  0.00    -0.221 N 
HETATM   22  H10 UNL     1      -2.729   1.283  -2.321  1.00  0.00     0.177 HD
BRANCH  21  23
HETATM   23  C13 UNL     1      -3.364   1.531  -0.143  1.00  0.00     0.168 C 
BRANCH  23  24
HETATM   24  C14 UNL     1      -4.535   2.387  -0.559  1.00  0.00     0.286 C 
BRANCH  24  25
HETATM   25  N7  UNL     1      -5.269   2.801   0.627  1.00  0.00     0.079 N 
HETATM   26  H15 UNL     1      -4.712   3.575   1.084  1.00  0.00     0.312 HD
HETATM   27  H16 UNL     1      -6.127   3.265   0.281  1.00  0.00     0.312 HD
ENDBRANCH  24  25
ENDBRANCH  23  24
ENDBRANCH  21  23
ENDBRANCH  19  21
ENDBRANCH   9  11
ENDBRANCH   1   9
TORSDOF 6
