REMARK  6 active torsions:
REMARK  status: ('A' for Active; 'I' for Inactive)
REMARK    1  A    between atoms: C2_2  and  N1_3 
REMARK    2  A    between atoms: C5_7  and  N3_8 
REMARK    3  A    between atoms: N3_8  and  C6_9 
REMARK    4  A    between atoms: C12_17  and  O1_18 
REMARK    5  A    between atoms: O1_18  and  C13_19 
REMARK    6  A    between atoms: C13_19  and  P1_20 
ROOT
HETATM    1  N1  UNL     1       0.284   3.059  -0.308  1.00  0.00    -0.324 N 
HETATM    2  C3  UNL     1      -1.008   3.346  -0.070  1.00  0.00     0.212 A 
HETATM    3  N2  UNL     1      -1.656   2.224   0.362  1.00  0.00    -0.236 NA
HETATM    4  C4  UNL     1      -0.757   1.203   0.399  1.00  0.00     0.150 A 
HETATM    5  C5  UNL     1      -0.821  -0.132   0.744  1.00  0.00     0.165 A 
HETATM    6  N4  UNL     1       0.323  -0.852   0.647  1.00  0.00    -0.187 NA
HETATM    7  C12 UNL     1       1.494  -0.329   0.238  1.00  0.00     0.272 A 
HETATM    8  N5  UNL     1       1.529   0.973  -0.092  1.00  0.00    -0.186 NA
HETATM    9  C15 UNL     1       0.447   1.753  -0.024  1.00  0.00     0.168 A 
ENDROOT
BRANCH   5  10
HETATM   10  N3  UNL     1      -2.047  -0.696   1.184  1.00  0.00    -0.339 N 
HETATM   11  H7  UNL     1      -1.862  -0.547   2.197  1.00  0.00     0.167 HD
BRANCH  10  12
HETATM   12  C6  UNL     1      -3.207  -1.287   0.654  1.00  0.00     0.035 A 
HETATM   13  C7  UNL     1      -4.128  -1.759   1.563  1.00  0.00     0.029 A 
HETATM   14  C8  UNL     1      -5.265  -2.330   1.051  1.00  0.00     0.004 A 
HETATM   15  C9  UNL     1      -5.441  -2.411  -0.331  1.00  0.00     0.024 A 
HETATM   16  C10 UNL     1      -4.513  -1.936  -1.220  1.00  0.00     0.036 A 
HETATM   17 CL1  UNL     1      -4.864  -2.102  -2.914  1.00  0.00    -0.084 Cl
HETATM   18  C11 UNL     1      -3.355  -1.354  -0.714  1.00  0.00     0.053 A 
ENDBRANCH  10  12
ENDBRANCH   5  10
BRANCH   7  19
HETATM   19  O1  UNL     1       2.540  -1.240   0.213  1.00  0.00    -0.315 OA
BRANCH  19  20
HETATM   20  C13 UNL     1       3.854  -0.929  -0.177  1.00  0.00     0.209 C 
BRANCH  20  21
HETATM   21  P1  UNL     1       4.974  -2.404  -0.082  1.00  0.00    -0.107 P 
HETATM   22  C14 UNL     1       4.392  -3.626   1.191  1.00  0.00     0.043 C 
HETATM   23  H14 UNL     1       5.214  -3.022  -1.350  1.00  0.00     0.059 HD
ENDBRANCH  20  21
ENDBRANCH  19  20
ENDBRANCH   7  19
BRANCH   1  24
HETATM   24  C2  UNL     1       1.358   3.930  -0.781  1.00  0.00     0.127 C 
HETATM   25  C1  UNL     1       2.073   4.581   0.371  1.00  0.00     0.027 C 
ENDBRANCH   1  24
TORSDOF 6
