REMARK  5 active torsions:
REMARK  status: ('A' for Active; 'I' for Inactive)
REMARK    1  A    between atoms: N1_1  and  C1_2 
REMARK    2  A    between atoms: C1_2  and  C2_3 
REMARK    3  A    between atoms: C2_3  and  N2_4 
REMARK    4  A    between atoms: N2_4  and  C3_5 
REMARK    5  A    between atoms: N5_18  and  N6_19 
ROOT
HETATM    1  C3  UNL     1      -0.914  -0.839  -0.639  1.00  0.00     0.120 C 
HETATM    2  N3  UNL     1       0.137  -0.367  -0.073  1.00  0.00    -0.232 NA
HETATM    3  C4  UNL     1       1.377  -0.811   0.438  1.00  0.00     0.088 C 
HETATM    4  C5  UNL     1       2.397   0.204   0.383  1.00  0.00     0.016 A 
HETATM    5  C6  UNL     1       2.125   1.326  -0.369  1.00  0.00     0.015 A 
HETATM    6  C7  UNL     1       2.943   2.407  -0.532  1.00  0.00     0.001 A 
HETATM    7  C8  UNL     1       4.164   2.428   0.092  1.00  0.00     0.002 A 
HETATM    8  C9  UNL     1       4.507   1.344   0.861  1.00  0.00     0.025 A 
HETATM    9  C10 UNL     1       3.629   0.307   0.970  1.00  0.00     0.046 A 
HETATM   10 CL1  UNL     1       4.173  -0.962   2.020  1.00  0.00    -0.083 Cl
HETATM   11  C11 UNL     1       1.533  -1.985   0.949  1.00  0.00     0.150 C 
HETATM   12  N4  UNL     1       0.807  -3.168   1.228  1.00  0.00    -0.253 NA
HETATM   13  C12 UNL     1      -0.367  -3.587   0.831  1.00  0.00     0.220 C 
HETATM   14  N5  UNL     1      -1.425  -3.147   0.009  1.00  0.00    -0.302 N 
HETATM   15  C13 UNL     1      -1.348  -2.174  -1.053  1.00  0.00     0.221 C 
ENDROOT
BRANCH   1  16
HETATM   16  N2  UNL     1      -1.870   0.211  -0.924  1.00  0.00    -0.375 N 
HETATM   17  H7  UNL     1      -2.486   0.078  -1.754  1.00  0.00     0.160 HD
BRANCH  16  18
HETATM   18  C2  UNL     1      -1.926   1.382  -0.055  1.00  0.00     0.150 C 
BRANCH  18  19
HETATM   19  C1  UNL     1      -3.014   2.303  -0.598  1.00  0.00     0.286 C 
BRANCH  19  20
HETATM   20  N1  UNL     1      -3.136   3.484   0.202  1.00  0.00     0.079 N 
HETATM   21  H1  UNL     1      -2.720   4.289  -0.311  1.00  0.00     0.312 HD
HETATM   22  H2  UNL     1      -2.653   3.425   1.108  1.00  0.00     0.312 HD
ENDBRANCH  19  20
ENDBRANCH  18  19
ENDBRANCH  16  18
ENDBRANCH   1  16
BRANCH  14  23
HETATM   23  N6  UNL     1      -2.661  -3.772   0.319  1.00  0.00    -0.246 NA
HETATM   24  H14 UNL     1      -3.455  -3.099   0.195  1.00  0.00     0.143 HD
HETATM   25  H15 UNL     1      -2.801  -4.557  -0.388  1.00  0.00     0.143 HD
ENDBRANCH  14  23
TORSDOF 5
