REMARK  7 active torsions:
REMARK  status: ('A' for Active; 'I' for Inactive)
REMARK    1  A    between atoms: C2_2  and  N1_3 
REMARK    2  A    between atoms: C5_7  and  N3_8 
REMARK    3  A    between atoms: N3_8  and  C6_9 
REMARK    4  A    between atoms: C12_17  and  N5_18 
REMARK    5  A    between atoms: N5_18  and  C13_19 
REMARK    6  A    between atoms: C13_19  and  C14_20 
REMARK    7  A    between atoms: C14_20  and  N6_21 
ROOT
HETATM    1  N1  UNL     1      -0.117   3.275  -0.674  1.00  0.00    -0.340 N 
HETATM    2  C3  UNL     1       1.219   3.510  -0.704  1.00  0.00     0.211 A 
HETATM    3  N2  UNL     1       1.794   2.392  -0.221  1.00  0.00    -0.238 NA
HETATM    4  C4  UNL     1       0.830   1.546   0.081  1.00  0.00     0.131 A 
HETATM    5  C5  UNL     1       0.832   0.231   0.570  1.00  0.00     0.161 A 
HETATM    6  N4  UNL     1      -0.262  -0.549   0.816  1.00  0.00    -0.211 NA
HETATM    7  C12 UNL     1      -1.465   0.001   0.561  1.00  0.00     0.128 A 
HETATM    8  C15 UNL     1      -1.538   1.260   0.075  1.00  0.00     0.082 A 
HETATM    9  C16 UNL     1      -0.478   2.077  -0.196  1.00  0.00     0.072 A 
ENDROOT
BRANCH   5  10
HETATM   10  N3  UNL     1       2.051  -0.535   0.523  1.00  0.00    -0.339 N 
HETATM   11  H7  UNL     1       1.982  -0.712  -0.408  1.00  0.00     0.167 HD
BRANCH  10  12
HETATM   12  C6  UNL     1       3.192  -1.250   0.537  1.00  0.00     0.035 A 
HETATM   13  C7  UNL     1       3.022  -2.635   0.817  1.00  0.00     0.029 A 
HETATM   14  C8  UNL     1       4.075  -3.560   0.803  1.00  0.00     0.004 A 
HETATM   15  C9  UNL     1       5.228  -2.964   0.490  1.00  0.00     0.024 A 
HETATM   16  C10 UNL     1       5.526  -1.702   0.208  1.00  0.00     0.036 A 
HETATM   17 CL1  UNL     1       7.095  -1.018  -0.194  1.00  0.00    -0.084 Cl
HETATM   18  C11 UNL     1       4.455  -0.777   0.229  1.00  0.00     0.053 A 
ENDBRANCH  10  12
ENDBRANCH   5  10
BRANCH   7  19
HETATM   19  N5  UNL     1      -2.690  -0.688   0.815  1.00  0.00    -0.373 N 
HETATM   20  H12 UNL     1      -3.030  -0.504   1.793  1.00  0.00     0.161 HD
BRANCH  19  21
HETATM   21  C13 UNL     1      -3.440  -1.505  -0.068  1.00  0.00     0.151 C 
BRANCH  21  22
HETATM   22  C14 UNL     1      -3.593  -2.946   0.431  1.00  0.00     0.286 C 
BRANCH  22  23
HETATM   23  N6  UNL     1      -4.408  -3.628  -0.513  1.00  0.00     0.079 N 
HETATM   24  H17 UNL     1      -5.393  -3.226  -0.504  1.00  0.00     0.312 HD
HETATM   25  H18 UNL     1      -4.508  -4.655  -0.322  1.00  0.00     0.312 HD
ENDBRANCH  22  23
ENDBRANCH  21  22
ENDBRANCH  19  21
ENDBRANCH   7  19
BRANCH   1  26
HETATM   26  C2  UNL     1      -1.076   4.091  -1.330  1.00  0.00     0.125 C 
HETATM   27  C1  UNL     1      -1.981   4.913  -0.512  1.00  0.00     0.027 C 
ENDBRANCH   1  26
TORSDOF 7
