REMARK  7 active torsions:
REMARK  status: ('A' for Active; 'I' for Inactive)
REMARK    1  A    between atoms: N1_2  and  C2_3 
REMARK    2  A    between atoms: C4_7  and  N3_8 
REMARK    3  A    between atoms: N3_8  and  C5_9 
REMARK    4  A    between atoms: C5_9  and  C6_10 
REMARK    5  A    between atoms: C6_10  and  N4_11 
REMARK    6  A    between atoms: C7_13  and  N6_14 
REMARK    7  A    between atoms: N6_14  and  C8_15 
ROOT
HETATM    1  C2  UNL     1       0.365  -1.445   0.370  1.00  0.00     0.143 A 
HETATM    2  C3  UNL     1      -0.915  -1.553   0.932  1.00  0.00     0.177 A 
HETATM    3 CL1  UNL     1      -1.317  -2.527   2.336  1.00  0.00    -0.059 Cl
HETATM    4  N2  UNL     1      -1.981  -0.888   0.427  1.00  0.00    -0.048 NA
HETATM    5  C4  UNL     1      -1.828  -0.087  -0.656  1.00  0.00     0.726 A 
HETATM    6  N5  UNL     1      -0.605   0.022  -1.201  1.00  0.00    -0.043 NA
HETATM    7  C7  UNL     1       0.473  -0.623  -0.724  1.00  0.00     0.179 A 
ENDROOT
BRANCH   7   8
HETATM    8  N6  UNL     1       1.739  -0.489  -1.330  1.00  0.00    -0.338 N 
HETATM    9  H10 UNL     1       1.861  -0.934  -2.288  1.00  0.00     0.167 HD
BRANCH   8  10
HETATM   10  C8  UNL     1       2.845   0.195  -0.776  1.00  0.00     0.033 A 
HETATM   11  C9  UNL     1       2.956   0.640   0.515  1.00  0.00     0.029 A 
HETATM   12  C10 UNL     1       3.964   1.299   1.159  1.00  0.00     0.002 A 
HETATM   13  C11 UNL     1       5.071   1.562   0.345  1.00  0.00     0.000 A 
HETATM   14  C12 UNL     1       5.064   1.152  -0.995  1.00  0.00     0.002 A 
HETATM   15  C13 UNL     1       3.983   0.495  -1.523  1.00  0.00     0.029 A 
ENDBRANCH   8  10
ENDBRANCH   7   8
BRANCH   1  16
HETATM   16  N1  UNL     1       1.409  -2.193   0.979  1.00  0.00    -0.265 NA
HETATM   17  C1  UNL     1       1.212  -3.453   1.303  1.00  0.00     0.150 C 
ENDBRANCH   1  16
BRANCH   5  18
HETATM   18  N3  UNL     1      -2.938   0.625  -1.191  1.00  0.00    -0.221 N 
HETATM   19  H3  UNL     1      -2.805   1.177  -2.064  1.00  0.00     0.177 HD
BRANCH  18  20
HETATM   20  C5  UNL     1      -4.230   0.581  -0.534  1.00  0.00     0.168 C 
BRANCH  20  21
HETATM   21  C6  UNL     1      -4.105   1.222   0.852  1.00  0.00     0.286 C 
BRANCH  21  22
HETATM   22  N4  UNL     1      -5.398   1.157   1.474  1.00  0.00     0.079 N 
HETATM   23  H8  UNL     1      -5.358   1.451   2.494  1.00  0.00     0.312 HD
HETATM   24  H9  UNL     1      -6.131   1.688   0.967  1.00  0.00     0.312 HD
ENDBRANCH  21  22
ENDBRANCH  20  21
ENDBRANCH  18  20
ENDBRANCH   5  18
TORSDOF 7
