REMARK  2 active torsions:
REMARK  status: ('A' for Active; 'I' for Inactive)
REMARK    1  A    between atoms: C8_10  and  N3_11 
REMARK    2  A    between atoms: N3_11  and  C9_12 
ROOT
HETATM    1  C1  UNL     1      -2.701  -0.481  -1.682  1.00  0.00     0.042 C 
HETATM    2  C2  UNL     1      -2.622   0.816  -0.946  1.00  0.00     0.215 A 
HETATM    3  C3  UNL     1      -3.799   0.707   0.108  1.00  0.00     0.043 C 
HETATM    4  C4  UNL     1      -3.014   1.744   1.065  1.00  0.00     0.036 C 
HETATM    5  C5  UNL     1      -2.795   0.979   2.291  1.00  0.00     0.038 C 
HETATM    6  C6  UNL     1      -1.744   0.100   2.707  1.00  0.00     0.269 C 
HETATM    7  N1  UNL     1      -1.243  -1.153   2.194  1.00  0.00     0.073 N 
HETATM    8  C7  UNL     1      -0.150  -1.774   1.390  1.00  0.00     0.426 A 
HETATM    9  N2  UNL     1       0.721  -1.867   0.406  1.00  0.00    -0.203 NA
HETATM   10  C8  UNL     1       0.984  -1.160  -0.688  1.00  0.00     0.144 A 
HETATM   11  C15 UNL     1       0.178   0.127  -1.082  1.00  0.00     0.099 A 
HETATM   12  C16 UNL     1      -0.545  -0.057   0.009  1.00  0.00     0.257 A 
HETATM   13  N4  UNL     1      -0.802  -0.714   1.043  1.00  0.00    -0.115 N 
HETATM   14  N5  UNL     1      -1.344   0.891  -0.047  1.00  0.00     0.024 N 
HETATM   15  C17 UNL     1      -2.104   1.800  -0.106  1.00  0.00     0.224 A 
HETATM   16  P1  UNL     1      -0.801   1.695  -1.565  1.00  0.00     0.190 P 
HETATM   17  H12 UNL     1      -1.443  -2.231   2.210  1.00  0.00     0.315 HD
ENDROOT
BRANCH  10  18
HETATM   18  N3  UNL     1       1.811  -1.100  -1.819  1.00  0.00    -0.340 N 
HETATM   19  H13 UNL     1       1.639  -1.304  -2.826  1.00  0.00     0.167 HD
BRANCH  18  20
HETATM   20  C9  UNL     1       3.141  -0.701  -1.581  1.00  0.00     0.035 A 
HETATM   21  C10 UNL     1       3.672  -0.758  -0.310  1.00  0.00     0.029 A 
HETATM   22  C11 UNL     1       4.947  -0.406   0.049  1.00  0.00     0.004 A 
HETATM   23  C12 UNL     1       5.830   0.063  -0.950  1.00  0.00     0.024 A 
HETATM   24  C13 UNL     1       5.342   0.145  -2.270  1.00  0.00     0.036 A 
HETATM   25 CL1  UNL     1       6.217   0.679  -3.678  1.00  0.00    -0.084 Cl
HETATM   26  C14 UNL     1       4.040  -0.240  -2.494  1.00  0.00     0.053 A 
ENDBRANCH  18  20
ENDBRANCH  10  18
TORSDOF 2
