REMARK  10 active torsions:
REMARK  status: ('A' for Active; 'I' for Inactive)
REMARK    1  A    between atoms: C2_2  and  N1_3 
REMARK    2  A    between atoms: C4_6  and  C5_7 
REMARK    3  A    between atoms: C5_7  and  N3_8 
REMARK    4  A    between atoms: C5_7  and  N4_9 
REMARK    5  A    between atoms: N4_9  and  C6_10 
REMARK    6  A    between atoms: C12_17  and  N5_18 
REMARK    7  A    between atoms: N5_18  and  C13_19 
REMARK    8  A    between atoms: C13_19  and  N6_20 
REMARK    9  A    between atoms: N6_20  and  C14_21 
REMARK   10  A    between atoms: C18_25  and  N7_26 
ROOT
HETATM    1  N1  UNL     1       0.450  -3.727  -1.076  1.00  0.00    -0.325 N 
HETATM    2  C3  UNL     1       1.625  -4.440  -0.722  1.00  0.00     0.212 A 
HETATM    3  N2  UNL     1       2.411  -3.724   0.022  1.00  0.00    -0.236 NA
HETATM    4  C4  UNL     1       1.824  -2.451   0.234  1.00  0.00     0.147 A 
HETATM    5  C12 UNL     1       0.558  -2.437  -0.468  1.00  0.00     0.160 A 
ENDROOT
BRANCH   4   6
HETATM    6  C5  UNL     1       2.418  -1.544   0.955  1.00  0.00     0.132 C 
BRANCH   6   7
HETATM    7  N3  UNL     1       3.661  -1.858   1.524  1.00  0.00    -0.383 N 
HETATM    8  H7  UNL     1       4.613  -1.745   1.121  1.00  0.00     0.157 HD
HETATM    9  H8  UNL     1       3.798  -2.273   2.491  1.00  0.00     0.157 HD
ENDBRANCH   6   7
BRANCH   6  10
HETATM   10  N4  UNL     1       2.298  -0.232   1.443  1.00  0.00    -0.341 N 
HETATM   11  H9  UNL     1       1.622   0.301   2.069  1.00  0.00     0.167 HD
BRANCH  10  12
HETATM   12  C6  UNL     1       3.184   0.867   1.178  1.00  0.00     0.035 A 
HETATM   13  C7  UNL     1       3.150   1.835   0.198  1.00  0.00     0.029 A 
HETATM   14  C8  UNL     1       4.118   2.799   0.130  1.00  0.00     0.004 A 
HETATM   15  C9  UNL     1       5.156   2.809   1.061  1.00  0.00     0.024 A 
HETATM   16  C10 UNL     1       5.228   1.863   2.054  1.00  0.00     0.036 A 
HETATM   17 CL1  UNL     1       6.555   1.944   3.175  1.00  0.00    -0.084 Cl
HETATM   18  C11 UNL     1       4.232   0.900   2.095  1.00  0.00     0.053 A 
ENDBRANCH  10  12
ENDBRANCH   6  10
ENDBRANCH   4   6
BRANCH   5  19
HETATM   19  N5  UNL     1      -0.340  -1.583  -0.604  1.00  0.00    -0.240 NA
BRANCH  19  20
HETATM   20  C13 UNL     1      -0.472  -0.248  -0.110  1.00  0.00     0.420 C 
BRANCH  20  21
HETATM   21  N6  UNL     1      -1.643   0.338  -0.672  1.00  0.00     0.107 N 
HETATM   22  H16 UNL     1      -2.519  -0.204  -0.470  1.00  0.00     0.318 HD
BRANCH  21  23
HETATM   23  C14 UNL     1      -1.903   1.712  -0.335  1.00  0.00     0.224 C 
HETATM   24  C15 UNL     1      -2.117   1.846   1.120  1.00  0.00     0.036 C 
HETATM   25  C16 UNL     1      -3.558   1.554   1.525  1.00  0.00     0.004 C 
HETATM   26  C17 UNL     1      -4.335   2.702   0.916  1.00  0.00     0.035 C 
HETATM   27  C18 UNL     1      -4.296   2.559  -0.562  1.00  0.00     0.220 C 
HETATM   28  C19 UNL     1      -3.023   2.191  -1.197  1.00  0.00     0.070 C 
BRANCH  27  29
HETATM   29  N7  UNL     1      -5.344   1.578  -0.892  1.00  0.00     0.083 N 
HETATM   30  H25 UNL     1      -5.891   1.871  -1.725  1.00  0.00     0.313 HD
HETATM   31  H26 UNL     1      -4.827   0.683  -1.046  1.00  0.00     0.313 HD
ENDBRANCH  27  29
ENDBRANCH  21  23
ENDBRANCH  20  21
ENDBRANCH  19  20
ENDBRANCH   5  19
BRANCH   1  32
HETATM   32  C2  UNL     1      -0.629  -4.249  -1.901  1.00  0.00     0.127 C 
HETATM   33  C1  UNL     1      -0.147  -4.434  -3.324  1.00  0.00     0.027 C 
ENDBRANCH   1  32
TORSDOF 10
