REMARK  2 active torsions:
REMARK  status: ('A' for Active; 'I' for Inactive)
REMARK    1  A    between atoms: C2_2  and  N1_3 
REMARK    2  A    between atoms: C6_8  and  N3_9 
ROOT
HETATM    1  N1  UNL     1       2.221  -1.009  -0.863  1.00  0.00    -0.372 N 
HETATM    2  C3  UNL     1       1.289  -2.009  -0.476  1.00  0.00     0.202 C 
HETATM    3  N2  UNL     1       0.114  -1.695  -0.082  1.00  0.00    -0.239 NA
HETATM    4  C4  UNL     1      -0.376  -0.357   0.011  1.00  0.00     0.299 C 
HETATM    5  C5  UNL     1      -1.629  -0.206  -0.829  1.00  0.00     0.106 C 
HETATM    6  C6  UNL     1      -2.696  -1.200  -0.529  1.00  0.00     0.224 C 
HETATM    7  C7  UNL     1      -2.813  -1.592   0.908  1.00  0.00     0.065 C 
HETATM    8  C8  UNL     1      -1.532  -1.491   1.690  1.00  0.00     0.275 C 
HETATM    9  N4  UNL     1      -0.854  -0.231   1.409  1.00  0.00     0.119 N 
HETATM   10  C9  UNL     1       0.565   0.738  -0.352  1.00  0.00     0.199 C 
HETATM   11  C10 UNL     1       1.581   0.191  -1.366  1.00  0.00     0.184 C 
HETATM   12  N5  UNL     1       1.323   1.193   0.741  1.00  0.00    -0.243 NA
HETATM   13  C11 UNL     1       1.111   2.231   1.456  1.00  0.00     0.104 C 
HETATM   14 CL1  UNL     1       2.367   2.346   2.707  1.00  0.00    -0.067 Cl
HETATM   15  C12 UNL     1       0.144   3.325   1.529  1.00  0.00     0.100 C 
HETATM   16  C13 UNL     1      -0.522   3.693   0.284  1.00  0.00    -0.003 C 
HETATM   17  C14 UNL     1      -0.657   3.046  -0.847  1.00  0.00     0.082 C 
HETATM   18  N6  UNL     1      -0.139   1.763  -1.098  1.00  0.00    -0.367 N 
HETATM   19  H16 UNL     1      -1.583   0.499   1.500  1.00  0.00     0.319 HD
HETATM   20  H23 UNL     1      -0.330   1.500  -2.114  1.00  0.00     0.161 HD
ENDROOT
BRANCH   6  21
HETATM   21  N3  UNL     1      -3.970  -0.567  -0.904  1.00  0.00     0.083 N 
HETATM   22  H10 UNL     1      -4.599  -1.192  -1.413  1.00  0.00     0.313 HD
HETATM   23  H11 UNL     1      -4.395  -0.030  -0.127  1.00  0.00     0.313 HD
ENDBRANCH   6  21
BRANCH   1  24
HETATM   24  C2  UNL     1       3.638  -1.164  -0.773  1.00  0.00     0.119 C 
HETATM   25  C1  UNL     1       4.015  -2.470  -0.121  1.00  0.00     0.026 C 
ENDBRANCH   1  24
TORSDOF 2
