REMARK  3 active torsions:
REMARK  status: ('A' for Active; 'I' for Inactive)
REMARK    1  A    between atoms: N1_1  and  C1_2 
REMARK    2  A    between atoms: C5_6  and  N2_7 
REMARK    3  A    between atoms: N2_7  and  C6_8 
ROOT
HETATM    1  C6  UNL     1       0.261   0.397  -0.055  1.00  0.00     0.169 C 
HETATM    2  C7  UNL     1       0.975  -0.523  -0.671  1.00  0.00     0.170 C 
HETATM    3  N3  UNL     1       1.095  -1.925  -0.334  1.00  0.00    -0.238 NA
HETATM    4  C8  UNL     1       1.892  -2.579  -1.151  1.00  0.00     0.147 C 
HETATM    5  C9  UNL     1       3.188  -1.902  -0.902  1.00  0.00     0.071 C 
HETATM    6  N4  UNL     1       4.239  -1.908  -0.145  1.00  0.00    -0.243 NA
HETATM    7  C10 UNL     1       5.271  -0.949  -0.365  1.00  0.00     0.232 C 
HETATM    8  N5  UNL     1       5.383   0.274  -0.009  1.00  0.00    -0.253 NA
HETATM    9  C11 UNL     1       4.356   0.907   0.749  1.00  0.00     0.137 C 
HETATM   10  C12 UNL     1       3.365   1.812   0.719  1.00  0.00     0.034 C 
HETATM   11 CL1  UNL     1       2.342   2.205   2.090  1.00  0.00    -0.087 Cl
HETATM   12  C13 UNL     1       2.858   2.684  -0.352  1.00  0.00     0.099 C 
HETATM   13  C14 UNL     1       1.433   2.390  -0.610  1.00  0.00     0.097 C 
HETATM   14  N6  UNL     1       0.347   1.716  -0.610  1.00  0.00    -0.244 NA
HETATM   15  C15 UNL     1       3.078  -0.876  -1.999  1.00  0.00     0.182 C 
HETATM   16  N7  UNL     1       1.774  -0.213  -1.832  1.00  0.00    -0.366 N 
HETATM   17  H20 UNL     1       1.432   0.471  -2.543  1.00  0.00     0.161 HD
ENDROOT
BRANCH   1  18
HETATM   18  N2  UNL     1      -0.550   0.185   1.086  1.00  0.00    -0.367 N 
HETATM   19  H11 UNL     1       0.015   0.087   1.967  1.00  0.00     0.161 HD
BRANCH  18  20
HETATM   20  C5  UNL     1      -1.968   0.151   0.785  1.00  0.00     0.085 C 
HETATM   21  C4  UNL     1      -2.226  -0.986  -0.143  1.00  0.00     0.025 C 
HETATM   22  C3  UNL     1      -3.669  -1.322  -0.338  1.00  0.00     0.004 C 
HETATM   23  C2  UNL     1      -4.595  -0.934   0.766  1.00  0.00     0.035 C 
HETATM   24  C1  UNL     1      -4.257   0.354   1.452  1.00  0.00     0.220 C 
HETATM   25  C16 UNL     1      -2.843   0.155   2.015  1.00  0.00     0.060 C 
BRANCH  24  26
HETATM   26  N1  UNL     1      -5.211   0.592   2.501  1.00  0.00     0.083 N 
HETATM   27  H1  UNL     1      -5.015   1.460   3.042  1.00  0.00     0.313 HD
HETATM   28  H2  UNL     1      -6.127   0.754   2.040  1.00  0.00     0.313 HD
ENDBRANCH  24  26
ENDBRANCH  18  20
ENDBRANCH   1  18
TORSDOF 3
