REMARK  5 active torsions:
REMARK  status: ('A' for Active; 'I' for Inactive)
REMARK    1  A    between atoms: C4_5  and  N2_6 
REMARK    2  A    between atoms: N2_6  and  C5_7 
REMARK    3  A    between atoms: C11_15  and  N4_16 
REMARK    4  A    between atoms: N4_16  and  C12_17 
REMARK    5  A    between atoms: C16_21  and  N5_22 
ROOT
HETATM    1  C1  UNL     1      -1.405  -3.953  -1.697  1.00  0.00     0.062 C 
HETATM    2  C2  UNL     1      -2.278  -2.737  -1.417  1.00  0.00     0.318 C 
HETATM    3  N1  UNL     1      -1.845  -1.689  -2.301  1.00  0.00    -0.178 NA
HETATM    4  C3  UNL     1      -2.304  -0.479  -1.598  1.00  0.00     0.208 C 
HETATM    5  C4  UNL     1      -1.954  -0.800  -0.174  1.00  0.00     0.360 C 
HETATM    6  N3  UNL     1      -0.515  -0.487  -0.054  1.00  0.00    -0.040 NA
HETATM    7  C11 UNL     1       0.189  -1.037  -1.014  1.00  0.00     0.710 C 
HETATM    8  N6  UNL     1      -0.432  -1.627  -2.175  1.00  0.00    -0.148 N 
HETATM    9  N7  UNL     1      -2.043  -2.220  -0.079  1.00  0.00     0.157 N 
HETATM   10  C18 UNL     1      -3.044  -2.743   0.791  1.00  0.00     0.318 C 
HETATM   11  H25 UNL     1       0.150  -2.021  -2.951  1.00  0.00     0.199 HD
ENDROOT
BRANCH   7  12
HETATM   12  N4  UNL     1       1.627  -1.097  -0.986  1.00  0.00    -0.219 N 
HETATM   13  H12 UNL     1       2.125  -1.758  -1.644  1.00  0.00     0.178 HD
BRANCH  12  14
HETATM   14  C12 UNL     1       2.324  -0.239  -0.046  1.00  0.00     0.101 C 
HETATM   15  C13 UNL     1       1.991   1.172  -0.353  1.00  0.00     0.026 C 
HETATM   16  C14 UNL     1       3.016   2.191  -0.004  1.00  0.00     0.004 C 
HETATM   17  C15 UNL     1       4.406   1.710   0.198  1.00  0.00     0.035 C 
HETATM   18  C16 UNL     1       4.472   0.340   0.851  1.00  0.00     0.220 C 
HETATM   19  C17 UNL     1       3.790  -0.585  -0.140  1.00  0.00     0.060 C 
BRANCH  18  20
HETATM   20  N5  UNL     1       5.830  -0.028   1.107  1.00  0.00     0.083 N 
HETATM   21  H21 UNL     1       6.500   0.404   0.443  1.00  0.00     0.313 HD
HETATM   22  H22 UNL     1       6.048   0.203   2.104  1.00  0.00     0.313 HD
ENDBRANCH  18  20
ENDBRANCH  12  14
ENDBRANCH   7  12
BRANCH   5  23
HETATM   23  N2  UNL     1      -2.686  -0.088   0.816  1.00  0.00    -0.335 N 
HETATM   24  H7  UNL     1      -3.284  -0.698   1.434  1.00  0.00     0.164 HD
BRANCH  23  25
HETATM   25  C5  UNL     1      -2.713   1.293   1.071  1.00  0.00     0.033 A 
HETATM   26  C6  UNL     1      -1.938   2.238   0.439  1.00  0.00     0.029 A 
HETATM   27  C7  UNL     1      -1.958   3.589   0.672  1.00  0.00     0.004 A 
HETATM   28  C8  UNL     1      -2.837   4.046   1.631  1.00  0.00     0.024 A 
HETATM   29  C9  UNL     1      -3.650   3.165   2.311  1.00  0.00     0.036 A 
HETATM   30 CL1  UNL     1      -4.764   3.751   3.527  1.00  0.00    -0.084 Cl
HETATM   31  C10 UNL     1      -3.566   1.826   2.015  1.00  0.00     0.053 A 
ENDBRANCH  23  25
ENDBRANCH   5  23
TORSDOF 5
