REMARK  6 active torsions:
REMARK  status: ('A' for Active; 'I' for Inactive)
REMARK    1  A    between atoms: C2_2  and  N1_3 
REMARK    2  A    between atoms: C5_7  and  N3_8 
REMARK    3  A    between atoms: N3_8  and  C6_9 
REMARK    4  A    between atoms: C12_18  and  N5_19 
REMARK    5  A    between atoms: N5_19  and  C13_20 
REMARK    6  A    between atoms: C16_23  and  N6_25 
ROOT
HETATM    1  N1  UNL     1       1.136   3.740  -0.384  1.00  0.00    -0.324 N 
HETATM    2  C3  UNL     1       2.480   3.552  -0.430  1.00  0.00     0.212 A 
HETATM    3  N2  UNL     1       2.737   2.245  -0.625  1.00  0.00    -0.236 NA
HETATM    4  C4  UNL     1       1.580   1.601  -0.702  1.00  0.00     0.151 A 
HETATM    5  C5  UNL     1       1.154   0.310  -0.885  1.00  0.00     0.179 A 
HETATM    6  N4  UNL     1      -0.140  -0.004  -0.912  1.00  0.00    -0.043 NA
HETATM    7  C12 UNL     1      -1.103   0.923  -0.763  1.00  0.00     0.726 A 
HETATM    8  N7  UNL     1      -0.743   2.192  -0.583  1.00  0.00    -0.042 NA
HETATM    9  C19 UNL     1       0.566   2.538  -0.551  1.00  0.00     0.182 A 
ENDROOT
BRANCH   7  10
HETATM   10  N5  UNL     1      -2.476   0.553  -0.797  1.00  0.00    -0.218 N 
HETATM   11  H13 UNL     1      -3.213   1.259  -0.683  1.00  0.00     0.178 HD
BRANCH  10  12
HETATM   12  C13 UNL     1      -2.831  -0.853  -0.997  1.00  0.00     0.102 C 
HETATM   13  C14 UNL     1      -2.282  -1.744   0.076  1.00  0.00     0.028 C 
HETATM   14  C15 UNL     1      -3.429  -2.200   0.920  1.00  0.00     0.043 C 
HETATM   15  C16 UNL     1      -4.683  -1.619   0.323  1.00  0.00     0.153 C 
HETATM   16  C17 UNL     1      -5.725  -2.679   0.031  1.00  0.00     0.049 C 
HETATM   17  C18 UNL     1      -4.320  -1.004  -1.007  1.00  0.00     0.066 C 
BRANCH  15  18
HETATM   18  N6  UNL     1      -5.255  -0.641   1.200  1.00  0.00     0.087 N 
HETATM   19  H22 UNL     1      -4.591  -0.213   1.882  1.00  0.00     0.313 HD
HETATM   20  H23 UNL     1      -6.075  -1.040   1.680  1.00  0.00     0.313 HD
ENDBRANCH  15  18
ENDBRANCH  10  12
ENDBRANCH   7  10
BRANCH   5  21
HETATM   21  N3  UNL     1       2.096  -0.716  -1.048  1.00  0.00    -0.347 N 
HETATM   22  H7  UNL     1       1.834  -1.720  -1.191  1.00  0.00     0.167 HD
BRANCH  21  23
HETATM   23  C6  UNL     1       3.503  -0.503  -1.037  1.00  0.00     0.101 C 
HETATM   24  C7  UNL     1       4.346  -1.271  -0.362  1.00  0.00    -0.019 A 
HETATM   25  C8  UNL     1       3.828  -2.392   0.414  1.00  0.00     0.013 A 
HETATM   26  C11 UNL     1       5.763  -0.934  -0.442  1.00  0.00     0.039 A 
HETATM   27  C9  UNL     1       4.599  -3.206   1.116  1.00  0.00     0.003 A 
HETATM   28  C10 UNL     1       6.066  -3.090   1.206  1.00  0.00     0.026 A 
HETATM   29  P1  UNL     1       6.774  -1.895   0.398  1.00  0.00     0.030 P 
HETATM   30 CL1  UNL     1       8.809  -1.608   0.429  1.00  0.00    -0.087 Cl
ENDBRANCH  21  23
ENDBRANCH   5  21
BRANCH   1  31
HETATM   31  C2  UNL     1       0.513   5.019  -0.188  1.00  0.00     0.127 C 
HETATM   32  C1  UNL     1       0.344   5.198   1.316  1.00  0.00     0.027 C 
ENDBRANCH   1  31
TORSDOF 6
