REMARK  4 active torsions:
REMARK  status: ('A' for Active; 'I' for Inactive)
REMARK    1  A    between atoms: C2_2  and  N1_3 
REMARK    2  A    between atoms: C5_7  and  N3_8 
REMARK    3  A    between atoms: N3_8  and  C6_9 
REMARK    4  A    between atoms: C12_17  and  N5_18 
ROOT
HETATM    1  N1  UNL     1       1.239   2.765  -0.744  1.00  0.00    -0.324 N 
HETATM    2  C3  UNL     1       2.560   2.558  -0.758  1.00  0.00     0.212 A 
HETATM    3  N2  UNL     1       2.779   1.262  -0.477  1.00  0.00    -0.236 NA
HETATM    4  C4  UNL     1       1.623   0.654  -0.288  1.00  0.00     0.151 A 
HETATM    5  C5  UNL     1       1.283  -0.636   0.012  1.00  0.00     0.180 A 
HETATM    6  N4  UNL     1      -0.025  -0.906   0.127  1.00  0.00    -0.042 NA
HETATM    7  C12 UNL     1      -1.023  -0.047  -0.021  1.00  0.00     0.728 A 
HETATM    8  N6  UNL     1      -0.640   1.210  -0.315  1.00  0.00    -0.042 NA
HETATM    9  C19 UNL     1       0.637   1.598  -0.454  1.00  0.00     0.182 A 
ENDROOT
BRANCH   5  10
HETATM   10  N3  UNL     1       2.179  -1.685   0.223  1.00  0.00    -0.338 N 
HETATM   11  H7  UNL     1       1.834  -2.677   0.332  1.00  0.00     0.167 HD
BRANCH  10  12
HETATM   12  C6  UNL     1       3.585  -1.763   0.344  1.00  0.00     0.035 A 
HETATM   13  C7  UNL     1       4.309  -0.857   1.089  1.00  0.00     0.029 A 
HETATM   14  C8  UNL     1       5.680  -0.860   1.226  1.00  0.00     0.004 A 
HETATM   15  C9  UNL     1       6.414  -1.829   0.583  1.00  0.00     0.024 A 
HETATM   16  C10 UNL     1       5.738  -2.759  -0.174  1.00  0.00     0.036 A 
HETATM   17 CL1  UNL     1       6.576  -4.050  -1.046  1.00  0.00    -0.084 Cl
HETATM   18  C11 UNL     1       4.369  -2.734  -0.295  1.00  0.00     0.053 A 
ENDBRANCH  10  12
ENDBRANCH   5  10
BRANCH   7  19
HETATM   19  N5  UNL     1      -2.396  -0.438   0.128  1.00  0.00    -0.214 N 
HETATM   20  C13 UNL     1      -3.274   0.657  -0.143  1.00  0.00     0.141 C 
HETATM   21  C14 UNL     1      -4.546   0.105  -0.747  1.00  0.00     0.020 C 
HETATM   22  C15 UNL     1      -5.377  -0.643   0.238  1.00  0.00     0.002 C 
HETATM   23  C16 UNL     1      -4.996  -2.086   0.385  1.00  0.00     0.002 C 
HETATM   24  C17 UNL     1      -3.679  -2.417  -0.269  1.00  0.00     0.020 C 
HETATM   25  C18 UNL     1      -2.550  -1.813   0.512  1.00  0.00     0.141 C 
ENDBRANCH   7  19
BRANCH   1  26
HETATM   26  C2  UNL     1       0.598   4.040  -0.999  1.00  0.00     0.127 C 
HETATM   27  C1  UNL     1       0.433   4.809   0.280  1.00  0.00     0.027 C 
ENDBRANCH   1  26
TORSDOF 4
