REMARK  4 active torsions:
REMARK  status: ('A' for Active; 'I' for Inactive)
REMARK    1  A    between atoms: C3_5  and  N3_6 
REMARK    2  A    between atoms: N3_6  and  C4_7 
REMARK    3  A    between atoms: N5_15  and  C10_16 
REMARK    4  A    between atoms: C13_19  and  N6_20 
ROOT
HETATM    1  C1  UNL     1      -2.866   3.823  -0.164  1.00  0.00     0.158 C 
HETATM    2  N1  UNL     1      -2.368   2.701   0.554  1.00  0.00    -0.330 N 
HETATM    3  C2  UNL     1      -2.711   2.040   1.766  1.00  0.00     0.209 A 
HETATM    4  N2  UNL     1      -1.993   1.023   2.068  1.00  0.00    -0.229 NA
HETATM    5  C3  UNL     1      -1.008   0.810   1.065  1.00  0.00     0.260 A 
HETATM    6  N4  UNL     1       0.364   0.748   1.467  1.00  0.00    -0.202 NA
HETATM    7  N5  UNL     1       1.252   0.745   0.413  1.00  0.00    -0.224 NA
HETATM    8  C15 UNL     1       0.622   0.825  -0.891  1.00  0.00     0.259 C 
HETATM    9  N7  UNL     1      -0.406   1.872  -0.870  1.00  0.00    -0.255 NA
HETATM   10  C16 UNL     1      -1.262   1.920   0.114  1.00  0.00     0.172 A 
HETATM   11  H10 UNL     1       0.520   0.018   2.195  1.00  0.00     0.146 HD
ENDROOT
BRANCH   5  12
HETATM   12  N3  UNL     1      -1.352  -0.476   0.453  1.00  0.00    -0.342 N 
HETATM   13  H5  UNL     1      -0.596  -1.196   0.678  1.00  0.00     0.164 HD
BRANCH  12  14
HETATM   14  C4  UNL     1      -2.337  -1.141  -0.322  1.00  0.00     0.032 A 
HETATM   15  C5  UNL     1      -2.270  -2.483  -0.718  1.00  0.00     0.029 A 
HETATM   16  C6  UNL     1      -3.296  -2.992  -1.466  1.00  0.00     0.004 A 
HETATM   17  C7  UNL     1      -4.384  -2.251  -1.844  1.00  0.00     0.024 A 
HETATM   18  C8  UNL     1      -4.472  -0.928  -1.466  1.00  0.00     0.036 A 
HETATM   19 CL1  UNL     1      -5.909  -0.109  -2.016  1.00  0.00    -0.084 Cl
HETATM   20  C9  UNL     1      -3.439  -0.412  -0.712  1.00  0.00     0.053 A 
ENDBRANCH  12  14
ENDBRANCH   5  12
BRANCH   7  21
HETATM   21  C10 UNL     1       2.190  -0.315   0.397  1.00  0.00     0.078 C 
HETATM   22  C11 UNL     1       2.899  -0.525   1.715  1.00  0.00     0.023 C 
HETATM   23  C12 UNL     1       4.146  -1.276   1.230  1.00  0.00     0.037 C 
HETATM   24  C13 UNL     1       4.596  -0.448   0.064  1.00  0.00     0.219 C 
HETATM   25  C14 UNL     1       3.309  -0.007  -0.584  1.00  0.00     0.056 C 
BRANCH  24  26
HETATM   26  N6  UNL     1       5.386  -1.243  -0.837  1.00  0.00     0.083 N 
HETATM   27  H17 UNL     1       6.045  -1.856  -0.320  1.00  0.00     0.313 HD
HETATM   28  H18 UNL     1       5.884  -0.615  -1.525  1.00  0.00     0.313 HD
ENDBRANCH  24  26
ENDBRANCH   7  21
TORSDOF 4
