REMARK  7 active torsions:
REMARK  status: ('A' for Active; 'I' for Inactive)
REMARK    1  A    between atoms: C2_2  and  C3_3 
REMARK    2  A    between atoms: C2_2  and  N1_5 
REMARK    3  A    between atoms: N1_5  and  C4_6 
REMARK    4  A    between atoms: N4_12  and  C8_13 
REMARK    5  A    between atoms: C8_13  and  N5_14 
REMARK    6  A    between atoms: N5_14  and  C9_15 
REMARK    7  A    between atoms: C13_19  and  N6_20 
ROOT
HETATM    1  C4  UNL     1      -0.572   0.155   2.993  1.00  0.00     0.093 C 
HETATM    2  C5  UNL     1      -0.416   1.394   2.486  1.00  0.00     0.113 A 
HETATM    3  N2  UNL     1      -0.102   2.761   2.833  1.00  0.00    -0.239 NA
HETATM    4  C6  UNL     1      -0.120   3.468   1.780  1.00  0.00     0.209 A 
HETATM    5  N3  UNL     1      -0.443   2.686   0.606  1.00  0.00    -0.334 N 
HETATM    6  C7  UNL     1      -0.647   1.296   1.020  1.00  0.00     0.155 A 
HETATM    7  N4  UNL     1      -0.875   0.804  -0.118  1.00  0.00    -0.240 NA
HETATM    8  H10 UNL     1      -0.411   3.437  -0.162  1.00  0.00     0.168 HD
ENDROOT
BRANCH   7   9
HETATM    9  C8  UNL     1      -1.078  -0.544  -0.465  1.00  0.00     0.420 C 
BRANCH   9  10
HETATM   10  N5  UNL     1      -0.905  -0.673  -1.936  1.00  0.00     0.107 N 
HETATM   11  H13 UNL     1      -1.050  -1.671  -2.211  1.00  0.00     0.318 HD
BRANCH  10  12
HETATM   12  C9  UNL     1       0.438  -0.211  -2.251  1.00  0.00     0.224 C 
HETATM   13  C10 UNL     1       0.683  -0.300  -3.720  1.00  0.00     0.036 C 
HETATM   14  C11 UNL     1       1.973   0.359  -4.079  1.00  0.00     0.004 C 
HETATM   15  C12 UNL     1       2.982   0.321  -2.965  1.00  0.00     0.035 C 
HETATM   16  C13 UNL     1       2.834  -0.909  -2.094  1.00  0.00     0.220 C 
HETATM   17  C14 UNL     1       1.478  -0.921  -1.408  1.00  0.00     0.070 C 
BRANCH  16  18
HETATM   18  N6  UNL     1       3.046  -2.125  -2.850  1.00  0.00     0.083 N 
HETATM   19  H22 UNL     1       2.345  -2.877  -2.622  1.00  0.00     0.313 HD
HETATM   20  H23 UNL     1       3.059  -1.976  -3.877  1.00  0.00     0.313 HD
ENDBRANCH  16  18
ENDBRANCH  10  12
ENDBRANCH   9  10
ENDBRANCH   7   9
BRANCH   1  21
HETATM   21  N1  UNL     1      -0.897  -1.197   2.574  1.00  0.00    -0.295 NA
HETATM   22  H7  UNL     1       0.046  -1.016   2.220  1.00  0.00     0.127 HD
BRANCH  21  23
HETATM   23  C2  UNL     1      -2.220  -1.162   3.205  1.00  0.00     0.069 C 
HETATM   24  C1  UNL     1      -2.101  -0.921   4.700  1.00  0.00     0.027 C 
BRANCH  23  25
HETATM   25  C3  UNL     1      -3.134  -0.116   2.659  1.00  0.00     0.134 C 
HETATM   26 CL1  UNL     1      -4.700  -0.326   3.523  1.00  0.00    -0.129 Cl
ENDBRANCH  23  25
ENDBRANCH  21  23
ENDBRANCH   1  21
TORSDOF 7
