REMARK  7 active torsions:
REMARK  status: ('A' for Active; 'I' for Inactive)
REMARK    1  A    between atoms: C2_2  and  N1_3 
REMARK    2  A    between atoms: C6_9  and  N4_10 
REMARK    3  A    between atoms: N4_10  and  C7_11 
REMARK    4  A    between atoms: C11_15  and  N5_16 
REMARK    5  A    between atoms: N7_19  and  C13_20 
REMARK    6  A    between atoms: C14_21  and  C15_22 
REMARK    7  A    between atoms: C16_23  and  C17_24 
ROOT
HETATM    1  N1  UNL     1      -2.481   3.085  -0.850  1.00  0.00    -0.324 N 
HETATM    2  C3  UNL     1      -3.596   2.369  -1.113  1.00  0.00     0.213 A 
HETATM    3  N2  UNL     1      -3.300   1.039  -1.095  1.00  0.00    -0.221 NA
HETATM    4  C4  UNL     1      -1.990   0.892  -0.818  1.00  0.00     0.197 A 
HETATM    5  C5  UNL     1      -1.506   2.161  -0.672  1.00  0.00     0.172 A 
HETATM    6  N3  UNL     1      -0.118   2.269  -0.370  1.00  0.00    -0.170 N 
HETATM    7  C6  UNL     1       0.757   1.160  -0.220  1.00  0.00     0.719 A 
HETATM    8  N6  UNL     1       0.246  -0.017  -0.370  1.00  0.00     0.025 NA
HETATM    9  N7  UNL     1      -1.105  -0.218  -0.666  1.00  0.00    -0.208 N 
HETATM   10  H7  UNL     1       0.268   3.251  -0.254  1.00  0.00     0.186 HD
ENDROOT
BRANCH   7  11
HETATM   11  N4  UNL     1       2.139   1.315   0.081  1.00  0.00    -0.218 N 
HETATM   12  H8  UNL     1       2.405   2.316   0.318  1.00  0.00     0.178 HD
BRANCH  11  13
HETATM   13  C7  UNL     1       3.055   0.230   0.063  1.00  0.00     0.101 C 
HETATM   14  C8  UNL     1       3.197  -0.477  -1.256  1.00  0.00     0.026 C 
HETATM   15  C9  UNL     1       4.560  -1.177  -1.226  1.00  0.00     0.004 C 
HETATM   16  C10 UNL     1       5.143  -1.266   0.146  1.00  0.00     0.035 C 
HETATM   17  C11 UNL     1       4.161  -1.594   1.232  1.00  0.00     0.220 C 
HETATM   18  C12 UNL     1       2.851  -0.829   1.104  1.00  0.00     0.060 C 
BRANCH  17  19
HETATM   19  N5  UNL     1       3.960  -3.031   1.222  1.00  0.00     0.083 N 
HETATM   20  H17 UNL     1       4.525  -3.509   0.461  1.00  0.00     0.313 HD
HETATM   21  H18 UNL     1       4.114  -3.464   2.148  1.00  0.00     0.313 HD
ENDBRANCH  17  19
ENDBRANCH  11  13
ENDBRANCH   7  11
BRANCH   9  22
HETATM   22  C13 UNL     1      -1.711  -1.492  -0.839  1.00  0.00     0.121 C 
HETATM   23  C14 UNL     1      -2.775  -1.926  -0.190  1.00  0.00     0.019 C 
BRANCH  23  24
HETATM   24  C15 UNL     1      -3.322  -3.239  -0.432  1.00  0.00    -0.002 C 
HETATM   25  C16 UNL     1      -4.386  -3.684   0.212  1.00  0.00    -0.012 C 
BRANCH  25  26
HETATM   26  C17 UNL     1      -5.160  -2.968   1.228  1.00  0.00     0.141 C 
HETATM   27 CL1  UNL     1      -6.869  -2.758   0.727  1.00  0.00    -0.126 Cl
ENDBRANCH  25  26
ENDBRANCH  23  24
ENDBRANCH   9  22
BRANCH   1  28
HETATM   28  C2  UNL     1      -2.333   4.533  -0.769  1.00  0.00     0.127 C 
HETATM   29  C1  UNL     1      -2.563   5.065   0.610  1.00  0.00     0.027 C 
ENDBRANCH   1  28
TORSDOF 7
