REMARK  12 active torsions:
REMARK  status: ('A' for Active; 'I' for Inactive)
REMARK    1  A    between atoms: C2_2  and  N1_3 
REMARK    2  A    between atoms: C5_6  and  O1_7 
REMARK    3  A    between atoms: C7_9  and  O2_10 
REMARK    4  A    between atoms: O2_10  and  C8_11 
REMARK    5  A    between atoms: C8_11  and  C9_12 
REMARK    6  A    between atoms: C9_12  and  N2_13 
REMARK    7  A    between atoms: N2_13  and  C10_14 
REMARK    8  A    between atoms: N2_13  and  C12_16 
REMARK    9  A    between atoms: C15_19  and  C16_20 
REMARK   10  A    between atoms: C16_20  and  N3_21 
REMARK   11  A    between atoms: C16_20  and  N4_22 
REMARK   12  A    between atoms: N4_22  and  C17_23 
ROOT
HETATM    1  N1  UNL     1       2.765   1.369  -1.279  1.00  0.00    -0.289 NA
HETATM    2  C3  UNL     1       1.814   1.091  -0.441  1.00  0.00     0.067 A 
HETATM    3  C4  UNL     1       0.536   1.637  -0.964  1.00  0.00     0.071 A 
HETATM    4  C5  UNL     1      -0.424   1.317  -0.073  1.00  0.00     0.103 A 
HETATM    5  C7  UNL     1      -0.423   0.571   1.221  1.00  0.00     0.103 A 
HETATM    6  C14 UNL     1       0.804   0.168   1.508  1.00  0.00     0.056 A 
HETATM    7  C15 UNL     1       2.017   0.354   0.779  1.00  0.00     0.033 A 
ENDROOT
BRANCH   7   8
HETATM    8  C16 UNL     1       3.243   0.012   0.979  1.00  0.00     0.091 C 
BRANCH   8   9
HETATM    9  N3  UNL     1       3.952  -0.689   1.974  1.00  0.00    -0.288 NA
HETATM   10  H25 UNL     1       4.150  -1.687   2.178  1.00  0.00     0.125 HD
HETATM   11  H26 UNL     1       3.886  -1.709   1.801  1.00  0.00     0.125 HD
ENDBRANCH   8   9
BRANCH   8  12
HETATM   12  N4  UNL     1       4.327   0.275   0.109  1.00  0.00    -0.346 N 
HETATM   13  H27 UNL     1       4.709   1.244   0.000  1.00  0.00     0.167 HD
BRANCH  12  14
HETATM   14  C17 UNL     1       5.027  -0.683  -0.674  1.00  0.00     0.035 A 
HETATM   15  C18 UNL     1       4.561  -1.347  -1.812  1.00  0.00     0.032 A 
HETATM   16  C19 UNL     1       5.302  -2.250  -2.544  1.00  0.00     0.046 A 
HETATM   17  C20 UNL     1       6.564  -2.457  -2.067  1.00  0.00     0.138 A 
HETATM   18  F1  UNL     1       7.354  -3.338  -2.751  1.00  0.00    -0.204 F 
HETATM   19  C21 UNL     1       7.143  -1.883  -0.979  1.00  0.00     0.074 A 
HETATM   20 CL1  UNL     1       8.744  -2.151  -0.364  1.00  0.00    -0.081 Cl
HETATM   21  C22 UNL     1       6.337  -0.979  -0.281  1.00  0.00     0.056 A 
ENDBRANCH  12  14
ENDBRANCH   8  12
ENDBRANCH   7   8
BRANCH   1  22
HETATM   22  C2  UNL     1       2.596   2.090  -2.511  1.00  0.00     0.145 C 
HETATM   23  C1  UNL     1       2.312   3.544  -2.219  1.00  0.00     0.028 C 
ENDBRANCH   1  22
BRANCH   5  24
HETATM   24  O2  UNL     1      -1.458   0.279   2.063  1.00  0.00    -0.347 OA
BRANCH  24  25
HETATM   25  C8  UNL     1      -2.743  -0.013   1.491  1.00  0.00     0.206 C 
BRANCH  25  26
HETATM   26  C9  UNL     1      -3.262  -1.292   2.099  1.00  0.00     0.299 C 
BRANCH  26  27
HETATM   27  N2  UNL     1      -4.588  -1.596   1.543  1.00  0.00     0.089 N 
BRANCH  27  28
HETATM   28  C10 UNL     1      -5.508  -0.669   2.161  1.00  0.00     0.268 C 
HETATM   29  C11 UNL     1      -6.924  -0.725   1.747  1.00  0.00     0.037 C 
ENDBRANCH  27  28
BRANCH  27  30
HETATM   30  C12 UNL     1      -4.522  -1.438   0.105  1.00  0.00     0.268 C 
HETATM   31  C13 UNL     1      -5.727  -2.056  -0.532  1.00  0.00     0.037 C 
ENDBRANCH  27  30
ENDBRANCH  26  27
ENDBRANCH  25  26
ENDBRANCH  24  25
ENDBRANCH   5  24
BRANCH   4  32
HETATM   32  O1  UNL     1      -1.741   1.748  -0.357  1.00  0.00    -0.353 OA
HETATM   33  C6  UNL     1      -2.079   2.991   0.301  1.00  0.00     0.210 C 
ENDBRANCH   4  32
TORSDOF 12
