REMARK  2 active torsions:
REMARK  status: ('A' for Active; 'I' for Inactive)
REMARK    1  A    between atoms: C2_2  and  C3_3 
REMARK    2  A    between atoms: N3_14  and  C11_15 
ROOT
HETATM    1  C3  UNL     1       0.659   2.686  -0.777  1.00  0.00    -0.006 C 
HETATM    2  C4  UNL     1       0.450   1.936  -1.839  1.00  0.00     0.014 C 
HETATM    3  C5  UNL     1       0.155   0.693  -2.484  1.00  0.00     0.002 C 
HETATM    4  C6  UNL     1      -0.085  -0.525  -2.047  1.00  0.00     0.046 C 
HETATM    5  C7  UNL     1      -0.235  -1.468  -0.909  1.00  0.00     0.229 C 
HETATM    6 CL1  UNL     1      -0.639  -3.111  -1.374  1.00  0.00    -0.065 Cl
HETATM    7  N1  UNL     1       1.076  -1.510  -0.218  1.00  0.00    -0.218 NA
HETATM    8  C8  UNL     1       1.791  -0.513   0.241  1.00  0.00     0.161 A 
HETATM    9  C9  UNL     1       1.605   0.868   0.445  1.00  0.00     0.133 A 
HETATM   10  N2  UNL     1       2.761   1.317   0.960  1.00  0.00    -0.238 NA
HETATM   11  C10 UNL     1       3.597   0.270   1.061  1.00  0.00     0.212 A 
HETATM   12  N3  UNL     1       3.008  -0.854   0.622  1.00  0.00    -0.325 N 
HETATM   13  C13 UNL     1       0.493   1.591   0.175  1.00  0.00     0.101 C 
HETATM   14  N4  UNL     1      -0.819   1.313   0.768  1.00  0.00    -0.232 NA
HETATM   15  C14 UNL     1      -1.657   0.450   0.235  1.00  0.00     0.106 C 
HETATM   16  C15 UNL     1      -2.956   1.049  -0.021  1.00  0.00     0.078 C 
HETATM   17  C16 UNL     1      -4.040   0.545   0.922  1.00  0.00     0.008 C 
HETATM   18  C17 UNL     1      -4.157  -0.946   0.682  1.00  0.00     0.002 C 
HETATM   19  C18 UNL     1      -3.060  -1.620   1.476  1.00  0.00     0.020 C 
HETATM   20  C19 UNL     1      -1.870  -1.966   0.667  1.00  0.00     0.128 C 
HETATM   21  N5  UNL     1      -1.245  -0.915  -0.025  1.00  0.00    -0.325 N 
ENDROOT
BRANCH   1  22
HETATM   22  C2  UNL     1       0.958   3.972  -0.215  1.00  0.00     0.003 C 
HETATM   23  C1  UNL     1       1.053   4.147   1.076  1.00  0.00     0.012 C 
ENDBRANCH   1  22
BRANCH  12  24
HETATM   24  C11 UNL     1       3.598  -2.171   0.579  1.00  0.00     0.127 C 
HETATM   25  C12 UNL     1       4.279  -2.344  -0.756  1.00  0.00     0.027 C 
ENDBRANCH  12  24
TORSDOF 2
