REMARK  8 active torsions:
REMARK  status: ('A' for Active; 'I' for Inactive)
REMARK    1  A    between atoms: C2_2  and  C3_3 
REMARK    2  A    between atoms: C3_3  and  C4_4 
REMARK    3  A    between atoms: C6_6  and  O1_7 
REMARK    4  A    between atoms: O1_7  and  C7_8 
REMARK    5  A    between atoms: C7_8  and  N1_9 
REMARK    6  A    between atoms: C11_14  and  N3_15 
REMARK    7  A    between atoms: N3_15  and  C12_16 
REMARK    8  A    between atoms: C12_16  and  C13_17 
ROOT
HETATM    1  C3  UNL     1      -2.222  -0.859  -0.402  1.00  0.00     0.040 C 
HETATM    2  C6  UNL     1      -2.756   0.528  -0.584  1.00  0.00     0.057 C 
HETATM    3  C8  UNL     1      -2.147   1.582  -1.086  1.00  0.00     0.012 C 
HETATM    4  C9  UNL     1      -0.744   1.394  -1.538  1.00  0.00     0.087 C 
HETATM    5  C10 UNL     1      -0.089   0.372  -0.661  1.00  0.00     0.048 C 
HETATM    6  N2  UNL     1       1.147   0.739  -0.694  1.00  0.00    -0.237 NA
HETATM    7  C11 UNL     1       2.387   0.276  -0.117  1.00  0.00     0.123 C 
HETATM    8  C17 UNL     1       2.552  -0.268   1.104  1.00  0.00     0.052 C 
HETATM    9  C18 UNL     1       1.663  -0.591   2.242  1.00  0.00     0.028 C 
HETATM   10  C19 UNL     1       0.335  -0.732   2.387  1.00  0.00     0.136 C 
HETATM   11  O2  UNL     1      -0.688  -0.608   1.439  1.00  0.00    -0.351 OA
HETATM   12  C20 UNL     1      -0.808  -0.758   0.036  1.00  0.00     0.190 C 
ENDROOT
BRANCH   7  13
HETATM   13  N3  UNL     1       3.564   0.384  -0.868  1.00  0.00    -0.371 N 
HETATM   14  H18 UNL     1       3.440  -0.483  -1.433  1.00  0.00     0.161 HD
BRANCH  13  15
HETATM   15  C12 UNL     1       4.648   1.327  -0.925  1.00  0.00     0.149 C 
BRANCH  15  16
HETATM   16  C13 UNL     1       5.506   1.346   0.272  1.00  0.00     0.007 C 
HETATM   17  C14 UNL     1       6.796   1.069   0.165  1.00  0.00     0.003 A 
HETATM   18  C15 UNL     1       7.903   0.709  -0.688  1.00  0.00     0.057 A 
HETATM   19  C16 UNL     1       8.173   0.860   0.588  1.00  0.00     0.127 A 
HETATM   20  F1  UNL     1       9.077   0.840   1.594  1.00  0.00    -0.205 F 
ENDBRANCH  15  16
ENDBRANCH  13  15
ENDBRANCH   7  13
BRANCH   1  21
HETATM   21  C2  UNL     1      -2.352  -1.541  -1.756  1.00  0.00     0.015 C 
HETATM   22  C1  UNL     1      -1.915  -2.965  -1.776  1.00  0.00     0.006 C 
ENDBRANCH   1  21
BRANCH   1  23
HETATM   23  C4  UNL     1      -3.069  -1.645   0.545  1.00  0.00     0.015 C 
HETATM   24  C5  UNL     1      -3.108  -1.146   1.950  1.00  0.00     0.006 C 
ENDBRANCH   1  23
BRANCH   2  25
HETATM   25  O1  UNL     1      -4.065   0.746  -0.175  1.00  0.00    -0.326 OA
BRANCH  25  26
HETATM   26  C7  UNL     1      -4.528   1.893   0.484  1.00  0.00     0.441 C 
BRANCH  26  27
HETATM   27  N1  UNL     1      -5.964   1.781   0.703  1.00  0.00     0.101 N 
HETATM   28  H13 UNL     1      -6.125   0.851   1.156  1.00  0.00     0.315 HD
HETATM   29  H14 UNL     1      -6.264   2.583   1.311  1.00  0.00     0.315 HD
ENDBRANCH  26  27
ENDBRANCH  25  26
ENDBRANCH   2  25
TORSDOF 8
