REMARK  10 active torsions:
REMARK  status: ('A' for Active; 'I' for Inactive)
REMARK    1  A    between atoms: C2_2  and  C3_4 
REMARK    2  A    between atoms: C4_6  and  C5_7 
REMARK    3  A    between atoms: C6_8  and  C7_9 
REMARK    4  A    between atoms: C11_15  and  O1_16 
REMARK    5  A    between atoms: C13_18  and  O2_19 
REMARK    6  A    between atoms: O2_19  and  C14_20 
REMARK    7  A    between atoms: C14_20  and  C15_21 
REMARK    8  A    between atoms: C15_21  and  N3_22 
REMARK    9  A    between atoms: N3_22  and  C16_23 
REMARK   10  A    between atoms: N3_22  and  C18_25 
ROOT
HETATM    1  C7  UNL     1       2.890  -1.337  -1.026  1.00  0.00     0.145 C 
HETATM    2  N1  UNL     1       4.221  -1.914  -0.994  1.00  0.00    -0.273 NA
HETATM    3  C8  UNL     1       4.447  -2.817  -0.106  1.00  0.00     0.227 C 
HETATM    4  N2  UNL     1       3.453  -3.266   0.797  1.00  0.00    -0.246 NA
HETATM    5  C9  UNL     1       2.241  -2.866   0.818  1.00  0.00     0.048 C 
HETATM    6  C10 UNL     1       1.127  -3.187   1.679  1.00  0.00     0.067 C 
HETATM    7  C11 UNL     1      -0.122  -2.803   1.573  1.00  0.00     0.103 C 
HETATM    8  C13 UNL     1      -0.499  -1.980   0.433  1.00  0.00     0.099 C 
HETATM    9  C20 UNL     1       0.476  -1.737  -0.405  1.00  0.00     0.026 C 
HETATM   10  C21 UNL     1       1.859  -2.151  -0.419  1.00  0.00     0.091 C 
ENDROOT
BRANCH   1  11
HETATM   11  C6  UNL     1       2.943   0.076  -0.552  1.00  0.00     0.001 C 
HETATM   12  C5  UNL     1       3.929   0.913  -0.279  1.00  0.00     0.001 C 
BRANCH  12  13
HETATM   13  C4  UNL     1       5.344   0.652  -0.381  1.00  0.00     0.043 C 
HETATM   14  C3  UNL     1       6.252   1.560  -0.082  1.00  0.00     0.134 C 
HETATM   15  F1  UNL     1       7.593   1.410  -0.145  1.00  0.00    -0.205 F 
BRANCH  14  16
HETATM   16  C2  UNL     1       6.459   2.923   0.376  1.00  0.00     0.047 A 
HETATM   17  C1  UNL     1       7.141   3.992   0.731  1.00  0.00     0.156 A 
HETATM   18 CL1  UNL     1       5.405   4.254   0.843  1.00  0.00    -0.178 Cl
ENDBRANCH  14  16
ENDBRANCH  12  13
ENDBRANCH   1  11
BRANCH   8  19
HETATM   19  O2  UNL     1      -1.796  -1.536   0.321  1.00  0.00    -0.347 OA
BRANCH  19  20
HETATM   20  C14 UNL     1      -2.216  -0.297  -0.191  1.00  0.00     0.206 C 
BRANCH  20  21
HETATM   21  C15 UNL     1      -3.725  -0.201  -0.183  1.00  0.00     0.299 C 
BRANCH  21  22
HETATM   22  N3  UNL     1      -4.244   1.031  -0.688  1.00  0.00     0.089 N 
BRANCH  22  23
HETATM   23  C16 UNL     1      -3.956   2.162   0.171  1.00  0.00     0.268 C 
HETATM   24  C17 UNL     1      -4.524   3.450  -0.380  1.00  0.00     0.037 C 
ENDBRANCH  22  23
BRANCH  22  25
HETATM   25  C18 UNL     1      -5.661   0.985  -0.915  1.00  0.00     0.268 C 
HETATM   26  C19 UNL     1      -6.080   0.085  -2.038  1.00  0.00     0.037 C 
ENDBRANCH  22  25
ENDBRANCH  21  22
ENDBRANCH  20  21
ENDBRANCH  19  20
ENDBRANCH   8  19
BRANCH   7  27
HETATM   27  O1  UNL     1      -1.077  -3.183   2.504  1.00  0.00    -0.353 OA
HETATM   28  C12 UNL     1      -1.627  -2.104   3.273  1.00  0.00     0.210 C 
ENDBRANCH   7  27
TORSDOF 10
