REMARK  7 active torsions:
REMARK  status: ('A' for Active; 'I' for Inactive)
REMARK    1  A    between atoms: O1_2  and  C2_3 
REMARK    2  A    between atoms: C6_9  and  N3_10 
REMARK    3  A    between atoms: N3_10  and  C7_11 
REMARK    4  A    between atoms: C15_21  and  O2_22 
REMARK    5  A    between atoms: O2_22  and  C16_23 
REMARK    6  A    between atoms: C16_23  and  C17_24 
REMARK    7  A    between atoms: C17_24  and  N4_25 
ROOT
HETATM    1  C2  UNL     1       1.073   2.822  -0.037  1.00  0.00     0.103 A 
HETATM    2  C3  UNL     1       0.061   3.322  -0.853  1.00  0.00     0.072 A 
HETATM    3  C4  UNL     1      -1.057   2.538  -1.035  1.00  0.00     0.075 A 
HETATM    4  N1  UNL     1      -2.046   3.034  -1.836  1.00  0.00    -0.241 NA
HETATM    5  C5  UNL     1      -3.164   2.324  -2.056  1.00  0.00     0.236 A 
HETATM    6  N2  UNL     1      -3.288   1.127  -1.478  1.00  0.00    -0.224 NA
HETATM    7  C6  UNL     1      -2.373   0.575  -0.688  1.00  0.00     0.142 A 
HETATM    8  C13 UNL     1      -1.232   1.300  -0.463  1.00  0.00     0.042 A 
HETATM    9  C14 UNL     1      -0.190   0.885   0.324  1.00  0.00     0.057 A 
HETATM   10  C15 UNL     1       0.969   1.574   0.579  1.00  0.00     0.103 A 
ENDROOT
BRANCH   7  11
HETATM   11  N3  UNL     1      -2.518  -0.696  -0.082  1.00  0.00    -0.340 N 
HETATM   12  H6  UNL     1      -1.773  -1.114   0.508  1.00  0.00     0.167 HD
BRANCH  11  13
HETATM   13  C7  UNL     1      -3.603  -1.602  -0.135  1.00  0.00     0.035 A 
HETATM   14  C8  UNL     1      -3.583  -2.908   0.329  1.00  0.00     0.032 A 
HETATM   15  C9  UNL     1      -4.659  -3.759   0.268  1.00  0.00     0.046 A 
HETATM   16  C10 UNL     1      -5.854  -3.346  -0.275  1.00  0.00     0.138 A 
HETATM   17  F1  UNL     1      -6.836  -4.277  -0.275  1.00  0.00    -0.204 F 
HETATM   18  C11 UNL     1      -5.920  -2.054  -0.748  1.00  0.00     0.074 A 
HETATM   19 CL1  UNL     1      -7.466  -1.589  -1.425  1.00  0.00    -0.081 Cl
HETATM   20  C12 UNL     1      -4.812  -1.238  -0.664  1.00  0.00     0.056 A 
ENDBRANCH  11  13
ENDBRANCH   7  11
BRANCH  10  21
HETATM   21  O2  UNL     1       2.072   1.303   1.319  1.00  0.00    -0.347 OA
BRANCH  21  22
HETATM   22  C16 UNL     1       2.407   0.185   2.081  1.00  0.00     0.206 C 
BRANCH  22  23
HETATM   23  C17 UNL     1       2.530  -1.106   1.330  1.00  0.00     0.299 C 
BRANCH  23  24
HETATM   24  N4  UNL     1       3.549  -1.045   0.298  1.00  0.00     0.090 N 
HETATM   25  C18 UNL     1       4.867  -0.943   0.916  1.00  0.00     0.274 C 
HETATM   26  C19 UNL     1       5.376  -1.817  -0.214  1.00  0.00     0.060 C 
HETATM   27  C20 UNL     1       3.961  -2.400  -0.103  1.00  0.00     0.274 C 
ENDBRANCH  23  24
ENDBRANCH  22  23
ENDBRANCH  21  22
ENDBRANCH  10  21
BRANCH   1  28
HETATM   28  O1  UNL     1       2.161   3.681   0.089  1.00  0.00    -0.353 OA
HETATM   29  C1  UNL     1       2.224   4.927  -0.548  1.00  0.00     0.210 C 
ENDBRANCH   1  28
TORSDOF 7
