REMARK  0 active torsions:
REMARK  status: ('A' for Active; 'I' for Inactive)
ROOT
HETATM    1  F1  UNL     1       2.243   0.991   0.345  1.00  0.00    -0.362 F 
HETATM    2  C1  UNL     1       3.257   0.174   0.033  1.00  0.00     0.079 A 
HETATM    3  C2  UNL     1       3.128   1.349  -0.636  1.00  0.00     0.200 A 
HETATM    4  C3  UNL     1       1.938   1.797   0.066  1.00  0.00     0.073 C 
HETATM    5  C4  UNL     1       1.173   2.850   0.017  1.00  0.00     0.071 C 
HETATM    6  N1  UNL     1       0.230   2.468   1.054  1.00  0.00    -0.353 N 
HETATM    7  C5  UNL     1      -0.968   1.840   0.695  1.00  0.00     0.135 C 
HETATM    8  C6  UNL     1      -1.469   0.636   0.587  1.00  0.00     0.019 C 
HETATM    9  C7  UNL     1      -0.373  -0.274   0.993  1.00  0.00     0.040 C 
HETATM   10  C8  UNL     1       0.392  -1.256   0.475  1.00  0.00     0.023 C 
HETATM   11  C9  UNL     1       1.441  -2.143   0.972  1.00  0.00     0.171 C 
HETATM   12  N2  UNL     1       2.702  -2.145   0.403  1.00  0.00    -0.410 N 
HETATM   13  C10 UNL     1       3.603  -1.106   0.617  1.00  0.00     0.179 C 
HETATM   14  N3  UNL     1       0.262  -1.709  -0.900  1.00  0.00    -0.390 N 
HETATM   15  C11 UNL     1      -0.817  -1.813  -1.872  1.00  0.00     0.146 C 
HETATM   16  C12 UNL     1      -2.168  -1.767  -1.154  1.00  0.00     0.188 C 
HETATM   17  O1  UNL     1      -2.639  -0.490  -1.147  1.00  0.00    -0.379 OA
HETATM   18  C13 UNL     1      -2.758   0.097   0.128  1.00  0.00     0.163 C 
HETATM   19  C14 UNL     1      -3.772   1.187  -0.004  1.00  0.00     0.084 C 
HETATM   20  C15 UNL     1      -3.161   2.517   0.119  1.00  0.00     0.095 C 
HETATM   21  N4  UNL     1      -1.935   2.873   0.424  1.00  0.00    -0.247 NA
HETATM   22  H4  UNL     1       0.221   2.552   2.093  1.00  0.00     0.166 HD
HETATM   23  H8  UNL     1       2.896  -2.693  -0.441  1.00  0.00     0.153 HD
HETATM   24  H11 UNL     1       1.177  -2.060  -1.324  1.00  0.00     0.159 HD
ENDROOT
TORSDOF 0
