REMARK  10 active torsions:
REMARK  status: ('A' for Active; 'I' for Inactive)
REMARK    1  A    between atoms: O1_2  and  C2_3 
REMARK    2  A    between atoms: C6_9  and  N3_10 
REMARK    3  A    between atoms: N3_10  and  C7_11 
REMARK    4  A    between atoms: C15_21  and  O2_22 
REMARK    5  A    between atoms: O2_22  and  C16_23 
REMARK    6  A    between atoms: C16_23  and  C17_24 
REMARK    7  A    between atoms: C17_24  and  N4_25 
REMARK    8  A    between atoms: N4_25  and  C18_26 
REMARK    9  A    between atoms: C18_26  and  C19_27 
REMARK   10  A    between atoms: C19_27  and  N5_28 
ROOT
HETATM    1  C2  UNL     1       0.640  -0.828   0.875  1.00  0.00     0.103 A 
HETATM    2  C3  UNL     1       1.547  -0.771   1.831  1.00  0.00     0.067 A 
HETATM    3  C4  UNL     1       2.561   0.254   2.028  1.00  0.00     0.050 A 
HETATM    4  N1  UNL     1       3.383   0.348   2.998  1.00  0.00    -0.246 NA
HETATM    5  C5  UNL     1       4.330   1.406   3.007  1.00  0.00     0.229 C 
HETATM    6  N2  UNL     1       4.423   2.267   2.060  1.00  0.00    -0.256 NA
HETATM    7  C6  UNL     1       3.576   2.241   0.868  1.00  0.00     0.220 C 
HETATM    8  C13 UNL     1       2.418   1.389   1.091  1.00  0.00     0.107 A 
HETATM    9  C14 UNL     1       1.420   1.240   0.033  1.00  0.00     0.027 A 
HETATM   10  C15 UNL     1       0.578   0.245  -0.101  1.00  0.00     0.099 A 
ENDROOT
BRANCH   7  11
HETATM   11  N3  UNL     1       4.307   2.031  -0.352  1.00  0.00    -0.366 N 
HETATM   12  H7  UNL     1       4.163   2.785  -1.101  1.00  0.00     0.161 HD
BRANCH  11  13
HETATM   13  C7  UNL     1       5.193   1.017  -0.792  1.00  0.00     0.031 A 
HETATM   14  C8  UNL     1       5.574  -0.086  -0.065  1.00  0.00     0.032 A 
HETATM   15  C9  UNL     1       6.437  -1.082  -0.463  1.00  0.00     0.046 A 
HETATM   16  C10 UNL     1       6.983  -0.974  -1.726  1.00  0.00     0.138 A 
HETATM   17  F1  UNL     1       7.841  -1.897  -2.203  1.00  0.00    -0.204 F 
HETATM   18  C11 UNL     1       6.640   0.107  -2.506  1.00  0.00     0.074 A 
HETATM   19 CL1  UNL     1       7.328   0.238  -4.105  1.00  0.00    -0.081 Cl
HETATM   20  C12 UNL     1       5.780   1.048  -2.038  1.00  0.00     0.056 A 
ENDBRANCH  11  13
ENDBRANCH   7  11
BRANCH  10  21
HETATM   21  O2  UNL     1      -0.266   0.386  -1.190  1.00  0.00    -0.347 OA
BRANCH  21  22
HETATM   22  C16 UNL     1      -1.581  -0.127  -1.089  1.00  0.00     0.205 C 
BRANCH  22  23
HETATM   23  C17 UNL     1      -2.501   0.342  -2.186  1.00  0.00     0.296 C 
BRANCH  23  24
HETATM   24  N4  UNL     1      -3.842  -0.185  -2.087  1.00  0.00     0.087 N 
HETATM   25  H17 UNL     1      -3.880  -1.232  -2.087  1.00  0.00     0.316 HD
BRANCH  24  26
HETATM   26  C18 UNL     1      -4.594   0.299  -0.972  1.00  0.00     0.288 C 
BRANCH  26  27
HETATM   27  C19 UNL     1      -5.955  -0.351  -0.991  1.00  0.00     0.145 C 
BRANCH  27  28
HETATM   28  N5  UNL     1      -6.822   0.028   0.070  1.00  0.00    -0.419 N 
HETATM   29  C20 UNL     1      -6.456  -0.398   1.378  1.00  0.00     0.142 C 
HETATM   30  C21 UNL     1      -7.291   1.371   0.081  1.00  0.00     0.142 C 
ENDBRANCH  27  28
ENDBRANCH  26  27
ENDBRANCH  24  26
ENDBRANCH  23  24
ENDBRANCH  22  23
ENDBRANCH  21  22
ENDBRANCH  10  21
BRANCH   1  31
HETATM   31  O1  UNL     1      -0.296  -1.829   0.717  1.00  0.00    -0.353 OA
HETATM   32  C1  UNL     1      -0.254  -2.917   1.637  1.00  0.00     0.210 C 
ENDBRANCH   1  31
TORSDOF 10
