REMARK  9 active torsions:
REMARK  status: ('A' for Active; 'I' for Inactive)
REMARK    1  A    between atoms: O1_2  and  C2_3 
REMARK    2  A    between atoms: C2_3  and  C3_4 
REMARK    3  A    between atoms: C3_4  and  N1_5 
REMARK    4  A    between atoms: N1_5  and  C4_6 
REMARK    5  A    between atoms: C4_6  and  C5_7 
REMARK    6  A    between atoms: C5_7  and  O2_8 
REMARK    7  A    between atoms: O2_8  and  C6_9 
REMARK    8  A    between atoms: C9_12  and  N2_13 
REMARK    9  A    between atoms: C18_26  and  O3_27 
ROOT
HETATM    1  C6  UNL     1      -0.138  -1.223  -1.108  1.00  0.00     0.103 A 
HETATM    2  C7  UNL     1      -1.144  -0.443  -0.582  1.00  0.00     0.057 A 
HETATM    3  C8  UNL     1      -2.073   0.067  -1.462  1.00  0.00     0.042 A 
HETATM    4  C9  UNL     1      -3.035   0.838  -0.845  1.00  0.00     0.144 A 
HETATM    5  N3  UNL     1      -4.005   1.405  -1.613  1.00  0.00    -0.223 NA
HETATM    6  C15 UNL     1      -4.018   1.207  -2.964  1.00  0.00     0.236 A 
HETATM    7  N4  UNL     1      -3.073   0.450  -3.557  1.00  0.00    -0.241 NA
HETATM    8  C16 UNL     1      -2.108  -0.117  -2.826  1.00  0.00     0.075 A 
HETATM    9  C17 UNL     1      -1.078  -0.913  -3.343  1.00  0.00     0.072 A 
HETATM   10  C18 UNL     1      -0.115  -1.451  -2.486  1.00  0.00     0.103 A 
ENDROOT
BRANCH   1  11
HETATM   11  O2  UNL     1       0.860  -1.796  -0.330  1.00  0.00    -0.347 OA
BRANCH  11  12
HETATM   12  C5  UNL     1       0.813  -1.544   1.075  1.00  0.00     0.205 C 
BRANCH  12  13
HETATM   13  C4  UNL     1       1.936  -2.213   1.803  1.00  0.00     0.296 C 
BRANCH  13  14
HETATM   14  N1  UNL     1       3.248  -1.815   1.400  1.00  0.00     0.087 N 
HETATM   15  H8  UNL     1       3.416  -2.008   0.395  1.00  0.00     0.316 HD
BRANCH  14  16
HETATM   16  C3  UNL     1       3.592  -0.449   1.740  1.00  0.00     0.295 C 
BRANCH  16  17
HETATM   17  C2  UNL     1       5.012  -0.244   1.237  1.00  0.00     0.197 C 
BRANCH  17  18
HETATM   18  O1  UNL     1       5.516   1.008   1.474  1.00  0.00    -0.394 OA
HETATM   19  C1  UNL     1       4.803   2.039   0.891  1.00  0.00     0.201 C 
ENDBRANCH  17  18
ENDBRANCH  16  17
ENDBRANCH  14  16
ENDBRANCH  13  14
ENDBRANCH  12  13
ENDBRANCH  11  12
ENDBRANCH   1  11
BRANCH  10  20
HETATM   20  O3  UNL     1       0.886  -2.232  -3.039  1.00  0.00    -0.353 OA
HETATM   21  C19 UNL     1       0.841  -2.419  -4.460  1.00  0.00     0.210 C 
ENDBRANCH  10  20
BRANCH   4  22
HETATM   22  N2  UNL     1      -3.255   1.161   0.523  1.00  0.00    -0.336 N 
HETATM   23  C10 UNL     1      -2.943   2.557   0.719  1.00  0.00     0.120 A 
HETATM   24  C11 UNL     1      -3.036   3.154   1.915  1.00  0.00     0.087 A 
HETATM   25 CL1  UNL     1      -2.684   4.813   2.240  1.00  0.00    -0.080 Cl
HETATM   26  C12 UNL     1      -3.474   2.368   3.061  1.00  0.00     0.137 A 
HETATM   27  F1  UNL     1      -3.621   2.818   4.344  1.00  0.00    -0.205 F 
HETATM   28  C13 UNL     1      -3.753   1.096   2.833  1.00  0.00     0.037 A 
HETATM   29  C14 UNL     1      -3.706   0.287   1.587  1.00  0.00     0.160 A 
ENDBRANCH   4  22
TORSDOF 9
