REMARK  5 active torsions:
REMARK  status: ('A' for Active; 'I' for Inactive)
REMARK    1  A    between atoms: C2_2  and  C3_3 
REMARK    2  A    between atoms: C3_3  and  N1_4 
REMARK    3  A    between atoms: C5_6  and  O1_7 
REMARK    4  A    between atoms: C10_14  and  N4_15 
REMARK    5  A    between atoms: N4_15  and  C11_16 
ROOT
HETATM    1  N1  UNL     1       1.123   0.254  -0.447  1.00  0.00    -0.370 N 
HETATM    2  C4  UNL     1       2.439   0.735  -0.046  1.00  0.00     0.187 A 
HETATM    3  C5  UNL     1       3.267  -0.321   0.548  1.00  0.00     0.066 A 
HETATM    4  C7  UNL     1       3.053  -1.587   0.778  1.00  0.00     0.068 A 
HETATM    5  C8  UNL     1       1.720  -2.030   0.355  1.00  0.00     0.091 A 
HETATM    6  N2  UNL     1       1.317  -3.309   0.498  1.00  0.00    -0.240 NA
HETATM    7  C9  UNL     1       0.117  -3.690   0.100  1.00  0.00     0.236 A 
HETATM    8  N3  UNL     1      -0.704  -2.787  -0.452  1.00  0.00    -0.222 NA
HETATM    9  C10 UNL     1      -0.369  -1.476  -0.632  1.00  0.00     0.158 A 
HETATM   10  C17 UNL     1       0.881  -1.111  -0.208  1.00  0.00     0.106 A 
ENDROOT
BRANCH   9  11
HETATM   11  N4  UNL     1      -1.448  -0.802  -1.253  1.00  0.00    -0.339 N 
HETATM   12  H15 UNL     1      -1.048  -0.828  -2.215  1.00  0.00     0.167 HD
BRANCH  11  13
HETATM   13  C11 UNL     1      -2.715  -0.282  -0.769  1.00  0.00     0.035 A 
HETATM   14  C12 UNL     1      -3.467   0.539  -1.540  1.00  0.00     0.032 A 
HETATM   15  C13 UNL     1      -4.653   0.943  -0.965  1.00  0.00     0.046 A 
HETATM   16  C14 UNL     1      -5.090   0.575   0.284  1.00  0.00     0.138 A 
HETATM   17  F1  UNL     1      -6.278   1.009   0.798  1.00  0.00    -0.204 F 
HETATM   18  C15 UNL     1      -4.286  -0.279   1.058  1.00  0.00     0.074 A 
HETATM   19 CL1  UNL     1      -4.803  -0.786   2.652  1.00  0.00    -0.081 Cl
HETATM   20  C16 UNL     1      -3.098  -0.683   0.484  1.00  0.00     0.056 A 
ENDBRANCH  11  13
ENDBRANCH   9  11
BRANCH   1  21
HETATM   21  C3  UNL     1       0.410   1.355  -0.995  1.00  0.00     0.123 C 
BRANCH  21  22
HETATM   22  C2  UNL     1       0.096   2.401   0.111  1.00  0.00     0.015 C 
HETATM   23  C1  UNL     1      -0.731   1.801   1.199  1.00  0.00     0.006 C 
ENDBRANCH  21  22
ENDBRANCH   1  21
BRANCH   3  24
HETATM   24  O1  UNL     1       4.529   0.200   0.918  1.00  0.00    -0.358 OA
HETATM   25  C6  UNL     1       5.675  -0.124   0.144  1.00  0.00     0.209 C 
ENDBRANCH   3  24
TORSDOF 5
