REMARK  5 active torsions:
REMARK  status: ('A' for Active; 'I' for Inactive)
REMARK    1  A    between atoms: C11_12  and  O2_13 
REMARK    2  A    between atoms: O2_13  and  C12_14 
REMARK    3  A    between atoms: C12_14  and  C13_15 
REMARK    4  A    between atoms: C15_17  and  C16_18 
REMARK    5  A    between atoms: C16_18  and  O4_20 
ROOT
HETATM    1  C1  UNL     1       4.427   2.042   1.208  1.00  0.00     0.023 C 
HETATM    2  C2  UNL     1       3.838   0.975   0.699  1.00  0.00    -0.020 C 
HETATM    3  C3  UNL     1       2.480   1.090   0.128  1.00  0.00     0.098 A 
HETATM    4  O1  UNL     1       1.806   2.072  -0.439  1.00  0.00    -0.299 OA
HETATM    5  C4  UNL     1       0.621   1.650  -0.776  1.00  0.00     0.141 A 
HETATM    6  C5  UNL     1      -0.216   2.456  -1.353  1.00  0.00    -0.040 C 
HETATM    7  C6  UNL     1      -0.956   3.146  -1.843  1.00  0.00    -0.089 C 
HETATM    8  C7  UNL     1      -1.832   3.934  -2.403  1.00  0.00     0.107 C 
HETATM    9  C8  UNL     1      -2.859   3.050  -2.212  1.00  0.00    -0.008 C 
HETATM   10  C9  UNL     1      -3.342   2.147  -1.309  1.00  0.00     0.000 C 
HETATM   11  C10 UNL     1      -2.665   1.161  -0.656  1.00  0.00     0.037 C 
HETATM   12  C11 UNL     1      -2.065  -0.008  -0.339  1.00  0.00     0.086 C 
HETATM   13  C15 UNL     1      -0.757  -0.348  -0.713  1.00  0.00     0.087 C 
HETATM   14  C18 UNL     1       0.409   0.331  -0.456  1.00  0.00     0.043 A 
HETATM   15  C19 UNL     1       1.609  -0.005   0.121  1.00  0.00     0.064 A 
HETATM   16  C20 UNL     1       2.001  -1.319   0.680  1.00  0.00     0.193 C 
HETATM   17  O5  UNL     1       1.311  -2.366   0.730  1.00  0.00    -0.287 OA
HETATM   18  C21 UNL     1       3.375  -1.366   1.240  1.00  0.00     0.005 A 
HETATM   19  C22 UNL     1       3.955  -2.068   2.197  1.00  0.00     0.012 A 
HETATM   20  C23 UNL     1       5.366  -1.632   2.264  1.00  0.00    -0.002 A 
HETATM   21  C24 UNL     1       5.577  -0.679   1.338  1.00  0.00    -0.012 A 
HETATM   22  C25 UNL     1       4.354  -0.414   0.598  1.00  0.00     0.080 A 
ENDROOT
BRANCH  12  23
HETATM   23  O2  UNL     1      -2.427  -1.085   0.330  1.00  0.00    -0.350 OA
BRANCH  23  24
HETATM   24  C12 UNL     1      -3.456  -1.629   1.016  1.00  0.00     0.175 C 
BRANCH  24  25
HETATM   25  C13 UNL     1      -3.942  -0.908   2.245  1.00  0.00     0.022 C 
HETATM   26  C14 UNL     1      -4.466   0.468   2.026  1.00  0.00     0.007 C 
ENDBRANCH  24  25
ENDBRANCH  23  24
ENDBRANCH  12  23
BRANCH  13  27
HETATM   27  C16 UNL     1      -0.461  -1.548  -1.469  1.00  0.00     0.296 C 
HETATM   28  O3  UNL     1      -0.588  -0.988  -2.615  1.00  0.00    -0.259 OA
BRANCH  27  29
HETATM   29  O4  UNL     1      -0.152  -2.811  -1.925  1.00  0.00    -0.322 OA
HETATM   30  C17 UNL     1      -0.102  -2.971  -3.346  1.00  0.00     0.213 C 
ENDBRANCH  27  29
ENDBRANCH  13  27
TORSDOF 5
