REMARK  8 active torsions:
REMARK  status: ('A' for Active; 'I' for Inactive)
REMARK    1  A    between atoms: C2_2  and  C3_3 
REMARK    2  A    between atoms: C3_3  and  C4_5 
REMARK    3  A    between atoms: C13_17  and  C14_18 
REMARK    4  A    between atoms: C14_18  and  N3_19 
REMARK    5  A    between atoms: C16_21  and  O2_22 
REMARK    6  A    between atoms: O2_22  and  C17_23 
REMARK    7  A    between atoms: C17_23  and  C18_24 
REMARK    8  A    between atoms: C18_24  and  N4_25 
ROOT
HETATM    1  C4  UNL     1      -0.668   1.599  -1.620  1.00  0.00    -0.006 C 
HETATM    2  C5  UNL     1      -1.884   1.292  -2.106  1.00  0.00     0.016 C 
HETATM    3  C6  UNL     1      -2.787   0.139  -2.062  1.00  0.00     0.301 C 
HETATM    4  N1  UNL     1      -4.000   0.399  -1.313  1.00  0.00     0.115 N 
HETATM    5  C7  UNL     1      -3.686   0.557   0.106  1.00  0.00     0.372 C 
HETATM    6  N2  UNL     1      -4.808   1.124   0.761  1.00  0.00    -0.266 NA
HETATM    7  C8  UNL     1      -5.808   0.546   1.253  1.00  0.00     0.086 C 
HETATM    8  C9  UNL     1      -5.753  -0.952   1.098  1.00  0.00     0.051 C 
HETATM    9  C10 UNL     1      -4.379  -1.347   1.597  1.00  0.00     0.045 C 
HETATM   10  C11 UNL     1      -3.322  -0.745   0.703  1.00  0.00    -0.004 C 
HETATM   11  C12 UNL     1      -2.236  -1.465   0.578  1.00  0.00     0.142 C 
HETATM   12  O1  UNL     1      -1.000  -1.890   0.201  1.00  0.00    -0.349 OA
HETATM   13  C13 UNL     1       0.257  -1.486   0.615  1.00  0.00     0.212 C 
HETATM   14  C16 UNL     1       0.625  -0.167   0.061  1.00  0.00     0.078 C 
HETATM   15  C21 UNL     1      -0.024   0.652  -0.745  1.00  0.00     0.048 C 
HETATM   16  H6  UNL     1      -4.448   1.265  -1.694  1.00  0.00     0.319 HD
ENDROOT
BRANCH  14  17
HETATM   17  O2  UNL     1       1.891  -0.024   0.644  1.00  0.00    -0.351 OA
BRANCH  17  18
HETATM   18  C17 UNL     1       3.042   0.334  -0.091  1.00  0.00     0.205 C 
BRANCH  18  19
HETATM   19  C18 UNL     1       4.214   0.551   0.849  1.00  0.00     0.297 C 
BRANCH  19  20
HETATM   20  N4  UNL     1       5.433   0.921   0.167  1.00  0.00     0.082 N 
HETATM   21  C19 UNL     1       5.984  -0.157  -0.639  1.00  0.00     0.309 C 
HETATM   22  C20 UNL     1       5.318   2.136  -0.592  1.00  0.00     0.309 C 
ENDBRANCH  19  20
ENDBRANCH  18  19
ENDBRANCH  17  18
ENDBRANCH  14  17
BRANCH  13  23
HETATM   23  C14 UNL     1       1.216  -2.564   0.082  1.00  0.00     0.308 C 
BRANCH  23  24
HETATM   24  N3  UNL     1       0.839  -3.848   0.646  1.00  0.00     0.082 N 
HETATM   25  C15 UNL     1       1.069  -3.952   2.056  1.00  0.00     0.306 C 
HETATM   26  H17 UNL     1      -0.131  -4.059   0.385  1.00  0.00     0.315 HD
ENDBRANCH  23  24
ENDBRANCH  13  23
BRANCH   1  27
HETATM   27  C3  UNL     1      -0.283   2.944  -2.031  1.00  0.00     0.085 C 
HETATM   28 CL1  UNL     1       0.170   3.629  -3.565  1.00  0.00    -0.074 Cl
BRANCH  27  29
HETATM   29  C2  UNL     1      -0.300   3.762  -0.991  1.00  0.00    -0.131 C 
HETATM   30  C1  UNL     1      -0.455   4.722  -0.092  1.00  0.00     0.098 C 
ENDBRANCH  27  29
ENDBRANCH   1  27
TORSDOF 8
