REMARK  5 active torsions:
REMARK  status: ('A' for Active; 'I' for Inactive)
REMARK    1  A    between atoms: O1_2  and  C2_3 
REMARK    2  A    between atoms: C6_9  and  N3_10 
REMARK    3  A    between atoms: N3_10  and  C7_11 
REMARK    4  A    between atoms: C11_15  and  P1_16 
REMARK    5  A    between atoms: C15_21  and  O2_22 
ROOT
HETATM    1  C2  UNL     1      -3.480  -0.377  -0.283  1.00  0.00     0.103 A 
HETATM    2  C3  UNL     1      -2.852  -1.197  -1.193  1.00  0.00     0.072 A 
HETATM    3  C4  UNL     1      -1.509  -1.014  -1.437  1.00  0.00     0.075 A 
HETATM    4  N1  UNL     1      -0.812  -1.776  -2.299  1.00  0.00    -0.241 NA
HETATM    5  C5  UNL     1       0.501  -1.581  -2.507  1.00  0.00     0.236 A 
HETATM    6  N2  UNL     1       1.145  -0.588  -1.830  1.00  0.00    -0.224 NA
HETATM    7  C6  UNL     1       0.484   0.189  -0.965  1.00  0.00     0.142 A 
HETATM    8  C13 UNL     1      -0.862  -0.009  -0.749  1.00  0.00     0.042 A 
HETATM    9  C14 UNL     1      -1.512   0.799   0.155  1.00  0.00     0.057 A 
HETATM   10  C15 UNL     1      -2.856   0.642   0.424  1.00  0.00     0.102 A 
ENDROOT
BRANCH   7  11
HETATM   11  N3  UNL     1       1.253   1.213  -0.298  1.00  0.00    -0.340 N 
HETATM   12  H6  UNL     1       0.951   2.203  -0.178  1.00  0.00     0.167 HD
BRANCH  11  13
HETATM   13  C7  UNL     1       2.502   0.706   0.183  1.00  0.00     0.034 A 
HETATM   14  C8  UNL     1       2.290  -0.261   1.174  1.00  0.00     0.029 A 
HETATM   15  C9  UNL     1       3.337  -0.937   1.813  1.00  0.00     0.003 A 
HETATM   16  C10 UNL     1       4.612  -0.603   1.419  1.00  0.00     0.013 A 
HETATM   17  C11 UNL     1       4.819   0.345   0.448  1.00  0.00    -0.021 A 
HETATM   18  C12 UNL     1       3.792   1.009  -0.179  1.00  0.00     0.042 A 
BRANCH  17  19
HETATM   19  P1  UNL     1       6.521   0.772  -0.083  1.00  0.00    -0.020 P 
HETATM   20 BR1  UNL     1       7.906   1.080   1.694  1.00  0.00    -0.058 Br
HETATM   21  H10 UNL     1       7.073  -0.287  -0.953  1.00  0.00     0.074 HD
ENDBRANCH  17  19
ENDBRANCH  11  13
ENDBRANCH   7  11
BRANCH  10  22
HETATM   22  O2  UNL     1      -3.676   1.337   1.281  1.00  0.00    -0.353 OA
HETATM   23  C16 UNL     1      -3.180   2.399   2.053  1.00  0.00     0.210 C 
ENDBRANCH  10  22
BRANCH   1  24
HETATM   24  O1  UNL     1      -4.822  -0.646  -0.115  1.00  0.00    -0.353 OA
HETATM   25  C1  UNL     1      -5.529  -1.644  -0.783  1.00  0.00     0.210 C 
ENDBRANCH   1  24
TORSDOF 5
