REMARK  3 active torsions:
REMARK  status: ('A' for Active; 'I' for Inactive)
REMARK    1  A    between atoms: C1_2  and  O1_3 
REMARK    2  A    between atoms: O1_3  and  C2_4 
REMARK    3  A    between atoms: N4_18  and  C12_19 
ROOT
HETATM    1  C2  UNL     1       0.624   0.821  -0.649  1.00  0.00     0.114 C 
HETATM    2  C3  UNL     1      -0.203   1.865  -0.625  1.00  0.00     0.216 C 
HETATM    3  O2  UNL     1      -1.552   2.146  -0.761  1.00  0.00    -0.374 OA
HETATM    4  C4  UNL     1      -2.363   2.674   0.306  1.00  0.00     0.199 C 
HETATM    5  C5  UNL     1      -3.774   2.149  -0.014  1.00  0.00     0.295 C 
HETATM    6  N2  UNL     1      -3.757   0.718  -0.069  1.00  0.00     0.087 N 
HETATM    7  C6  UNL     1      -3.528   0.130   1.222  1.00  0.00     0.296 C 
HETATM    8  C7  UNL     1      -3.412  -1.392   1.120  1.00  0.00     0.204 C 
HETATM    9  O3  UNL     1      -2.323  -1.730   0.270  1.00  0.00    -0.362 OA
HETATM   10  C8  UNL     1      -1.876  -3.027   0.096  1.00  0.00     0.131 C 
HETATM   11  C9  UNL     1      -0.834  -3.380  -0.593  1.00  0.00     0.011 C 
HETATM   12  C10 UNL     1       0.235  -2.766  -1.405  1.00  0.00     0.077 C 
HETATM   13  C11 UNL     1       1.601  -3.147  -0.961  1.00  0.00     0.124 C 
HETATM   14  N3  UNL     1       2.363  -2.387  -0.263  1.00  0.00    -0.183 NA
HETATM   15  N4  UNL     1       2.117  -1.005  -0.096  1.00  0.00    -0.236 N 
HETATM   16  C17 UNL     1       0.960  -0.596  -0.779  1.00  0.00     0.088 C 
HETATM   17  C18 UNL     1       0.140  -1.300  -1.503  1.00  0.00     0.021 C 
HETATM   18  H8  UNL     1      -4.690   0.396  -0.417  1.00  0.00     0.316 HD
ENDROOT
BRANCH  15  19
HETATM   19  C12 UNL     1       2.970  -0.180   0.682  1.00  0.00     0.042 A 
HETATM   20  C13 UNL     1       2.674   0.483   1.800  1.00  0.00     0.029 A 
HETATM   21  C14 UNL     1       3.789   1.238   2.343  1.00  0.00     0.022 A 
HETATM   22  C15 UNL     1       4.815   1.039   1.535  1.00  0.00     0.017 A 
HETATM   23 CL1  UNL     1       6.436   1.684   1.663  1.00  0.00    -0.089 Cl
HETATM   24  C16 UNL     1       4.399   0.143   0.438  1.00  0.00     0.110 A 
ENDBRANCH  15  19
BRANCH   1  25
HETATM   25  O1  UNL     1       1.627   1.748  -0.411  1.00  0.00    -0.304 OA
BRANCH  25  26
HETATM   26  C1  UNL     1       2.360   2.190  -1.526  1.00  0.00     0.249 C 
HETATM   27  N1  UNL     1       1.897   1.963  -2.719  1.00  0.00    -0.289 NA
HETATM   28  H1  UNL     1       1.005   1.467  -2.887  1.00  0.00     0.188 HD
ENDBRANCH  25  26
ENDBRANCH   1  25
TORSDOF 3
