REMARK  5 active torsions:
REMARK  status: ('A' for Active; 'I' for Inactive)
REMARK    1  A    between atoms: O1_2  and  C2_3 
REMARK    2  A    between atoms: C2_3  and  C3_4 
REMARK    3  A    between atoms: C3_4  and  C4_6 
REMARK    4  A    between atoms: C4_6  and  C5_7 
REMARK    5  A    between atoms: C6_8  and  C7_9 
ROOT
HETATM    1  C5  UNL     1       0.253   1.125   0.451  1.00  0.00    -0.000 A 
HETATM    2  C6  UNL     1      -0.017   2.295  -0.224  1.00  0.00     0.083 A 
HETATM    3  O3  UNL     1      -1.193   2.260  -0.776  1.00  0.00    -0.305 OA
HETATM    4  C9  UNL     1      -1.793   1.099  -0.525  1.00  0.00     0.141 A 
HETATM    5  C10 UNL     1      -0.889   0.362   0.255  1.00  0.00     0.062 A 
HETATM    6  C11 UNL     1      -1.220  -0.985   0.722  1.00  0.00     0.196 A 
HETATM    7  O4  UNL     1      -0.447  -1.689   1.423  1.00  0.00    -0.286 OA
HETATM    8  C12 UNL     1      -2.519  -1.542   0.354  1.00  0.00     0.029 A 
HETATM    9  C13 UNL     1      -2.828  -2.818   0.798  1.00  0.00     0.016 A 
HETATM   10  C14 UNL     1      -4.033  -3.403   0.487  1.00  0.00     0.001 A 
HETATM   11  C15 UNL     1      -4.940  -2.699  -0.278  1.00  0.00     0.001 A 
HETATM   12  C16 UNL     1      -4.621  -1.419  -0.720  1.00  0.00     0.016 A 
HETATM   13  C17 UNL     1      -3.415  -0.829  -0.411  1.00  0.00     0.031 A 
HETATM   14  C18 UNL     1      -3.068   0.510  -0.867  1.00  0.00     0.217 A 
HETATM   15  O5  UNL     1      -3.874   1.172  -1.565  1.00  0.00    -0.284 OA
ENDROOT
BRANCH   1  16
HETATM   16  C4  UNL     1       1.445   0.716   1.199  1.00  0.00     0.123 C 
BRANCH  16  17
HETATM   17  C3  UNL     1       2.484   0.301   0.228  1.00  0.00     0.154 C 
HETATM   18  O2  UNL     1       1.587   0.629  -0.562  1.00  0.00    -0.295 OA
BRANCH  17  19
HETATM   19  C2  UNL     1       3.790  -0.207  -0.216  1.00  0.00     0.245 C 
BRANCH  19  20
HETATM   20  O1  UNL     1       4.635  -0.518   0.847  1.00  0.00    -0.389 OA
HETATM   21  C1  UNL     1       5.858  -1.008   0.398  1.00  0.00     0.202 C 
ENDBRANCH  19  20
ENDBRANCH  17  19
ENDBRANCH  16  17
ENDBRANCH   1  16
BRANCH   2  22
HETATM   22  C7  UNL     1       0.883   3.436  -0.316  1.00  0.00     0.049 C 
HETATM   23  C8  UNL     1       0.695   4.573  -0.953  1.00  0.00     0.444 C 
HETATM   24  F1  UNL     1      -0.280   5.130  -1.711  1.00  0.00    -0.452 F 
ENDBRANCH   2  22
TORSDOF 5
