REMARK  2 active torsions:
REMARK  status: ('A' for Active; 'I' for Inactive)
REMARK    1  A    between atoms: C1_2  and  C2_3 
REMARK    2  A    between atoms: C7_8  and  O1_9 
ROOT
HETATM    1  C2  UNL     1      -1.042   2.711  -0.084  1.00  0.00     0.082 C 
HETATM    2  C3  UNL     1       0.225   2.460  -0.219  1.00  0.00     0.020 C 
HETATM    3  C4  UNL     1       1.072   1.284  -0.033  1.00  0.00     0.038 C 
HETATM    4  C5  UNL     1       0.658   0.088  -0.811  1.00  0.00    -0.003 C 
HETATM    5  C6  UNL     1       1.398  -0.958  -0.462  1.00  0.00     0.003 C 
HETATM    6  C7  UNL     1       0.859  -2.335  -0.501  1.00  0.00     0.098 C 
HETATM    7  C8  UNL     1      -0.347  -2.753  -0.189  1.00  0.00     0.172 C 
HETATM    8  O2  UNL     1      -1.680  -2.591   0.250  1.00  0.00    -0.359 OA
HETATM    9  C9  UNL     1      -2.638  -2.401  -0.736  1.00  0.00     0.193 C 
HETATM   10  C10 UNL     1      -3.848  -1.603  -0.359  1.00  0.00     0.140 C 
HETATM   11  N2  UNL     1      -3.511  -0.295   0.067  1.00  0.00    -0.417 N 
HETATM   12  C11 UNL     1      -2.876  -0.135   1.321  1.00  0.00     0.140 C 
HETATM   13  C12 UNL     1      -2.497   1.365   1.428  1.00  0.00     0.195 C 
HETATM   14  O3  UNL     1      -1.614   1.542   0.324  1.00  0.00    -0.348 OA
HETATM   15  C13 UNL     1       2.802  -0.767  -0.028  1.00  0.00    -0.034 A 
HETATM   16  C14 UNL     1       3.339   0.463   0.016  1.00  0.00    -0.048 A 
HETATM   17  C15 UNL     1       4.735   0.344   0.485  1.00  0.00     0.027 A 
HETATM   18  C16 UNL     1       4.983  -0.957   0.706  1.00  0.00     0.016 A 
HETATM   19 CL1  UNL     1       6.583  -1.360   1.272  1.00  0.00    -0.089 Cl
HETATM   20  C17 UNL     1       3.791  -1.789   0.403  1.00  0.00     0.091 A 
HETATM   21  C18 UNL     1       2.505   1.645  -0.385  1.00  0.00     0.051 C 
HETATM   22  H12 UNL     1      -4.055   0.488  -0.305  1.00  0.00     0.153 HD
ENDROOT
BRANCH   1  23
HETATM   23  C1  UNL     1      -1.936   3.840  -0.248  1.00  0.00     0.143 C 
HETATM   24  N1  UNL     1      -1.433   4.983  -0.643  1.00  0.00    -0.310 NA
HETATM   25  H1  UNL     1      -0.415   5.065  -0.833  1.00  0.00     0.186 HD
ENDBRANCH   1  23
BRANCH   6  26
HETATM   26  O1  UNL     1       1.798  -3.250  -0.928  1.00  0.00    -0.358 OA
HETATM   27  H6  UNL     1       1.788  -3.633  -1.864  1.00  0.00     0.217 HD
ENDBRANCH   6  26
TORSDOF 2
