REMARK  11 active torsions:
REMARK  status: ('A' for Active; 'I' for Inactive)
REMARK    1  A    between atoms: O1_2  and  C2_3 
REMARK    2  A    between atoms: C2_3  and  C3_4 
REMARK    3  A    between atoms: C3_4  and  N1_5 
REMARK    4  A    between atoms: N1_5  and  C4_6 
REMARK    5  A    between atoms: N1_5  and  O4_30 
REMARK    6  A    between atoms: C4_6  and  C5_7 
REMARK    7  A    between atoms: C5_7  and  O2_8 
REMARK    8  A    between atoms: O2_8  and  C6_9 
REMARK    9  A    between atoms: C11_16  and  N4_17 
REMARK   10  A    between atoms: N4_17  and  C12_18 
REMARK   11  A    between atoms: C19_27  and  O3_28 
ROOT
HETATM    1  C6  UNL     1      -0.047  -0.056  -0.306  1.00  0.00     0.182 A 
HETATM    2  C7  UNL     1       1.461   0.189  -0.265  1.00  0.00     0.084 A 
HETATM    3  C8  UNL     1       2.221  -1.041  -0.178  1.00  0.00     0.019 A 
HETATM    4  C9  UNL     1       1.845  -2.364  -0.165  1.00  0.00     0.070 A 
HETATM    5  N2  UNL     1       2.751  -3.363  -0.085  1.00  0.00    -0.241 NA
HETATM    6  C10 UNL     1       4.068  -3.103  -0.013  1.00  0.00     0.235 A 
HETATM    7  N3  UNL     1       4.486  -1.840  -0.021  1.00  0.00    -0.224 NA
HETATM    8  C11 UNL     1       3.610  -0.833  -0.100  1.00  0.00     0.138 A 
HETATM    9  C18 UNL     1       0.413  -2.591  -0.227  1.00  0.00     0.067 A 
HETATM   10  C19 UNL     1      -0.362  -1.527  -0.288  1.00  0.00     0.077 A 
ENDROOT
BRANCH   1  11
HETATM   11  O2  UNL     1      -0.742   0.611   0.499  1.00  0.00    -0.378 OA
BRANCH  11  12
HETATM   12  C5  UNL     1      -1.432   1.275   1.286  1.00  0.00     0.185 C 
BRANCH  12  13
HETATM   13  C4  UNL     1      -2.978   1.207   1.233  1.00  0.00     0.147 C 
BRANCH  13  14
HETATM   14  N1  UNL     1      -3.517   1.621  -0.016  1.00  0.00    -0.194 NA
BRANCH  14  15
HETATM   15  C3  UNL     1      -4.959   1.587   0.078  1.00  0.00     0.146 C 
BRANCH  15  16
HETATM   16  C2  UNL     1      -5.543   0.212   0.207  1.00  0.00     0.183 C 
BRANCH  16  17
HETATM   17  O1  UNL     1      -6.948   0.257   0.294  1.00  0.00    -0.395 OA
HETATM   18  C1  UNL     1      -7.471  -1.029   0.421  1.00  0.00     0.201 C 
ENDBRANCH  16  17
ENDBRANCH  15  16
ENDBRANCH  14  15
BRANCH  14  19
HETATM   19  O4  UNL     1      -3.137   0.793  -0.987  1.00  0.00    -0.308 OA
HETATM   20  C21 UNL     1      -3.220   1.399  -2.238  1.00  0.00     0.229 C 
ENDBRANCH  14  19
ENDBRANCH  13  14
ENDBRANCH  12  13
ENDBRANCH  11  12
ENDBRANCH   1  11
BRANCH  10  21
HETATM   21  O3  UNL     1      -1.712  -1.839  -0.344  1.00  0.00    -0.357 OA
HETATM   22  C20 UNL     1      -2.349  -2.839   0.394  1.00  0.00     0.209 C 
ENDBRANCH  10  21
BRANCH   8  23
HETATM   23  N4  UNL     1       4.243   0.427  -0.091  1.00  0.00    -0.340 N 
HETATM   24  H16 UNL     1       3.520   1.201  -0.193  1.00  0.00     0.167 HD
BRANCH  23  25
HETATM   25  C12 UNL     1       5.581   0.879   0.019  1.00  0.00     0.035 A 
HETATM   26  C13 UNL     1       6.671   0.073   0.260  1.00  0.00     0.032 A 
HETATM   27  C14 UNL     1       7.973   0.511   0.367  1.00  0.00     0.046 A 
HETATM   28  C15 UNL     1       8.132   1.854   0.215  1.00  0.00     0.138 A 
HETATM   29  F1  UNL     1       9.370   2.391   0.301  1.00  0.00    -0.204 F 
HETATM   30  C16 UNL     1       7.108   2.728  -0.027  1.00  0.00     0.074 A 
HETATM   31 CL1  UNL     1       7.396   4.442  -0.210  1.00  0.00    -0.081 Cl
HETATM   32  C17 UNL     1       5.840   2.225  -0.122  1.00  0.00     0.056 A 
ENDBRANCH  23  25
ENDBRANCH   8  23
TORSDOF 11
