REMARK  7 active torsions:
REMARK  status: ('A' for Active; 'I' for Inactive)
REMARK    1  A    between atoms: O1_2  and  C2_3 
REMARK    2  A    between atoms: C2_3  and  C3_4 
REMARK    3  A    between atoms: C3_4  and  N1_5 
REMARK    4  A    between atoms: N1_5  and  C4_6 
REMARK    5  A    between atoms: C4_6  and  C5_7 
REMARK    6  A    between atoms: C5_7  and  O2_8 
REMARK    7  A    between atoms: O2_8  and  C6_9 
ROOT
HETATM    1  C6  UNL     1      -2.052  -0.417   0.285  1.00  0.00     0.079 C 
HETATM    2  C7  UNL     1      -2.545  -1.284   1.190  1.00  0.00     0.039 C 
HETATM    3  C8  UNL     1      -3.948  -1.553   1.474  1.00  0.00     0.019 C 
HETATM    4  C9  UNL     1      -5.042  -1.063   0.903  1.00  0.00     0.084 C 
HETATM    5  N2  UNL     1      -5.131  -0.112  -0.177  1.00  0.00    -0.387 N 
HETATM    6  C10 UNL     1      -4.165   0.931  -0.351  1.00  0.00     0.145 A 
HETATM    7  C11 UNL     1      -4.442   1.750  -1.560  1.00  0.00     0.047 A 
HETATM    8  C12 UNL     1      -3.374   1.728  -2.339  1.00  0.00     0.137 A 
HETATM    9  F1  UNL     1      -3.108   2.306  -3.544  1.00  0.00    -0.205 F 
HETATM   10  C13 UNL     1      -2.297   0.899  -1.755  1.00  0.00     0.083 A 
HETATM   11 CL1  UNL     1      -0.699   0.523  -2.334  1.00  0.00    -0.080 Cl
HETATM   12  C14 UNL     1      -2.795   0.451  -0.616  1.00  0.00     0.026 A 
HETATM   13  H16 UNL     1      -5.971  -0.301  -0.774  1.00  0.00     0.159 HD
ENDROOT
BRANCH   1  14
HETATM   14  O2  UNL     1      -0.686  -0.394   0.257  1.00  0.00    -0.349 OA
BRANCH  14  15
HETATM   15  C5  UNL     1       0.199   0.323   1.057  1.00  0.00     0.205 C 
BRANCH  15  16
HETATM   16  C4  UNL     1       1.619  -0.215   0.963  1.00  0.00     0.296 C 
BRANCH  16  17
HETATM   17  N1  UNL     1       2.050  -0.115  -0.413  1.00  0.00     0.087 N 
HETATM   18  H8  UNL     1       2.101   0.913  -0.621  1.00  0.00     0.316 HD
BRANCH  17  19
HETATM   19  C3  UNL     1       3.335  -0.702  -0.587  1.00  0.00     0.295 C 
BRANCH  19  20
HETATM   20  C2  UNL     1       4.483  -0.012   0.063  1.00  0.00     0.197 C 
BRANCH  20  21
HETATM   21  O1  UNL     1       5.629  -0.782  -0.257  1.00  0.00    -0.394 OA
HETATM   22  C1  UNL     1       6.783  -0.276   0.287  1.00  0.00     0.201 C 
ENDBRANCH  20  21
ENDBRANCH  19  20
ENDBRANCH  17  19
ENDBRANCH  16  17
ENDBRANCH  15  16
ENDBRANCH  14  15
ENDBRANCH   1  14
TORSDOF 7
