REMARK  8 active torsions:
REMARK  status: ('A' for Active; 'I' for Inactive)
REMARK    1  A    between atoms: O1_1  and  C1_2 
REMARK    2  A    between atoms: C1_2  and  C2_3 
REMARK    3  A    between atoms: C1_2  and  C17_23 
REMARK    4  A    between atoms: C2_3  and  O2_4 
REMARK    5  A    between atoms: O2_4  and  C3_5 
REMARK    6  A    between atoms: C10_13  and  N2_14 
REMARK    7  A    between atoms: N2_14  and  C11_15 
REMARK    8  A    between atoms: C17_23  and  N3_24 
ROOT
HETATM    1  C3  UNL     1      -0.060   0.778  -0.714  1.00  0.00     0.134 C 
HETATM    2  C4  UNL     1      -0.166  -0.578  -1.363  1.00  0.00     0.060 C 
HETATM    3  C5  UNL     1       0.955  -1.434  -0.797  1.00  0.00    -0.017 C 
HETATM    4  C6  UNL     1       2.025  -0.660  -0.699  1.00  0.00    -0.039 C 
HETATM    5  C7  UNL     1       2.163   0.432  -1.766  1.00  0.00     0.050 C 
HETATM    6  C8  UNL     1       1.267   1.478  -1.032  1.00  0.00     0.059 C 
HETATM    7  C9  UNL     1       1.982   1.601   0.303  1.00  0.00     0.093 C 
HETATM    8  N1  UNL     1       2.965   0.876   0.756  1.00  0.00    -0.275 NA
HETATM    9  C10 UNL     1       3.187  -0.491   0.258  1.00  0.00     0.234 C 
ENDROOT
BRANCH   1  10
HETATM   10  O2  UNL     1      -1.101   1.597  -1.191  1.00  0.00    -0.382 OA
BRANCH  10  11
HETATM   11  C2  UNL     1      -1.935   2.030  -0.195  1.00  0.00     0.201 C 
BRANCH  11  12
HETATM   12  C1  UNL     1      -2.731   0.992   0.517  1.00  0.00     0.159 C 
BRANCH  12  13
HETATM   13  O1  UNL     1      -3.448   1.627   1.544  1.00  0.00    -0.392 OA
HETATM   14  H1  UNL     1      -3.801   2.488   1.228  1.00  0.00     0.210 HD
ENDBRANCH  12  13
BRANCH  12  15
HETATM   15  C17 UNL     1      -3.718   0.400  -0.489  1.00  0.00     0.150 C 
BRANCH  15  16
HETATM   16  N3  UNL     1      -4.592  -0.576   0.035  1.00  0.00    -0.406 N 
HETATM   17  C18 UNL     1      -5.603  -0.197   0.938  1.00  0.00     0.143 C 
HETATM   18  C19 UNL     1      -7.005  -0.501   0.454  1.00  0.00     0.187 C 
HETATM   19  O3  UNL     1      -7.092  -1.626  -0.341  1.00  0.00    -0.388 OA
HETATM   20  C20 UNL     1      -6.206  -1.533  -1.420  1.00  0.00     0.187 C 
HETATM   21  C21 UNL     1      -4.819  -1.713  -0.785  1.00  0.00     0.143 C 
ENDBRANCH  15  16
ENDBRANCH  12  15
ENDBRANCH  11  12
ENDBRANCH  10  11
ENDBRANCH   1  10
BRANCH   9  22
HETATM   22  N2  UNL     1       4.441  -0.636  -0.403  1.00  0.00    -0.364 N 
HETATM   23  H14 UNL     1       4.410  -0.853  -1.445  1.00  0.00     0.162 HD
BRANCH  22  24
HETATM   24  C11 UNL     1       5.777  -0.532   0.131  1.00  0.00     0.031 A 
HETATM   25  C12 UNL     1       6.914  -0.700  -0.634  1.00  0.00     0.032 A 
HETATM   26  C13 UNL     1       8.148  -0.577  -0.032  1.00  0.00     0.046 A 
HETATM   27  C14 UNL     1       8.207  -0.288   1.330  1.00  0.00     0.138 A 
HETATM   28  F1  UNL     1       9.487  -0.197   1.776  1.00  0.00    -0.204 F 
HETATM   29  C15 UNL     1       7.064  -0.123   2.082  1.00  0.00     0.074 A 
HETATM   30 CL1  UNL     1       7.288   0.234   3.780  1.00  0.00    -0.081 Cl
HETATM   31  C16 UNL     1       5.823  -0.243   1.491  1.00  0.00     0.056 A 
ENDBRANCH  22  24
ENDBRANCH   9  22
TORSDOF 8
