REMARK  3 active torsions:
REMARK  status: ('A' for Active; 'I' for Inactive)
REMARK    1  A    between atoms: O1_2  and  C2_3 
REMARK    2  A    between atoms: C9_11  and  C10_12 
REMARK    3  A    between atoms: C10_12  and  N1_13 
ROOT
HETATM    1  C2  UNL     1      -1.354  -2.386   0.263  1.00  0.00     0.103 A 
HETATM    2  C3  UNL     1      -2.682  -2.372   0.618  1.00  0.00     0.072 A 
HETATM    3  C4  UNL     1      -3.598  -1.635  -0.143  1.00  0.00     0.072 A 
HETATM    4  C5  UNL     1      -3.116  -0.922  -1.268  1.00  0.00     0.011 A 
HETATM    5  C6  UNL     1      -1.780  -0.977  -1.574  1.00  0.00     0.054 A 
HETATM    6  C7  UNL     1      -0.871  -1.690  -0.838  1.00  0.00     0.103 A 
HETATM    7  O2  UNL     1       0.492  -1.822  -1.024  1.00  0.00    -0.346 OA
HETATM    8  C8  UNL     1       1.504  -1.236  -0.275  1.00  0.00     0.209 C 
HETATM    9  C9  UNL     1       1.566   0.265  -0.251  1.00  0.00     0.174 C 
HETATM   10  O4  UNL     1       0.461   0.915   0.227  1.00  0.00    -0.379 OA
HETATM   11  C15 UNL     1      -0.057   1.787  -0.753  1.00  0.00     0.207 C 
HETATM   12  C16 UNL     1      -1.282   2.428  -0.328  1.00  0.00     0.211 A 
HETATM   13  C17 UNL     1      -2.398   2.965  -0.006  1.00  0.00     0.200 A 
HETATM   14  F1  UNL     1      -1.900   2.110  -0.979  1.00  0.00    -0.366 F 
HETATM   15  C18 UNL     1      -3.660   3.490   0.331  1.00  0.00     0.053 A 
HETATM   16 CL1  UNL     1      -2.609   4.826   0.621  1.00  0.00    -0.135 Cl
HETATM   17  C19 UNL     1      -4.789   2.821   0.266  1.00  0.00     0.044 C 
HETATM   18  C20 UNL     1      -4.677   1.460  -0.170  1.00  0.00     0.231 C 
HETATM   19  N2  UNL     1      -5.794   0.617   0.251  1.00  0.00    -0.253 NA
HETATM   20  C21 UNL     1      -5.771  -0.674   0.532  1.00  0.00     0.230 C 
HETATM   21  N3  UNL     1      -4.800  -1.761   0.409  1.00  0.00    -0.242 NA
HETATM   22  N4  UNL     1      -4.361   1.226  -1.560  1.00  0.00    -0.373 N 
HETATM   23  C22 UNL     1      -3.906  -0.100  -2.042  1.00  0.00     0.099 C 
HETATM   24  H25 UNL     1      -4.431   1.967  -2.302  1.00  0.00     0.161 HD
ENDROOT
BRANCH   9  25
HETATM   25  C10 UNL     1       2.810   0.692   0.538  1.00  0.00     0.306 C 
BRANCH  25  26
HETATM   26  N1  UNL     1       3.979   0.027   0.045  1.00  0.00     0.095 N 
HETATM   27  C11 UNL     1       4.313   0.493  -1.273  1.00  0.00     0.298 C 
HETATM   28  C12 UNL     1       5.699   0.164  -1.723  1.00  0.00     0.198 C 
HETATM   29  O3  UNL     1       6.657   0.276  -0.723  1.00  0.00    -0.388 OA
HETATM   30  C13 UNL     1       6.308  -0.544   0.357  1.00  0.00     0.198 C 
HETATM   31  C14 UNL     1       5.071   0.081   0.968  1.00  0.00     0.298 C 
ENDBRANCH  25  26
ENDBRANCH   9  25
BRANCH   1  32
HETATM   32  O1  UNL     1      -0.548  -3.135   1.075  1.00  0.00    -0.353 OA
HETATM   33  C1  UNL     1      -0.953  -3.858   2.192  1.00  0.00     0.210 C 
ENDBRANCH   1  32
TORSDOF 3
