REMARK  9 active torsions:
REMARK  status: ('A' for Active; 'I' for Inactive)
REMARK    1  A    between atoms: O1_2  and  C2_3 
REMARK    2  A    between atoms: C6_9  and  N3_10 
REMARK    3  A    between atoms: N3_10  and  C7_11 
REMARK    4  A    between atoms: C14_20  and  O2_21 
REMARK    5  A    between atoms: O2_21  and  C15_22 
REMARK    6  A    between atoms: C15_22  and  C16_23 
REMARK    7  A    between atoms: C16_23  and  O3_24 
REMARK    8  A    between atoms: C16_23  and  C17_25 
REMARK    9  A    between atoms: C17_25  and  N4_26 
ROOT
HETATM    1  C2  UNL     1      -0.701  -2.426  -1.500  1.00  0.00     0.103 A 
HETATM    2  C3  UNL     1      -1.827  -3.240  -1.462  1.00  0.00     0.072 A 
HETATM    3  C4  UNL     1      -2.814  -2.788  -0.614  1.00  0.00     0.075 A 
HETATM    4  N1  UNL     1      -3.925  -3.558  -0.539  1.00  0.00    -0.241 NA
HETATM    5  C5  UNL     1      -4.967  -3.251   0.250  1.00  0.00     0.236 A 
HETATM    6  N2  UNL     1      -4.900  -2.127   0.998  1.00  0.00    -0.224 NA
HETATM    7  C6  UNL     1      -3.841  -1.307   0.988  1.00  0.00     0.142 A 
HETATM    8  C12 UNL     1      -2.790  -1.652   0.167  1.00  0.00     0.042 A 
HETATM    9  C13 UNL     1      -1.632  -0.876   0.084  1.00  0.00     0.057 A 
HETATM   10  C14 UNL     1      -0.597  -1.277  -0.753  1.00  0.00     0.103 A 
ENDROOT
BRANCH  10  11
HETATM   11  O2  UNL     1       0.462  -0.414  -0.720  1.00  0.00    -0.346 OA
BRANCH  11  12
HETATM   12  C15 UNL     1       0.510   0.754   0.069  1.00  0.00     0.209 C 
BRANCH  12  13
HETATM   13  C16 UNL     1       1.904   1.374  -0.176  1.00  0.00     0.160 C 
BRANCH  13  14
HETATM   14  O3  UNL     1       2.055   1.688  -1.523  1.00  0.00    -0.392 OA
HETATM   15  H14 UNL     1       1.927   0.905  -2.108  1.00  0.00     0.210 HD
ENDBRANCH  13  14
BRANCH  13  16
HETATM   16  C17 UNL     1       2.950   0.327   0.228  1.00  0.00     0.150 C 
BRANCH  16  17
HETATM   17  N4  UNL     1       4.236   0.809   0.027  1.00  0.00    -0.406 N 
HETATM   18  C18 UNL     1       5.330  -0.051   0.329  1.00  0.00     0.143 C 
HETATM   19  C19 UNL     1       6.159   0.591   1.418  1.00  0.00     0.187 C 
HETATM   20  O4  UNL     1       6.574   1.861   1.101  1.00  0.00    -0.388 OA
HETATM   21  C20 UNL     1       6.034   2.341  -0.084  1.00  0.00     0.187 C 
HETATM   22  C21 UNL     1       4.506   2.189  -0.050  1.00  0.00     0.143 C 
ENDBRANCH  16  17
ENDBRANCH  13  16
ENDBRANCH  12  13
ENDBRANCH  11  12
ENDBRANCH  10  11
BRANCH   1  23
HETATM   23  O1  UNL     1       0.381  -2.751  -2.310  1.00  0.00    -0.353 OA
HETATM   24  C1  UNL     1       0.383  -3.926  -3.120  1.00  0.00     0.210 C 
ENDBRANCH   1  23
BRANCH   7  25
HETATM   25  N3  UNL     1      -3.753  -0.132   1.782  1.00  0.00    -0.340 N 
HETATM   26  H6  UNL     1      -3.195  -0.178   2.638  1.00  0.00     0.167 HD
BRANCH  25  27
HETATM   27  C7  UNL     1      -4.431   1.021   1.362  1.00  0.00     0.034 A 
HETATM   28  C8  UNL     1      -4.777   1.987   2.229  1.00  0.00     0.045 A 
HETATM   29  C9  UNL     1      -5.495   3.148   1.605  1.00  0.00     0.240 A 
HETATM   30  F1  UNL     1      -6.802   3.179   2.062  1.00  0.00    -0.239 F 
HETATM   31  C10 UNL     1      -5.511   2.688   0.175  1.00  0.00     0.051 A 
HETATM   32 CL1  UNL     1      -6.225   3.617  -1.098  1.00  0.00    -0.086 Cl
HETATM   33  C11 UNL     1      -4.917   1.513   0.081  1.00  0.00     0.052 A 
ENDBRANCH  25  27
ENDBRANCH   7  25
TORSDOF 9
