REMARK  10 active torsions:
REMARK  status: ('A' for Active; 'I' for Inactive)
REMARK    1  A    between atoms: O1_2  and  C2_3 
REMARK    2  A    between atoms: C6_9  and  N3_10 
REMARK    3  A    between atoms: N3_10  and  C7_11 
REMARK    4  A    between atoms: C8_12  and  C9_13 
REMARK    5  A    between atoms: C13_18  and  O2_19 
REMARK    6  A    between atoms: O2_19  and  C14_20 
REMARK    7  A    between atoms: C14_20  and  C15_21 
REMARK    8  A    between atoms: C15_21  and  O3_22 
REMARK    9  A    between atoms: C15_21  and  C16_23 
REMARK   10  A    between atoms: C16_23  and  N4_24 
ROOT
HETATM    1  C2  UNL     1       0.251   2.520   0.205  1.00  0.00     0.103 A 
HETATM    2  C3  UNL     1       1.373   3.088   0.823  1.00  0.00     0.072 A 
HETATM    3  C4  UNL     1       2.567   2.398   0.801  1.00  0.00     0.075 A 
HETATM    4  N1  UNL     1       3.643   2.920   1.382  1.00  0.00    -0.241 NA
HETATM    5  C5  UNL     1       4.794   2.225   1.344  1.00  0.00     0.236 A 
HETATM    6  N2  UNL     1       4.895   1.034   0.747  1.00  0.00    -0.224 NA
HETATM    7  C6  UNL     1       3.844   0.430   0.129  1.00  0.00     0.141 A 
HETATM    8  C11 UNL     1       2.684   1.171   0.189  1.00  0.00     0.042 A 
HETATM    9  C12 UNL     1       1.543   0.681  -0.395  1.00  0.00     0.057 A 
HETATM   10  C13 UNL     1       0.306   1.273  -0.435  1.00  0.00     0.103 A 
ENDROOT
BRANCH  10  11
HETATM   11  O2  UNL     1      -0.894   0.960  -0.939  1.00  0.00    -0.346 OA
BRANCH  11  12
HETATM   12  C14 UNL     1      -1.525  -0.020  -1.609  1.00  0.00     0.209 C 
BRANCH  12  13
HETATM   13  C15 UNL     1      -1.662  -1.376  -0.980  1.00  0.00     0.170 C 
BRANCH  13  14
HETATM   14  O3  UNL     1      -0.426  -1.930  -0.721  1.00  0.00    -0.392 OA
HETATM   15  H15 UNL     1      -0.106  -1.668   0.183  1.00  0.00     0.210 HD
ENDBRANCH  13  14
BRANCH  13  16
HETATM   16  C16 UNL     1      -2.506  -1.261   0.246  1.00  0.00     0.306 C 
BRANCH  16  17
HETATM   17  N4  UNL     1      -3.772  -0.676  -0.039  1.00  0.00     0.095 N 
HETATM   18  C17 UNL     1      -4.528  -0.485   1.191  1.00  0.00     0.298 C 
HETATM   19  C18 UNL     1      -5.933  -0.010   0.918  1.00  0.00     0.198 C 
HETATM   20  O4  UNL     1      -6.647  -0.987   0.219  1.00  0.00    -0.388 OA
HETATM   21  C19 UNL     1      -5.797  -1.930  -0.303  1.00  0.00     0.198 C 
HETATM   22  C20 UNL     1      -4.583  -1.315  -1.016  1.00  0.00     0.298 C 
ENDBRANCH  16  17
ENDBRANCH  13  16
ENDBRANCH  12  13
ENDBRANCH  11  12
ENDBRANCH  10  11
BRANCH   1  23
HETATM   23  O1  UNL     1      -0.887   3.308   0.294  1.00  0.00    -0.353 OA
HETATM   24  C1  UNL     1      -0.876   4.551   0.950  1.00  0.00     0.210 C 
ENDBRANCH   1  23
BRANCH   7  25
HETATM   25  N3  UNL     1       3.865  -0.824  -0.526  1.00  0.00    -0.350 N 
HETATM   26  H6  UNL     1       3.643  -1.583   0.152  1.00  0.00     0.166 HD
BRANCH  25  27
HETATM   27  C7  UNL     1       4.118  -1.243  -1.866  1.00  0.00     0.090 C 
HETATM   28  C8  UNL     1       5.206  -2.027  -1.941  1.00  0.00     0.018 C 
BRANCH  28  29
HETATM   29  C9  UNL     1       5.655  -2.096  -0.559  1.00  0.00     0.013 C 
HETATM   30  C10 UNL     1       6.697  -2.746  -0.069  1.00  0.00     0.217 C 
HETATM   31 CL1  UNL     1       8.118  -3.765  -0.137  1.00  0.00    -0.230 Cl
ENDBRANCH  28  29
ENDBRANCH  25  27
ENDBRANCH   7  25
TORSDOF 10
