REMARK  4 active torsions:
REMARK  status: ('A' for Active; 'I' for Inactive)
REMARK    1  A    between atoms: C2_2  and  C3_3 
REMARK    2  A    between atoms: C3_3  and  O1_4 
REMARK    3  A    between atoms: O1_4  and  C4_5 
REMARK    4  A    between atoms: C10_11  and  C11_12 
ROOT
HETATM    1  C4  UNL     1       3.263   0.679  -0.650  1.00  0.00     0.141 C 
HETATM    2  C5  UNL     1       2.317   0.362   0.666  1.00  0.00     0.040 C 
HETATM    3  C6  UNL     1       2.156  -0.692  -0.206  1.00  0.00     0.035 A 
HETATM    4  C7  UNL     1       2.106  -1.460  -1.532  1.00  0.00     0.025 A 
HETATM    5  C8  UNL     1       2.306  -0.190  -1.383  1.00  0.00     0.024 A 
HETATM    6  C9  UNL     1       1.033   0.623  -1.951  1.00  0.00    -0.004 C 
HETATM    7  C10 UNL     1      -0.330   0.331  -1.588  1.00  0.00    -0.035 C 
HETATM    8  C13 UNL     1      -0.582  -0.487  -0.305  1.00  0.00     0.019 A 
HETATM    9  C14 UNL     1       0.669  -0.985   0.498  1.00  0.00     0.076 A 
HETATM   10  O4  UNL     1       0.121  -1.534   1.586  1.00  0.00    -0.308 OA
HETATM   11  C15 UNL     1      -1.176  -1.405   1.470  1.00  0.00     0.141 A 
HETATM   12  C16 UNL     1      -1.693  -0.780   0.347  1.00  0.00     0.066 A 
HETATM   13  C17 UNL     1      -3.030  -0.520  -0.011  1.00  0.00     0.197 A 
HETATM   14  O5  UNL     1      -3.380   0.049  -1.046  1.00  0.00    -0.286 OA
HETATM   15  C18 UNL     1      -4.008  -0.991   0.967  1.00  0.00     0.029 A 
HETATM   16  C19 UNL     1      -5.361  -0.798   0.737  1.00  0.00     0.016 A 
HETATM   17  C20 UNL     1      -6.294  -1.237   1.652  1.00  0.00     0.001 A 
HETATM   18  C21 UNL     1      -5.804  -1.863   2.780  1.00  0.00     0.001 A 
HETATM   19  C22 UNL     1      -4.471  -2.081   3.059  1.00  0.00     0.016 A 
HETATM   20  C23 UNL     1      -3.556  -1.635   2.131  1.00  0.00     0.031 A 
HETATM   21  C24 UNL     1      -2.129  -1.880   2.453  1.00  0.00     0.217 A 
HETATM   22  O6  UNL     1      -1.759  -2.449   3.484  1.00  0.00    -0.284 OA
ENDROOT
BRANCH   1  23
HETATM   23  O1  UNL     1       4.470   0.236  -0.439  1.00  0.00    -0.384 OA
BRANCH  23  24
HETATM   24  C3  UNL     1       5.579   1.003  -0.446  1.00  0.00     0.168 C 
BRANCH  24  25
HETATM   25  C2  UNL     1       5.456   2.064   0.632  1.00  0.00     0.022 C 
HETATM   26  C1  UNL     1       5.314   1.416   1.990  1.00  0.00     0.007 C 
ENDBRANCH  24  25
ENDBRANCH  23  24
ENDBRANCH   1  23
BRANCH   7  27
HETATM   27  C11 UNL     1      -1.476   0.721  -2.235  1.00  0.00     0.030 A 
HETATM   28  O2  UNL     1      -1.365   1.418  -3.271  1.00  0.00     0.000 OA
HETATM   29  C12 UNL     1      -2.501   1.938  -4.110  1.00  0.00     0.000 A 
HETATM   30  O3  UNL     1      -1.354   1.487  -3.375  1.00  0.00     0.000 OA
ENDBRANCH   7  27
TORSDOF 4
