REMARK  9 active torsions:
REMARK  status: ('A' for Active; 'I' for Inactive)
REMARK    1  A    between atoms: O1_2  and  C2_3 
REMARK    2  A    between atoms: C6_9  and  N3_10 
REMARK    3  A    between atoms: N3_10  and  C7_11 
REMARK    4  A    between atoms: C14_20  and  C15_21 
REMARK    5  A    between atoms: C15_21  and  C16_22 
REMARK    6  A    between atoms: C16_22  and  C17_23 
REMARK    7  A    between atoms: C16_22  and  P1_30 
REMARK    8  A    between atoms: C17_23  and  N4_24 
REMARK    9  A    between atoms: P1_30  and  O3_31 
ROOT
HETATM    1  C2  UNL     1       0.250  -1.570  -2.224  1.00  0.00     0.077 A 
HETATM    2  C3  UNL     1       1.550  -1.608  -2.760  1.00  0.00     0.070 A 
HETATM    3  C4  UNL     1       2.591  -0.889  -2.257  1.00  0.00     0.074 A 
HETATM    4  N1  UNL     1       3.810  -0.993  -2.869  1.00  0.00    -0.241 NA
HETATM    5  C5  UNL     1       4.815  -0.247  -2.332  1.00  0.00     0.235 A 
HETATM    6  N2  UNL     1       4.639   0.564  -1.250  1.00  0.00    -0.224 NA
HETATM    7  C6  UNL     1       3.420   0.674  -0.635  1.00  0.00     0.138 A 
HETATM    8  C12 UNL     1       2.388  -0.059  -1.147  1.00  0.00     0.039 A 
HETATM    9  C13 UNL     1       1.097  -0.038  -0.638  1.00  0.00     0.028 A 
HETATM   10  C14 UNL     1       0.031  -0.738  -1.106  1.00  0.00    -0.020 A 
ENDROOT
BRANCH  10  11
HETATM   11  C15 UNL     1      -1.319  -0.761  -0.531  1.00  0.00     0.080 C 
BRANCH  11  12
HETATM   12  C16 UNL     1      -1.430  -1.049   0.914  1.00  0.00    -0.021 C 
BRANCH  12  13
HETATM   13  C17 UNL     1      -2.915  -1.074   1.222  1.00  0.00     0.155 C 
BRANCH  13  14
HETATM   14  N4  UNL     1      -3.665  -0.042   0.655  1.00  0.00    -0.405 N 
HETATM   15  C18 UNL     1      -3.514   1.290   1.043  1.00  0.00     0.143 C 
HETATM   16  C19 UNL     1      -4.907   1.941   0.944  1.00  0.00     0.187 C 
HETATM   17  O2  UNL     1      -5.875   0.960   1.267  1.00  0.00    -0.388 OA
HETATM   18  C20 UNL     1      -5.997   0.025   0.251  1.00  0.00     0.187 C 
HETATM   19  C21 UNL     1      -4.642  -0.370  -0.317  1.00  0.00     0.143 C 
ENDBRANCH  13  14
ENDBRANCH  12  13
BRANCH  12  20
HETATM   20  P1  UNL     1      -0.356  -1.328   2.153  1.00  0.00     0.106 P 
BRANCH  20  21
HETATM   21  O3  UNL     1      -0.946  -1.643   3.787  1.00  0.00    -0.362 OA
HETATM   22  H23 UNL     1      -1.857  -2.008   3.673  1.00  0.00     0.216 HD
ENDBRANCH  20  21
ENDBRANCH  12  20
ENDBRANCH  11  12
ENDBRANCH  10  11
BRANCH   1  23
HETATM   23  O1  UNL     1      -0.776  -2.297  -2.740  1.00  0.00    -0.355 OA
HETATM   24  C1  UNL     1      -0.572  -3.122  -3.866  1.00  0.00     0.210 C 
ENDBRANCH   1  23
BRANCH   7  25
HETATM   25  N3  UNL     1       3.258   1.503   0.483  1.00  0.00    -0.363 N 
HETATM   26  H6  UNL     1       2.356   1.597   0.997  1.00  0.00     0.162 HD
BRANCH  25  27
HETATM   27  C7  UNL     1       4.338   2.299   0.989  1.00  0.00     0.134 A 
HETATM   28  C8  UNL     1       5.596   1.565   1.257  1.00  0.00     0.046 A 
HETATM   29  C9  UNL     1       5.919   1.582   2.554  1.00  0.00     0.136 A 
HETATM   30  F1  UNL     1       7.039   0.972   3.038  1.00  0.00    -0.205 F 
HETATM   31  C10 UNL     1       4.888   2.338   3.284  1.00  0.00     0.070 A 
HETATM   32 CL1  UNL     1       4.976   2.576   5.004  1.00  0.00    -0.081 Cl
HETATM   33  C11 UNL     1       3.976   2.752   2.386  1.00  0.00     0.029 A 
ENDBRANCH  25  27
ENDBRANCH   7  25
TORSDOF 9
