REMARK  1 active torsions:
REMARK  status: ('A' for Active; 'I' for Inactive)
REMARK    1  A    between atoms: C9_12  and  N3_13 
ROOT
HETATM    1  C1  UNL     1      -3.650   1.051  -0.930  1.00  0.00     0.013 C 
HETATM    2  C2  UNL     1      -3.106   1.601   0.345  1.00  0.00     0.021 C 
HETATM    3  C3  UNL     1      -2.032   2.623   0.187  1.00  0.00     0.180 C 
HETATM    4  O1  UNL     1      -0.938   2.056  -0.543  1.00  0.00    -0.363 OA
HETATM    5  C4  UNL     1       0.045   1.525   0.323  1.00  0.00     0.135 C 
HETATM    6  C5  UNL     1       0.192   0.239   0.066  1.00  0.00     0.041 C 
HETATM    7  C6  UNL     1       0.865  -1.045   0.375  1.00  0.00     0.038 A 
HETATM    8  C7  UNL     1       0.157  -1.698   1.410  1.00  0.00     0.072 A 
HETATM    9  N1  UNL     1       0.724  -2.872   1.799  1.00  0.00    -0.244 NA
HETATM   10  C8  UNL     1       1.861  -3.314   1.205  1.00  0.00     0.235 A 
HETATM   11  N2  UNL     1       2.548  -2.688   0.205  1.00  0.00    -0.223 NA
HETATM   12  C9  UNL     1       2.005  -1.506  -0.210  1.00  0.00     0.143 A 
HETATM   13  C15 UNL     1      -1.105  -1.114   1.972  1.00  0.00     0.164 C 
HETATM   14  C16 UNL     1      -2.209  -2.145   1.891  1.00  0.00     0.222 C 
HETATM   15  O2  UNL     1      -2.507  -1.639   0.607  1.00  0.00    -0.301 OA
HETATM   16  N4  UNL     1      -1.883  -0.480   0.928  1.00  0.00    -0.184 NA
HETATM   17  C17 UNL     1      -2.802   0.507   1.348  1.00  0.00     0.128 C 
ENDROOT
BRANCH  12  18
HETATM   18  N3  UNL     1       2.443  -0.624  -1.225  1.00  0.00    -0.336 N 
HETATM   19  C10 UNL     1       3.703  -0.116  -0.709  1.00  0.00     0.120 A 
HETATM   20  C11 UNL     1       4.549   0.735  -1.329  1.00  0.00     0.087 A 
HETATM   21 CL1  UNL     1       6.091   1.392  -0.769  1.00  0.00    -0.080 Cl
HETATM   22  C12 UNL     1       4.197   1.244  -2.656  1.00  0.00     0.137 A 
HETATM   23  F1  UNL     1       4.897   2.091  -3.436  1.00  0.00    -0.205 F 
HETATM   24  C13 UNL     1       3.037   0.785  -3.097  1.00  0.00     0.037 A 
HETATM   25  C14 UNL     1       2.027  -0.137  -2.521  1.00  0.00     0.160 A 
ENDBRANCH  12  18
TORSDOF 1
