REMARK  5 active torsions:
REMARK  status: ('A' for Active; 'I' for Inactive)
REMARK    1  A    between atoms: O1_2  and  C2_3 
REMARK    2  A    between atoms: C12_18  and  O2_19 
REMARK    3  A    between atoms: O2_19  and  C13_20 
REMARK    4  A    between atoms: C13_20  and  C14_21 
REMARK    5  A    between atoms: C18_27  and  O4_28 
ROOT
HETATM    1  C2  UNL     1       1.044  -2.144  -0.965  1.00  0.00     0.176 C 
HETATM    2  N1  UNL     1       1.753  -2.865  -0.162  1.00  0.00    -0.262 NA
HETATM    3  C3  UNL     1       2.082  -2.138   1.031  1.00  0.00     0.209 C 
HETATM    4  C4  UNL     1       1.939  -0.704   0.660  1.00  0.00     0.076 C 
HETATM    5  N2  UNL     1       2.483   0.326   0.967  1.00  0.00    -0.246 NA
HETATM    6  C5  UNL     1       3.465   0.807   1.755  1.00  0.00     0.226 C 
HETATM    7  N3  UNL     1       3.746   1.736   0.972  1.00  0.00    -0.279 NA
HETATM    8  C6  UNL     1       4.593   2.818   0.801  1.00  0.00     0.179 C 
HETATM    9  C7  UNL     1       3.956   4.031   0.117  1.00  0.00     0.018 C 
HETATM   10  C8  UNL     1       2.757   3.505  -0.192  1.00  0.00     0.051 A 
HETATM   11 CL1  UNL     1       1.097   3.398  -0.820  1.00  0.00    -0.134 Cl
HETATM   12  C9  UNL     1       2.328   2.200  -0.691  1.00  0.00     0.210 A 
HETATM   13  F1  UNL     1       3.611   1.995  -1.241  1.00  0.00    -0.220 F 
HETATM   14  C10 UNL     1       2.337   0.920  -1.167  1.00  0.00     0.059 C 
HETATM   15  C11 UNL     1       0.998   0.319  -1.404  1.00  0.00     0.063 C 
HETATM   16  C12 UNL     1       0.818  -0.824  -0.379  1.00  0.00     0.169 C 
ENDROOT
BRANCH  16  17
HETATM   17  O2  UNL     1      -0.352  -0.633   0.290  1.00  0.00    -0.364 OA
BRANCH  17  18
HETATM   18  C13 UNL     1      -1.422  -0.856  -0.537  1.00  0.00     0.185 C 
BRANCH  18  19
HETATM   19  C14 UNL     1      -2.757  -0.629   0.195  1.00  0.00     0.054 C 
HETATM   20  C15 UNL     1      -2.741  -1.628   1.360  1.00  0.00     0.024 C 
HETATM   21  C16 UNL     1      -3.835  -1.054  -0.738  1.00  0.00     0.288 C 
HETATM   22  N4  UNL     1      -5.016  -0.212  -0.697  1.00  0.00     0.107 N 
HETATM   23  C17 UNL     1      -4.495   1.150  -0.881  1.00  0.00     0.440 C 
HETATM   24  H20 UNL     1      -5.464  -0.277   0.246  1.00  0.00     0.318 HD
HETATM   25  O3  UNL     1      -3.830   1.561   0.231  1.00  0.00    -0.331 OA
HETATM   26  C18 UNL     1      -2.859   0.745   0.743  1.00  0.00     0.273 C 
BRANCH  26  27
HETATM   27  O4  UNL     1      -3.000   0.701   2.108  1.00  0.00    -0.365 OA
HETATM   28  C19 UNL     1      -1.942   1.271   2.800  1.00  0.00     0.204 C 
ENDBRANCH  26  27
ENDBRANCH  18  19
ENDBRANCH  17  18
ENDBRANCH  16  17
BRANCH   1  29
HETATM   29  O1  UNL     1       0.656  -2.731  -2.164  1.00  0.00    -0.340 OA
HETATM   30  C1  UNL     1       1.449  -3.749  -2.797  1.00  0.00     0.211 C 
ENDBRANCH   1  29
TORSDOF 5
