REMARK  11 active torsions:
REMARK  status: ('A' for Active; 'I' for Inactive)
REMARK    1  A    between atoms: O1_2  and  C2_3 
REMARK    2  A    between atoms: C6_7  and  C7_8 
REMARK    3  A    between atoms: C6_7  and  N2_10 
REMARK    4  A    between atoms: C7_8  and  N1_9 
REMARK    5  A    between atoms: N2_10  and  C8_11 
REMARK    6  A    between atoms: C8_11  and  C9_12 
REMARK    7  A    between atoms: C10_13  and  C12_15 
REMARK    8  A    between atoms: C13_17  and  O2_18 
REMARK    9  A    between atoms: O2_18  and  C14_19 
REMARK   10  A    between atoms: C14_19  and  C15_20 
REMARK   11  A    between atoms: C15_20  and  N3_21 
ROOT
HETATM    1  C2  UNL     1       2.819  -1.652  -0.901  1.00  0.00     0.075 C 
HETATM    2  C3  UNL     1       2.704  -2.969  -0.884  1.00  0.00     0.013 C 
HETATM    3  C4  UNL     1       1.378  -3.298  -0.243  1.00  0.00     0.069 C 
HETATM    4  C5  UNL     1       0.552  -2.215  -0.778  1.00  0.00    -0.018 C 
HETATM    5  C6  UNL     1      -0.557  -1.962  -1.422  1.00  0.00     0.038 C 
HETATM    6  C13 UNL     1       1.538  -1.217  -0.259  1.00  0.00     0.209 C 
ENDROOT
BRANCH   5   7
HETATM    7  C7  UNL     1      -1.387  -3.142  -1.821  1.00  0.00     0.323 C 
BRANCH   7   8
HETATM    8  N1  UNL     1      -2.714  -3.105  -1.239  1.00  0.00     0.083 N 
HETATM    9  H9  UNL     1      -2.851  -3.948  -0.629  1.00  0.00     0.313 HD
HETATM   10  H10 UNL     1      -3.467  -3.191  -1.972  1.00  0.00     0.313 HD
ENDBRANCH   7   8
ENDBRANCH   5   7
BRANCH   5  11
HETATM   11  N2  UNL     1      -1.222  -0.836  -1.874  1.00  0.00    -0.388 N 
HETATM   12  H11 UNL     1      -0.617  -0.590  -2.685  1.00  0.00     0.159 HD
BRANCH  11  13
HETATM   13  C8  UNL     1      -2.386  -0.114  -1.466  1.00  0.00     0.147 C 
BRANCH  13  14
HETATM   14  C9  UNL     1      -2.666   1.045  -2.374  1.00  0.00    -0.003 C 
HETATM   15  C10 UNL     1      -2.721   2.321  -2.031  1.00  0.00    -0.058 C 
HETATM   16  C11 UNL     1      -2.526   2.912  -0.701  1.00  0.00     0.045 C 
BRANCH  15  17
HETATM   17  C12 UNL     1      -3.027   3.259  -3.172  1.00  0.00     0.256 C 
HETATM   18  F1  UNL     1      -3.185   2.514  -4.310  1.00  0.00    -0.251 F 
ENDBRANCH  15  17
ENDBRANCH  13  14
ENDBRANCH  11  13
ENDBRANCH   5  11
BRANCH   6  19
HETATM   19  O2  UNL     1       1.559  -1.358   1.099  1.00  0.00    -0.373 OA
BRANCH  19  20
HETATM   20  C14 UNL     1       1.279  -0.270   1.868  1.00  0.00     0.199 C 
BRANCH  20  21
HETATM   21  C15 UNL     1      -0.036   0.391   1.642  1.00  0.00     0.298 C 
BRANCH  21  22
HETATM   22  N3  UNL     1      -0.192   1.501   2.540  1.00  0.00     0.090 N 
HETATM   23  C16 UNL     1      -0.335   1.168   3.910  1.00  0.00     0.272 C 
HETATM   24  C17 UNL     1       0.918   1.583   4.593  1.00  0.00     0.032 C 
HETATM   25  C18 UNL     1       1.597   2.533   3.680  1.00  0.00     0.032 C 
HETATM   26  C19 UNL     1       0.819   2.489   2.404  1.00  0.00     0.272 C 
ENDBRANCH  21  22
ENDBRANCH  20  21
ENDBRANCH  19  20
ENDBRANCH   6  19
BRANCH   1  27
HETATM   27  O1  UNL     1       3.939  -0.977  -1.430  1.00  0.00    -0.358 OA
HETATM   28  C1  UNL     1       4.532  -1.385  -2.635  1.00  0.00     0.209 C 
ENDBRANCH   1  27
TORSDOF 11
