REMARK  7 active torsions:
REMARK  status: ('A' for Active; 'I' for Inactive)
REMARK    1  A    between atoms: O1_2  and  C2_3 
REMARK    2  A    between atoms: C6_9  and  N3_10 
REMARK    3  A    between atoms: N3_10  and  C7_11 
REMARK    4  A    between atoms: C15_21  and  O2_22 
REMARK    5  A    between atoms: O2_22  and  C16_23 
REMARK    6  A    between atoms: C16_23  and  C17_24 
REMARK    7  A    between atoms: C17_24  and  N4_25 
ROOT
HETATM    1  C2  UNL     1      -0.396  -2.722  -0.114  1.00  0.00     0.103 A 
HETATM    2  C3  UNL     1       0.672  -3.583   0.177  1.00  0.00     0.072 A 
HETATM    3  C4  UNL     1       1.888  -3.065   0.560  1.00  0.00     0.075 A 
HETATM    4  N1  UNL     1       2.947  -3.831   0.857  1.00  0.00    -0.241 NA
HETATM    5  C5  UNL     1       4.098  -3.251   1.229  1.00  0.00     0.236 A 
HETATM    6  N2  UNL     1       4.222  -1.917   1.312  1.00  0.00    -0.224 NA
HETATM    7  C6  UNL     1       3.179  -1.083   1.022  1.00  0.00     0.142 A 
HETATM    8  C13 UNL     1       2.006  -1.696   0.644  1.00  0.00     0.042 A 
HETATM    9  C14 UNL     1       0.980  -0.826   0.366  1.00  0.00     0.057 A 
HETATM   10  C15 UNL     1      -0.243  -1.333  -0.019  1.00  0.00     0.103 A 
ENDROOT
BRANCH   7  11
HETATM   11  N3  UNL     1       3.485   0.289   1.157  1.00  0.00    -0.340 N 
HETATM   12  H6  UNL     1       3.045   0.636   2.032  1.00  0.00     0.167 HD
BRANCH  11  13
HETATM   13  C7  UNL     1       4.240   1.206   0.359  1.00  0.00     0.035 A 
HETATM   14  C8  UNL     1       4.331   2.541   0.732  1.00  0.00     0.032 A 
HETATM   15  C9  UNL     1       5.081   3.391  -0.050  1.00  0.00     0.046 A 
HETATM   16  C10 UNL     1       5.739   2.963  -1.183  1.00  0.00     0.138 A 
HETATM   17  F1  UNL     1       6.430   3.939  -1.830  1.00  0.00    -0.204 F 
HETATM   18  C11 UNL     1       5.663   1.645  -1.571  1.00  0.00     0.074 A 
HETATM   19 CL1  UNL     1       6.511   1.169  -3.008  1.00  0.00    -0.081 Cl
HETATM   20  C12 UNL     1       4.913   0.813  -0.782  1.00  0.00     0.056 A 
ENDBRANCH  11  13
ENDBRANCH   7  11
BRANCH  10  21
HETATM   21  O2  UNL     1      -1.421  -0.748  -0.347  1.00  0.00    -0.347 OA
BRANCH  21  22
HETATM   22  C16 UNL     1      -1.815   0.594  -0.351  1.00  0.00     0.190 C 
BRANCH  22  23
HETATM   23  C17 UNL     1      -3.224   0.745  -0.926  1.00  0.00     0.121 C 
BRANCH  23  24
HETATM   24  N4  UNL     1      -3.654   2.119  -0.878  1.00  0.00    -0.290 NA
HETATM   25  C18 UNL     1      -4.874   2.328  -1.627  1.00  0.00     0.095 C 
HETATM   26  C19 UNL     1      -6.021   1.789  -0.801  1.00  0.00     0.020 C 
HETATM   27  C20 UNL     1      -6.010   2.652   0.469  1.00  0.00     0.048 C 
HETATM   28  P1  UNL     1      -4.175   2.552   0.827  1.00  0.00    -0.055 P 
HETATM   29  H21 UNL     1      -4.020   1.315   1.605  1.00  0.00     0.074 HD
ENDBRANCH  23  24
ENDBRANCH  22  23
ENDBRANCH  21  22
ENDBRANCH  10  21
BRANCH   1  30
HETATM   30  O1  UNL     1      -1.538  -3.393  -0.478  1.00  0.00    -0.353 OA
HETATM   31  C1  UNL     1      -1.688  -4.783  -0.563  1.00  0.00     0.210 C 
ENDBRANCH   1  30
TORSDOF 7
