REMARK  4 active torsions:
REMARK  status: ('A' for Active; 'I' for Inactive)
REMARK    1  A    between atoms: C12_13  and  O2_14 
REMARK    2  A    between atoms: O2_14  and  C13_15 
REMARK    3  A    between atoms: C13_15  and  C14_16 
REMARK    4  A    between atoms: C16_19  and  O4_20 
ROOT
HETATM    1  C1  UNL     1      -2.762   2.164   0.573  1.00  0.00     0.022 C 
HETATM    2  C2  UNL     1      -2.638   0.737   1.138  1.00  0.00     0.075 A 
HETATM    3  C3  UNL     1      -2.013  -0.067   0.060  1.00  0.00     0.092 A 
HETATM    4  C4  UNL     1      -2.709  -1.084  -0.378  1.00  0.00     0.150 A 
HETATM    5  O1  UNL     1      -1.888  -1.611  -1.347  1.00  0.00    -0.333 OA
HETATM    6  C5  UNL     1      -2.057  -1.234  -2.726  1.00  0.00     0.269 C 
HETATM    7  C6  UNL     1      -0.793  -0.996  -3.343  1.00  0.00    -0.080 C 
HETATM    8  C7  UNL     1       0.239  -0.796  -3.825  1.00  0.00    -0.103 C 
HETATM    9  C8  UNL     1       1.497  -0.534  -4.394  1.00  0.00     0.057 C 
HETATM   10  C9  UNL     1       2.214  -0.076  -3.347  1.00  0.00     0.072 C 
HETATM   11  C10 UNL     1       3.617   0.369  -3.321  1.00  0.00    -0.019 C 
HETATM   12  C11 UNL     1       3.677   0.678  -2.029  1.00  0.00     0.029 C 
HETATM   13  C12 UNL     1       3.881   1.118  -0.354  1.00  0.00     0.287 C 
HETATM   14  O3  UNL     1       2.773   0.100   0.195  1.00  0.00    -0.326 OA
HETATM   15  C16 UNL     1       1.600   0.796   0.217  1.00  0.00     0.286 C 
HETATM   16  C18 UNL     1       0.456  -0.108  -0.155  1.00  0.00     0.236 C 
HETATM   17  O5  UNL     1      -0.807   0.526  -0.184  1.00  0.00    -0.347 OA
HETATM   18  C19 UNL     1      -4.006  -1.567   0.028  1.00  0.00     0.218 A 
HETATM   19  O6  UNL     1      -4.454  -2.559  -0.545  1.00  0.00    -0.284 OA
HETATM   20  C20 UNL     1      -4.674  -0.830   1.088  1.00  0.00     0.024 A 
HETATM   21  C21 UNL     1      -5.904  -1.240   1.526  1.00  0.00     0.016 A 
HETATM   22  C22 UNL     1      -6.507  -0.516   2.550  1.00  0.00     0.001 A 
HETATM   23  C23 UNL     1      -5.821   0.577   3.063  1.00  0.00     0.001 A 
HETATM   24  C24 UNL     1      -4.583   0.958   2.595  1.00  0.00     0.009 A 
HETATM   25  C25 UNL     1      -3.959   0.240   1.563  1.00  0.00    -0.034 A 
ENDROOT
BRANCH  13  26
HETATM   26  O2  UNL     1       4.832   0.276  -0.158  1.00  0.00    -0.358 OA
BRANCH  26  27
HETATM   27  C13 UNL     1       4.941  -1.031  -0.109  1.00  0.00     0.171 C 
BRANCH  27  28
HETATM   28  C14 UNL     1       4.223  -1.838   0.919  1.00  0.00     0.022 C 
HETATM   29  C15 UNL     1       4.600  -1.405   2.334  1.00  0.00     0.007 C 
ENDBRANCH  27  28
ENDBRANCH  26  27
ENDBRANCH  13  26
BRANCH  15  30
HETATM   30  O4  UNL     1       1.351   1.136   1.635  1.00  0.00    -0.364 OA
HETATM   31  C17 UNL     1       1.175   2.505   1.625  1.00  0.00     0.204 C 
ENDBRANCH  15  30
TORSDOF 4
