REMARK  9 active torsions:
REMARK  status: ('A' for Active; 'I' for Inactive)
REMARK    1  A    between atoms: O1_1  and  C1_2 
REMARK    2  A    between atoms: C1_2  and  C2_3 
REMARK    3  A    between atoms: C2_3  and  O2_4 
REMARK    4  A    between atoms: O2_4  and  C3_5 
REMARK    5  A    between atoms: C3_5  and  C4_6 
REMARK    6  A    between atoms: C10_13  and  N2_14 
REMARK    7  A    between atoms: N2_14  and  C11_15 
REMARK    8  A    between atoms: C11_15  and  C12_16 
REMARK    9  A    between atoms: C13_17  and  C14_18 
ROOT
HETATM    1  C4  UNL     1      -1.661  -0.844  -0.709  1.00  0.00     0.088 C 
HETATM    2  C5  UNL     1      -1.896  -2.229  -1.459  1.00  0.00    -0.015 C 
HETATM    3  C6  UNL     1      -0.965  -3.274  -1.196  1.00  0.00     0.007 C 
HETATM    4  C7  UNL     1       0.407  -3.227  -0.523  1.00  0.00     0.193 C 
HETATM    5  C8  UNL     1       0.222  -2.978   0.967  1.00  0.00     0.126 C 
HETATM    6  N1  UNL     1      -0.724  -2.274   0.567  1.00  0.00    -0.262 NA
HETATM    7  C9  UNL     1      -0.274  -1.082  -0.204  1.00  0.00     0.094 C 
HETATM    8  C10 UNL     1       0.985  -0.786  -0.412  1.00  0.00     0.165 C 
HETATM    9  O3  UNL     1       1.039  -2.064  -1.029  1.00  0.00    -0.320 OA
ENDROOT
BRANCH   8  10
HETATM   10  N2  UNL     1       2.006   0.224  -0.219  1.00  0.00    -0.366 N 
HETATM   11  H13 UNL     1       2.163   0.717  -1.137  1.00  0.00     0.162 HD
BRANCH  10  12
HETATM   12  C11 UNL     1       2.513   0.268   1.157  1.00  0.00     0.148 C 
BRANCH  12  13
HETATM   13  C12 UNL     1       3.543   1.286   1.357  1.00  0.00    -0.009 C 
HETATM   14  C13 UNL     1       4.271   2.246   0.822  1.00  0.00     0.002 C 
BRANCH  14  15
HETATM   15  C14 UNL     1       5.316   3.253   1.096  1.00  0.00     0.249 C 
HETATM   16  F1  UNL     1       4.823   4.514   0.830  1.00  0.00    -0.251 F 
ENDBRANCH  14  15
ENDBRANCH  12  13
ENDBRANCH  10  12
ENDBRANCH   8  10
BRANCH   1  17
HETATM   17  C3  UNL     1      -2.763  -0.713   0.231  1.00  0.00     0.182 C 
BRANCH  17  18
HETATM   18  O2  UNL     1      -2.793   0.411   1.008  1.00  0.00    -0.388 OA
BRANCH  18  19
HETATM   19  C2  UNL     1      -2.877   1.616   0.378  1.00  0.00     0.193 C 
BRANCH  19  20
HETATM   20  C1  UNL     1      -4.087   1.849  -0.463  1.00  0.00     0.190 C 
BRANCH  20  21
HETATM   21  O1  UNL     1      -4.280   0.981  -1.503  1.00  0.00    -0.399 OA
HETATM   22  H1  UNL     1      -5.185   0.594  -1.517  1.00  0.00     0.209 HD
ENDBRANCH  20  21
ENDBRANCH  19  20
ENDBRANCH  18  19
ENDBRANCH  17  18
ENDBRANCH   1  17
TORSDOF 9
