REMARK  9 active torsions:
REMARK  status: ('A' for Active; 'I' for Inactive)
REMARK    1  A    between atoms: O1_2  and  C2_3 
REMARK    2  A    between atoms: C6_9  and  N3_10 
REMARK    3  A    between atoms: N3_10  and  C7_11 
REMARK    4  A    between atoms: C7_11  and  C8_12 
REMARK    5  A    between atoms: C10_15  and  C11_16 
REMARK    6  A    between atoms: C14_20  and  O2_21 
REMARK    7  A    between atoms: O2_21  and  C15_22 
REMARK    8  A    between atoms: C15_22  and  C16_23 
REMARK    9  A    between atoms: C16_23  and  N4_24 
ROOT
HETATM    1  C2  UNL     1      -0.429   2.036   1.366  1.00  0.00     0.103 A 
HETATM    2  C3  UNL     1       0.698   2.547   1.978  1.00  0.00     0.072 A 
HETATM    3  C4  UNL     1       1.978   2.082   1.785  1.00  0.00     0.075 A 
HETATM    4  N1  UNL     1       3.092   2.530   2.358  1.00  0.00    -0.241 NA
HETATM    5  C5  UNL     1       4.300   2.013   2.128  1.00  0.00     0.236 A 
HETATM    6  N2  UNL     1       4.374   0.968   1.253  1.00  0.00    -0.224 NA
HETATM    7  C6  UNL     1       3.306   0.451   0.629  1.00  0.00     0.142 A 
HETATM    8  C12 UNL     1       2.089   1.021   0.902  1.00  0.00     0.042 A 
HETATM    9  C13 UNL     1       0.998   0.484   0.275  1.00  0.00     0.057 A 
HETATM   10  C14 UNL     1      -0.276   0.959   0.476  1.00  0.00     0.103 A 
ENDROOT
BRANCH   7  11
HETATM   11  N3  UNL     1       3.627  -0.625  -0.199  1.00  0.00    -0.340 N 
HETATM   12  H6  UNL     1       3.252  -1.425   0.382  1.00  0.00     0.167 HD
BRANCH  11  13
HETATM   13  C7  UNL     1       4.214  -0.983  -1.419  1.00  0.00     0.033 C 
HETATM   14  C10 UNL     1       3.695  -1.759  -2.332  1.00  0.00     0.033 C 
BRANCH  13  15
HETATM   15  C8  UNL     1       5.540  -0.491  -1.760  1.00  0.00     0.041 C 
HETATM   16  C9  UNL     1       6.310   0.305  -1.061  1.00  0.00     0.220 C 
HETATM   17 CL1  UNL     1       7.898   0.964  -1.333  1.00  0.00    -0.230 Cl
ENDBRANCH  13  15
BRANCH  14  18
HETATM   18  C11 UNL     1       2.404  -2.466  -2.372  1.00  0.00     0.252 C 
HETATM   19  F1  UNL     1       2.608  -3.855  -2.498  1.00  0.00    -0.251 F 
ENDBRANCH  14  18
ENDBRANCH  11  13
ENDBRANCH   7  11
BRANCH  10  20
HETATM   20  O2  UNL     1      -1.426   0.464  -0.122  1.00  0.00    -0.347 OA
BRANCH  20  21
HETATM   21  C15 UNL     1      -1.285  -0.611  -1.015  1.00  0.00     0.206 C 
BRANCH  21  22
HETATM   22  C16 UNL     1      -2.604  -1.061  -1.591  1.00  0.00     0.299 C 
BRANCH  22  23
HETATM   23  N4  UNL     1      -3.533  -1.506  -0.613  1.00  0.00     0.090 N 
HETATM   24  C17 UNL     1      -4.030  -0.459   0.262  1.00  0.00     0.272 C 
HETATM   25  C18 UNL     1      -5.464  -0.782   0.556  1.00  0.00     0.032 C 
HETATM   26  C19 UNL     1      -5.813  -2.004  -0.255  1.00  0.00     0.032 C 
HETATM   27  C20 UNL     1      -4.724  -1.999  -1.314  1.00  0.00     0.272 C 
ENDBRANCH  22  23
ENDBRANCH  21  22
ENDBRANCH  20  21
ENDBRANCH  10  20
BRANCH   1  28
HETATM   28  O1  UNL     1      -1.694   2.506   1.568  1.00  0.00    -0.353 OA
HETATM   29  C1  UNL     1      -2.009   3.566   2.430  1.00  0.00     0.210 C 
ENDBRANCH   1  28
TORSDOF 9
