REMARK  7 active torsions:
REMARK  status: ('A' for Active; 'I' for Inactive)
REMARK    1  A    between atoms: O1_2  and  C2_3 
REMARK    2  A    between atoms: C6_9  and  N3_10 
REMARK    3  A    between atoms: N3_10  and  C7_11 
REMARK    4  A    between atoms: C14_20  and  O3_21 
REMARK    5  A    between atoms: O3_21  and  C15_22 
REMARK    6  A    between atoms: C15_22  and  C16_23 
REMARK    7  A    between atoms: C16_23  and  N4_24 
ROOT
HETATM    1  C2  UNL     1      -0.186   2.951  -0.717  1.00  0.00     0.103 A 
HETATM    2  C3  UNL     1       1.076   3.486  -0.922  1.00  0.00     0.072 A 
HETATM    3  C4  UNL     1       2.193   2.703  -0.691  1.00  0.00     0.075 A 
HETATM    4  N1  UNL     1       3.440   3.186  -0.879  1.00  0.00    -0.241 NA
HETATM    5  C5  UNL     1       4.527   2.395  -0.646  1.00  0.00     0.236 A 
HETATM    6  N2  UNL     1       4.322   1.115  -0.222  1.00  0.00    -0.224 NA
HETATM    7  C6  UNL     1       3.093   0.615  -0.029  1.00  0.00     0.141 A 
HETATM    8  C12 UNL     1       1.989   1.409  -0.262  1.00  0.00     0.042 A 
HETATM    9  C13 UNL     1       0.745   0.888  -0.062  1.00  0.00     0.057 A 
HETATM   10  C14 UNL     1      -0.377   1.657  -0.288  1.00  0.00     0.103 A 
ENDROOT
BRANCH   7  11
HETATM   11  N3  UNL     1       3.005  -0.742   0.415  1.00  0.00    -0.342 N 
HETATM   12  H6  UNL     1       2.182  -1.306   0.629  1.00  0.00     0.167 HD
BRANCH  11  13
HETATM   13  C7  UNL     1       4.225  -1.450   0.600  1.00  0.00     0.035 A 
HETATM   14  C8  UNL     1       4.754  -2.110  -0.427  1.00  0.00     0.032 A 
HETATM   15  C9  UNL     1       5.998  -2.865  -0.341  1.00  0.00     0.071 A 
HETATM   16  C10 UNL     1       6.608  -2.882   0.812  1.00  0.00     0.225 A 
HETATM   17  F1  UNL     1       7.779  -3.592   0.895  1.00  0.00    -0.178 F 
HETATM   18  O2  UNL     1       6.092  -2.211   1.901  1.00  0.00    -0.321 OA
HETATM   19  C11 UNL     1       4.913  -1.469   1.903  1.00  0.00     0.235 A 
ENDBRANCH  11  13
ENDBRANCH   7  11
BRANCH  10  20
HETATM   20  O3  UNL     1      -1.684   1.289  -0.137  1.00  0.00    -0.347 OA
BRANCH  20  21
HETATM   21  C15 UNL     1      -2.129   0.015   0.293  1.00  0.00     0.206 C 
BRANCH  21  22
HETATM   22  C16 UNL     1      -3.629   0.021   0.322  1.00  0.00     0.299 C 
BRANCH  22  23
HETATM   23  N4  UNL     1      -4.232  -1.209   0.742  1.00  0.00     0.090 N 
HETATM   24  C17 UNL     1      -4.088  -2.314  -0.143  1.00  0.00     0.272 C 
HETATM   25  C18 UNL     1      -5.475  -2.703  -0.603  1.00  0.00     0.032 C 
HETATM   26  C19 UNL     1      -6.348  -2.271   0.544  1.00  0.00     0.032 C 
HETATM   27  C20 UNL     1      -5.608  -1.085   1.104  1.00  0.00     0.272 C 
ENDBRANCH  22  23
ENDBRANCH  21  22
ENDBRANCH  20  21
ENDBRANCH  10  20
BRANCH   1  28
HETATM   28  O1  UNL     1      -1.250   3.821  -0.977  1.00  0.00    -0.353 OA
HETATM   29  C1  UNL     1      -1.015   5.126  -1.411  1.00  0.00     0.210 C 
ENDBRANCH   1  28
TORSDOF 7
