REMARK  10 active torsions:
REMARK  status: ('A' for Active; 'I' for Inactive)
REMARK    1  A    between atoms: O1_2  and  C2_3 
REMARK    2  A    between atoms: C6_9  and  N3_10 
REMARK    3  A    between atoms: N3_10  and  C7_11 
REMARK    4  A    between atoms: C15_21  and  O2_22 
REMARK    5  A    between atoms: O2_22  and  C16_23 
REMARK    6  A    between atoms: C16_23  and  C17_24 
REMARK    7  A    between atoms: C17_24  and  C18_25 
REMARK    8  A    between atoms: C17_24  and  C19_27 
REMARK    9  A    between atoms: C18_25  and  O3_26 
REMARK   10  A    between atoms: C19_27  and  N4_28 
ROOT
HETATM    1  C2  UNL     1      -1.462   2.290  -0.448  1.00  0.00     0.103 A 
HETATM    2  C3  UNL     1      -0.371   3.087  -0.718  1.00  0.00     0.072 A 
HETATM    3  C4  UNL     1       0.891   2.553  -0.661  1.00  0.00     0.075 A 
HETATM    4  N1  UNL     1       1.919   3.395  -0.939  1.00  0.00    -0.241 NA
HETATM    5  C5  UNL     1       3.191   2.961  -0.908  1.00  0.00     0.236 A 
HETATM    6  N2  UNL     1       3.385   1.677  -0.595  1.00  0.00    -0.224 NA
HETATM    7  C6  UNL     1       2.465   0.777  -0.310  1.00  0.00     0.142 A 
HETATM    8  C13 UNL     1       1.173   1.248  -0.348  1.00  0.00     0.042 A 
HETATM    9  C14 UNL     1       0.041   0.508  -0.090  1.00  0.00     0.057 A 
HETATM   10  C15 UNL     1      -1.239   0.970  -0.127  1.00  0.00     0.103 A 
ENDROOT
BRANCH   7  11
HETATM   11  N3  UNL     1       2.680  -0.566   0.017  1.00  0.00    -0.340 N 
HETATM   12  H6  UNL     1       1.909  -1.221   0.231  1.00  0.00     0.167 HD
BRANCH  11  13
HETATM   13  C7  UNL     1       3.894  -1.289   0.125  1.00  0.00     0.035 A 
HETATM   14  C8  UNL     1       4.029  -2.632   0.457  1.00  0.00     0.032 A 
HETATM   15  C9  UNL     1       5.217  -3.296   0.551  1.00  0.00     0.046 A 
HETATM   16  C10 UNL     1       6.397  -2.641   0.311  1.00  0.00     0.138 A 
HETATM   17  F1  UNL     1       7.520  -3.355   0.423  1.00  0.00    -0.204 F 
HETATM   18  C11 UNL     1       6.320  -1.321  -0.018  1.00  0.00     0.074 A 
HETATM   19 CL1  UNL     1       7.865  -0.527  -0.316  1.00  0.00    -0.081 Cl
HETATM   20  C12 UNL     1       5.113  -0.691  -0.103  1.00  0.00     0.056 A 
ENDBRANCH  11  13
ENDBRANCH   7  11
BRANCH  10  21
HETATM   21  O2  UNL     1      -2.328   0.174   0.142  1.00  0.00    -0.348 OA
BRANCH  21  22
HETATM   22  C16 UNL     1      -2.235  -1.174   0.478  1.00  0.00     0.184 C 
BRANCH  22  23
HETATM   23  C17 UNL     1      -3.588  -1.807   0.723  1.00  0.00     0.054 C 
BRANCH  23  24
HETATM   24  C18 UNL     1      -4.343  -1.158   1.836  1.00  0.00     0.172 C 
BRANCH  24  25
HETATM   25  O3  UNL     1      -4.595   0.187   1.615  1.00  0.00    -0.400 OA
HETATM   26  H16 UNL     1      -4.722   0.427   0.667  1.00  0.00     0.209 HD
ENDBRANCH  24  25
ENDBRANCH  23  24
BRANCH  23  27
HETATM   27  C19 UNL     1      -4.368  -1.903  -0.553  1.00  0.00     0.167 C 
BRANCH  27  28
HETATM   28  N4  UNL     1      -5.644  -2.515  -0.244  1.00  0.00    -0.245 NA
HETATM   29  S1  UNL     1      -6.820  -2.020  -0.817  1.00  0.00     0.062 SA
ENDBRANCH  27  28
ENDBRANCH  23  27
ENDBRANCH  22  23
ENDBRANCH  21  22
ENDBRANCH  10  21
BRANCH   1  30
HETATM   30  O1  UNL     1      -2.763   2.771  -0.488  1.00  0.00    -0.353 OA
HETATM   31  C1  UNL     1      -3.057   4.113  -0.810  1.00  0.00     0.210 C 
ENDBRANCH   1  30
TORSDOF 10
