REMARK  9 active torsions:
REMARK  status: ('A' for Active; 'I' for Inactive)
REMARK    1  A    between atoms: N1_2  and  C2_3 
REMARK    2  A    between atoms: C2_3  and  C3_4 
REMARK    3  A    between atoms: C3_4  and  O1_5 
REMARK    4  A    between atoms: C3_4  and  C4_6 
REMARK    5  A    between atoms: C4_6  and  O2_7 
REMARK    6  A    between atoms: O2_7  and  C5_8 
REMARK    7  A    between atoms: C8_11  and  N2_12 
REMARK    8  A    between atoms: N2_12  and  C9_13 
REMARK    9  A    between atoms: C18_26  and  O3_27 
ROOT
HETATM    1  C5  UNL     1      -0.479   1.009  -1.227  1.00  0.00     0.103 A 
HETATM    2  C6  UNL     1       0.754   0.401  -0.951  1.00  0.00     0.057 A 
HETATM    3  C7  UNL     1       1.822   1.109  -1.452  1.00  0.00     0.042 A 
HETATM    4  C8  UNL     1       3.057   0.536  -1.205  1.00  0.00     0.142 A 
HETATM    5  N3  UNL     1       4.195   1.145  -1.657  1.00  0.00    -0.224 NA
HETATM    6  C15 UNL     1       4.141   2.304  -2.347  1.00  0.00     0.236 A 
HETATM    7  N4  UNL     1       2.946   2.868  -2.592  1.00  0.00    -0.241 NA
HETATM    8  C16 UNL     1       1.811   2.289  -2.157  1.00  0.00     0.075 A 
HETATM    9  C17 UNL     1       0.565   2.834  -2.394  1.00  0.00     0.072 A 
HETATM   10  C18 UNL     1      -0.576   2.204  -1.935  1.00  0.00     0.103 A 
ENDROOT
BRANCH   4  11
HETATM   11  N2  UNL     1       3.368  -0.650  -0.508  1.00  0.00    -0.340 N 
HETATM   12  H12 UNL     1       3.225  -1.348  -1.269  1.00  0.00     0.167 HD
BRANCH  11  13
HETATM   13  C9  UNL     1       3.766  -0.962   0.814  1.00  0.00     0.035 A 
HETATM   14  C10 UNL     1       3.987  -2.311   1.100  1.00  0.00     0.032 A 
HETATM   15  C11 UNL     1       4.386  -2.608   2.376  1.00  0.00     0.046 A 
HETATM   16  C12 UNL     1       4.567  -1.640   3.349  1.00  0.00     0.138 A 
HETATM   17  F1  UNL     1       4.967  -1.933   4.628  1.00  0.00    -0.204 F 
HETATM   18  C13 UNL     1       4.323  -0.318   2.974  1.00  0.00     0.074 A 
HETATM   19 CL1  UNL     1       4.561   0.901   4.236  1.00  0.00    -0.081 Cl
HETATM   20  C14 UNL     1       3.919   0.063   1.712  1.00  0.00     0.056 A 
ENDBRANCH  11  13
ENDBRANCH   4  11
BRANCH   1  21
HETATM   21  O2  UNL     1      -1.656   0.483  -0.828  1.00  0.00    -0.346 OA
BRANCH  21  22
HETATM   22  C4  UNL     1      -2.006  -0.642  -0.128  1.00  0.00     0.209 C 
BRANCH  22  23
HETATM   23  C3  UNL     1      -3.501  -0.803   0.059  1.00  0.00     0.159 C 
BRANCH  23  24
HETATM   24  C2  UNL     1      -3.825  -1.947   1.016  1.00  0.00     0.147 C 
BRANCH  24  25
HETATM   25  N1  UNL     1      -5.262  -1.877   1.226  1.00  0.00    -0.423 N 
HETATM   26  C1  UNL     1      -5.768  -2.864   2.129  1.00  0.00     0.139 C 
HETATM   27  H4  UNL     1      -5.798  -1.723   0.366  1.00  0.00     0.152 HD
ENDBRANCH  24  25
ENDBRANCH  23  24
BRANCH  23  28
HETATM   28  O1  UNL     1      -3.919   0.361   0.749  1.00  0.00    -0.392 OA
HETATM   29  H8  UNL     1      -4.804   0.183   1.193  1.00  0.00     0.210 HD
ENDBRANCH  23  28
ENDBRANCH  22  23
ENDBRANCH  21  22
ENDBRANCH   1  21
BRANCH  10  30
HETATM   30  O3  UNL     1      -1.788   2.792  -2.199  1.00  0.00    -0.353 OA
HETATM   31  C19 UNL     1      -1.904   4.007  -2.916  1.00  0.00     0.210 C 
ENDBRANCH  10  30
TORSDOF 9
