REMARK  8 active torsions:
REMARK  status: ('A' for Active; 'I' for Inactive)
REMARK    1  A    between atoms: N1_3  and  C3_4 
REMARK    2  A    between atoms: C3_4  and  C4_5 
REMARK    3  A    between atoms: C4_5  and  O1_6 
REMARK    4  A    between atoms: C4_5  and  O2_7 
REMARK    5  A    between atoms: O2_7  and  C5_8 
REMARK    6  A    between atoms: C8_11  and  N2_12 
REMARK    7  A    between atoms: N2_12  and  C9_13 
REMARK    8  A    between atoms: C16_24  and  O3_25 
ROOT
HETATM    1  C5  UNL     1      -0.098  -0.825   0.019  1.00  0.00     0.106 A 
HETATM    2  C6  UNL     1       1.057  -0.094   0.330  1.00  0.00     0.057 A 
HETATM    3  C7  UNL     1       2.250  -0.658   0.791  1.00  0.00     0.042 A 
HETATM    4  C8  UNL     1       3.388   0.053   1.090  1.00  0.00     0.142 A 
HETATM    5  N3  UNL     1       4.466  -0.646   1.519  1.00  0.00    -0.224 NA
HETATM    6  C13 UNL     1       4.471  -1.976   1.659  1.00  0.00     0.236 A 
HETATM    7  N4  UNL     1       3.366  -2.706   1.374  1.00  0.00    -0.241 NA
HETATM    8  C14 UNL     1       2.258  -2.047   0.941  1.00  0.00     0.075 A 
HETATM    9  C15 UNL     1       1.136  -2.800   0.644  1.00  0.00     0.072 A 
HETATM   10  C16 UNL     1      -0.030  -2.208   0.189  1.00  0.00     0.103 A 
ENDROOT
BRANCH   1  11
HETATM   11  O2  UNL     1      -1.072   0.016  -0.402  1.00  0.00    -0.316 OA
BRANCH  11  12
HETATM   12  C4  UNL     1      -2.386  -0.177  -0.755  1.00  0.00     0.283 C 
BRANCH  12  13
HETATM   13  C3  UNL     1      -3.297   0.977  -0.368  1.00  0.00     0.208 C 
BRANCH  13  14
HETATM   14  N1  UNL     1      -4.642   0.581  -0.653  1.00  0.00    -0.301 NA
HETATM   15  C2  UNL     1      -5.604   1.327  -0.261  1.00  0.00     0.079 C 
HETATM   16  C1  UNL     1      -6.300   2.474   0.374  1.00  0.00     0.056 C 
ENDBRANCH  13  14
ENDBRANCH  12  13
BRANCH  12  17
HETATM   17  O1  UNL     1      -2.580  -0.368  -2.126  1.00  0.00    -0.369 OA
HETATM   18  H8  UNL     1      -3.134  -1.176  -2.227  1.00  0.00     0.212 HD
ENDBRANCH  12  17
ENDBRANCH  11  12
ENDBRANCH   1  11
BRANCH  10  19
HETATM   19  O3  UNL     1      -1.227  -2.792  -0.152  1.00  0.00    -0.353 OA
HETATM   20  C17 UNL     1      -1.379  -4.182  -0.068  1.00  0.00     0.210 C 
ENDBRANCH  10  19
BRANCH   4  21
HETATM   21  N2  UNL     1       3.300   1.458   0.954  1.00  0.00    -0.338 N 
HETATM   22  H10 UNL     1       2.447   1.979   1.297  1.00  0.00     0.167 HD
BRANCH  21  23
HETATM   23  C9  UNL     1       4.189   2.430   0.425  1.00  0.00     0.076 A 
HETATM   24  C10 UNL     1       4.995   3.471   0.455  1.00  0.00     0.164 A 
HETATM   25  F1  UNL     1       5.298   4.204   1.552  1.00  0.00    -0.202 F 
HETATM   26  C11 UNL     1       5.261   3.364  -0.982  1.00  0.00     0.077 A 
HETATM   27 CL1  UNL     1       6.311   4.439  -1.917  1.00  0.00    -0.081 Cl
HETATM   28  C12 UNL     1       4.439   2.296  -1.026  1.00  0.00     0.059 A 
ENDBRANCH  21  23
ENDBRANCH   4  21
TORSDOF 8
