REMARK  10 active torsions:
REMARK  status: ('A' for Active; 'I' for Inactive)
REMARK    1  A    between atoms: N1_1  and  C1_2 
REMARK    2  A    between atoms: C1_2  and  C2_3 
REMARK    3  A    between atoms: C2_3  and  O1_4 
REMARK    4  A    between atoms: C2_3  and  C3_5 
REMARK    5  A    between atoms: C3_5  and  O2_6 
REMARK    6  A    between atoms: O2_6  and  C4_7 
REMARK    7  A    between atoms: C4_7  and  C5_8 
REMARK    8  A    between atoms: C8_11  and  N2_12 
REMARK    9  A    between atoms: N2_12  and  C9_13 
REMARK   10  A    between atoms: C19_27  and  O3_28 
ROOT
HETATM    1  C5  UNL     1       1.796  -1.675   0.668  1.00  0.00    -0.000 A 
HETATM    2  C6  UNL     1       0.549  -1.098   0.681  1.00  0.00     0.029 A 
HETATM    3  C7  UNL     1      -0.570  -1.805   0.391  1.00  0.00     0.039 A 
HETATM    4  C8  UNL     1      -1.780  -1.148   0.427  1.00  0.00     0.138 A 
HETATM    5  N3  UNL     1      -2.852  -1.887   0.133  1.00  0.00    -0.224 NA
HETATM    6  C16 UNL     1      -2.835  -3.183  -0.184  1.00  0.00     0.235 A 
HETATM    7  N4  UNL     1      -1.671  -3.819  -0.219  1.00  0.00    -0.241 NA
HETATM    8  C17 UNL     1      -0.522  -3.150   0.065  1.00  0.00     0.074 A 
HETATM    9  C18 UNL     1       0.705  -3.764   0.041  1.00  0.00     0.069 A 
HETATM   10  C19 UNL     1       1.842  -3.021   0.341  1.00  0.00     0.076 A 
ENDROOT
BRANCH   4  11
HETATM   11  N2  UNL     1      -1.911   0.229   0.756  1.00  0.00    -0.363 N 
HETATM   12  H12 UNL     1      -1.160   0.881   1.006  1.00  0.00     0.162 HD
BRANCH  11  13
HETATM   13  C9  UNL     1      -3.253   0.828   0.752  1.00  0.00     0.131 C 
HETATM   14  C10 UNL     1      -3.228   2.231   1.155  1.00  0.00     0.002 C 
HETATM   15  C11 UNL     1      -3.989   3.297   0.997  1.00  0.00     0.001 C 
HETATM   16  C12 UNL     1      -5.232   3.249   0.242  1.00  0.00     0.044 C 
HETATM   17  C13 UNL     1      -5.634   2.410  -0.706  1.00  0.00     0.137 C 
HETATM   18  F1  UNL     1      -6.877   2.617  -1.241  1.00  0.00    -0.204 F 
HETATM   19  C14 UNL     1      -4.832   1.280  -1.213  1.00  0.00     0.071 C 
HETATM   20 CL1  UNL     1      -5.315   0.795  -2.848  1.00  0.00    -0.081 Cl
HETATM   21  C15 UNL     1      -3.835   0.618  -0.600  1.00  0.00     0.029 C 
ENDBRANCH  11  13
ENDBRANCH   4  11
BRANCH   1  22
HETATM   22  C4  UNL     1       3.158  -1.142   0.946  1.00  0.00     0.209 C 
BRANCH  22  23
HETATM   23  O2  UNL     1       3.857  -0.987  -0.205  1.00  0.00    -0.384 OA
BRANCH  23  24
HETATM   24  C3  UNL     1       3.396  -0.120  -1.144  1.00  0.00     0.201 C 
BRANCH  24  25
HETATM   25  C2  UNL     1       3.377   1.336  -0.812  1.00  0.00     0.169 C 
BRANCH  25  26
HETATM   26  C1  UNL     1       4.779   1.883  -0.707  1.00  0.00     0.300 C 
BRANCH  26  27
HETATM   27  N1  UNL     1       5.430   1.297   0.429  1.00  0.00     0.080 N 
HETATM   28  H1  UNL     1       5.711   0.326   0.215  1.00  0.00     0.312 HD
HETATM   29  H2  UNL     1       4.787   1.311   1.234  1.00  0.00     0.312 HD
ENDBRANCH  26  27
ENDBRANCH  25  26
BRANCH  25  30
HETATM   30  O1  UNL     1       2.614   1.594   0.296  1.00  0.00    -0.392 OA
HETATM   31  H6  UNL     1       2.728   2.486   0.678  1.00  0.00     0.210 HD
ENDBRANCH  25  30
ENDBRANCH  24  25
ENDBRANCH  23  24
ENDBRANCH  22  23
ENDBRANCH   1  22
BRANCH  10  32
HETATM   32  O3  UNL     1       3.009  -3.808   0.268  1.00  0.00    -0.360 OA
HETATM   33  H20 UNL     1       3.539  -3.932  -0.566  1.00  0.00     0.217 HD
ENDBRANCH  10  32
TORSDOF 10
