REMARK  6 active torsions:
REMARK  status: ('A' for Active; 'I' for Inactive)
REMARK    1  A    between atoms: N1_2  and  C2_3 
REMARK    2  A    between atoms: C2_3  and  C3_4 
REMARK    3  A    between atoms: C4_6  and  O2_7 
REMARK    4  A    between atoms: C9_14  and  N4_15 
REMARK    5  A    between atoms: N4_15  and  C10_16 
REMARK    6  A    between atoms: C18_26  and  O3_27 
ROOT
HETATM    1  C3  UNL     1      -2.329  -0.596  -0.343  1.00  0.00     0.215 C 
HETATM    2  O1  UNL     1      -2.779   0.726  -0.486  1.00  0.00    -0.317 OA
HETATM    3  C4  UNL     1      -2.518   1.989   0.040  1.00  0.00     0.182 C 
HETATM    4  C6  UNL     1      -1.416   2.580   0.464  1.00  0.00     0.096 C 
HETATM    5  C7  UNL     1      -0.037   2.043   0.511  1.00  0.00     0.076 A 
HETATM    6  N2  UNL     1       0.716   2.882   1.241  1.00  0.00    -0.241 NA
HETATM    7  C8  UNL     1       2.020   2.632   1.442  1.00  0.00     0.236 A 
HETATM    8  N3  UNL     1       2.615   1.547   0.929  1.00  0.00    -0.224 NA
HETATM    9  C9  UNL     1       1.958   0.671   0.202  1.00  0.00     0.142 A 
HETATM   10  C16 UNL     1       0.619   0.920  -0.010  1.00  0.00     0.041 A 
HETATM   11  C17 UNL     1       0.099  -0.175  -0.862  1.00  0.00     0.052 C 
HETATM   12  C18 UNL     1      -1.031  -0.844  -1.074  1.00  0.00     0.078 C 
ENDROOT
BRANCH   9  13
HETATM   13  N4  UNL     1       2.592  -0.478  -0.337  1.00  0.00    -0.340 N 
HETATM   14  H13 UNL     1       2.434  -1.337  -0.881  1.00  0.00     0.167 HD
BRANCH  13  15
HETATM   15  C10 UNL     1       3.981  -0.695  -0.117  1.00  0.00     0.035 A 
HETATM   16  C11 UNL     1       4.981  -1.180  -0.943  1.00  0.00     0.032 A 
HETATM   17  C12 UNL     1       6.298  -1.368  -0.613  1.00  0.00     0.046 A 
HETATM   18  C13 UNL     1       6.672  -1.044   0.663  1.00  0.00     0.138 A 
HETATM   19  F1  UNL     1       7.981  -1.238   0.963  1.00  0.00    -0.204 F 
HETATM   20  C14 UNL     1       5.715  -0.550   1.548  1.00  0.00     0.074 A 
HETATM   21 CL1  UNL     1       6.391  -0.195   3.133  1.00  0.00    -0.081 Cl
HETATM   22  C15 UNL     1       4.403  -0.377   1.178  1.00  0.00     0.056 A 
ENDBRANCH  13  15
ENDBRANCH   9  13
BRANCH  12  23
HETATM   23  O3  UNL     1      -0.721  -1.757  -2.068  1.00  0.00    -0.357 OA
HETATM   24  C19 UNL     1      -1.427  -1.955  -3.264  1.00  0.00     0.209 C 
ENDBRANCH  12  23
BRANCH   3  25
HETATM   25  O2  UNL     1      -3.585   2.858   0.174  1.00  0.00    -0.336 OA
HETATM   26  C5  UNL     1      -3.938   3.374   1.422  1.00  0.00     0.212 C 
ENDBRANCH   3  25
BRANCH   1  27
HETATM   27  C2  UNL     1      -3.409  -1.498  -0.891  1.00  0.00     0.308 C 
BRANCH  27  28
HETATM   28  N1  UNL     1      -4.601  -1.241  -0.105  1.00  0.00     0.082 N 
HETATM   29  C1  UNL     1      -4.483  -1.696   1.265  1.00  0.00     0.306 C 
HETATM   30  H4  UNL     1      -5.471  -1.498  -0.575  1.00  0.00     0.315 HD
ENDBRANCH  27  28
ENDBRANCH   1  27
TORSDOF 6
