REMARK  9 active torsions:
REMARK  status: ('A' for Active; 'I' for Inactive)
REMARK    1  A    between atoms: N1_2  and  C2_3 
REMARK    2  A    between atoms: C2_3  and  C3_4 
REMARK    3  A    between atoms: C3_4  and  O1_5 
REMARK    4  A    between atoms: C3_4  and  C4_6 
REMARK    5  A    between atoms: C4_6  and  O2_7 
REMARK    6  A    between atoms: O2_7  and  C5_8 
REMARK    7  A    between atoms: C8_11  and  N2_12 
REMARK    8  A    between atoms: N2_12  and  C9_13 
REMARK    9  A    between atoms: C18_25  and  O3_26 
ROOT
HETATM    1  C5  UNL     1      -1.390  -1.552   0.790  1.00  0.00     0.103 A 
HETATM    2  C6  UNL     1      -0.222  -0.864   0.562  1.00  0.00     0.057 A 
HETATM    3  C7  UNL     1       1.025  -1.437   0.502  1.00  0.00     0.042 A 
HETATM    4  C8  UNL     1       2.087  -0.596   0.263  1.00  0.00     0.142 A 
HETATM    5  N3  UNL     1       3.312  -1.146   0.203  1.00  0.00    -0.224 NA
HETATM    6  C15 UNL     1       3.470  -2.491   0.375  1.00  0.00     0.236 A 
HETATM    7  N4  UNL     1       2.383  -3.277   0.609  1.00  0.00    -0.241 NA
HETATM    8  C16 UNL     1       1.134  -2.786   0.681  1.00  0.00     0.075 A 
HETATM    9  C17 UNL     1       0.018  -3.551   0.915  1.00  0.00     0.072 A 
HETATM   10  C18 UNL     1      -1.236  -2.929   0.968  1.00  0.00     0.103 A 
ENDROOT
BRANCH   1  11
HETATM   11  O2  UNL     1      -2.695  -1.212   0.887  1.00  0.00    -0.346 OA
BRANCH  11  12
HETATM   12  C4  UNL     1      -3.313   0.026   0.761  1.00  0.00     0.209 C 
BRANCH  12  13
HETATM   13  C3  UNL     1      -3.177   0.686  -0.586  1.00  0.00     0.170 C 
BRANCH  13  14
HETATM   14  C2  UNL     1      -3.962   1.991  -0.527  1.00  0.00     0.302 C 
BRANCH  14  15
HETATM   15  N1  UNL     1      -5.350   1.622  -0.222  1.00  0.00     0.081 N 
HETATM   16  C1  UNL     1      -6.111   2.864  -0.164  1.00  0.00     0.306 C 
HETATM   17  H4  UNL     1      -5.667   1.017  -1.014  1.00  0.00     0.315 HD
ENDBRANCH  14  15
ENDBRANCH  13  14
BRANCH  13  18
HETATM   18  O1  UNL     1      -3.724  -0.121  -1.589  1.00  0.00    -0.392 OA
HETATM   19  H8  UNL     1      -3.090  -0.851  -1.812  1.00  0.00     0.210 HD
ENDBRANCH  13  18
ENDBRANCH  12  13
ENDBRANCH  11  12
ENDBRANCH   1  11
BRANCH  10  20
HETATM   20  O3  UNL     1      -2.270  -3.823   1.211  1.00  0.00    -0.353 OA
HETATM   21  C19 UNL     1      -2.069  -5.188   1.382  1.00  0.00     0.210 C 
ENDBRANCH  10  20
BRANCH   4  22
HETATM   22  N2  UNL     1       2.020   0.810   0.072  1.00  0.00    -0.338 N 
HETATM   23  H12 UNL     1       1.195   1.446   0.075  1.00  0.00     0.167 HD
BRANCH  22  24
HETATM   24  C9  UNL     1       3.158   1.628  -0.172  1.00  0.00     0.069 A 
HETATM   25  C10 UNL     1       3.555   2.815   0.251  1.00  0.00     0.124 A 
HETATM   26  F1  UNL     1       2.928   3.646   1.109  1.00  0.00    -0.208 F 
HETATM   27  C11 UNL     1       4.859   3.146  -0.370  1.00  0.00     0.106 A 
HETATM   28  C12 UNL     1       5.172   1.960  -1.233  1.00  0.00    -0.075 A 
HETATM   29  C13 UNL     1       6.404   1.848  -2.059  1.00  0.00     0.044 C 
HETATM   30  C14 UNL     1       4.168   1.087  -1.103  1.00  0.00     0.035 A 
ENDBRANCH  22  24
ENDBRANCH   4  22
TORSDOF 9
