REMARK  0 active torsions:
REMARK  status: ('A' for Active; 'I' for Inactive)
ROOT
HETATM    1  C1  UNL     1      -1.495   2.216   1.978  1.00  0.00     0.049 C 
HETATM    2  C2  UNL     1      -1.816   1.356   0.922  1.00  0.00    -0.048 C 
HETATM    3  C3  UNL     1      -1.546   0.935  -0.304  1.00  0.00     0.023 C 
HETATM    4  C4  UNL     1      -2.315   0.561  -1.536  1.00  0.00     0.161 C 
HETATM    5  O1  UNL     1      -2.925   1.066  -2.452  1.00  0.00    -0.292 OA
HETATM    6  C5  UNL     1      -2.193  -0.940  -1.452  1.00  0.00     0.093 C 
HETATM    7  C6  UNL     1      -2.047  -1.537  -0.112  1.00  0.00     0.023 C 
HETATM    8  C7  UNL     1      -2.981  -0.975   0.888  1.00  0.00    -0.020 C 
HETATM    9  C8  UNL     1      -2.971   0.360   1.300  1.00  0.00     0.004 C 
HETATM   10  C9  UNL     1      -0.583  -1.749   0.358  1.00  0.00     0.024 C 
HETATM   11  C10 UNL     1      -0.106  -2.741  -0.657  1.00  0.00     0.016 C 
HETATM   12  C11 UNL     1       0.210  -0.502   0.262  1.00  0.00    -0.035 C 
HETATM   13  C12 UNL     1      -0.101   0.853   0.154  1.00  0.00    -0.030 C 
HETATM   14  C13 UNL     1      -0.083   2.235   0.144  1.00  0.00     0.040 C 
HETATM   15  C14 UNL     1      -0.975   3.015  -0.774  1.00  0.00     0.017 C 
HETATM   16  C15 UNL     1       1.135   2.231  -0.893  1.00  0.00     0.177 C 
HETATM   17  O2  UNL     1       2.302   1.815  -0.366  1.00  0.00    -0.386 OA
HETATM   18  C16 UNL     1       2.946   0.786  -1.071  1.00  0.00     0.207 C 
HETATM   19  C17 UNL     1       2.802  -0.471  -0.238  1.00  0.00    -0.024 A 
HETATM   20  C18 UNL     1       3.953  -1.139  -0.010  1.00  0.00     0.010 A 
HETATM   21  C19 UNL     1       3.851  -2.262   0.783  1.00  0.00     0.001 A 
HETATM   22  C20 UNL     1       2.633  -2.700   1.330  1.00  0.00     0.001 A 
HETATM   23  C21 UNL     1       1.447  -1.980   1.072  1.00  0.00     0.012 A 
HETATM   24  C22 UNL     1       1.586  -0.876   0.283  1.00  0.00    -0.021 A 
ENDROOT
TORSDOF 0
