REMARK  3 active torsions:
REMARK  status: ('A' for Active; 'I' for Inactive)
REMARK    1  A    between atoms: C1_2  and  O1_3 
REMARK    2  A    between atoms: O1_3  and  C2_4 
REMARK    3  A    between atoms: C12_18  and  C13_19 
ROOT
HETATM    1  C2  UNL     1       1.777   1.301   0.104  1.00  0.00     0.160 C 
HETATM    2  C3  UNL     1       0.296   1.566   0.239  1.00  0.00     0.153 C 
HETATM    3  N2  UNL     1      -0.552   0.724  -0.595  1.00  0.00    -0.386 N 
HETATM    4  C4  UNL     1      -1.926   0.273  -0.379  1.00  0.00     0.058 A 
HETATM    5  C5  UNL     1      -2.973   1.028  -0.861  1.00  0.00     0.075 A 
HETATM    6  C6  UNL     1      -4.336   0.745  -0.723  1.00  0.00     0.140 A 
HETATM    7  F1  UNL     1      -5.227   1.599  -1.261  1.00  0.00    -0.204 F 
HETATM    8  C7  UNL     1      -4.601  -0.415  -0.029  1.00  0.00     0.074 A 
HETATM    9 CL1  UNL     1      -6.293  -0.823   0.177  1.00  0.00    -0.081 Cl
HETATM   10  C8  UNL     1      -3.589  -1.202   0.471  1.00  0.00     0.058 A 
HETATM   11  C9  UNL     1      -2.268  -0.878   0.307  1.00  0.00     0.060 A 
HETATM   12  N3  UNL     1      -1.378  -1.875   0.907  1.00  0.00    -0.364 N 
HETATM   13  C10 UNL     1      -0.148  -1.172   1.074  1.00  0.00     0.085 C 
HETATM   14  C11 UNL     1       0.925  -0.474   1.512  1.00  0.00     0.003 C 
HETATM   15  C12 UNL     1       1.948  -0.239   0.392  1.00  0.00     0.080 C 
HETATM   16  H6  UNL     1      -0.577   0.207  -1.498  1.00  0.00     0.159 HD
HETATM   17  H9  UNL     1      -1.544  -2.852   1.170  1.00  0.00     0.165 HD
ENDROOT
BRANCH   1  18
HETATM   18  O1  UNL     1       2.406   1.546  -1.071  1.00  0.00    -0.337 OA
BRANCH  18  19
HETATM   19  C1  UNL     1       3.695   1.296  -1.435  1.00  0.00     0.242 C 
HETATM   20  N1  UNL     1       3.366   0.121  -1.886  1.00  0.00    -0.289 NA
HETATM   21  H1  UNL     1       4.123  -0.492  -2.304  1.00  0.00     0.188 HD
ENDBRANCH  18  19
ENDBRANCH   1  18
BRANCH  15  22
HETATM   22  C13 UNL     1       3.316  -0.477   0.842  1.00  0.00     0.091 C 
HETATM   23  N4  UNL     1       3.764  -1.677   0.836  1.00  0.00    -0.316 NA
HETATM   24  H14 UNL     1       3.177  -2.467   0.522  1.00  0.00     0.185 HD
ENDBRANCH  15  22
TORSDOF 3
