REMARK  6 active torsions:
REMARK  status: ('A' for Active; 'I' for Inactive)
REMARK    1  A    between atoms: O1_2  and  C2_3 
REMARK    2  A    between atoms: C6_8  and  N1_9 
REMARK    3  A    between atoms: N1_9  and  C7_10 
REMARK    4  A    between atoms: C14_19  and  C15_20 
REMARK    5  A    between atoms: C15_20  and  N2_21 
REMARK    6  A    between atoms: N2_21  and  C16_22 
ROOT
HETATM    1  C2  UNL     1       0.460   0.931  -0.472  1.00  0.00     0.063 A 
HETATM    2  C3  UNL     1       1.002   0.638   0.695  1.00  0.00     0.032 A 
HETATM    3  C4  UNL     1       0.118   0.200   1.730  1.00  0.00    -0.019 A 
HETATM    4  C5  UNL     1       0.659  -0.093   2.898  1.00  0.00     0.030 A 
HETATM    5  P1  UNL     1       2.564   0.239   2.636  1.00  0.00    -0.002 P 
HETATM    6  C6  UNL     1       2.418   0.739   0.969  1.00  0.00     0.059 A 
HETATM    7  C13 UNL     1      -1.308   0.101   1.446  1.00  0.00     0.017 A 
HETATM    8  C14 UNL     1      -1.819   0.399   0.276  1.00  0.00    -0.045 A 
HETATM    9  C19 UNL     1      -0.975   0.854  -0.831  1.00  0.00     0.101 A 
ENDROOT
BRANCH   6  10
HETATM   10  N1  UNL     1       3.496   1.131   0.164  1.00  0.00    -0.354 N 
HETATM   11  H5  UNL     1       3.330   2.099  -0.191  1.00  0.00     0.166 HD
BRANCH  10  12
HETATM   12  C7  UNL     1       4.623   0.353  -0.125  1.00  0.00     0.034 A 
HETATM   13  C8  UNL     1       4.720  -0.909   0.407  1.00  0.00     0.032 A 
HETATM   14  C9  UNL     1       5.879  -1.608   0.064  1.00  0.00     0.046 A 
HETATM   15  C10 UNL     1       6.886  -1.128  -0.741  1.00  0.00     0.138 A 
HETATM   16  F1  UNL     1       7.977  -1.866  -1.028  1.00  0.00    -0.204 F 
HETATM   17  C11 UNL     1       6.710   0.150  -1.235  1.00  0.00     0.074 A 
HETATM   18 CL1  UNL     1       7.936   0.863  -2.275  1.00  0.00    -0.081 Cl
HETATM   19  C12 UNL     1       5.580   0.914  -0.938  1.00  0.00     0.056 A 
ENDBRANCH  10  12
ENDBRANCH   6  10
BRANCH   1  20
HETATM   20  O1  UNL     1       1.164   1.366  -1.572  1.00  0.00    -0.359 OA
HETATM   21  C1  UNL     1       1.477   0.496  -2.641  1.00  0.00     0.209 C 
ENDBRANCH   1  20
BRANCH   8  22
HETATM   22  C15 UNL     1      -3.241   0.351  -0.170  1.00  0.00     0.304 C 
BRANCH  22  23
HETATM   23  N2  UNL     1      -4.154  -0.084   0.840  1.00  0.00     0.091 N 
HETATM   24  H12 UNL     1      -3.907  -0.978   1.275  1.00  0.00     0.316 HD
BRANCH  23  25
HETATM   25  C16 UNL     1      -5.510  -0.094   0.302  1.00  0.00     0.212 C 
HETATM   26  C17 UNL     1      -5.612  -1.022  -0.871  1.00  0.00     0.042 C 
HETATM   27  C18 UNL     1      -6.501  -0.563   1.351  1.00  0.00     0.042 C 
ENDBRANCH  23  25
ENDBRANCH  22  23
ENDBRANCH   8  22
TORSDOF 6
