REMARK  8 active torsions:
REMARK  status: ('A' for Active; 'I' for Inactive)
REMARK    1  A    between atoms: O1_2  and  C2_3 
REMARK    2  A    between atoms: C6_9  and  N3_10 
REMARK    3  A    between atoms: N3_10  and  C7_11 
REMARK    4  A    between atoms: C15_21  and  O2_22 
REMARK    5  A    between atoms: O2_22  and  C16_23 
REMARK    6  A    between atoms: C16_23  and  C17_24 
REMARK    7  A    between atoms: C17_24  and  N4_25 
REMARK    8  A    between atoms: N4_25  and  C18_26 
ROOT
HETATM    1  C2  UNL     1       0.540   3.270  -0.907  1.00  0.00     0.103 A 
HETATM    2  C3  UNL     1       1.600   3.322  -1.804  1.00  0.00     0.072 A 
HETATM    3  C4  UNL     1       2.281   2.184  -2.156  1.00  0.00     0.075 A 
HETATM    4  N1  UNL     1       3.312   2.203  -3.037  1.00  0.00    -0.241 NA
HETATM    5  C5  UNL     1       3.973   1.086  -3.388  1.00  0.00     0.236 A 
HETATM    6  N2  UNL     1       3.603  -0.115  -2.847  1.00  0.00    -0.224 NA
HETATM    7  C6  UNL     1       2.581  -0.163  -1.968  1.00  0.00     0.142 A 
HETATM    8  C13 UNL     1       1.885   0.965  -1.589  1.00  0.00     0.042 A 
HETATM    9  C14 UNL     1       0.834   0.957  -0.706  1.00  0.00     0.057 A 
HETATM   10  C15 UNL     1       0.128   2.075  -0.331  1.00  0.00     0.103 A 
ENDROOT
BRANCH   7  11
HETATM   11  N3  UNL     1       2.112  -1.371  -1.359  1.00  0.00    -0.340 N 
HETATM   12  H6  UNL     1       1.291  -1.811  -1.788  1.00  0.00     0.167 HD
BRANCH  11  13
HETATM   13  C7  UNL     1       2.782  -1.895  -0.219  1.00  0.00     0.035 A 
HETATM   14  C8  UNL     1       2.339  -2.978   0.494  1.00  0.00     0.032 A 
HETATM   15  C9  UNL     1       3.016  -3.489   1.606  1.00  0.00     0.046 A 
HETATM   16  C10 UNL     1       4.192  -2.854   1.994  1.00  0.00     0.138 A 
HETATM   17  F1  UNL     1       4.917  -3.286   3.066  1.00  0.00    -0.204 F 
HETATM   18  C11 UNL     1       4.690  -1.752   1.311  1.00  0.00     0.074 A 
HETATM   19 CL1  UNL     1       6.166  -0.925   1.763  1.00  0.00    -0.081 Cl
HETATM   20  C12 UNL     1       3.948  -1.325   0.227  1.00  0.00     0.056 A 
ENDBRANCH  11  13
ENDBRANCH   7  11
BRANCH  10  21
HETATM   21  O2  UNL     1      -0.908   2.248   0.501  1.00  0.00    -0.347 OA
BRANCH  21  22
HETATM   22  C16 UNL     1      -1.656   1.397   1.285  1.00  0.00     0.205 C 
BRANCH  22  23
HETATM   23  C17 UNL     1      -2.398   0.306   0.549  1.00  0.00     0.297 C 
BRANCH  23  24
HETATM   24  N4  UNL     1      -3.112  -0.458   1.557  1.00  0.00     0.094 N 
HETATM   25  H15 UNL     1      -3.663   0.111   2.205  1.00  0.00     0.316 HD
BRANCH  24  26
HETATM   26  C18 UNL     1      -3.814  -1.574   1.007  1.00  0.00     0.147 C 
HETATM   27  C19 UNL     1      -4.777  -1.082  -0.044  1.00  0.00     0.048 C 
HETATM   28  C20 UNL     1      -2.903  -2.584   0.356  1.00  0.00     0.048 C 
HETATM   29  C21 UNL     1      -4.582  -2.287   2.096  1.00  0.00     0.048 C 
ENDBRANCH  24  26
ENDBRANCH  23  24
ENDBRANCH  22  23
ENDBRANCH  21  22
ENDBRANCH  10  21
BRANCH   1  30
HETATM   30  O1  UNL     1      -0.043   4.502  -0.654  1.00  0.00    -0.353 OA
HETATM   31  C1  UNL     1       0.400   5.696  -1.254  1.00  0.00     0.210 C 
ENDBRANCH   1  30
TORSDOF 8
