REMARK  7 active torsions:
REMARK  status: ('A' for Active; 'I' for Inactive)
REMARK    1  A    between atoms: C2_2  and  C5_5 
REMARK    2  A    between atoms: C5_5  and  C6_6 
REMARK    3  A    between atoms: C6_6  and  O1_7 
REMARK    4  A    between atoms: O1_7  and  C7_8 
REMARK    5  A    between atoms: C12_15  and  N3_16 
REMARK    6  A    between atoms: N3_16  and  C13_17 
REMARK    7  A    between atoms: C21_27  and  O2_28 
ROOT
HETATM    1  C7  UNL     1       0.705  -0.075  -1.117  1.00  0.00     0.079 C 
HETATM    2  C8  UNL     1      -0.561  -0.328  -0.729  1.00  0.00     0.053 C 
HETATM    3  C9  UNL     1      -1.757  -0.251  -1.564  1.00  0.00     0.041 A 
HETATM    4  C10 UNL     1      -1.765  -0.472  -2.944  1.00  0.00     0.072 A 
HETATM    5  N1  UNL     1      -2.944  -0.388  -3.601  1.00  0.00    -0.241 NA
HETATM    6  C11 UNL     1      -4.047  -0.092  -2.866  1.00  0.00     0.236 A 
HETATM    7  N2  UNL     1      -3.984   0.108  -1.555  1.00  0.00    -0.224 NA
HETATM    8  C12 UNL     1      -2.858   0.044  -0.831  1.00  0.00     0.142 A 
HETATM    9  C19 UNL     1      -0.649  -0.798  -3.859  1.00  0.00     0.031 C 
HETATM   10  C20 UNL     1       0.602  -0.405  -3.575  1.00  0.00     0.013 C 
HETATM   11  C21 UNL     1       1.209   0.342  -2.471  1.00  0.00     0.197 C 
ENDROOT
BRANCH   8  12
HETATM   12  N3  UNL     1      -2.857   0.306   0.561  1.00  0.00    -0.340 N 
HETATM   13  H16 UNL     1      -2.073   0.424   1.227  1.00  0.00     0.167 HD
BRANCH  12  14
HETATM   14  C13 UNL     1      -4.067   0.467   1.313  1.00  0.00     0.035 A 
HETATM   15  C14 UNL     1      -5.249  -0.113   0.919  1.00  0.00     0.032 A 
HETATM   16  C15 UNL     1      -6.456   0.024   1.592  1.00  0.00     0.046 A 
HETATM   17  C16 UNL     1      -6.484   0.793   2.735  1.00  0.00     0.138 A 
HETATM   18  F1  UNL     1      -7.651   0.948   3.418  1.00  0.00    -0.204 F 
HETATM   19  C17 UNL     1      -5.337   1.400   3.183  1.00  0.00     0.074 A 
HETATM   20 CL1  UNL     1      -5.413   2.367   4.633  1.00  0.00    -0.081 Cl
HETATM   21  C18 UNL     1      -4.174   1.225   2.473  1.00  0.00     0.056 A 
ENDBRANCH  12  14
ENDBRANCH   8  12
BRANCH   1  22
HETATM   22  O1  UNL     1       1.645  -0.229  -0.108  1.00  0.00    -0.352 OA
BRANCH  22  23
HETATM   23  C6  UNL     1       2.089   0.884   0.603  1.00  0.00     0.176 C 
BRANCH  23  24
HETATM   24  C5  UNL     1       3.157   0.589   1.632  1.00  0.00     0.035 C 
BRANCH  24  25
HETATM   25  C2  UNL     1       4.415  -0.005   1.054  1.00  0.00    -0.050 C 
HETATM   26  C1  UNL     1       5.372  -0.233   2.232  1.00  0.00     0.014 C 
HETATM   27  C3  UNL     1       5.087   0.946   0.104  1.00  0.00     0.014 C 
HETATM   28  C4  UNL     1       4.208  -1.321   0.388  1.00  0.00     0.014 C 
ENDBRANCH  24  25
ENDBRANCH  23  24
ENDBRANCH  22  23
ENDBRANCH   1  22
BRANCH  11  29
HETATM   29  O2  UNL     1       2.578   0.132  -2.487  1.00  0.00    -0.385 OA
HETATM   30  H23 UNL     1       2.925   0.517  -3.338  1.00  0.00     0.210 HD
ENDBRANCH  11  29
TORSDOF 7
