REMARK  2 active torsions:
REMARK  status: ('A' for Active; 'I' for Inactive)
REMARK    1  A    between atoms: O1_2  and  C2_3 
REMARK    2  A    between atoms: C6_9  and  S1_10 
ROOT
HETATM    1  C2  UNL     1       3.121  -1.753  -0.859  1.00  0.00     0.070 C 
HETATM    2  C3  UNL     1       2.547  -2.920  -0.810  1.00  0.00     0.053 C 
HETATM    3  C4  UNL     1       1.187  -3.386  -1.030  1.00  0.00     0.120 C 
HETATM    4  N1  UNL     1      -0.051  -3.244  -1.299  1.00  0.00    -0.254 NA
HETATM    5  C5  UNL     1      -0.719  -2.023  -1.579  1.00  0.00     0.228 C 
HETATM    6  N2  UNL     1      -0.920  -2.029  -0.332  1.00  0.00    -0.263 NA
HETATM    7  C6  UNL     1      -1.597  -1.097   0.504  1.00  0.00     0.199 C 
HETATM    8  C12 UNL     1      -0.949   0.262   0.414  1.00  0.00    -0.034 C 
HETATM    9  C13 UNL     1      -1.216   0.874  -0.897  1.00  0.00     0.048 C 
HETATM   10  C14 UNL     1      -0.216   1.193   0.993  1.00  0.00     0.090 C 
HETATM   11  N3  UNL     1       0.558   2.252   1.519  1.00  0.00    -0.394 N 
HETATM   12  C15 UNL     1      -0.302   3.376   1.411  1.00  0.00     0.148 C 
HETATM   13  C16 UNL     1       1.922   2.044   1.968  1.00  0.00     0.123 C 
HETATM   14  C17 UNL     1       2.938   2.614   1.017  1.00  0.00     0.046 C 
HETATM   15  C18 UNL     1       2.728   1.841  -0.310  1.00  0.00     0.169 C 
HETATM   16  O2  UNL     1       2.984   0.488  -0.088  1.00  0.00    -0.385 OA
HETATM   17  C19 UNL     1       2.753  -0.335  -1.154  1.00  0.00     0.232 C 
ENDROOT
BRANCH   7  18
HETATM   18  S1  UNL     1      -3.318  -0.965  -0.007  1.00  0.00    -0.142 SA
HETATM   19  C7  UNL     1      -3.990  -1.786  -1.244  1.00  0.00     0.044 A 
HETATM   20  C8  UNL     1      -5.403  -1.510  -1.468  1.00  0.00     0.050 A 
HETATM   21  C9  UNL     1      -6.114  -0.681  -0.759  1.00  0.00     0.139 A 
HETATM   22  F1  UNL     1      -7.437  -0.538  -1.105  1.00  0.00    -0.204 F 
HETATM   23  C10 UNL     1      -5.710   0.137   0.369  1.00  0.00     0.078 A 
HETATM   24 CL1  UNL     1      -6.820   1.211   1.212  1.00  0.00    -0.081 Cl
HETATM   25  C11 UNL     1      -4.469   0.144   0.861  1.00  0.00     0.068 A 
ENDBRANCH   7  18
BRANCH   1  26
HETATM   26  O1  UNL     1       4.487  -1.691  -0.572  1.00  0.00    -0.358 OA
HETATM   27  C1  UNL     1       5.007  -1.475   0.709  1.00  0.00     0.209 C 
ENDBRANCH   1  26
TORSDOF 2
