REMARK  9 active torsions:
REMARK  status: ('A' for Active; 'I' for Inactive)
REMARK    1  A    between atoms: C2_2  and  N1_3 
REMARK    2  A    between atoms: N1_3  and  C4_5 
REMARK    3  A    between atoms: C4_5  and  C5_6 
REMARK    4  A    between atoms: C5_6  and  C6_7 
REMARK    5  A    between atoms: C6_7  and  O1_8 
REMARK    6  A    between atoms: O1_8  and  C7_9 
REMARK    7  A    between atoms: C13_17  and  N4_18 
REMARK    8  A    between atoms: N4_18  and  C14_19 
REMARK    9  A    between atoms: C21_28  and  O2_29 
ROOT
HETATM    1  C7  UNL     1      -0.513   0.313  -0.596  1.00  0.00     0.201 C 
HETATM    2  C8  UNL     1       0.493  -0.696  -0.177  1.00  0.00     0.012 C 
HETATM    3  C9  UNL     1       1.774  -0.534   0.185  1.00  0.00     0.016 C 
HETATM    4  C10 UNL     1       2.485   0.737   0.246  1.00  0.00     0.039 A 
HETATM    5  C11 UNL     1       1.891   1.975   0.511  1.00  0.00     0.074 A 
HETATM    6  N2  UNL     1       2.629   3.123   0.566  1.00  0.00    -0.241 NA
HETATM    7  C12 UNL     1       3.963   2.973   0.347  1.00  0.00     0.236 A 
HETATM    8  N3  UNL     1       4.514   1.779   0.095  1.00  0.00    -0.224 NA
HETATM    9  C13 UNL     1       3.837   0.629   0.030  1.00  0.00     0.142 A 
HETATM   10  C20 UNL     1       0.467   2.293   0.762  1.00  0.00     0.068 C 
HETATM   11  C21 UNL     1      -0.518   1.529   0.252  1.00  0.00     0.080 C 
ENDROOT
BRANCH   9  12
HETATM   12  N4  UNL     1       4.449  -0.617  -0.240  1.00  0.00    -0.340 N 
HETATM   13  H19 UNL     1       4.062  -1.570  -0.326  1.00  0.00     0.167 HD
BRANCH  12  14
HETATM   14  C14 UNL     1       5.829  -0.842  -0.490  1.00  0.00     0.035 A 
HETATM   15  C15 UNL     1       6.577  -1.985  -0.272  1.00  0.00     0.032 A 
HETATM   16  C16 UNL     1       7.906  -2.126  -0.558  1.00  0.00     0.046 A 
HETATM   17  C17 UNL     1       8.586  -1.081  -1.103  1.00  0.00     0.138 A 
HETATM   18  F1  UNL     1       9.901  -1.235  -1.382  1.00  0.00    -0.204 F 
HETATM   19  C18 UNL     1       7.875   0.089  -1.341  1.00  0.00     0.074 A 
HETATM   20 CL1  UNL     1       8.859   1.377  -2.050  1.00  0.00    -0.081 Cl
HETATM   21  C19 UNL     1       6.534   0.206  -1.043  1.00  0.00     0.056 A 
ENDBRANCH  12  14
ENDBRANCH   9  12
BRANCH   1  22
HETATM   22  O1  UNL     1      -1.780  -0.250  -0.557  1.00  0.00    -0.375 OA
BRANCH  22  23
HETATM   23  C6  UNL     1      -2.390  -0.262  -1.808  1.00  0.00     0.170 C 
BRANCH  23  24
HETATM   24  C5  UNL     1      -3.744  -0.901  -1.641  1.00  0.00     0.056 C 
BRANCH  24  25
HETATM   25  C4  UNL     1      -4.594  -0.125  -0.672  1.00  0.00     0.274 C 
BRANCH  25  26
HETATM   26  N1  UNL     1      -5.870  -0.769  -0.544  1.00  0.00     0.083 N 
HETATM   27  C3  UNL     1      -5.778  -2.179  -0.299  1.00  0.00     0.309 C 
BRANCH  26  28
HETATM   28  C2  UNL     1      -6.778  -0.102   0.369  1.00  0.00     0.267 C 
HETATM   29  C1  UNL     1      -6.202  -0.116   1.771  1.00  0.00     0.037 C 
ENDBRANCH  26  28
ENDBRANCH  25  26
ENDBRANCH  24  25
ENDBRANCH  23  24
ENDBRANCH  22  23
ENDBRANCH   1  22
BRANCH  11  30
HETATM   30  O2  UNL     1      -1.747   2.083   0.665  1.00  0.00    -0.357 OA
HETATM   31  C22 UNL     1      -2.218   1.618   1.942  1.00  0.00     0.209 C 
ENDBRANCH  11  30
TORSDOF 9
