REMARK  4 active torsions:
REMARK  status: ('A' for Active; 'I' for Inactive)
REMARK    1  A    between atoms: C2_2  and  N1_3 
REMARK    2  A    between atoms: C6_8  and  O2_9 
REMARK    3  A    between atoms: C10_13  and  N2_14 
REMARK    4  A    between atoms: N2_14  and  C11_15 
ROOT
HETATM    1  N1  UNL     1      -0.161  -1.665  -1.594  1.00  0.00    -0.385 N 
HETATM    2  C3  UNL     1      -1.412  -1.544  -2.260  1.00  0.00     0.124 C 
HETATM    3  C4  UNL     1      -2.647  -1.456  -1.476  1.00  0.00     0.046 C 
HETATM    4  C5  UNL     1      -2.847  -0.385  -0.497  1.00  0.00     0.179 C 
HETATM    5  O1  UNL     1      -2.756   0.956  -0.878  1.00  0.00    -0.329 OA
HETATM    6  C6  UNL     1      -2.892   1.889   0.232  1.00  0.00     0.203 C 
HETATM    7  C8  UNL     1      -1.590   2.441   0.412  1.00  0.00     0.073 C 
HETATM    8  C9  UNL     1      -0.308   2.231  -0.306  1.00  0.00     0.122 C 
HETATM    9  C10 UNL     1       0.627   1.349   0.584  1.00  0.00     0.152 C 
HETATM   10  C17 UNL     1       0.352   0.002   0.088  1.00  0.00     0.053 C 
HETATM   11  C18 UNL     1       0.110  -1.318  -0.206  1.00  0.00     0.003 C 
HETATM   12  C19 UNL     1       0.122  -2.450   0.700  1.00  0.00     0.068 C 
HETATM   13  N3  UNL     1       0.324   1.627   1.945  1.00  0.00    -0.248 NA
HETATM   14  C20 UNL     1      -0.497   2.560   2.340  1.00  0.00     0.204 C 
HETATM   15  N4  UNL     1      -1.703   3.249   1.708  1.00  0.00    -0.350 N 
HETATM   16  H26 UNL     1      -2.454   3.702   1.357  1.00  0.00     0.166 HD
ENDROOT
BRANCH   9  17
HETATM   17  N2  UNL     1       1.981   1.774   0.315  1.00  0.00    -0.358 N 
HETATM   18  H17 UNL     1       2.368   2.550  -0.286  1.00  0.00     0.162 HD
BRANCH  17  19
HETATM   19  C11 UNL     1       2.994   0.985   0.993  1.00  0.00     0.032 A 
HETATM   20  C12 UNL     1       4.346   1.223   0.821  1.00  0.00     0.032 A 
HETATM   21  C13 UNL     1       5.308   0.486   1.462  1.00  0.00     0.046 A 
HETATM   22  C14 UNL     1       4.969  -0.542   2.320  1.00  0.00     0.138 A 
HETATM   23  F1  UNL     1       5.915  -1.267   2.971  1.00  0.00    -0.204 F 
HETATM   24  C15 UNL     1       3.625  -0.802   2.508  1.00  0.00     0.074 A 
HETATM   25 CL1  UNL     1       3.211  -2.116   3.588  1.00  0.00    -0.081 Cl
HETATM   26  C16 UNL     1       2.679  -0.063   1.864  1.00  0.00     0.056 A 
ENDBRANCH  17  19
ENDBRANCH   9  17
BRANCH   6  27
HETATM   27  O2  UNL     1      -4.084   1.751   0.463  1.00  0.00    -0.334 OA
HETATM   28  C7  UNL     1      -5.239   2.494   0.054  1.00  0.00     0.212 C 
ENDBRANCH   6  27
BRANCH   1  29
HETATM   29  C2  UNL     1       1.108  -2.016  -2.179  1.00  0.00     0.118 C 
HETATM   30  C1  UNL     1       1.185  -3.446  -2.672  1.00  0.00     0.026 C 
ENDBRANCH   1  29
TORSDOF 4
