REMARK  1 active torsions:
REMARK  status: ('A' for Active; 'I' for Inactive)
REMARK    1  A    between atoms: C2_2  and  N1_3 
ROOT
HETATM    1  N1  UNL     1      -1.486   0.818   0.366  1.00  0.00    -0.400 N 
HETATM    2  C3  UNL     1      -2.753   0.147  -0.173  1.00  0.00     0.128 A 
HETATM    3  C4  UNL     1      -1.824  -1.007  -0.803  1.00  0.00     0.065 A 
HETATM    4  C5  UNL     1      -2.159  -2.193   0.029  1.00  0.00     0.177 C 
HETATM    5  O1  UNL     1      -1.595  -3.350  -0.597  1.00  0.00    -0.390 OA
HETATM    6  C6  UNL     1      -0.645  -2.804  -1.527  1.00  0.00     0.182 C 
HETATM    7  C7  UNL     1      -0.291  -1.477  -0.875  1.00  0.00     0.038 A 
HETATM    8  C8  UNL     1      -0.477  -0.462  -0.298  1.00  0.00     0.037 A 
HETATM    9  C9  UNL     1       0.861  -0.081   0.101  1.00  0.00    -0.029 A 
HETATM   10  C10 UNL     1       2.272   0.080   0.364  1.00  0.00    -0.029 A 
HETATM   11  C11 UNL     1       2.753   1.274  -0.160  1.00  0.00     0.015 A 
HETATM   12  C12 UNL     1       4.089   1.461   0.031  1.00  0.00     0.045 A 
HETATM   13  C13 UNL     1       4.841   0.548   0.684  1.00  0.00     0.138 A 
HETATM   14  F1  UNL     1       6.156   0.805   0.835  1.00  0.00    -0.204 F 
HETATM   15  C14 UNL     1       4.364  -0.657   1.215  1.00  0.00     0.073 A 
HETATM   16 CL1  UNL     1       5.363  -1.848   2.067  1.00  0.00    -0.081 Cl
HETATM   17  C15 UNL     1       3.045  -0.855   1.031  1.00  0.00     0.038 A 
HETATM   18  C16 UNL     1      -0.468  -0.150  -0.113  1.00  0.00     0.059 A 
ENDROOT
BRANCH   1  19
HETATM   19  C2  UNL     1      -2.056   1.905   0.989  1.00  0.00     0.113 C 
HETATM   20  C1  UNL     1      -2.663   2.875  -0.028  1.00  0.00     0.026 C 
ENDBRANCH   1  19
TORSDOF 1
