REMARK  3 active torsions:
REMARK  status: ('A' for Active; 'I' for Inactive)
REMARK    1  A    between atoms: C2_2  and  N1_3 
REMARK    2  A    between atoms: C4_5  and  C5_6 
REMARK    3  A    between atoms: C16_20  and  O2_21 
ROOT
HETATM    1  N1  UNL     1      -1.148  -1.057  -0.160  1.00  0.00    -0.409 N 
HETATM    2  C3  UNL     1      -1.399  -1.607   1.136  1.00  0.00     0.123 C 
HETATM    3  C4  UNL     1      -2.235  -0.485   1.846  1.00  0.00    -0.017 C 
HETATM    4  C6  UNL     1      -2.774   0.790   1.803  1.00  0.00     0.041 C 
HETATM    5  C7  UNL     1      -3.501   2.017   2.186  1.00  0.00     0.016 C 
HETATM    6  C8  UNL     1      -3.200   2.637   1.052  1.00  0.00     0.084 C 
HETATM    7  N2  UNL     1      -2.463   1.842   0.273  1.00  0.00    -0.274 NA
HETATM    8  C9  UNL     1      -1.567   1.951  -0.770  1.00  0.00     0.088 A 
HETATM    9  C10 UNL     1      -0.685   1.969  -1.733  1.00  0.00     0.181 A 
HETATM   10  C11 UNL     1       0.362   0.989  -2.216  1.00  0.00    -0.048 C 
HETATM   11  C12 UNL     1       1.131   1.567  -3.340  1.00  0.00     0.046 C 
HETATM   12  C13 UNL     1       0.603  -0.243  -1.758  1.00  0.00    -0.035 C 
HETATM   13  C14 UNL     1       1.745  -1.098  -2.364  1.00  0.00     0.204 C 
HETATM   14  O1  UNL     1       2.588  -1.369  -1.273  1.00  0.00    -0.381 OA
HETATM   15  C15 UNL     1       3.183  -0.167  -0.880  1.00  0.00     0.232 C 
HETATM   16  C16 UNL     1       3.542  -0.272   0.569  1.00  0.00     0.075 C 
HETATM   17  C18 UNL     1       2.950   0.690   1.332  1.00  0.00     0.085 C 
HETATM   18  S1  UNL     1       1.946   1.807   0.448  1.00  0.00    -0.094 SA
HETATM   19  C19 UNL     1       0.238   1.743   0.766  1.00  0.00     0.143 C 
HETATM   20  N3  UNL     1      -0.135   1.907  -0.442  1.00  0.00    -0.328 N 
HETATM   21  C20 UNL     1       0.040  -1.248  -0.821  1.00  0.00     0.153 C 
HETATM   22  H13 UNL     1      -2.330   2.866  -0.011  1.00  0.00     0.129 HD
ENDROOT
BRANCH   1  23
HETATM   23  C2  UNL     1      -2.317  -1.125  -0.982  1.00  0.00     0.112 C 
HETATM   24  C1  UNL     1      -2.551  -2.619  -1.262  1.00  0.00     0.026 C 
ENDBRANCH   1  23
BRANCH   3  25
HETATM   25  C5  UNL     1      -2.587  -1.087   3.172  1.00  0.00     0.121 C 
HETATM   26 CL1  UNL     1      -3.517  -2.584   3.020  1.00  0.00    -0.130 Cl
ENDBRANCH   3  25
BRANCH  16  27
HETATM   27  O2  UNL     1       4.236  -0.927   1.564  1.00  0.00    -0.358 OA
HETATM   28  C17 UNL     1       5.458  -0.283   1.986  1.00  0.00     0.209 C 
ENDBRANCH  16  27
TORSDOF 3
