REMARK  7 active torsions:
REMARK  status: ('A' for Active; 'I' for Inactive)
REMARK    1  A    between atoms: O1_2  and  C2_3 
REMARK    2  A    between atoms: C2_3  and  C3_4 
REMARK    3  A    between atoms: C2_3  and  C16_22 
REMARK    4  A    between atoms: C4_5  and  C5_6 
REMARK    5  A    between atoms: C16_22  and  C17_23 
REMARK    6  A    between atoms: C17_23  and  C18_24 
REMARK    7  A    between atoms: C22_29  and  O2_30 
ROOT
HETATM    1  C5  UNL     1      -2.031   0.454  -0.308  1.00  0.00     0.068 A 
HETATM    2  N1  UNL     1      -1.266   1.545   0.023  1.00  0.00    -0.241 NA
HETATM    3  C6  UNL     1      -1.936   2.472   0.815  1.00  0.00     0.235 A 
HETATM    4  N2  UNL     1      -3.197   2.267   1.189  1.00  0.00    -0.224 NA
HETATM    5  C7  UNL     1      -3.958   1.205   0.874  1.00  0.00     0.138 A 
HETATM    6  C8  UNL     1      -3.322   0.236   0.070  1.00  0.00     0.021 A 
HETATM    7  C9  UNL     1      -3.992  -1.008  -0.362  1.00  0.00     0.086 A 
HETATM    8  C10 UNL     1      -5.387  -1.017   0.127  1.00  0.00    -0.024 A 
HETATM    9  C11 UNL     1      -6.159  -2.093  -0.212  1.00  0.00     0.053 A 
HETATM   10  C12 UNL     1      -7.459  -2.361   0.122  1.00  0.00     0.138 A 
HETATM   11  F1  UNL     1      -8.163  -3.444  -0.243  1.00  0.00    -0.204 F 
HETATM   12  C13 UNL     1      -8.018  -1.342   0.926  1.00  0.00     0.074 A 
HETATM   13 CL1  UNL     1      -9.698  -1.492   1.469  1.00  0.00    -0.081 Cl
HETATM   14  C14 UNL     1      -7.367  -0.178   1.358  1.00  0.00     0.057 A 
HETATM   15  C15 UNL     1      -6.030  -0.087   0.911  1.00  0.00     0.042 A 
HETATM   16  N3  UNL     1      -5.298   1.062   1.298  1.00  0.00    -0.340 N 
HETATM   17  H12 UNL     1      -5.727   1.805   1.885  1.00  0.00     0.167 HD
ENDROOT
BRANCH   1  18
HETATM   18  C4  UNL     1      -1.348  -0.504  -1.159  1.00  0.00     0.031 C 
HETATM   19  C3  UNL     1      -0.091  -0.505  -1.634  1.00  0.00     0.007 C 
BRANCH  19  20
HETATM   20  C2  UNL     1       1.072   0.426  -1.487  1.00  0.00     0.143 C 
BRANCH  20  21
HETATM   21  O1  UNL     1       1.176   1.405  -2.326  1.00  0.00    -0.387 OA
HETATM   22  C1  UNL     1       1.127   2.726  -2.234  1.00  0.00     0.202 C 
ENDBRANCH  20  21
BRANCH  20  23
HETATM   23  C16 UNL     1       2.375  -0.378  -1.361  1.00  0.00     0.038 C 
BRANCH  23  24
HETATM   24  C17 UNL     1       3.423   0.572  -0.844  1.00  0.00     0.041 C 
BRANCH  24  25
HETATM   25  C18 UNL     1       4.766  -0.096  -0.654  1.00  0.00     0.249 C 
HETATM   26  N4  UNL     1       5.699   0.878  -0.108  1.00  0.00     0.090 N 
HETATM   27  C19 UNL     1       5.352   1.140   1.308  1.00  0.00     0.270 C 
HETATM   28  H18 UNL     1       6.689   0.511  -0.146  1.00  0.00     0.316 HD
HETATM   29  C20 UNL     1       5.561  -0.074   2.131  1.00  0.00     0.033 C 
HETATM   30  C21 UNL     1       5.655  -1.329   1.271  1.00  0.00     0.035 C 
HETATM   31  C22 UNL     1       4.551  -1.295   0.236  1.00  0.00     0.151 C 
BRANCH  31  32
HETATM   32  O2  UNL     1       4.526  -2.486  -0.520  1.00  0.00    -0.393 OA
HETATM   33  H26 UNL     1       4.225  -3.243   0.037  1.00  0.00     0.210 HD
ENDBRANCH  31  32
ENDBRANCH  24  25
ENDBRANCH  23  24
ENDBRANCH  20  23
ENDBRANCH  19  20
ENDBRANCH   1  18
TORSDOF 7
