REMARK  5 active torsions:
REMARK  status: ('A' for Active; 'I' for Inactive)
REMARK    1  A    between atoms: C6_7  and  C7_8 
REMARK    2  A    between atoms: C7_8  and  O1_9 
REMARK    3  A    between atoms: O1_9  and  C8_10 
REMARK    4  A    between atoms: C13_17  and  N4_18 
REMARK    5  A    between atoms: N4_18  and  C14_19 
ROOT
HETATM    1  C8  UNL     1      -0.257  -0.127   1.540  1.00  0.00     0.181 A 
HETATM    2  C9  UNL     1       0.910  -0.021   0.928  1.00  0.00     0.081 A 
HETATM    3  C10 UNL     1       2.100  -0.588   1.547  1.00  0.00     0.041 A 
HETATM    4  C11 UNL     1       1.827  -1.191   2.751  1.00  0.00     0.074 A 
HETATM    5  N2  UNL     1       2.859  -1.760   3.428  1.00  0.00    -0.243 NA
HETATM    6  C12 UNL     1       4.093  -1.733   2.939  1.00  0.00     0.235 A 
HETATM    7  N3  UNL     1       4.295  -1.132   1.763  1.00  0.00    -0.224 NA
HETATM    8  C13 UNL     1       3.366  -0.552   1.028  1.00  0.00     0.141 A 
HETATM    9  C20 UNL     1       0.564  -1.338   3.471  1.00  0.00     0.238 A 
HETATM   10  O2  UNL     1      -0.487  -0.744   2.754  1.00  0.00    -0.324 OA
ENDROOT
BRANCH   1  11
HETATM   11  O1  UNL     1      -1.408   0.418   0.948  1.00  0.00    -0.328 OA
BRANCH  11  12
HETATM   12  C7  UNL     1      -2.225  -0.345   0.080  1.00  0.00     0.213 C 
BRANCH  12  13
HETATM   13  C6  UNL     1      -3.385   0.495  -0.404  1.00  0.00     0.248 C 
HETATM   14  C2  UNL     1      -4.307  -0.280  -1.314  1.00  0.00     0.017 C 
HETATM   15  C1  UNL     1      -5.087  -1.257  -0.461  1.00  0.00     0.012 C 
HETATM   16  C3  UNL     1      -5.291   0.687  -1.914  1.00  0.00     0.008 C 
HETATM   17  C4  UNL     1      -5.547   1.926  -1.158  1.00  0.00     0.030 C 
HETATM   18  C5  UNL     1      -5.059   1.999   0.228  1.00  0.00     0.270 C 
HETATM   19  N1  UNL     1      -4.209   0.962   0.686  1.00  0.00     0.090 N 
HETATM   20  H11 UNL     1      -4.737   0.248   1.186  1.00  0.00     0.316 HD
ENDBRANCH  12  13
ENDBRANCH  11  12
ENDBRANCH   1  11
BRANCH   8  21
HETATM   21  N4  UNL     1       3.558   0.086  -0.212  1.00  0.00    -0.340 N 
HETATM   22  H17 UNL     1       2.784   0.517  -0.727  1.00  0.00     0.167 HD
BRANCH  21  23
HETATM   23  C14 UNL     1       4.744   0.262  -0.957  1.00  0.00     0.035 A 
HETATM   24  C15 UNL     1       4.847   0.912  -2.189  1.00  0.00     0.032 A 
HETATM   25  C16 UNL     1       6.005   1.065  -2.882  1.00  0.00     0.046 A 
HETATM   26  C17 UNL     1       7.191   0.570  -2.396  1.00  0.00     0.138 A 
HETATM   27  F1  UNL     1       8.286   0.773  -3.161  1.00  0.00    -0.204 F 
HETATM   28  C18 UNL     1       7.161  -0.084  -1.186  1.00  0.00     0.074 A 
HETATM   29 CL1  UNL     1       8.683  -0.696  -0.605  1.00  0.00    -0.081 Cl
HETATM   30  C19 UNL     1       5.961  -0.212  -0.522  1.00  0.00     0.056 A 
ENDBRANCH  21  23
ENDBRANCH   8  21
TORSDOF 5
