REMARK  2 active torsions:
REMARK  status: ('A' for Active; 'I' for Inactive)
REMARK    1  A    between atoms: C15_19  and  O1_20 
REMARK    2  A    between atoms: O1_20  and  C16_21 
ROOT
HETATM    1  C16 UNL     1       4.062  -0.853  -0.320  1.00  0.00     0.299 C 
HETATM    2  C17 UNL     1       5.022  -1.265  -1.331  1.00  0.00     0.085 C 
HETATM    3  N3  UNL     1       5.791  -1.592  -2.116  1.00  0.00    -0.195 NA
ENDROOT
BRANCH   1   4
HETATM    4  O1  UNL     1       2.826  -0.653  -0.982  1.00  0.00    -0.337 OA
BRANCH   4   5
HETATM    5  C15 UNL     1       1.679  -0.252  -0.316  1.00  0.00     0.074 C 
HETATM    6  C2  UNL     1       1.333   1.158  -0.620  1.00  0.00    -0.028 C 
HETATM    7  C1  UNL     1       2.534   1.993  -0.845  1.00  0.00     0.051 C 
HETATM    8  C3  UNL     1       0.159   1.814  -0.728  1.00  0.00     0.023 C 
HETATM    9  C4  UNL     1      -1.239   1.337  -0.577  1.00  0.00    -0.006 A 
HETATM   10  C5  UNL     1      -1.938   2.228  -1.364  1.00  0.00     0.057 A 
HETATM   11  C9  UNL     1      -1.767   0.275   0.132  1.00  0.00     0.044 A 
HETATM   12  C6  UNL     1      -3.303   2.065  -1.470  1.00  0.00     0.139 A 
HETATM   13  F1  UNL     1      -3.953   2.948  -2.242  1.00  0.00    -0.204 F 
HETATM   14  C7  UNL     1      -3.902   1.035  -0.798  1.00  0.00     0.074 A 
HETATM   15 CL1  UNL     1      -5.627   0.878  -0.970  1.00  0.00    -0.081 Cl
HETATM   16  C8  UNL     1      -3.133   0.185  -0.031  1.00  0.00     0.057 A 
HETATM   17  N1  UNL     1      -1.367  -0.779   1.004  1.00  0.00    -0.350 N 
HETATM   18  C10 UNL     1      -2.596  -1.280   1.555  1.00  0.00     0.275 C 
HETATM   19  C13 UNL     1      -0.080  -1.340   1.375  1.00  0.00     0.137 C 
HETATM   20  N2  UNL     1      -2.039  -2.025   2.745  1.00  0.00    -0.268 NA
HETATM   21  C11 UNL     1      -1.218  -2.975   2.567  1.00  0.00     0.079 C 
HETATM   22  C12 UNL     1      -0.221  -2.775   1.755  1.00  0.00     0.036 C 
HETATM   23  C14 UNL     1       1.029  -1.085   0.477  1.00  0.00     0.039 C 
ENDBRANCH   4   5
ENDBRANCH   1   4
TORSDOF 2
