REMARK  1 active torsions:
REMARK  status: ('A' for Active; 'I' for Inactive)
REMARK    1  A    between atoms: O1_2  and  C2_3 
ROOT
HETATM    1  C2  UNL     1       0.623   1.700   0.151  1.00  0.00     0.081 C 
HETATM    2  C3  UNL     1      -0.538   2.288   0.294  1.00  0.00     0.066 C 
HETATM    3  C4  UNL     1      -1.826   1.785  -0.139  1.00  0.00     0.070 C 
HETATM    4  N1  UNL     1      -2.909   2.109  -0.753  1.00  0.00    -0.242 NA
HETATM    5  C5  UNL     1      -3.749   1.084  -1.349  1.00  0.00     0.230 C 
HETATM    6  N2  UNL     1      -3.459  -0.204  -1.296  1.00  0.00    -0.242 NA
HETATM    7  C6  UNL     1      -2.070  -0.424  -0.966  1.00  0.00     0.386 C 
HETATM    8  C7  UNL     1      -1.890   0.388   0.288  1.00  0.00     0.021 C 
HETATM    9  C8  UNL     1      -1.808  -0.030   1.513  1.00  0.00    -0.009 C 
HETATM   10  C9  UNL     1      -2.215  -1.417   1.715  1.00  0.00     0.098 C 
HETATM   11  C10 UNL     1      -2.055  -2.313   0.543  1.00  0.00     0.413 C 
HETATM   12  F1  UNL     1      -3.308  -2.890   0.290  1.00  0.00    -0.216 F 
HETATM   13  N3  UNL     1      -1.636  -1.722  -0.677  1.00  0.00     0.179 N 
HETATM   14  C11 UNL     1      -0.162  -1.675  -0.808  1.00  0.00     0.550 C 
HETATM   15  N4  UNL     1       0.462  -0.758   0.079  1.00  0.00     0.127 N 
HETATM   16  C12 UNL     1       1.370  -1.451   0.950  1.00  0.00     0.275 C 
HETATM   17  C13 UNL     1       2.483  -2.038   0.117  1.00  0.00     0.030 C 
HETATM   18  C14 UNL     1       3.101  -0.934  -0.694  1.00  0.00     0.004 C 
HETATM   19  C15 UNL     1       2.556   0.418  -0.390  1.00  0.00     0.043 C 
HETATM   20  C16 UNL     1       1.016   0.430  -0.446  1.00  0.00     0.281 C 
ENDROOT
BRANCH   1  21
HETATM   21  O1  UNL     1       1.527   2.610   0.741  1.00  0.00    -0.358 OA
HETATM   22  C1  UNL     1       1.749   3.819   0.029  1.00  0.00     0.209 C 
ENDBRANCH   1  21
TORSDOF 1
