REMARK  2 active torsions:
REMARK  status: ('A' for Active; 'I' for Inactive)
REMARK    1  A    between atoms: N3_14  and  C12_15 
REMARK    2  A    between atoms: C12_15  and  C13_16 
ROOT
HETATM    1  C1  UNL     1      -4.091  -1.878  -0.843  1.00  0.00     0.066 C 
HETATM    2  C2  UNL     1      -3.547  -0.561  -0.405  1.00  0.00     0.014 C 
HETATM    3  N1  UNL     1      -4.132   0.628  -0.392  1.00  0.00    -0.251 NA
HETATM    4  C3  UNL     1      -3.499   1.801   0.048  1.00  0.00     0.232 C 
HETATM    5  N2  UNL     1      -2.769   1.948   1.092  1.00  0.00    -0.253 NA
HETATM    6  C4  UNL     1      -2.165   3.172   1.453  1.00  0.00     0.130 C 
HETATM    7  C5  UNL     1      -0.909   3.337   1.145  1.00  0.00    -0.009 C 
HETATM    8  C6  UNL     1      -0.310   2.377   0.499  1.00  0.00     0.022 C 
HETATM    9  C7  UNL     1      -0.666   0.988   0.543  1.00  0.00     0.247 C 
HETATM   10  C8  UNL     1      -1.360   0.401  -0.631  1.00  0.00     0.050 C 
HETATM   11  C9  UNL     1      -2.228  -0.608   0.087  1.00  0.00     0.037 C 
HETATM   12  C10 UNL     1      -1.319  -1.758   0.157  1.00  0.00     0.041 C 
HETATM   13  C11 UNL     1       0.119  -1.288   0.232  1.00  0.00     0.274 C 
HETATM   14  N3  UNL     1       0.464   0.017   0.597  1.00  0.00     0.100 N 
ENDROOT
BRANCH  14  15
HETATM   15  C12 UNL     1       1.514   0.619  -0.146  1.00  0.00     0.311 C 
BRANCH  15  16
HETATM   16  C13 UNL     1       2.821  -0.026  -0.094  1.00  0.00    -0.028 A 
HETATM   17  C14 UNL     1       3.361  -0.975  -0.937  1.00  0.00     0.012 A 
HETATM   18  C15 UNL     1       4.620  -1.511  -0.764  1.00  0.00     0.044 A 
HETATM   19  C16 UNL     1       5.415  -1.110   0.287  1.00  0.00     0.138 A 
HETATM   20  F1  UNL     1       6.647  -1.630   0.462  1.00  0.00    -0.204 F 
HETATM   21  C17 UNL     1       4.950  -0.165   1.177  1.00  0.00     0.073 A 
HETATM   22 CL1  UNL     1       5.907   0.380   2.522  1.00  0.00    -0.081 Cl
HETATM   23  C18 UNL     1       3.683   0.334   0.952  1.00  0.00     0.035 A 
ENDBRANCH  15  16
ENDBRANCH  14  15
TORSDOF 2
