REMARK  5 active torsions:
REMARK  status: ('A' for Active; 'I' for Inactive)
REMARK    1  A    between atoms: C3_3  and  O1_4 
REMARK    2  A    between atoms: C4_5  and  C5_6 
REMARK    3  A    between atoms: C6_7  and  C7_8 
REMARK    4  A    between atoms: C7_8  and  C8_9 
REMARK    5  A    between atoms: C12_13  and  O2_14 
ROOT
HETATM    1  C5  UNL     1       1.507   0.227  -1.586  1.00  0.00     0.011 C 
HETATM    2  C6  UNL     1       0.212   0.290  -1.528  1.00  0.00    -0.022 C 
ENDROOT
BRANCH   2   3
HETATM    3  C7  UNL     1      -0.771   0.637  -0.501  1.00  0.00     0.055 C 
BRANCH   3   4
HETATM    4  C8  UNL     1      -1.658  -0.567  -0.277  1.00  0.00    -0.009 C 
HETATM    5  C9  UNL     1      -2.979  -0.710  -0.421  1.00  0.00    -0.020 C 
HETATM    6  C10 UNL     1      -3.777  -1.904  -0.187  1.00  0.00     0.077 C 
HETATM    7  S1  UNL     1      -3.913   0.725  -0.970  1.00  0.00    -0.108 SA
HETATM    8  C11 UNL     1      -4.976  -1.717   0.638  1.00  0.00     0.042 C 
HETATM    9  C12 UNL     1      -5.575  -0.787   1.357  1.00  0.00     0.175 C 
HETATM   10  O3  UNL     1      -5.032   0.486   1.482  1.00  0.00    -0.320 OA
HETATM   11  C13 UNL     1      -4.643   1.396   0.525  1.00  0.00     0.257 C 
BRANCH   9  12
HETATM   12  O2  UNL     1      -6.779  -1.198   1.965  1.00  0.00    -0.341 OA
HETATM   13  H13 UNL     1      -7.600  -0.637   1.974  1.00  0.00     0.220 HD
ENDBRANCH   9  12
ENDBRANCH   3   4
ENDBRANCH   2   3
BRANCH   1  14
HETATM   14  C4  UNL     1       2.458   0.516  -0.522  1.00  0.00     0.010 C 
HETATM   15  C3  UNL     1       3.907   0.384  -0.792  1.00  0.00     0.105 C 
HETATM   16  C2  UNL     1       4.967   0.272  -0.009  1.00  0.00     0.076 C 
HETATM   17  C1  UNL     1       6.256   0.161  -0.772  1.00  0.00     0.079 C 
HETATM   18  O4  UNL     1       4.956   0.252   1.379  1.00  0.00    -0.349 OA
HETATM   19  C16 UNL     1       3.990   0.871   2.209  1.00  0.00     0.203 C 
HETATM   20  C15 UNL     1       2.638   0.429   1.774  1.00  0.00     0.013 C 
HETATM   21  C14 UNL     1       2.089   0.895   0.684  1.00  0.00    -0.014 C 
BRANCH  15  22
HETATM   22  O1  UNL     1       4.185   0.378  -2.174  1.00  0.00    -0.357 OA
HETATM   23  H4  UNL     1       3.986  -0.505  -2.636  1.00  0.00     0.217 HD
ENDBRANCH  15  22
ENDBRANCH   1  14
TORSDOF 5
