REMARK  5 active torsions:
REMARK  status: ('A' for Active; 'I' for Inactive)
REMARK    1  A    between atoms: C1_2  and  C2_3 
REMARK    2  A    between atoms: C3_4  and  C4_5 
REMARK    3  A    between atoms: C4_5  and  C5_6 
REMARK    4  A    between atoms: C9_11  and  N3_12 
REMARK    5  A    between atoms: N3_12  and  C10_13 
ROOT
HETATM    1  C5  UNL     1      -0.096  -0.756   0.105  1.00  0.00     0.246 C 
HETATM    2  N2  UNL     1      -0.481  -2.116  -0.100  1.00  0.00     0.090 N 
HETATM    3  C6  UNL     1       0.290  -2.782  -1.130  1.00  0.00     0.270 C 
HETATM    4  C7  UNL     1       1.758  -2.860  -0.770  1.00  0.00     0.032 C 
HETATM    5  C8  UNL     1       2.049  -1.818   0.301  1.00  0.00     0.029 C 
HETATM    6  C9  UNL     1       1.389  -0.523  -0.195  1.00  0.00     0.115 C 
HETATM    7  H7  UNL     1      -0.388  -2.709   0.760  1.00  0.00     0.316 HD
ENDROOT
BRANCH   1   8
HETATM    8  C4  UNL     1      -0.954   0.256  -0.620  1.00  0.00     0.072 C 
BRANCH   8   9
HETATM    9  C3  UNL     1      -2.362   0.123  -0.151  1.00  0.00    -0.064 C 
HETATM   10  C2  UNL     1      -3.461   1.011  -0.702  1.00  0.00     0.104 C 
HETATM   11  C19 UNL     1      -4.255   1.178   0.546  1.00  0.00     0.055 A 
HETATM   12  C17 UNL     1      -4.365  -0.294   0.724  1.00  0.00     0.181 A 
HETATM   13  N5  UNL     1      -4.898   1.727   1.547  1.00  0.00    -0.248 NA
HETATM   14  C16 UNL     1      -2.943  -0.702   0.755  1.00  0.00     0.010 C 
HETATM   15  N4  UNL     1      -5.108  -0.498   1.923  1.00  0.00    -0.268 NA
HETATM   16  C18 UNL     1      -5.409   0.685   2.380  1.00  0.00     0.228 A 
BRANCH  10  17
HETATM   17  C1  UNL     1      -4.274   0.336  -1.697  1.00  0.00     0.095 C 
HETATM   18  N1  UNL     1      -4.960   1.163  -2.429  1.00  0.00    -0.315 NA
HETATM   19  H1  UNL     1      -4.830   2.168  -2.199  1.00  0.00     0.185 HD
ENDBRANCH  10  17
ENDBRANCH   8   9
ENDBRANCH   1   8
BRANCH   6  20
HETATM   20  N3  UNL     1       1.901   0.599   0.542  1.00  0.00    -0.383 N 
HETATM   21  H15 UNL     1       1.228   1.071   1.218  1.00  0.00     0.160 HD
BRANCH  20  22
HETATM   22  C10 UNL     1       3.190   1.208   0.523  1.00  0.00     0.030 A 
HETATM   23  C11 UNL     1       3.555   2.299   1.319  1.00  0.00     0.032 A 
HETATM   24  C12 UNL     1       4.839   2.779   1.180  1.00  0.00     0.046 A 
HETATM   25  C13 UNL     1       5.768   2.258   0.317  1.00  0.00     0.138 A 
HETATM   26  F1  UNL     1       7.009   2.804   0.254  1.00  0.00    -0.204 F 
HETATM   27  C14 UNL     1       5.390   1.178  -0.463  1.00  0.00     0.074 A 
HETATM   28 CL1  UNL     1       6.629   0.563  -1.543  1.00  0.00    -0.081 Cl
HETATM   29  C15 UNL     1       4.119   0.668  -0.355  1.00  0.00     0.056 A 
ENDBRANCH  20  22
ENDBRANCH   6  20
TORSDOF 5
