REMARK  3 active torsions:
REMARK  status: ('A' for Active; 'I' for Inactive)
REMARK    1  A    between atoms: C6_8  and  N3_9 
REMARK    2  A    between atoms: N3_9  and  C7_10 
REMARK    3  A    between atoms: C15_20  and  N4_21 
ROOT
HETATM    1  C1  UNL     1      -2.801   3.971   1.055  1.00  0.00     0.046 C 
HETATM    2  C2  UNL     1      -1.578   3.358   0.486  1.00  0.00    -0.058 C 
HETATM    3  C3  UNL     1      -0.497   3.164   1.298  1.00  0.00     0.037 C 
HETATM    4  C4  UNL     1       0.755   2.538   0.802  1.00  0.00     0.072 A 
HETATM    5  N1  UNL     1       1.764   3.382   0.600  1.00  0.00    -0.241 NA
HETATM    6  C5  UNL     1       2.964   2.988   0.138  1.00  0.00     0.236 A 
HETATM    7  N2  UNL     1       3.193   1.700  -0.141  1.00  0.00    -0.224 NA
HETATM    8  C6  UNL     1       2.183   0.838   0.059  1.00  0.00     0.142 A 
HETATM    9  C13 UNL     1       0.927   1.165   0.529  1.00  0.00     0.041 A 
HETATM   10  C14 UNL     1       0.015  -0.038   0.650  1.00  0.00     0.045 C 
HETATM   11  C15 UNL     1      -1.291  -0.092   0.154  1.00  0.00     0.032 C 
HETATM   12  C21 UNL     1      -1.640   1.064  -0.514  1.00  0.00     0.224 C 
HETATM   13  O1  UNL     1      -2.041   1.928  -1.449  1.00  0.00    -0.381 OA
HETATM   14  C22 UNL     1      -1.281   3.048  -0.880  1.00  0.00     0.202 C 
ENDROOT
BRANCH   8  15
HETATM   15  N3  UNL     1       2.529  -0.496  -0.277  1.00  0.00    -0.340 N 
HETATM   16  H6  UNL     1       1.793  -1.243  -0.220  1.00  0.00     0.167 HD
BRANCH  15  17
HETATM   17  C7  UNL     1       3.786  -0.980  -0.700  1.00  0.00     0.035 A 
HETATM   18  C8  UNL     1       5.032  -0.420  -0.538  1.00  0.00     0.032 A 
HETATM   19  C9  UNL     1       6.222  -0.920  -0.989  1.00  0.00     0.046 A 
HETATM   20  C10 UNL     1       6.190  -2.099  -1.673  1.00  0.00     0.138 A 
HETATM   21  F1  UNL     1       7.335  -2.644  -2.146  1.00  0.00    -0.204 F 
HETATM   22  C11 UNL     1       4.998  -2.746  -1.892  1.00  0.00     0.074 A 
HETATM   23 CL1  UNL     1       5.007  -4.255  -2.774  1.00  0.00    -0.081 Cl
HETATM   24  C12 UNL     1       3.855  -2.186  -1.413  1.00  0.00     0.056 A 
ENDBRANCH  15  17
ENDBRANCH   8  15
BRANCH  11  25
HETATM   25  N4  UNL     1      -2.055  -1.238   0.318  1.00  0.00    -0.382 N 
HETATM   26  C16 UNL     1      -2.177  -2.039   1.508  1.00  0.00     0.123 C 
HETATM   27  C17 UNL     1      -3.653  -2.126   1.868  1.00  0.00     0.020 C 
HETATM   28  C18 UNL     1      -4.371  -2.813   0.730  1.00  0.00     0.003 C 
HETATM   29  C19 UNL     1      -3.589  -2.879  -0.539  1.00  0.00     0.020 C 
HETATM   30  C20 UNL     1      -2.803  -1.647  -0.857  1.00  0.00     0.123 C 
ENDBRANCH  11  25
TORSDOF 3
