REMARK  6 active torsions:
REMARK  status: ('A' for Active; 'I' for Inactive)
REMARK    1  A    between atoms: O1_2  and  C2_3 
REMARK    2  A    between atoms: C6_9  and  N3_10 
REMARK    3  A    between atoms: N3_10  and  C7_11 
REMARK    4  A    between atoms: C15_21  and  C16_22 
REMARK    5  A    between atoms: C16_22  and  C17_23 
REMARK    6  A    between atoms: C21_28  and  O2_29 
ROOT
HETATM    1  C2  UNL     1      -1.163  -2.356  -1.053  1.00  0.00     0.076 A 
HETATM    2  C3  UNL     1      -0.117  -3.202  -0.727  1.00  0.00     0.070 A 
HETATM    3  C4  UNL     1       1.109  -2.690  -0.367  1.00  0.00     0.074 A 
HETATM    4  N1  UNL     1       2.081  -3.594  -0.062  1.00  0.00    -0.241 NA
HETATM    5  C5  UNL     1       3.299  -3.167   0.297  1.00  0.00     0.236 A 
HETATM    6  N2  UNL     1       3.524  -1.849   0.345  1.00  0.00    -0.224 NA
HETATM    7  C6  UNL     1       2.631  -0.895   0.064  1.00  0.00     0.142 A 
HETATM    8  C13 UNL     1       1.387  -1.346  -0.303  1.00  0.00     0.039 A 
HETATM    9  C14 UNL     1       0.328  -0.561  -0.632  1.00  0.00     0.027 A 
HETATM   10  C15 UNL     1      -0.932  -0.996  -1.004  1.00  0.00    -0.022 A 
ENDROOT
BRANCH   7  11
HETATM   11  N3  UNL     1       2.864   0.499   0.114  1.00  0.00    -0.340 N 
HETATM   12  H6  UNL     1       2.121   1.190  -0.096  1.00  0.00     0.167 HD
BRANCH  11  13
HETATM   13  C7  UNL     1       4.054   1.196   0.434  1.00  0.00     0.035 A 
HETATM   14  C8  UNL     1       4.169   2.566   0.593  1.00  0.00     0.032 A 
HETATM   15  C9  UNL     1       5.324   3.227   0.896  1.00  0.00     0.046 A 
HETATM   16  C10 UNL     1       6.494   2.523   1.068  1.00  0.00     0.138 A 
HETATM   17  F1  UNL     1       7.593   3.231   1.364  1.00  0.00    -0.204 F 
HETATM   18  C11 UNL     1       6.423   1.161   0.918  1.00  0.00     0.074 A 
HETATM   19 CL1  UNL     1       7.954   0.316   1.148  1.00  0.00    -0.081 Cl
HETATM   20  C12 UNL     1       5.244   0.537   0.613  1.00  0.00     0.056 A 
ENDBRANCH  11  13
ENDBRANCH   7  11
BRANCH  10  21
HETATM   21  C16 UNL     1      -2.030  -0.114  -1.346  1.00  0.00     0.068 C 
BRANCH  21  22
HETATM   22  C17 UNL     1      -3.138   0.159  -0.459  1.00  0.00     0.109 C 
HETATM   23  N4  UNL     1      -4.061   1.071  -1.092  1.00  0.00    -0.414 N 
HETATM   24  C18 UNL     1      -4.343   2.279  -0.444  1.00  0.00     0.114 C 
HETATM   25  H14 UNL     1      -3.985   1.095  -2.116  1.00  0.00     0.153 HD
HETATM   26  C19 UNL     1      -4.462   2.283   1.024  1.00  0.00     0.022 C 
HETATM   27  C20 UNL     1      -3.857   1.080   1.656  1.00  0.00     0.035 C 
HETATM   28  C21 UNL     1      -2.610   0.737   0.853  1.00  0.00     0.140 C 
BRANCH  28  29
HETATM   29  O2  UNL     1      -1.808   1.833   0.654  1.00  0.00    -0.394 OA
HETATM   30  H22 UNL     1      -2.000   2.611   1.223  1.00  0.00     0.210 HD
ENDBRANCH  28  29
ENDBRANCH  21  22
ENDBRANCH  10  21
BRANCH   1  31
HETATM   31  O1  UNL     1      -2.384  -2.845  -1.412  1.00  0.00    -0.355 OA
HETATM   32  C1  UNL     1      -2.777  -4.183  -1.510  1.00  0.00     0.210 C 
ENDBRANCH   1  31
TORSDOF 6
