REMARK  5 active torsions:
REMARK  status: ('A' for Active; 'I' for Inactive)
REMARK    1  A    between atoms: C7_9  and  N3_10 
REMARK    2  A    between atoms: N3_10  and  C8_11 
REMARK    3  A    between atoms: C9_12  and  C10_14 
REMARK    4  A    between atoms: C12_17  and  O1_18 
REMARK    5  A    between atoms: O1_18  and  C13_19 
ROOT
HETATM    1  C1  UNL     1      -2.210  -0.084   0.836  1.00  0.00     0.052 C 
HETATM    2  C2  UNL     1      -1.949  -0.348  -0.574  1.00  0.00    -0.013 A 
HETATM    3  C3  UNL     1      -0.917  -0.178  -1.376  1.00  0.00     0.032 A 
HETATM    4  C4  UNL     1      -1.231  -0.612  -2.641  1.00  0.00     0.074 A 
HETATM    5  N1  UNL     1      -0.264  -0.494  -3.553  1.00  0.00    -0.241 NA
HETATM    6  C5  UNL     1       0.943   0.001  -3.311  1.00  0.00     0.234 A 
HETATM    7  N2  UNL     1       1.208   0.411  -2.070  1.00  0.00    -0.240 NA
HETATM    8  C6  UNL     1       0.318   0.340  -1.086  1.00  0.00     0.086 A 
HETATM    9  C7  UNL     1       0.642   0.753   0.119  1.00  0.00     0.120 C 
HETATM   10  C11 UNL     1      -2.630  -1.105  -2.586  1.00  0.00     0.070 A 
HETATM   11  C12 UNL     1      -3.056  -0.937  -1.313  1.00  0.00     0.087 A 
ENDROOT
BRANCH   9  12
HETATM   12  N3  UNL     1       1.990   1.274   0.254  1.00  0.00    -0.372 N 
HETATM   13  H6  UNL     1       2.398   2.231   0.015  1.00  0.00     0.164 HD
BRANCH  12  14
HETATM   14  C8  UNL     1       3.231   0.713   0.730  1.00  0.00     0.109 C 
HETATM   15  C9  UNL     1       3.531   0.948   1.994  1.00  0.00     0.055 C 
HETATM   16 CL1  UNL     1       2.553   1.871   3.116  1.00  0.00    -0.085 Cl
BRANCH  15  17
HETATM   17  C10 UNL     1       4.741   0.471   2.678  1.00  0.00     0.275 C 
HETATM   18  F1  UNL     1       5.495   1.512   3.155  1.00  0.00    -0.250 F 
ENDBRANCH  15  17
ENDBRANCH  12  14
ENDBRANCH   9  12
BRANCH  11  19
HETATM   19  O1  UNL     1      -4.325  -1.403  -1.337  1.00  0.00    -0.285 OA
BRANCH  19  20
HETATM   20  C13 UNL     1      -5.290  -1.535  -0.415  1.00  0.00     0.403 C 
HETATM   21  O2  UNL     1      -5.078  -1.185   0.747  1.00  0.00    -0.276 OA
ENDBRANCH  19  20
ENDBRANCH  11  19
TORSDOF 5
