REMARK  4 active torsions:
REMARK  status: ('A' for Active; 'I' for Inactive)
REMARK    1  A    between atoms: O1_2  and  C2_3 
REMARK    2  A    between atoms: C6_9  and  C7_10 
REMARK    3  A    between atoms: C15_19  and  O2_20 
REMARK    4  A    between atoms: O2_20  and  C16_21 
ROOT
HETATM    1  C2  UNL     1      -2.712  -0.641   0.314  1.00  0.00     0.103 A 
HETATM    2  C3  UNL     1      -2.130  -1.658   1.066  1.00  0.00     0.072 A 
HETATM    3  C4  UNL     1      -0.761  -1.732   1.225  1.00  0.00     0.073 A 
HETATM    4  N1  UNL     1      -0.102  -2.672   1.919  1.00  0.00    -0.241 NA
HETATM    5  C5  UNL     1       1.252  -2.646   1.997  1.00  0.00     0.234 A 
HETATM    6  N2  UNL     1       1.944  -1.673   1.378  1.00  0.00    -0.240 NA
HETATM    7  C6  UNL     1       1.331  -0.687   0.658  1.00  0.00     0.081 A 
HETATM    8  C13 UNL     1      -0.044  -0.739   0.594  1.00  0.00     0.025 A 
HETATM    9  C14 UNL     1      -0.592   0.279  -0.156  1.00  0.00     0.055 A 
HETATM   10  C15 UNL     1      -1.963   0.335  -0.304  1.00  0.00     0.104 A 
ENDROOT
BRANCH   7  11
HETATM   11  C7  UNL     1       2.282   0.247   0.083  1.00  0.00    -0.006 A 
HETATM   12  C8  UNL     1       3.345  -0.324  -0.628  1.00  0.00     0.017 A 
HETATM   13  C9  UNL     1       4.364   0.387  -1.233  1.00  0.00     0.043 A 
HETATM   14  C10 UNL     1       4.325   1.762  -1.126  1.00  0.00     0.116 A 
HETATM   15  F1  UNL     1       5.295   2.518  -1.699  1.00  0.00    -0.206 F 
HETATM   16  C11 UNL     1       3.300   2.374  -0.437  1.00  0.00     0.043 A 
HETATM   17  C12 UNL     1       2.308   1.623   0.150  1.00  0.00     0.017 A 
ENDBRANCH   7  11
BRANCH  10  18
HETATM   18  O2  UNL     1      -2.616   1.295  -1.022  1.00  0.00    -0.334 OA
BRANCH  18  19
HETATM   19  C16 UNL     1      -1.964   2.353  -1.704  1.00  0.00     0.290 C 
HETATM   20 CL1  UNL     1      -1.017   3.391  -0.634  1.00  0.00    -0.102 Cl
ENDBRANCH  18  19
ENDBRANCH  10  18
BRANCH   1  21
HETATM   21  O1  UNL     1      -4.089  -0.623   0.193  1.00  0.00    -0.353 OA
HETATM   22  C1  UNL     1      -4.896  -1.608   0.812  1.00  0.00     0.210 C 
ENDBRANCH   1  21
TORSDOF 4
