REMARK  9 active torsions:
REMARK  status: ('A' for Active; 'I' for Inactive)
REMARK    1  A    between atoms: O1_2  and  C2_3 
REMARK    2  A    between atoms: C2_3  and  C3_4 
REMARK    3  A    between atoms: C3_4  and  C4_5 
REMARK    4  A    between atoms: C6_9  and  N3_10 
REMARK    5  A    between atoms: N3_10  and  C7_11 
REMARK    6  A    between atoms: C13_19  and  C14_20 
REMARK    7  A    between atoms: C14_20  and  O2_21 
REMARK    8  A    between atoms: O2_21  and  C15_22 
REMARK    9  A    between atoms: C15_22  and  C16_23 
ROOT
HETATM    1  C4  UNL     1       1.551   2.465  -0.172  1.00  0.00     0.072 A 
HETATM    2  N1  UNL     1       2.834   2.689  -0.500  1.00  0.00    -0.241 NA
HETATM    3  C5  UNL     1       3.720   1.683  -0.557  1.00  0.00     0.235 A 
HETATM    4  N2  UNL     1       3.293   0.450  -0.278  1.00  0.00    -0.224 NA
HETATM    5  C6  UNL     1       2.048   0.137   0.054  1.00  0.00     0.140 A 
HETATM    6  C13 UNL     1       1.151   1.181   0.108  1.00  0.00     0.040 A 
ENDROOT
BRANCH   5   7
HETATM    7  N3  UNL     1       1.555  -1.149   0.351  1.00  0.00    -0.340 N 
HETATM    8  H7  UNL     1       0.554  -1.305   0.587  1.00  0.00     0.167 HD
BRANCH   7   9
HETATM    9  C7  UNL     1       2.237  -2.392   0.387  1.00  0.00     0.035 A 
HETATM   10  C8  UNL     1       1.652  -3.629   0.681  1.00  0.00     0.032 A 
HETATM   11  C9  UNL     1       2.331  -4.803   0.709  1.00  0.00     0.046 A 
HETATM   12  C10 UNL     1       3.678  -4.843   0.440  1.00  0.00     0.138 A 
HETATM   13  F1  UNL     1       4.247  -6.067   0.497  1.00  0.00    -0.204 F 
HETATM   14  C11 UNL     1       4.316  -3.661   0.144  1.00  0.00     0.074 A 
HETATM   15 CL1  UNL     1       6.025  -3.781  -0.187  1.00  0.00    -0.081 Cl
HETATM   16  C12 UNL     1       3.586  -2.494   0.127  1.00  0.00     0.056 A 
ENDBRANCH   7   9
ENDBRANCH   5   7
BRANCH   6  17
HETATM   17  C14 UNL     1      -0.302   1.125   0.458  1.00  0.00     0.212 C 
BRANCH  17  18
HETATM   18  O2  UNL     1      -1.072   1.241  -0.691  1.00  0.00    -0.384 OA
BRANCH  18  19
HETATM   19  C15 UNL     1      -2.432   1.218  -0.447  1.00  0.00     0.203 C 
BRANCH  19  20
HETATM   20  C16 UNL     1      -2.943  -0.017   0.198  1.00  0.00     0.244 C 
HETATM   21  C17 UNL     1      -2.772  -1.245  -0.644  1.00  0.00     0.038 C 
HETATM   22  C18 UNL     1      -3.349  -2.459  -0.009  1.00  0.00     0.004 C 
HETATM   23  C19 UNL     1      -4.585  -2.261   0.801  1.00  0.00     0.030 C 
HETATM   24  C20 UNL     1      -4.757  -0.870   1.352  1.00  0.00     0.270 C 
HETATM   25  N4  UNL     1      -4.402   0.139   0.368  1.00  0.00     0.090 N 
HETATM   26  H24 UNL     1      -4.641   1.070   0.759  1.00  0.00     0.316 HD
ENDBRANCH  19  20
ENDBRANCH  18  19
ENDBRANCH  17  18
ENDBRANCH   6  17
BRANCH   1  27
HETATM   27  C3  UNL     1       0.684   3.620  -0.149  1.00  0.00     0.056 C 
BRANCH  27  28
HETATM   28  C2  UNL     1       1.141   4.801  -0.433  1.00  0.00     0.136 C 
BRANCH  28  29
HETATM   29  O1  UNL     1       2.022   5.797  -0.787  1.00  0.00    -0.368 OA
HETATM   30  C1  UNL     1       2.731   5.761  -2.012  1.00  0.00     0.208 C 
ENDBRANCH  28  29
ENDBRANCH  27  28
ENDBRANCH   1  27
TORSDOF 9
