REMARK  6 active torsions:
REMARK  status: ('A' for Active; 'I' for Inactive)
REMARK    1  A    between atoms: C1_2  and  C2_3 
REMARK    2  A    between atoms: C1_2  and  C9_12 
REMARK    3  A    between atoms: C2_3  and  C3_4 
REMARK    4  A    between atoms: C6_7  and  O2_8 
REMARK    5  A    between atoms: C7_9  and  O3_10 
REMARK    6  A    between atoms: C12_15  and  O4_16 
ROOT
HETATM    1  O1  UNL     1       0.613   0.540  -1.520  1.00  0.00    -0.290 OA
HETATM    2  C1  UNL     1       0.046   0.165  -0.460  1.00  0.00     0.186 C 
ENDROOT
BRANCH   2   3
HETATM    3  C2  UNL     1       0.936  -0.316   0.620  1.00  0.00     0.124 C 
BRANCH   3   4
HETATM    4  C3  UNL     1       2.353  -0.282   0.281  1.00  0.00    -0.048 A 
HETATM    5  C4  UNL     1       3.083   0.869   0.566  1.00  0.00     0.010 A 
HETATM    6  C5  UNL     1       4.427   0.990   0.281  1.00  0.00     0.040 A 
HETATM    7  C6  UNL     1       5.094  -0.052  -0.308  1.00  0.00     0.098 A 
HETATM    8  C7  UNL     1       4.381  -1.198  -0.595  1.00  0.00     0.099 A 
HETATM    9  C8  UNL     1       3.042  -1.311  -0.307  1.00  0.00     0.047 A 
BRANCH   7  10
HETATM   10  O2  UNL     1       6.462   0.103  -0.585  1.00  0.00    -0.358 OA
HETATM   11  H5  UNL     1       6.688   0.965  -1.095  1.00  0.00     0.217 HD
ENDBRANCH   7  10
BRANCH   8  12
HETATM   12  O3  UNL     1       5.111  -2.220  -1.191  1.00  0.00    -0.358 OA
HETATM   13  H6  UNL     1       4.737  -3.164  -1.248  1.00  0.00     0.217 HD
ENDBRANCH   8  12
ENDBRANCH   3   4
ENDBRANCH   2   3
BRANCH   2  14
HETATM   14  C9  UNL     1      -1.402   0.188  -0.266  1.00  0.00     0.115 C 
HETATM   15  C10 UNL     1      -1.890  -0.230   0.891  1.00  0.00     0.043 C 
HETATM   16  C11 UNL     1      -3.220  -0.365   1.470  1.00  0.00     0.039 C 
HETATM   17  C12 UNL     1      -4.443  -0.271   0.973  1.00  0.00     0.065 C 
HETATM   18  C13 UNL     1      -4.982   0.006  -0.356  1.00  0.00     0.034 C 
HETATM   19  C14 UNL     1      -4.449   0.638  -1.390  1.00  0.00     0.002 C 
HETATM   20  C15 UNL     1      -3.207   1.340  -1.804  1.00  0.00     0.203 C 
HETATM   21  O5  UNL     1      -2.028   0.675  -1.404  1.00  0.00    -0.344 OA
BRANCH  17  22
HETATM   22  O4  UNL     1      -5.431  -0.483   1.926  1.00  0.00    -0.361 OA
HETATM   23  H10 UNL     1      -5.533   0.177   2.688  1.00  0.00     0.217 HD
ENDBRANCH  17  22
ENDBRANCH   2  14
TORSDOF 6
