REMARK  7 active torsions:
REMARK  status: ('A' for Active; 'I' for Inactive)
REMARK    1  A    between atoms: N1_1  and  C1_2 
REMARK    2  A    between atoms: C1_2  and  C2_3 
REMARK    3  A    between atoms: C6_9  and  C7_10 
REMARK    4  A    between atoms: C15_20  and  O1_21 
REMARK    5  A    between atoms: O1_21  and  C16_22 
REMARK    6  A    between atoms: C16_22  and  C17_23 
REMARK    7  A    between atoms: C17_23  and  N4_24 
ROOT
HETATM    1  C2  UNL     1      -1.140  -2.864   0.384  1.00  0.00     0.005 A 
HETATM    2  C3  UNL     1      -2.403  -3.385   0.174  1.00  0.00     0.044 A 
HETATM    3  C4  UNL     1      -3.417  -2.493  -0.086  1.00  0.00     0.071 A 
HETATM    4  N2  UNL     1      -4.685  -2.860  -0.321  1.00  0.00    -0.241 NA
HETATM    5  C5  UNL     1      -5.694  -2.016  -0.588  1.00  0.00     0.234 A 
HETATM    6  N3  UNL     1      -5.436  -0.695  -0.628  1.00  0.00    -0.240 NA
HETATM    7  C6  UNL     1      -4.181  -0.218  -0.403  1.00  0.00     0.081 A 
HETATM    8  C13 UNL     1      -3.196  -1.139  -0.138  1.00  0.00     0.025 A 
HETATM    9  C14 UNL     1      -1.942  -0.609   0.068  1.00  0.00     0.053 A 
HETATM   10  C15 UNL     1      -0.889  -1.483   0.335  1.00  0.00     0.077 A 
ENDROOT
BRANCH  10  11
HETATM   11  O1  UNL     1       0.320  -1.117   0.545  1.00  0.00    -0.349 OA
BRANCH  11  12
HETATM   12  C16 UNL     1       1.546  -0.741   0.757  1.00  0.00     0.206 C 
BRANCH  12  13
HETATM   13  C17 UNL     1       2.273  -0.004  -0.360  1.00  0.00     0.299 C 
BRANCH  13  14
HETATM   14  N4  UNL     1       3.605   0.319   0.092  1.00  0.00     0.090 N 
HETATM   15  C18 UNL     1       3.665   1.293   1.106  1.00  0.00     0.272 C 
HETATM   16  C19 UNL     1       4.889   2.128   1.186  1.00  0.00     0.030 C 
HETATM   17  C20 UNL     1       5.629   2.319  -0.113  1.00  0.00     0.003 C 
HETATM   18  C21 UNL     1       5.871   0.901  -0.644  1.00  0.00     0.030 C 
HETATM   19  C22 UNL     1       4.484   0.410  -1.012  1.00  0.00     0.272 C 
ENDBRANCH  13  14
ENDBRANCH  12  13
ENDBRANCH  11  12
ENDBRANCH  10  11
BRANCH   1  20
HETATM   20  C1  UNL     1      -0.034  -3.821   0.667  1.00  0.00     0.308 C 
BRANCH  20  21
HETATM   21  N1  UNL     1      -0.535  -5.181   0.675  1.00  0.00     0.082 N 
HETATM   22  H1  UNL     1      -0.893  -5.463  -0.263  1.00  0.00     0.313 HD
HETATM   23  H2  UNL     1      -1.196  -5.379   1.446  1.00  0.00     0.313 HD
ENDBRANCH  20  21
ENDBRANCH   1  20
BRANCH   7  24
HETATM   24  C7  UNL     1      -4.099   1.227  -0.480  1.00  0.00    -0.005 A 
HETATM   25  C8  UNL     1      -4.599   1.917  -1.565  1.00  0.00     0.017 A 
HETATM   26  C9  UNL     1      -4.602   3.289  -1.721  1.00  0.00     0.045 A 
HETATM   27  C10 UNL     1      -4.039   3.979  -0.662  1.00  0.00     0.138 A 
HETATM   28  F1  UNL     1      -4.003   5.339  -0.732  1.00  0.00    -0.204 F 
HETATM   29  C11 UNL     1      -3.507   3.414   0.474  1.00  0.00     0.073 A 
HETATM   30 CL1  UNL     1      -2.817   4.352   1.764  1.00  0.00    -0.081 Cl
HETATM   31  C12 UNL     1      -3.555   2.029   0.529  1.00  0.00     0.041 A 
ENDBRANCH   7  24
TORSDOF 7
