REMARK  4 active torsions:
REMARK  status: ('A' for Active; 'I' for Inactive)
REMARK    1  A    between atoms: O1_2  and  C2_3 
REMARK    2  A    between atoms: C6_9  and  N3_10 
REMARK    3  A    between atoms: N3_10  and  C7_11 
REMARK    4  A    between atoms: C14_18  and  O2_19 
ROOT
HETATM    1  C2  UNL     1       3.194  -0.154  -0.141  1.00  0.00     0.103 A 
HETATM    2  C3  UNL     1       2.566  -1.074  -0.983  1.00  0.00     0.072 A 
HETATM    3  C4  UNL     1       1.184  -1.185  -1.010  1.00  0.00     0.075 A 
HETATM    4  N1  UNL     1       0.528  -2.050  -1.799  1.00  0.00    -0.241 NA
HETATM    5  C5  UNL     1      -0.813  -2.159  -1.826  1.00  0.00     0.236 A 
HETATM    6  N2  UNL     1      -1.530  -1.339  -1.003  1.00  0.00    -0.224 NA
HETATM    7  C6  UNL     1      -0.905  -0.459  -0.200  1.00  0.00     0.142 A 
HETATM    8  C12 UNL     1       0.469  -0.340  -0.164  1.00  0.00     0.042 A 
HETATM    9  C13 UNL     1       1.086   0.570   0.669  1.00  0.00     0.057 A 
HETATM   10  C14 UNL     1       2.470   0.673   0.689  1.00  0.00     0.102 A 
ENDROOT
BRANCH   7  11
HETATM   11  N3  UNL     1      -1.746   0.343   0.613  1.00  0.00    -0.341 N 
HETATM   12  H6  UNL     1      -1.534   1.077   1.301  1.00  0.00     0.167 HD
BRANCH  11  13
HETATM   13  C7  UNL     1      -3.157   0.180   0.538  1.00  0.00     0.029 A 
HETATM   14  C8  UNL     1      -3.909   1.035  -0.142  1.00  0.00     0.006 A 
HETATM   15  C9  UNL     1      -5.352   0.674  -0.087  1.00  0.00     0.056 A 
HETATM   16  C10 UNL     1      -5.309  -0.559   0.756  1.00  0.00    -0.021 A 
HETATM   17  C11 UNL     1      -4.038  -0.815   1.098  1.00  0.00     0.025 A 
ENDBRANCH  11  13
ENDBRANCH   7  11
BRANCH  10  18
HETATM   18  O2  UNL     1       3.153   1.558   1.495  1.00  0.00    -0.353 OA
HETATM   19  C15 UNL     1       2.516   2.451   2.383  1.00  0.00     0.210 C 
ENDBRANCH  10  18
BRANCH   1  20
HETATM   20  O1  UNL     1       4.567  -0.072  -0.140  1.00  0.00    -0.353 OA
HETATM   21  C1  UNL     1       5.407  -0.858  -0.938  1.00  0.00     0.210 C 
ENDBRANCH   1  20
TORSDOF 4
