REMARK  3 active torsions:
REMARK  status: ('A' for Active; 'I' for Inactive)
REMARK    1  A    between atoms: N3_10  and  O1_11 
REMARK    2  A    between atoms: O1_11  and  C8_12 
REMARK    3  A    between atoms: C8_12  and  C9_13 
ROOT
HETATM    1  C1  UNL     1      -1.729   2.486  -1.245  1.00  0.00     0.071 C 
HETATM    2  C2  UNL     1      -1.838   1.190  -0.504  1.00  0.00     0.040 A 
HETATM    3  C3  UNL     1      -2.738   0.256  -0.991  1.00  0.00     0.044 A 
HETATM    4  C4  UNL     1      -2.696  -0.864  -0.182  1.00  0.00     0.032 A 
HETATM    5  C5  UNL     1      -3.282  -2.117  -0.063  1.00  0.00     0.133 A 
HETATM    6  N1  UNL     1      -2.953  -2.967   0.920  1.00  0.00    -0.253 NA
HETATM    7  C6  UNL     1      -2.027  -2.622   1.839  1.00  0.00     0.235 A 
HETATM    8  N2  UNL     1      -1.418  -1.402   1.771  1.00  0.00    -0.221 NA
HETATM    9  C7  UNL     1      -1.751  -0.552   0.782  1.00  0.00     0.168 A 
HETATM   10  N3  UNL     1      -1.228   0.675   0.602  1.00  0.00    -0.207 N 
ENDROOT
BRANCH  10  11
HETATM   11  O1  UNL     1      -0.319   1.455   1.204  1.00  0.00    -0.267 OA
BRANCH  11  12
HETATM   12  C8  UNL     1       0.895   1.139   1.787  1.00  0.00     0.240 C 
BRANCH  12  13
HETATM   13  C9  UNL     1       1.888   0.513   0.879  1.00  0.00    -0.030 A 
HETATM   14  C10 UNL     1       2.778   1.296   0.162  1.00  0.00     0.012 A 
HETATM   15  C11 UNL     1       3.711   0.754  -0.688  1.00  0.00     0.044 A 
HETATM   16  C12 UNL     1       3.796  -0.627  -0.862  1.00  0.00     0.138 A 
HETATM   17  F1  UNL     1       4.680  -1.221  -1.673  1.00  0.00    -0.204 F 
HETATM   18  C13 UNL     1       2.923  -1.432  -0.161  1.00  0.00     0.073 A 
HETATM   19 CL1  UNL     1       3.001  -3.187  -0.357  1.00  0.00    -0.081 Cl
HETATM   20  C14 UNL     1       2.000  -0.851   0.683  1.00  0.00     0.036 A 
ENDBRANCH  12  13
ENDBRANCH  11  12
ENDBRANCH  10  11
TORSDOF 3
