REMARK  4 active torsions:
REMARK  status: ('A' for Active; 'I' for Inactive)
REMARK    1  A    between atoms: O1_2  and  C2_3 
REMARK    2  A    between atoms: C5_6  and  N1_7 
REMARK    3  A    between atoms: N1_7  and  C6_8 
REMARK    4  A    between atoms: C14_19  and  O2_20 
ROOT
HETATM    1  C2  UNL     1       1.584  -0.759   0.420  1.00  0.00     0.104 C 
HETATM    2  C3  UNL     1       0.604  -0.929  -0.533  1.00  0.00     0.051 C 
HETATM    3  C4  UNL     1       0.268   0.313  -1.292  1.00  0.00    -0.004 C 
HETATM    4  C5  UNL     1      -0.941   0.869  -1.372  1.00  0.00     0.136 C 
HETATM    5  N2  UNL     1      -0.997   2.373  -1.454  1.00  0.00    -0.226 NA
HETATM    6  C12 UNL     1      -0.309   3.123  -0.529  1.00  0.00     0.209 C 
HETATM    7  N3  UNL     1       1.041   2.824   0.082  1.00  0.00    -0.351 N 
HETATM    8  C13 UNL     1       1.652   1.552  -0.296  1.00  0.00     0.051 C 
HETATM    9  C14 UNL     1       2.166   0.637   0.564  1.00  0.00     0.124 C 
HETATM   10  C16 UNL     1       1.584   1.002  -1.785  1.00  0.00     0.102 C 
HETATM   11  H11 UNL     1       1.778   3.155   0.734  1.00  0.00     0.166 HD
ENDROOT
BRANCH   4  12
HETATM   12  N1  UNL     1      -1.808  -0.259  -1.296  1.00  0.00    -0.341 N 
HETATM   13  H5  UNL     1      -1.783  -0.876  -2.131  1.00  0.00     0.167 HD
BRANCH  12  14
HETATM   14  C6  UNL     1      -2.720  -0.670  -0.260  1.00  0.00     0.033 A 
HETATM   15  C7  UNL     1      -3.939  -0.015  -0.497  1.00  0.00     0.031 A 
HETATM   16  C8  UNL     1      -5.022  -0.233   0.369  1.00  0.00     0.026 A 
HETATM   17  C9  UNL     1      -4.941  -1.073   1.456  1.00  0.00     0.034 A 
HETATM   18 CL1  UNL     1      -6.278  -1.354   2.542  1.00  0.00    -0.084 Cl
HETATM   19  C10 UNL     1      -3.730  -1.673   1.622  1.00  0.00     0.026 A 
HETATM   20  C11 UNL     1      -2.630  -1.512   0.824  1.00  0.00     0.031 A 
ENDBRANCH  12  14
ENDBRANCH   4  12
BRANCH   1  21
HETATM   21  O1  UNL     1       2.047  -1.730   1.216  1.00  0.00    -0.353 OA
HETATM   22  C1  UNL     1       3.018  -2.638   0.726  1.00  0.00     0.210 C 
ENDBRANCH   1  21
BRANCH   9  23
HETATM   23  O2  UNL     1       3.049   1.385   1.271  1.00  0.00    -0.351 OA
HETATM   24  C15 UNL     1       4.420   1.039   1.230  1.00  0.00     0.210 C 
ENDBRANCH   9  23
TORSDOF 4
