REMARK  7 active torsions:
REMARK  status: ('A' for Active; 'I' for Inactive)
REMARK    1  A    between atoms: O1_2  and  C2_3 
REMARK    2  A    between atoms: C2_3  and  O2_4 
REMARK    3  A    between atoms: C2_3  and  C3_5 
REMARK    4  A    between atoms: C3_5  and  C14_21 
REMARK    5  A    between atoms: C4_6  and  C5_7 
REMARK    6  A    between atoms: C6_8  and  C7_9 
REMARK    7  A    between atoms: C14_21  and  N3_22 
ROOT
HETATM    1  C5  UNL     1       0.281  -1.209   0.724  1.00  0.00     0.027 A 
HETATM    2  C6  UNL     1       1.598  -0.875   1.058  1.00  0.00     0.081 A 
HETATM    3  N1  UNL     1       2.140  -1.142   2.245  1.00  0.00    -0.240 NA
HETATM    4  C13 UNL     1       1.610  -1.736   3.297  1.00  0.00     0.233 A 
HETATM    5  N2  UNL     1       0.349  -2.227   3.418  1.00  0.00    -0.243 NA
HETATM    6  P1  UNL     1      -0.586  -2.013   2.011  1.00  0.00     0.102 P 
ENDROOT
BRANCH   1   7
HETATM    7  C4  UNL     1      -0.341  -0.925  -0.559  1.00  0.00     0.026 C 
HETATM    8  C3  UNL     1      -1.616  -0.483  -0.627  1.00  0.00     0.003 C 
BRANCH   8   9
HETATM    9  C2  UNL     1      -2.693  -0.166   0.352  1.00  0.00     0.288 C 
BRANCH   9  10
HETATM   10  O1  UNL     1      -3.099   1.148   0.018  1.00  0.00    -0.362 OA
HETATM   11  C1  UNL     1      -2.774   1.963   1.098  1.00  0.00     0.205 C 
ENDBRANCH   9  10
BRANCH   9  12
HETATM   12  O2  UNL     1      -3.798  -0.969   0.259  1.00  0.00    -0.367 OA
HETATM   13  H5  UNL     1      -3.698  -1.855   0.690  1.00  0.00     0.213 HD
ENDBRANCH   9  12
ENDBRANCH   8   9
BRANCH   8  14
HETATM   14  C14 UNL     1      -2.330  -0.188  -1.912  1.00  0.00     0.305 C 
BRANCH  14  15
HETATM   15  N3  UNL     1      -3.519  -0.993  -2.089  1.00  0.00     0.082 N 
HETATM   16  H13 UNL     1      -4.351  -0.410  -2.312  1.00  0.00     0.313 HD
HETATM   17  H14 UNL     1      -3.429  -1.716  -2.817  1.00  0.00     0.313 HD
ENDBRANCH  14  15
ENDBRANCH   8  14
ENDBRANCH   1   7
BRANCH   2  18
HETATM   18  C7  UNL     1       2.460  -0.182   0.108  1.00  0.00    -0.005 A 
HETATM   19  C8  UNL     1       2.771  -0.461  -1.196  1.00  0.00     0.017 A 
HETATM   20  C9  UNL     1       3.596   0.368  -1.926  1.00  0.00     0.045 A 
HETATM   21  C10 UNL     1       4.153   1.510  -1.401  1.00  0.00     0.138 A 
HETATM   22  F1  UNL     1       4.964   2.328  -2.114  1.00  0.00    -0.204 F 
HETATM   23  C11 UNL     1       3.866   1.837  -0.075  1.00  0.00     0.073 A 
HETATM   24 CL1  UNL     1       4.558   3.283   0.620  1.00  0.00    -0.081 Cl
HETATM   25  C12 UNL     1       3.039   0.986   0.623  1.00  0.00     0.041 A 
ENDBRANCH   2  18
TORSDOF 7
