REMARK  4 active torsions:
REMARK  status: ('A' for Active; 'I' for Inactive)
REMARK    1  A    between atoms: O1_2  and  C2_3 
REMARK    2  A    between atoms: C9_12  and  O2_13 
REMARK    3  A    between atoms: O2_13  and  C10_14 
REMARK    4  A    between atoms: C10_14  and  C11_15 
ROOT
HETATM    1  C2  UNL     1      -1.590   1.341  -0.128  1.00  0.00     0.103 A 
HETATM    2  C3  UNL     1      -2.955   1.180  -0.254  1.00  0.00     0.072 A 
HETATM    3  C4  UNL     1      -3.515  -0.079  -0.293  1.00  0.00     0.072 A 
HETATM    4  N1  UNL     1      -4.858  -0.133  -0.418  1.00  0.00    -0.241 NA
HETATM    5  C5  UNL     1      -5.463  -1.341  -0.462  1.00  0.00     0.233 A 
HETATM    6  N2  UNL     1      -4.729  -2.463  -0.381  1.00  0.00    -0.253 NA
HETATM    7  C6  UNL     1      -3.387  -2.462  -0.256  1.00  0.00     0.132 A 
HETATM    8  C7  UNL     1      -2.765  -1.235  -0.210  1.00  0.00     0.013 A 
HETATM    9  C8  UNL     1      -1.400  -1.067  -0.084  1.00  0.00     0.055 A 
HETATM   10  C9  UNL     1      -0.808   0.184  -0.042  1.00  0.00     0.103 A 
ENDROOT
BRANCH  10  11
HETATM   11  O2  UNL     1       0.569   0.249   0.086  1.00  0.00    -0.344 OA
BRANCH  11  12
HETATM   12  C10 UNL     1       1.295  -0.939   0.167  1.00  0.00     0.214 C 
BRANCH  12  13
HETATM   13  C11 UNL     1       2.772  -0.673   0.303  1.00  0.00    -0.032 A 
HETATM   14  C12 UNL     1       3.404  -0.527   1.521  1.00  0.00     0.012 A 
HETATM   15  C13 UNL     1       4.752  -0.285   1.620  1.00  0.00     0.044 A 
HETATM   16  C14 UNL     1       5.493  -0.185   0.473  1.00  0.00     0.138 A 
HETATM   17  F1  UNL     1       6.834   0.056   0.591  1.00  0.00    -0.204 F 
HETATM   18  C15 UNL     1       4.925  -0.320  -0.777  1.00  0.00     0.073 A 
HETATM   19 CL1  UNL     1       5.906  -0.186  -2.231  1.00  0.00    -0.081 Cl
HETATM   20  C16 UNL     1       3.571  -0.562  -0.841  1.00  0.00     0.036 A 
ENDBRANCH  12  13
ENDBRANCH  11  12
ENDBRANCH  10  11
BRANCH   1  21
HETATM   21  O1  UNL     1      -0.880   2.531  -0.074  1.00  0.00    -0.353 OA
HETATM   22  C1  UNL     1      -1.570   3.763  -0.152  1.00  0.00     0.210 C 
ENDBRANCH   1  21
TORSDOF 4
