REMARK  9 active torsions:
REMARK  status: ('A' for Active; 'I' for Inactive)
REMARK    1  A    between atoms: O1_2  and  C2_3 
REMARK    2  A    between atoms: C8_11  and  O2_12 
REMARK    3  A    between atoms: O2_12  and  C9_13 
REMARK    4  A    between atoms: C9_13  and  C10_14 
REMARK    5  A    between atoms: C10_14  and  C11_15 
REMARK    6  A    between atoms: C11_15  and  C12_16 
REMARK    7  A    between atoms: C13_17  and  C14_19 
REMARK    8  A    between atoms: C14_19  and  C15_21 
REMARK    9  A    between atoms: C15_21  and  N3_22 
ROOT
HETATM    1  O2  UNL     1      -0.490  -0.036   0.141  1.00  0.00    -0.345 OA
ENDROOT
BRANCH   1   2
HETATM    2  C8  UNL     1      -1.859   0.163   0.040  1.00  0.00     0.101 C 
HETATM    3  C2  UNL     1      -2.379   0.953  -1.109  1.00  0.00     0.103 C 
HETATM    4  C3  UNL     1      -3.698   1.159  -1.354  1.00  0.00     0.069 C 
HETATM    5  C4  UNL     1      -4.428   0.365  -0.400  1.00  0.00     0.067 A 
HETATM    6  N1  UNL     1      -5.638  -0.088  -0.560  1.00  0.00    -0.244 NA
HETATM    7  C6  UNL     1      -4.024  -0.116   0.906  1.00  0.00     0.186 A 
HETATM    8  C5  UNL     1      -6.061  -0.859   0.556  1.00  0.00     0.228 A 
HETATM    9  N2  UNL     1      -5.071  -0.874   1.428  1.00  0.00    -0.267 NA
HETATM   10  C7  UNL     1      -2.623  -0.386   1.011  1.00  0.00     0.046 C 
BRANCH   3  11
HETATM   11  O1  UNL     1      -1.381   1.545  -1.910  1.00  0.00    -0.353 OA
HETATM   12  C1  UNL     1      -1.780   2.606  -2.757  1.00  0.00     0.210 C 
ENDBRANCH   3  11
ENDBRANCH   1   2
BRANCH   1  13
HETATM   13  C9  UNL     1       0.128  -1.159   0.705  1.00  0.00     0.203 C 
BRANCH  13  14
HETATM   14  C10 UNL     1       1.601  -1.108   0.539  1.00  0.00    -0.000 C 
BRANCH  14  15
HETATM   15  C11 UNL     1       2.884  -1.073   0.825  1.00  0.00     0.001 C 
BRANCH  15  16
HETATM   16  C12 UNL     1       4.184  -1.016   0.186  1.00  0.00     0.044 C 
HETATM   17  C13 UNL     1       5.045  -1.011   1.191  1.00  0.00     0.140 C 
HETATM   18  F1  UNL     1       4.467  -1.058   2.412  1.00  0.00    -0.204 F 
BRANCH  17  19
HETATM   19  C14 UNL     1       6.292  -0.954   0.441  1.00  0.00     0.103 C 
HETATM   20 CL1  UNL     1       7.052  -2.232  -0.481  1.00  0.00    -0.079 Cl
BRANCH  19  21
HETATM   21  C15 UNL     1       7.059   0.124   0.351  1.00  0.00     0.102 C 
BRANCH  21  22
HETATM   22  N3  UNL     1       7.648   1.226   0.680  1.00  0.00    -0.296 NA
HETATM   23  H13 UNL     1       8.323   1.162   1.473  1.00  0.00     0.187 HD
ENDBRANCH  21  22
ENDBRANCH  19  21
ENDBRANCH  17  19
ENDBRANCH  15  16
ENDBRANCH  14  15
ENDBRANCH  13  14
ENDBRANCH   1  13
TORSDOF 9
