REMARK  3 active torsions:
REMARK  status: ('A' for Active; 'I' for Inactive)
REMARK    1  A    between atoms: C2_3  and  O1_4 
REMARK    2  A    between atoms: C2_3  and  C3_5 
REMARK    3  A    between atoms: C17_22  and  O5_23 
ROOT
HETATM    1  N1  UNL     1      -2.964  -2.728   1.185  1.00  0.00    -0.194 NA
HETATM    2  C1  UNL     1      -3.369  -1.978   0.376  1.00  0.00     0.093 C 
HETATM    3  C2  UNL     1      -3.891  -1.061  -0.620  1.00  0.00     0.255 C 
ENDROOT
BRANCH   3   4
HETATM    4  O1  UNL     1      -4.535  -1.790  -1.625  1.00  0.00    -0.379 OA
HETATM    5  H2  UNL     1      -5.437  -1.451  -1.780  1.00  0.00     0.211 HD
ENDBRANCH   3   4
BRANCH   3   6
HETATM    6  C3  UNL     1      -2.717  -0.285  -1.251  1.00  0.00     0.188 C 
HETATM    7  C4  UNL     1      -1.957  -1.111  -2.186  1.00  0.00     0.211 C 
HETATM    8  O2  UNL     1      -1.178  -2.152  -1.762  1.00  0.00    -0.349 OA
HETATM    9  C5  UNL     1      -0.101  -2.059  -0.933  1.00  0.00     0.068 A 
HETATM   10  C6  UNL     1       0.432  -1.759   0.298  1.00  0.00     0.037 A 
HETATM   11  C10 UNL     1       0.905  -2.472  -1.782  1.00  0.00     0.037 A 
HETATM   12  C7  UNL     1       1.760  -1.864   0.596  1.00  0.00     0.018 A 
HETATM   13  C8  UNL     1       2.764  -2.288  -0.293  1.00  0.00     0.010 A 
HETATM   14  C9  UNL     1       2.240  -2.587  -1.509  1.00  0.00     0.018 A 
HETATM   15  C11 UNL     1       3.795  -2.099   0.738  1.00  0.00     0.164 C 
HETATM   16  O3  UNL     1       4.532  -2.996   1.198  1.00  0.00    -0.292 OA
HETATM   17  C12 UNL     1       4.190  -0.840   1.461  1.00  0.00     0.077 C 
HETATM   18  C13 UNL     1       4.032   0.497   1.651  1.00  0.00     0.006 C 
HETATM   19  C14 UNL     1       3.260   1.704   1.188  1.00  0.00     0.035 C 
HETATM   20  C15 UNL     1       2.443   2.236   2.265  1.00  0.00    -0.002 C 
HETATM   21  C16 UNL     1       1.103   2.111   2.080  1.00  0.00     0.141 C 
HETATM   22  O4  UNL     1      -0.282   2.216   2.345  1.00  0.00    -0.301 OA
HETATM   23  C17 UNL     1      -1.126   2.951   1.488  1.00  0.00     0.180 C 
HETATM   24  C18 UNL     1      -1.915   2.732   0.465  1.00  0.00     0.063 C 
HETATM   25  C19 UNL     1      -2.488   1.782  -0.470  1.00  0.00     0.200 C 
HETATM   26  O6  UNL     1      -2.082   0.436  -0.281  1.00  0.00    -0.376 OA
BRANCH  23  27
HETATM   27  O5  UNL     1      -0.843   4.135   2.124  1.00  0.00    -0.341 OA
HETATM   28  H16 UNL     1      -0.597   4.989   1.683  1.00  0.00     0.220 HD
ENDBRANCH  23  27
ENDBRANCH   3   6
TORSDOF 3
