REMARK  1 active torsions:
REMARK  status: ('A' for Active; 'I' for Inactive)
REMARK    1  A    between atoms: C2_2  and  C3_3 
ROOT
HETATM    1  C3  UNL     1       3.151   0.146   0.213  1.00  0.00     0.038 C 
HETATM    2 CL1  UNL     1       4.104   0.836  -1.114  1.00  0.00    -0.084 Cl
HETATM    3  C4  UNL     1       1.842   0.421   0.372  1.00  0.00    -0.022 C 
HETATM    4  C5  UNL     1       1.282   1.355  -0.674  1.00  0.00     0.074 C 
HETATM    5  C6  UNL     1      -0.212   1.131  -0.706  1.00  0.00     0.161 C 
HETATM    6  O1  UNL     1      -0.871   2.225  -0.134  1.00  0.00    -0.378 OA
HETATM    7  C7  UNL     1      -2.158   2.006   0.263  1.00  0.00     0.203 C 
HETATM    8  C8  UNL     1      -2.704   0.658  -0.090  1.00  0.00    -0.050 C 
HETATM    9  C9  UNL     1      -4.207   0.588  -0.259  1.00  0.00     0.046 C 
HETATM   10  C10 UNL     1      -2.031  -0.497  -0.273  1.00  0.00    -0.004 C 
HETATM   11  C11 UNL     1      -2.701  -1.747  -0.623  1.00  0.00     0.128 C 
HETATM   12  N1  UNL     1      -1.846  -2.677  -0.938  1.00  0.00    -0.254 NA
HETATM   13  C12 UNL     1      -0.458  -2.388  -0.882  1.00  0.00     0.227 C 
HETATM   14  N2  UNL     1       0.170  -1.286  -0.527  1.00  0.00    -0.264 NA
HETATM   15  C13 UNL     1      -0.622  -0.154  -0.096  1.00  0.00     0.113 C 
HETATM   16  C14 UNL     1      -0.283  -0.054   1.419  1.00  0.00     0.083 C 
HETATM   17  C15 UNL     1       1.217  -0.258   1.560  1.00  0.00     0.204 C 
HETATM   18  F1  UNL     1       1.607   0.360   2.729  1.00  0.00    -0.244 F 
ENDROOT
BRANCH   1  19
HETATM   19  C2  UNL     1       3.880  -0.736   1.119  1.00  0.00     0.014 C 
HETATM   20  C1  UNL     1       5.160  -1.009   0.970  1.00  0.00     0.013 C 
ENDBRANCH   1  19
TORSDOF 1
