REMARK  10 active torsions:
REMARK  status: ('A' for Active; 'I' for Inactive)
REMARK    1  A    between atoms: N1_1  and  C1_2 
REMARK    2  A    between atoms: C1_2  and  C2_3 
REMARK    3  A    between atoms: C6_9  and  C7_10 
REMARK    4  A    between atoms: C7_10  and  C8_11 
REMARK    5  A    between atoms: C12_16  and  O1_17 
REMARK    6  A    between atoms: O1_17  and  C13_18 
REMARK    7  A    between atoms: C13_18  and  C14_19 
REMARK    8  A    between atoms: C14_19  and  O2_20 
REMARK    9  A    between atoms: C14_19  and  C15_21 
REMARK   10  A    between atoms: C15_21  and  N4_22 
ROOT
HETATM    1  C2  UNL     1      -0.141  -1.994   0.064  1.00  0.00     0.005 A 
HETATM    2  C3  UNL     1       1.113  -2.419   0.409  1.00  0.00     0.044 A 
HETATM    3  C4  UNL     1       2.086  -1.451   0.568  1.00  0.00     0.071 A 
HETATM    4  N2  UNL     1       3.339  -1.870   0.893  1.00  0.00    -0.241 NA
HETATM    5  C5  UNL     1       4.341  -0.989   1.043  1.00  0.00     0.234 A 
HETATM    6  N3  UNL     1       4.011   0.287   0.854  1.00  0.00    -0.245 NA
HETATM    7  C6  UNL     1       2.816   0.772   0.539  1.00  0.00     0.052 A 
HETATM    8  C10 UNL     1       1.778  -0.102   0.379  1.00  0.00     0.020 A 
HETATM    9  C11 UNL     1       0.515   0.276   0.026  1.00  0.00     0.053 A 
HETATM   10  C12 UNL     1      -0.511  -0.664  -0.147  1.00  0.00     0.077 A 
ENDROOT
BRANCH  10  11
HETATM   11  O1  UNL     1      -1.732  -0.533  -0.471  1.00  0.00    -0.348 OA
BRANCH  11  12
HETATM   12  C13 UNL     1      -2.994  -0.396  -0.806  1.00  0.00     0.209 C 
BRANCH  12  13
HETATM   13  C14 UNL     1      -3.831   0.509   0.115  1.00  0.00     0.170 C 
BRANCH  13  14
HETATM   14  O2  UNL     1      -5.152   0.393  -0.423  1.00  0.00    -0.392 OA
HETATM   15  H15 UNL     1      -5.254  -0.496  -0.904  1.00  0.00     0.210 HD
ENDBRANCH  13  14
BRANCH  13  16
HETATM   16  C15 UNL     1      -3.485   1.972  -0.086  1.00  0.00     0.300 C 
BRANCH  16  17
HETATM   17  N4  UNL     1      -4.488   2.759   0.662  1.00  0.00     0.080 N 
HETATM   18  H18 UNL     1      -5.251   2.150   1.058  1.00  0.00     0.312 HD
HETATM   19  H19 UNL     1      -4.909   3.490   0.030  1.00  0.00     0.312 HD
ENDBRANCH  16  17
ENDBRANCH  13  16
ENDBRANCH  12  13
ENDBRANCH  11  12
ENDBRANCH  10  11
BRANCH   1  20
HETATM   20  C1  UNL     1      -1.063  -3.188  -0.104  1.00  0.00     0.308 C 
BRANCH  20  21
HETATM   21  N1  UNL     1      -0.424  -4.233  -0.841  1.00  0.00     0.082 N 
HETATM   22  H1  UNL     1       0.412  -3.907  -1.431  1.00  0.00     0.313 HD
HETATM   23  H2  UNL     1      -0.031  -4.860  -0.037  1.00  0.00     0.313 HD
ENDBRANCH  20  21
ENDBRANCH   1  20
BRANCH   7  24
HETATM   24  C7  UNL     1       2.591   2.239   0.431  1.00  0.00     0.089 C 
BRANCH  24  25
HETATM   25  C8  UNL     1       3.910   2.885   0.220  1.00  0.00     0.009 C 
HETATM   26  C9  UNL     1       5.123   2.429   0.019  1.00  0.00     0.184 C 
HETATM   27  F1  UNL     1       6.140   1.536  -0.152  1.00  0.00    -0.220 F 
ENDBRANCH  24  25
ENDBRANCH   7  24
TORSDOF 10
