REMARK  8 active torsions:
REMARK  status: ('A' for Active; 'I' for Inactive)
REMARK    1  A    between atoms: O1_2  and  C2_3 
REMARK    2  A    between atoms: C6_9  and  N3_10 
REMARK    3  A    between atoms: C14_19  and  O2_20 
REMARK    4  A    between atoms: O2_20  and  C15_21 
REMARK    5  A    between atoms: C15_21  and  C16_22 
REMARK    6  A    between atoms: C16_22  and  O3_23 
REMARK    7  A    between atoms: C16_22  and  C17_24 
REMARK    8  A    between atoms: C17_24  and  N4_25 
ROOT
HETATM    1  C2  UNL     1       1.428   2.137   0.933  1.00  0.00     0.103 A 
HETATM    2  C3  UNL     1       0.513   3.123   0.650  1.00  0.00     0.072 A 
HETATM    3  C4  UNL     1      -0.724   2.836   0.107  1.00  0.00     0.075 A 
HETATM    4  N1  UNL     1      -1.660   3.754  -0.191  1.00  0.00    -0.241 NA
HETATM    5  C5  UNL     1      -2.851   3.358  -0.726  1.00  0.00     0.236 A 
HETATM    6  N2  UNL     1      -3.092   2.035  -0.957  1.00  0.00    -0.224 NA
HETATM    7  C6  UNL     1      -2.159   1.101  -0.661  1.00  0.00     0.142 A 
HETATM    8  C12 UNL     1      -0.952   1.494  -0.120  1.00  0.00     0.041 A 
HETATM    9  C13 UNL     1      -0.082   0.470   0.140  1.00  0.00     0.057 A 
HETATM   10  C14 UNL     1       1.153   0.799   0.686  1.00  0.00     0.103 A 
ENDROOT
BRANCH  10  11
HETATM   11  O2  UNL     1       2.119  -0.137   0.995  1.00  0.00    -0.346 OA
BRANCH  11  12
HETATM   12  C15 UNL     1       1.876  -1.518   0.757  1.00  0.00     0.209 C 
BRANCH  12  13
HETATM   13  C16 UNL     1       3.041  -2.391   1.155  1.00  0.00     0.170 C 
BRANCH  13  14
HETATM   14  O3  UNL     1       2.740  -3.716   0.899  1.00  0.00    -0.392 OA
HETATM   15  H17 UNL     1       3.148  -4.332   1.575  1.00  0.00     0.210 HD
ENDBRANCH  13  14
BRANCH  13  16
HETATM   16  C17 UNL     1       4.277  -2.068   0.324  1.00  0.00     0.300 C 
BRANCH  16  17
HETATM   17  N4  UNL     1       5.391  -2.892   0.667  1.00  0.00     0.080 N 
HETATM   18  H20 UNL     1       5.128  -3.853   0.976  1.00  0.00     0.312 HD
HETATM   19  H21 UNL     1       6.078  -2.439   1.307  1.00  0.00     0.312 HD
ENDBRANCH  16  17
ENDBRANCH  13  16
ENDBRANCH  12  13
ENDBRANCH  11  12
ENDBRANCH  10  11
BRANCH   1  20
HETATM   20  O1  UNL     1       2.656   2.479   1.477  1.00  0.00    -0.353 OA
HETATM   21  C1  UNL     1       2.996   3.812   1.751  1.00  0.00     0.210 C 
ENDBRANCH   1  20
BRANCH   7  22
HETATM   22  N3  UNL     1      -2.600  -0.225  -0.976  1.00  0.00    -0.331 N 
HETATM   23  C7  UNL     1      -2.794  -1.429  -0.155  1.00  0.00     0.154 C 
HETATM   24  C8  UNL     1      -4.176  -1.961  -0.335  1.00  0.00    -0.011 C 
HETATM   25  C9  UNL     1      -4.866  -1.534  -1.376  1.00  0.00    -0.024 C 
HETATM   26  C10 UNL     1      -4.446  -0.568  -2.428  1.00  0.00     0.086 C 
HETATM   27  C11 UNL     1      -2.936  -0.476  -2.383  1.00  0.00     0.276 C 
HETATM   28  F1  UNL     1      -2.496   0.553  -3.204  1.00  0.00    -0.226 F 
ENDBRANCH   7  22
TORSDOF 8
