REMARK  6 active torsions:
REMARK  status: ('A' for Active; 'I' for Inactive)
REMARK    1  A    between atoms: C15_20  and  O1_21 
REMARK    2  A    between atoms: O1_21  and  C16_22 
REMARK    3  A    between atoms: C16_22  and  C17_23 
REMARK    4  A    between atoms: C17_23  and  O2_24 
REMARK    5  A    between atoms: C17_23  and  C18_25 
REMARK    6  A    between atoms: C18_25  and  N4_26 
ROOT
HETATM    1  C1  UNL     1      -4.794  -0.643   0.535  1.00  0.00     0.070 C 
HETATM    2  C2  UNL     1      -3.466  -0.903  -0.036  1.00  0.00     0.033 C 
HETATM    3  C3  UNL     1      -2.537  -1.819  -0.224  1.00  0.00     0.029 C 
HETATM    4  C4  UNL     1      -1.294  -2.444  -0.643  1.00  0.00     0.042 C 
HETATM    5  C5  UNL     1      -0.243  -1.975  -1.241  1.00  0.00     0.122 C 
HETATM    6  F1  UNL     1       0.748  -2.849  -1.507  1.00  0.00    -0.209 F 
HETATM    7  C6  UNL     1       0.684  -0.906  -1.684  1.00  0.00     0.140 A 
HETATM    8 CL1  UNL     1       2.078  -0.577  -2.609  1.00  0.00    -0.179 Cl
HETATM    9  C7  UNL     1       0.933   0.385  -1.625  1.00  0.00     0.108 A 
HETATM   10  C8  UNL     1       1.019   1.872  -1.414  1.00  0.00     0.006 C 
HETATM   11  C9  UNL     1      -0.024   2.785  -1.420  1.00  0.00     0.032 C 
HETATM   12  C10 UNL     1      -1.371   2.249  -1.494  1.00  0.00     0.086 A 
HETATM   13  N1  UNL     1      -2.280   2.634  -2.250  1.00  0.00    -0.238 NA
HETATM   14  C11 UNL     1      -3.547   2.005  -2.350  1.00  0.00     0.256 A 
HETATM   15  N2  UNL     1      -3.906   0.968  -1.675  1.00  0.00    -0.160 NA
HETATM   16  N3  UNL     1      -3.145   0.269  -0.732  1.00  0.00    -0.235 N 
HETATM   17  C12 UNL     1      -2.207   1.182  -1.024  1.00  0.00     0.087 A 
HETATM   18  C13 UNL     1      -1.651   0.722   0.159  1.00  0.00     0.033 C 
HETATM   19  C14 UNL     1      -0.566  -0.082   0.716  1.00  0.00     0.018 C 
HETATM   20  C15 UNL     1       0.396   0.089  -0.224  1.00  0.00     0.133 A 
ENDROOT
BRANCH  20  21
HETATM   21  O1  UNL     1       1.432  -0.168   0.697  1.00  0.00    -0.369 OA
BRANCH  21  22
HETATM   22  C16 UNL     1       2.587   0.626   0.814  1.00  0.00     0.203 C 
BRANCH  22  23
HETATM   23  C17 UNL     1       3.359   0.118   2.039  1.00  0.00     0.169 C 
BRANCH  23  24
HETATM   24  O2  UNL     1       4.509   0.873   2.183  1.00  0.00    -0.392 OA
HETATM   25  H14 UNL     1       4.297   1.766   2.530  1.00  0.00     0.210 HD
ENDBRANCH  23  24
BRANCH  23  26
HETATM   26  C18 UNL     1       3.676  -1.326   1.808  1.00  0.00     0.300 C 
BRANCH  26  27
HETATM   27  N4  UNL     1       4.463  -1.457   0.594  1.00  0.00     0.080 N 
HETATM   28  H17 UNL     1       4.788  -2.468   0.558  1.00  0.00     0.312 HD
HETATM   29  H18 UNL     1       5.328  -0.845   0.715  1.00  0.00     0.312 HD
ENDBRANCH  26  27
ENDBRANCH  23  26
ENDBRANCH  22  23
ENDBRANCH  21  22
ENDBRANCH  20  21
TORSDOF 6
