REMARK  9 active torsions:
REMARK  status: ('A' for Active; 'I' for Inactive)
REMARK    1  A    between atoms: O1_2  and  C2_3 
REMARK    2  A    between atoms: C6_9  and  N3_10 
REMARK    3  A    between atoms: N3_10  and  C7_11 
REMARK    4  A    between atoms: C15_21  and  O2_22 
REMARK    5  A    between atoms: O2_22  and  C16_23 
REMARK    6  A    between atoms: C16_23  and  C17_24 
REMARK    7  A    between atoms: C17_24  and  N4_25 
REMARK    8  A    between atoms: C17_24  and  C18_26 
REMARK    9  A    between atoms: C18_26  and  N5_27 
ROOT
HETATM    1  C2  UNL     1      -1.467  -2.702   0.250  1.00  0.00     0.103 A 
HETATM    2  C3  UNL     1      -0.321  -3.280   0.809  1.00  0.00     0.072 A 
HETATM    3  C4  UNL     1       0.824  -2.515   0.828  1.00  0.00     0.075 A 
HETATM    4  N1  UNL     1       1.922  -3.072   1.365  1.00  0.00    -0.241 NA
HETATM    5  C5  UNL     1       3.076  -2.387   1.418  1.00  0.00     0.236 A 
HETATM    6  N2  UNL     1       3.153  -1.145   0.941  1.00  0.00    -0.224 NA
HETATM    7  C6  UNL     1       2.096  -0.535   0.395  1.00  0.00     0.142 A 
HETATM    8  C13 UNL     1       0.918  -1.233   0.340  1.00  0.00     0.042 A 
HETATM    9  C14 UNL     1      -0.257  -0.761  -0.185  1.00  0.00     0.057 A 
HETATM   10  C15 UNL     1      -1.474  -1.399  -0.275  1.00  0.00     0.103 A 
ENDROOT
BRANCH   7  11
HETATM   11  N3  UNL     1       2.130   0.783  -0.121  1.00  0.00    -0.340 N 
HETATM   12  H6  UNL     1       1.297   1.236  -0.518  1.00  0.00     0.167 HD
BRANCH  11  13
HETATM   13  C7  UNL     1       3.209   1.696  -0.206  1.00  0.00     0.035 A 
HETATM   14  C8  UNL     1       3.098   3.044  -0.576  1.00  0.00     0.032 A 
HETATM   15  C9  UNL     1       4.183   3.881  -0.646  1.00  0.00     0.046 A 
HETATM   16  C10 UNL     1       5.454   3.459  -0.358  1.00  0.00     0.138 A 
HETATM   17  F1  UNL     1       6.447   4.345  -0.453  1.00  0.00    -0.204 F 
HETATM   18  C11 UNL     1       5.609   2.120   0.016  1.00  0.00     0.074 A 
HETATM   19 CL1  UNL     1       7.248   1.626   0.375  1.00  0.00    -0.081 Cl
HETATM   20  C12 UNL     1       4.498   1.310   0.075  1.00  0.00     0.056 A 
ENDBRANCH  11  13
ENDBRANCH   7  11
BRANCH  10  21
HETATM   21  O2  UNL     1      -2.655  -1.108  -0.728  1.00  0.00    -0.346 OA
BRANCH  21  22
HETATM   22  C16 UNL     1      -3.553  -0.318  -1.288  1.00  0.00     0.213 C 
BRANCH  22  23
HETATM   23  C17 UNL     1      -3.901   0.926  -0.526  1.00  0.00     0.269 C 
BRANCH  23  24
HETATM   24  N4  UNL     1      -4.892   1.733  -1.226  1.00  0.00     0.086 N 
HETATM   25  H14 UNL     1      -4.584   2.045  -2.167  1.00  0.00     0.313 HD
HETATM   26  H15 UNL     1      -5.734   1.130  -1.361  1.00  0.00     0.313 HD
ENDBRANCH  23  24
BRANCH  23  27
HETATM   27  C18 UNL     1      -2.708   1.704  -0.137  1.00  0.00     0.304 C 
BRANCH  27  28
HETATM   28  N5  UNL     1      -3.074   2.930   0.583  1.00  0.00     0.080 N 
HETATM   29  H18 UNL     1      -2.209   3.492   0.706  1.00  0.00     0.312 HD
HETATM   30  H19 UNL     1      -3.429   2.621   1.511  1.00  0.00     0.312 HD
ENDBRANCH  27  28
ENDBRANCH  23  27
ENDBRANCH  22  23
ENDBRANCH  21  22
ENDBRANCH  10  21
BRANCH   1  31
HETATM   31  O1  UNL     1      -2.566  -3.556   0.280  1.00  0.00    -0.353 OA
HETATM   32  C1  UNL     1      -2.528  -4.843   0.808  1.00  0.00     0.210 C 
ENDBRANCH   1  31
TORSDOF 9
