REMARK  9 active torsions:
REMARK  status: ('A' for Active; 'I' for Inactive)
REMARK    1  A    between atoms: O1_2  and  C2_3 
REMARK    2  A    between atoms: C6_9  and  N3_10 
REMARK    3  A    between atoms: N3_10  and  C7_11 
REMARK    4  A    between atoms: C15_21  and  O2_22 
REMARK    5  A    between atoms: O2_22  and  C16_23 
REMARK    6  A    between atoms: C16_23  and  C17_24 
REMARK    7  A    between atoms: C17_24  and  C18_25 
REMARK    8  A    between atoms: C17_24  and  O3_27 
REMARK    9  A    between atoms: C18_25  and  N4_26 
ROOT
HETATM    1  C2  UNL     1      -1.394  -2.142  -1.283  1.00  0.00     0.103 A 
HETATM    2  C3  UNL     1      -0.319  -2.889  -1.714  1.00  0.00     0.072 A 
HETATM    3  C4  UNL     1       0.959  -2.446  -1.458  1.00  0.00     0.075 A 
HETATM    4  N1  UNL     1       1.986  -3.226  -1.910  1.00  0.00    -0.241 NA
HETATM    5  C5  UNL     1       3.271  -2.833  -1.684  1.00  0.00     0.236 A 
HETATM    6  N2  UNL     1       3.524  -1.701  -1.030  1.00  0.00    -0.224 NA
HETATM    7  C6  UNL     1       2.566  -0.894  -0.563  1.00  0.00     0.142 A 
HETATM    8  C13 UNL     1       1.267  -1.281  -0.786  1.00  0.00     0.042 A 
HETATM    9  C14 UNL     1       0.157  -0.594  -0.389  1.00  0.00     0.057 A 
HETATM   10  C15 UNL     1      -1.143  -0.965  -0.604  1.00  0.00     0.103 A 
ENDROOT
BRANCH   7  11
HETATM   11  N3  UNL     1       2.799   0.315   0.135  1.00  0.00    -0.340 N 
HETATM   12  H6  UNL     1       2.045   0.890   0.503  1.00  0.00     0.167 HD
BRANCH  11  13
HETATM   13  C7  UNL     1       4.045   0.915   0.433  1.00  0.00     0.035 A 
HETATM   14  C8  UNL     1       5.228   0.510  -0.141  1.00  0.00     0.032 A 
HETATM   15  C9  UNL     1       6.460   1.062   0.132  1.00  0.00     0.046 A 
HETATM   16  C10 UNL     1       6.569   2.093   1.035  1.00  0.00     0.138 A 
HETATM   17  F1  UNL     1       7.709   2.726   1.398  1.00  0.00    -0.204 F 
HETATM   18  C11 UNL     1       5.417   2.541   1.642  1.00  0.00     0.074 A 
HETATM   19 CL1  UNL     1       5.449   3.848   2.805  1.00  0.00    -0.081 Cl
HETATM   20  C12 UNL     1       4.219   1.947   1.324  1.00  0.00     0.056 A 
ENDBRANCH  11  13
ENDBRANCH   7  11
BRANCH  10  21
HETATM   21  O2  UNL     1      -2.229  -0.227  -0.178  1.00  0.00    -0.346 OA
BRANCH  21  22
HETATM   22  C16 UNL     1      -2.134   0.990   0.525  1.00  0.00     0.209 C 
BRANCH  22  23
HETATM   23  C17 UNL     1      -3.533   1.462   0.797  1.00  0.00     0.172 C 
BRANCH  23  24
HETATM   24  C18 UNL     1      -3.503   2.803   1.495  1.00  0.00     0.300 C 
BRANCH  24  25
HETATM   25  N4  UNL     1      -4.826   3.299   1.750  1.00  0.00     0.080 N 
HETATM   26  H16 UNL     1      -5.246   3.804   0.939  1.00  0.00     0.312 HD
HETATM   27  H17 UNL     1      -5.464   2.581   2.147  1.00  0.00     0.312 HD
ENDBRANCH  24  25
ENDBRANCH  23  24
BRANCH  23  28
HETATM   28  O3  UNL     1      -4.188   0.510   1.555  1.00  0.00    -0.387 OA
HETATM   29  C19 UNL     1      -5.281  -0.041   0.886  1.00  0.00     0.202 C 
ENDBRANCH  23  28
ENDBRANCH  22  23
ENDBRANCH  21  22
ENDBRANCH  10  21
BRANCH   1  30
HETATM   30  O1  UNL     1      -2.700  -2.550  -1.519  1.00  0.00    -0.353 OA
HETATM   31  C1  UNL     1      -2.874  -3.768  -2.223  1.00  0.00     0.210 C 
ENDBRANCH   1  30
TORSDOF 9
