REMARK  8 active torsions:
REMARK  status: ('A' for Active; 'I' for Inactive)
REMARK    1  A    between atoms: O1_2  and  C2_3 
REMARK    2  A    between atoms: C6_9  and  C7_10 
REMARK    3  A    between atoms: C7_10  and  C8_11 
REMARK    4  A    between atoms: C7_10  and  C9_13 
REMARK    5  A    between atoms: C8_11  and  N3_12 
REMARK    6  A    between atoms: C9_13  and  C10_14 
REMARK    7  A    between atoms: C10_14  and  C11_15 
REMARK    8  A    between atoms: C16_22  and  O3_23 
ROOT
HETATM    1  C2  UNL     1      -1.873   2.823  -0.733  1.00  0.00     0.104 A 
HETATM    2  C3  UNL     1      -0.738   3.561  -0.660  1.00  0.00     0.072 A 
HETATM    3  C4  UNL     1       0.520   3.141  -0.368  1.00  0.00     0.074 A 
HETATM    4  N1  UNL     1       1.667   3.800  -0.291  1.00  0.00    -0.241 NA
HETATM    5  C5  UNL     1       2.829   3.149   0.016  1.00  0.00     0.234 A 
HETATM    6  N2  UNL     1       2.857   1.826   0.251  1.00  0.00    -0.245 NA
HETATM    7  C6  UNL     1       1.799   0.983   0.221  1.00  0.00     0.055 A 
HETATM    8  C12 UNL     1       0.817   1.846  -0.094  1.00  0.00     0.035 A 
HETATM    9  C13 UNL     1      -0.445   1.430  -0.246  1.00  0.00     0.056 A 
HETATM   10  C14 UNL     1      -1.904   1.508  -0.515  1.00  0.00     0.117 A 
HETATM   11  O2  UNL     1      -2.357   0.212  -0.375  1.00  0.00    -0.345 OA
HETATM   12  C15 UNL     1      -2.921  -0.686  -1.196  1.00  0.00     0.209 C 
HETATM   13  C16 UNL     1      -3.139  -2.107  -0.742  1.00  0.00     0.164 C 
HETATM   14  C17 UNL     1      -2.040  -3.093  -0.939  1.00  0.00     0.189 A 
HETATM   15  N4  UNL     1      -1.063  -3.402   0.062  1.00  0.00    -0.383 N 
HETATM   16  C18 UNL     1      -0.884  -2.247  -0.008  1.00  0.00     0.065 A 
HETATM   17  P1  UNL     1      -0.725  -1.061  -0.081  1.00  0.00     0.161 P 
HETATM   18  F1  UNL     1      -0.640  -0.502  -0.112  1.00  0.00    -0.214 F 
HETATM   19  H21 UNL     1      -0.365  -3.603   0.772  1.00  0.00     0.160 HD
ENDROOT
BRANCH   7  20
HETATM   20  C7  UNL     1       1.822  -0.452   0.508  1.00  0.00     0.067 C 
BRANCH  20  21
HETATM   21  C8  UNL     1       1.668  -0.775   1.964  1.00  0.00     0.277 C 
BRANCH  21  22
HETATM   22  N3  UNL     1       1.674  -2.168   2.308  1.00  0.00     0.079 N 
HETATM   23  H9  UNL     1       2.184  -2.285   3.240  1.00  0.00     0.312 HD
HETATM   24  H10 UNL     1       0.715  -2.527   2.544  1.00  0.00     0.312 HD
ENDBRANCH  21  22
ENDBRANCH  20  21
BRANCH  20  25
HETATM   25  C9  UNL     1       3.410  -0.639   0.411  1.00  0.00     0.019 C 
BRANCH  25  26
HETATM   26  C10 UNL     1       3.731  -2.038   0.659  1.00  0.00     0.012 C 
BRANCH  26  27
HETATM   27  C11 UNL     1       4.522  -2.495   1.612  1.00  0.00     0.237 C 
HETATM   28 CL1  UNL     1       5.302  -1.417   2.728  1.00  0.00    -0.255 Cl
ENDBRANCH  26  27
ENDBRANCH  25  26
ENDBRANCH  20  25
ENDBRANCH   7  20
BRANCH   1  29
HETATM   29  O1  UNL     1      -3.187   3.010  -0.995  1.00  0.00    -0.353 OA
HETATM   30  C1  UNL     1      -3.749   4.253  -1.304  1.00  0.00     0.210 C 
ENDBRANCH   1  29
BRANCH  13  31
HETATM   31  O3  UNL     1      -4.025  -2.529  -1.942  1.00  0.00    -0.391 OA
HETATM   32  H18 UNL     1      -3.360  -2.381  -2.647  1.00  0.00     0.210 HD
ENDBRANCH  13  31
TORSDOF 8
