REMARK  5 active torsions:
REMARK  status: ('A' for Active; 'I' for Inactive)
REMARK    1  A    between atoms: P1_2  and  O1_3 
REMARK    2  A    between atoms: O1_3  and  C2_4 
REMARK    3  A    between atoms: C5_7  and  N1_8 
REMARK    4  A    between atoms: N1_8  and  C6_9 
REMARK    5  A    between atoms: C15_22  and  O2_23 
ROOT
HETATM    1  C2  UNL     1       2.468   0.213   0.412  1.00  0.00     0.107 A 
HETATM    2  C3  UNL     1       1.096   0.203   0.352  1.00  0.00     0.057 A 
HETATM    3  C4  UNL     1       0.320  -0.889   0.062  1.00  0.00     0.042 A 
HETATM    4  C5  UNL     1      -1.058  -0.869   0.009  1.00  0.00     0.142 A 
HETATM    5  N2  UNL     1      -1.566  -2.066  -0.294  1.00  0.00    -0.224 NA
HETATM    6  C12 UNL     1      -0.903  -3.189  -0.531  1.00  0.00     0.236 A 
HETATM    7  N3  UNL     1       0.439  -3.184  -0.473  1.00  0.00    -0.241 NA
HETATM    8  C13 UNL     1       1.065  -2.025  -0.174  1.00  0.00     0.075 A 
HETATM    9  C14 UNL     1       2.427  -2.083  -0.130  1.00  0.00     0.072 A 
HETATM   10  C15 UNL     1       3.150  -0.968   0.163  1.00  0.00     0.101 A 
ENDROOT
BRANCH   4  11
HETATM   11  N1  UNL     1      -1.753   0.314   0.257  1.00  0.00    -0.340 N 
HETATM   12  H6  UNL     1      -1.256   1.197   0.478  1.00  0.00     0.167 HD
BRANCH  11  13
HETATM   13  C6  UNL     1      -3.143   0.538   0.259  1.00  0.00     0.035 A 
HETATM   14  C7  UNL     1      -4.038  -0.480   0.036  1.00  0.00     0.032 A 
HETATM   15  C8  UNL     1      -5.407  -0.313   0.026  1.00  0.00     0.046 A 
HETATM   16  C9  UNL     1      -5.966   0.926   0.246  1.00  0.00     0.138 A 
HETATM   17  F1  UNL     1      -7.283   1.212   0.260  1.00  0.00    -0.204 F 
HETATM   18  C10 UNL     1      -5.104   1.975   0.474  1.00  0.00     0.074 A 
HETATM   19 CL1  UNL     1      -5.718   3.588   0.764  1.00  0.00    -0.081 Cl
HETATM   20  C11 UNL     1      -3.748   1.744   0.471  1.00  0.00     0.056 A 
ENDBRANCH  11  13
ENDBRANCH   4  11
BRANCH   1  21
HETATM   21  O1  UNL     1       3.209   1.359   0.714  1.00  0.00    -0.325 OA
BRANCH  21  22
HETATM   22  P1  UNL     1       4.944   1.246   0.760  1.00  0.00     0.016 P 
HETATM   23  C1  UNL     1       5.761   2.041  -0.680  1.00  0.00     0.072 C 
HETATM   24  H4  UNL     1       5.527   1.559   2.030  1.00  0.00     0.087 HD
ENDBRANCH  21  22
ENDBRANCH   1  21
BRANCH  10  25
HETATM   25  O2  UNL     1       4.532  -1.013   0.210  1.00  0.00    -0.358 OA
HETATM   26  H12 UNL     1       5.089  -1.646  -0.336  1.00  0.00     0.217 HD
ENDBRANCH  10  25
TORSDOF 5
