REMARK  7 active torsions:
REMARK  status: ('A' for Active; 'I' for Inactive)
REMARK    1  A    between atoms: C1_2  and  C2_3 
REMARK    2  A    between atoms: C1_2  and  O3_12 
REMARK    3  A    between atoms: C2_3  and  C3_4 
REMARK    4  A    between atoms: C3_4  and  C4_5 
REMARK    5  A    between atoms: C7_8  and  O2_9 
REMARK    6  A    between atoms: O3_12  and  C10_13 
REMARK    7  A    between atoms: C14_18  and  O5_19 
ROOT
HETATM    1  O1  UNL     1      -0.480   0.008  -0.433  1.00  0.00    -0.265 OA
HETATM    2  C1  UNL     1      -0.487  -0.815  -1.384  1.00  0.00     0.264 C 
ENDROOT
BRANCH   2   3
HETATM    3  C2  UNL     1       0.993  -0.945  -1.357  1.00  0.00     0.116 C 
BRANCH   3   4
HETATM    4  C3  UNL     1       1.497  -0.052  -0.257  1.00  0.00     0.048 C 
BRANCH   4   5
HETATM    5  C4  UNL     1       2.942  -0.057  -0.092  1.00  0.00    -0.058 A 
HETATM    6  C5  UNL     1       3.702   0.866  -0.809  1.00  0.00     0.010 A 
HETATM    7  C6  UNL     1       5.078   0.946  -0.727  1.00  0.00     0.037 A 
HETATM    8  C7  UNL     1       5.737   0.069   0.109  1.00  0.00     0.065 A 
HETATM    9  C8  UNL     1       5.043  -0.884   0.860  1.00  0.00     0.037 A 
HETATM   10  C9  UNL     1       3.674  -0.899   0.721  1.00  0.00     0.010 A 
BRANCH   8  11
HETATM   11  O2  UNL     1       7.120   0.107   0.230  1.00  0.00    -0.361 OA
HETATM   12  H7  UNL     1       7.673   0.327  -0.612  1.00  0.00     0.217 HD
ENDBRANCH   8  11
ENDBRANCH   4   5
ENDBRANCH   3   4
ENDBRANCH   2   3
BRANCH   2  13
HETATM   13  O3  UNL     1      -1.863  -0.782  -1.510  1.00  0.00    -0.277 OA
BRANCH  13  14
HETATM   14  C10 UNL     1      -2.653  -0.004  -0.710  1.00  0.00     0.103 C 
HETATM   15  C11 UNL     1      -2.603   1.335  -0.614  1.00  0.00     0.172 C 
HETATM   16  O4  UNL     1      -3.385   2.177   0.186  1.00  0.00    -0.360 OA
HETATM   17  C12 UNL     1      -4.297   1.810   1.210  1.00  0.00     0.181 C 
HETATM   18  C13 UNL     1      -5.354   0.855   0.701  1.00  0.00     0.091 C 
HETATM   19  C14 UNL     1      -4.744  -0.521   0.664  1.00  0.00     0.048 C 
HETATM   20  C15 UNL     1      -3.595  -0.850   0.055  1.00  0.00     0.071 C 
BRANCH  19  21
HETATM   21  O5  UNL     1      -5.438  -1.529   1.319  1.00  0.00    -0.365 OA
HETATM   22  H15 UNL     1      -5.192  -1.714   2.290  1.00  0.00     0.217 HD
ENDBRANCH  19  21
ENDBRANCH  13  14
ENDBRANCH   2  13
TORSDOF 7
