REMARK  5 active torsions:
REMARK  status: ('A' for Active; 'I' for Inactive)
REMARK    1  A    between atoms: C4_5  and  N1_6 
REMARK    2  A    between atoms: C8_10  and  P1_11 
REMARK    3  A    between atoms: P1_11  and  C9_12 
REMARK    4  A    between atoms: C9_12  and  C10_13 
REMARK    5  A    between atoms: C10_13  and  N2_14 
ROOT
HETATM    1  N1  UNL     1      -3.462   0.895   0.560  1.00  0.00     0.078 N 
HETATM    2  C5  UNL     1      -2.165   0.688   0.911  1.00  0.00     0.240 A 
HETATM    3  C6  UNL     1      -1.079   0.550   1.362  1.00  0.00     0.055 C 
HETATM    4  C7  UNL     1       0.275   0.332   1.693  1.00  0.00     0.011 C 
HETATM    5  C8  UNL     1       1.191   0.024   0.771  1.00  0.00    -0.052 C 
HETATM    6  C14 UNL     1       0.662  -0.301  -0.590  1.00  0.00     0.066 C 
HETATM    7  C15 UNL     1       1.091  -1.700  -0.920  1.00  0.00    -0.021 C 
HETATM    8  C16 UNL     1       0.041  -2.564  -0.822  1.00  0.00     0.015 C 
HETATM    9  C17 UNL     1      -1.285  -2.123  -0.441  1.00  0.00     0.117 C 
HETATM   10  N4  UNL     1      -2.005  -1.068  -0.123  1.00  0.00    -0.260 NA
HETATM   11  C18 UNL     1      -3.422  -1.326   0.210  1.00  0.00     0.214 C 
HETATM   12  N5  UNL     1      -3.356  -0.220   0.840  1.00  0.00    -0.032 NA
HETATM   13  H3  UNL     1      -2.976   1.853   0.213  1.00  0.00     0.319 HD
ENDROOT
BRANCH   1  14
HETATM   14  C4  UNL     1      -4.795   1.102   0.203  1.00  0.00     0.163 A 
HETATM   15  C3  UNL     1      -5.653   1.612   1.106  1.00  0.00     0.043 A 
HETATM   16  C2  UNL     1      -6.790   1.547   0.498  1.00  0.00     0.046 A 
HETATM   17  C1  UNL     1      -7.320   1.175  -0.623  1.00  0.00     0.138 A 
HETATM   18  F1  UNL     1      -8.499   1.057  -1.219  1.00  0.00    -0.204 F 
HETATM   19  C20 UNL     1      -6.266   0.669  -1.445  1.00  0.00     0.074 A 
HETATM   20  C19 UNL     1      -4.837   0.574  -1.111  1.00  0.00     0.066 A 
HETATM   21 CL1  UNL     1      -6.663   0.015  -3.084  1.00  0.00    -0.081 Cl
ENDBRANCH   1  14
BRANCH   5  22
HETATM   22  P1  UNL     1       3.000  -0.248   1.018  1.00  0.00    -0.097 P 
HETATM   23  H6  UNL     1       3.529   1.097   1.502  1.00  0.00     0.062 HD
BRANCH  22  24
HETATM   24  C9  UNL     1       3.848  -0.650  -0.563  1.00  0.00     0.056 C 
BRANCH  24  25
HETATM   25  C10 UNL     1       4.829   0.385  -1.042  1.00  0.00     0.134 C 
BRANCH  25  26
HETATM   26  N2  UNL     1       5.887   0.730  -0.230  1.00  0.00    -0.350 N 
HETATM   27  C11 UNL     1       6.803   1.264   0.616  1.00  0.00     0.111 A 
HETATM   28  C12 UNL     1       7.857   0.574   1.155  1.00  0.00     0.135 A 
HETATM   29  N3  UNL     1       7.653  -0.659   0.596  1.00  0.00    -0.255 NA
HETATM   30  C13 UNL     1       6.535  -0.536  -0.174  1.00  0.00     0.209 A 
ENDBRANCH  25  26
ENDBRANCH  24  25
ENDBRANCH  22  24
ENDBRANCH   5  22
TORSDOF 5
