REMARK  4 active torsions:
REMARK  status: ('A' for Active; 'I' for Inactive)
REMARK    1  A    between atoms: C2_3  and  C3_4 
REMARK    2  A    between atoms: C2_3  and  O1_19 
REMARK    3  A    between atoms: C3_4  and  C4_5 
REMARK    4  A    between atoms: C4_5  and  C5_6 
ROOT
HETATM    1  B1  UNL     1       2.932   4.133   1.921  1.00  0.00     0.193 B 
HETATM    2  C1  UNL     1       2.169   1.884   1.050  1.00  0.00    -0.221 C 
HETATM    3  C2  UNL     1       1.723   0.633   0.549  1.00  0.00     0.144 C 
ENDROOT
BRANCH   3   4
HETATM    4  C3  UNL     1       0.758   1.202  -0.136  1.00  0.00     0.066 C 
BRANCH   4   5
HETATM    5  C4  UNL     1      -0.014   0.172  -0.865  1.00  0.00     0.050 A 
HETATM    6  C6  UNL     1      -0.724   0.743  -2.042  1.00  0.00     0.011 A 
HETATM    7  C7  UNL     1      -2.007   0.832  -2.343  1.00  0.00     0.085 A 
HETATM    8  N2  UNL     1      -2.888   0.286  -1.370  1.00  0.00    -0.366 N 
HETATM    9  C8  UNL     1      -2.401  -0.307  -0.172  1.00  0.00     0.041 A 
HETATM   10  H6  UNL     1      -3.909   0.343  -1.580  1.00  0.00     0.165 HD
HETATM   11  C9  UNL     1      -3.362  -0.796   0.677  1.00  0.00     0.057 A 
HETATM   12  C13 UNL     1      -1.025  -0.367   0.079  1.00  0.00    -0.010 A 
HETATM   13  C10 UNL     1      -2.980  -1.387   1.857  1.00  0.00     0.074 A 
HETATM   14 CL1  UNL     1      -4.179  -2.021   2.964  1.00  0.00    -0.081 Cl
HETATM   15  C11 UNL     1      -1.619  -1.478   2.165  1.00  0.00     0.138 A 
HETATM   16  F1  UNL     1      -1.284  -2.067   3.335  1.00  0.00    -0.204 F 
HETATM   17  C12 UNL     1      -0.712  -0.967   1.268  1.00  0.00     0.055 A 
BRANCH   5  18
HETATM   18  C5  UNL     1       0.920  -0.873  -1.348  1.00  0.00     0.099 C 
HETATM   19  N1  UNL     1       1.858  -0.421  -2.098  1.00  0.00    -0.315 NA
HETATM   20  H3  UNL     1       1.968   0.568  -2.352  1.00  0.00     0.185 HD
ENDBRANCH   5  18
ENDBRANCH   4   5
ENDBRANCH   3   4
BRANCH   3  21
HETATM   21  O1  UNL     1       2.761   0.235   1.311  1.00  0.00    -0.370 OA
HETATM   22  C14 UNL     1       4.008  -0.218   0.808  1.00  0.00     0.204 C 
ENDBRANCH   3  21
TORSDOF 4
