REMARK  5 active torsions:
REMARK  status: ('A' for Active; 'I' for Inactive)
REMARK    1  A    between atoms: C2_2  and  C3_3 
REMARK    2  A    between atoms: B1_8  and  N1_9 
REMARK    3  A    between atoms: N1_9  and  C7_10 
REMARK    4  A    between atoms: C15_22  and  N4_23 
REMARK    5  A    between atoms: N4_23  and  C16_24 
ROOT
HETATM    1  C3  UNL     1       1.791  -1.501   0.378  1.00  0.00     0.151 C 
HETATM    2  O1  UNL     1       1.309  -2.480  -0.624  1.00  0.00    -0.330 OA
HETATM    3  C4  UNL     1       0.960  -1.194  -1.253  1.00  0.00     0.070 C 
HETATM    4  C5  UNL     1      -0.240  -0.902  -1.676  1.00  0.00     0.013 C 
HETATM    5  C6  UNL     1      -0.658  -0.868  -0.232  1.00  0.00     0.074 A 
HETATM    6  B1  UNL     1      -1.748   0.196   0.095  1.00  0.00     0.446 B 
HETATM    7  N2  UNL     1      -1.463   1.247   1.145  1.00  0.00    -0.320 NA
HETATM    8  C13 UNL     1      -0.316   1.261   1.722  1.00  0.00     0.210 A 
HETATM    9  N3  UNL     1       0.720   0.330   1.430  1.00  0.00    -0.249 NA
HETATM   10  C14 UNL     1       0.592  -0.599   0.573  1.00  0.00     0.058 A 
HETATM   11  C15 UNL     1       2.465  -1.010  -0.947  1.00  0.00     0.179 C 
ENDROOT
BRANCH   6  12
HETATM   12  N1  UNL     1      -2.846   0.414  -0.960  1.00  0.00    -0.417 N 
HETATM   13  H6  UNL     1      -2.524   0.576  -1.940  1.00  0.00     0.140 HD
BRANCH  12  14
HETATM   14  C7  UNL     1      -4.235   0.396  -0.624  1.00  0.00     0.017 A 
HETATM   15  C8  UNL     1      -4.972  -0.784  -0.659  1.00  0.00     0.031 A 
HETATM   16  C9  UNL     1      -6.312  -0.695  -0.315  1.00  0.00     0.046 A 
HETATM   17  C10 UNL     1      -6.908   0.498   0.049  1.00  0.00     0.138 A 
HETATM   18  F1  UNL     1      -8.241   0.488   0.373  1.00  0.00    -0.204 F 
HETATM   19  C11 UNL     1      -6.165   1.669   0.081  1.00  0.00     0.074 A 
HETATM   20 CL1  UNL     1      -6.960   3.161   0.549  1.00  0.00    -0.081 Cl
HETATM   21  C12 UNL     1      -4.828   1.605  -0.258  1.00  0.00     0.054 A 
ENDBRANCH  12  14
ENDBRANCH   6  12
BRANCH   1  22
HETATM   22  C2  UNL     1       2.576  -1.947   1.441  1.00  0.00     0.010 C 
HETATM   23  C1  UNL     1       2.395  -1.704   2.722  1.00  0.00     0.010 C 
ENDBRANCH   1  22
BRANCH  11  24
HETATM   24  N4  UNL     1       2.920   0.315  -0.947  1.00  0.00    -0.405 N 
HETATM   25  H12 UNL     1       2.275   1.070  -1.192  1.00  0.00     0.154 HD
BRANCH  24  26
HETATM   26  C16 UNL     1       3.920   0.631   0.038  1.00  0.00     0.069 C 
HETATM   27  C17 UNL     1       5.171  -0.172  -0.101  1.00  0.00     0.031 C 
HETATM   28  C18 UNL     1       4.286   2.105   0.004  1.00  0.00     0.031 C 
ENDBRANCH  24  26
ENDBRANCH  11  24
TORSDOF 5
