REMARK  5 active torsions:
REMARK  status: ('A' for Active; 'I' for Inactive)
REMARK    1  A    between atoms: O1_2  and  C2_3 
REMARK    2  A    between atoms: C13_17  and  O2_18 
REMARK    3  A    between atoms: O2_18  and  C14_19 
REMARK    4  A    between atoms: C14_19  and  C15_20 
REMARK    5  A    between atoms: C15_20  and  N3_21 
ROOT
HETATM    1  C2  UNL     1       0.154   2.252   0.605  1.00  0.00     0.103 C 
HETATM    2  C3  UNL     1       1.469   2.502   0.748  1.00  0.00     0.069 C 
HETATM    3  C4  UNL     1       2.251   1.337   0.374  1.00  0.00     0.069 C 
HETATM    4  N1  UNL     1       3.528   1.596   0.212  1.00  0.00    -0.178 NA
HETATM    5  N2  UNL     1       4.464   0.637  -0.174  1.00  0.00    -0.278 N 
HETATM    6  C5  UNL     1       3.991  -0.680  -0.424  1.00  0.00     0.057 A 
HETATM    7  C6  UNL     1       4.917  -1.618  -0.875  1.00  0.00     0.034 A 
HETATM    8  C7  UNL     1       4.452  -2.901  -1.192  1.00  0.00     0.044 A 
HETATM    9  C8  UNL     1       3.099  -3.232  -1.060  1.00  0.00     0.117 A 
HETATM   10  F1  UNL     1       2.702  -4.486  -1.382  1.00  0.00    -0.206 F 
HETATM   11  C9  UNL     1       2.176  -2.287  -0.606  1.00  0.00     0.052 A 
HETATM   12  C10 UNL     1       2.667  -1.037  -0.303  1.00  0.00    -0.013 A 
HETATM   13  C11 UNL     1       1.788  -0.038   0.240  1.00  0.00     0.100 C 
HETATM   14  C12 UNL     1       0.342  -0.114   0.035  1.00  0.00     0.028 C 
HETATM   15  C13 UNL     1      -0.410   0.961   0.226  1.00  0.00     0.099 C 
HETATM   16  H5  UNL     1       5.460   0.866  -0.277  1.00  0.00     0.189 HD
ENDROOT
BRANCH  15  17
HETATM   17  O2  UNL     1      -1.781   0.814   0.051  1.00  0.00    -0.347 OA
BRANCH  17  18
HETATM   18  C14 UNL     1      -2.408   0.732  -1.213  1.00  0.00     0.196 C 
BRANCH  18  19
HETATM   19  C15 UNL     1      -3.892   0.579  -0.962  1.00  0.00     0.156 C 
BRANCH  19  20
HETATM   20  N3  UNL     1      -4.119  -0.616  -0.202  1.00  0.00    -0.348 N 
HETATM   21  C16 UNL     1      -4.341  -1.841  -0.674  1.00  0.00     0.111 A 
HETATM   22  C17 UNL     1      -4.516  -2.745   0.351  1.00  0.00     0.135 A 
HETATM   23  N4  UNL     1      -4.394  -2.034   1.502  1.00  0.00    -0.255 NA
HETATM   24  C18 UNL     1      -4.158  -0.767   1.127  1.00  0.00     0.209 A 
ENDBRANCH  19  20
ENDBRANCH  18  19
ENDBRANCH  17  18
ENDBRANCH  15  17
BRANCH   1  25
HETATM   25  O1  UNL     1      -0.762   3.259   0.872  1.00  0.00    -0.353 OA
HETATM   26  C1  UNL     1      -0.639   4.051   2.054  1.00  0.00     0.210 C 
ENDBRANCH   1  25
TORSDOF 5
