REMARK  8 active torsions:
REMARK  status: ('A' for Active; 'I' for Inactive)
REMARK    1  A    between atoms: O1_2  and  C2_3 
REMARK    2  A    between atoms: C6_9  and  N3_10 
REMARK    3  A    between atoms: N3_10  and  C7_11 
REMARK    4  A    between atoms: C15_21  and  O2_22 
REMARK    5  A    between atoms: O2_22  and  C16_23 
REMARK    6  A    between atoms: C16_23  and  C17_24 
REMARK    7  A    between atoms: C17_24  and  N4_25 
REMARK    8  A    between atoms: N4_25  and  C18_26 
ROOT
HETATM    1  C2  UNL     1       0.247  -3.460   0.166  1.00  0.00     0.103 A 
HETATM    2  C3  UNL     1      -0.932  -3.710  -0.548  1.00  0.00     0.072 A 
HETATM    3  C4  UNL     1      -1.761  -2.644  -0.746  1.00  0.00     0.075 A 
HETATM    4  N1  UNL     1      -2.891  -2.879  -1.433  1.00  0.00    -0.241 NA
HETATM    5  C5  UNL     1      -3.737  -1.865  -1.656  1.00  0.00     0.236 A 
HETATM    6  N2  UNL     1      -3.525  -0.627  -1.234  1.00  0.00    -0.224 NA
HETATM    7  C6  UNL     1      -2.415  -0.338  -0.545  1.00  0.00     0.142 A 
HETATM    8  C13 UNL     1      -1.519  -1.352  -0.295  1.00  0.00     0.042 A 
HETATM    9  C14 UNL     1      -0.352  -1.223   0.383  1.00  0.00     0.057 A 
HETATM   10  C15 UNL     1       0.584  -2.188   0.665  1.00  0.00     0.103 A 
ENDROOT
BRANCH   7  11
HETATM   11  N3  UNL     1      -2.142   0.962  -0.076  1.00  0.00    -0.340 N 
HETATM   12  H6  UNL     1      -1.307   1.190   0.502  1.00  0.00     0.167 HD
BRANCH  11  13
HETATM   13  C7  UNL     1      -2.908   2.132  -0.292  1.00  0.00     0.035 A 
HETATM   14  C8  UNL     1      -3.871   2.249  -1.271  1.00  0.00     0.032 A 
HETATM   15  C9  UNL     1      -4.636   3.374  -1.488  1.00  0.00     0.046 A 
HETATM   16  C10 UNL     1      -4.454   4.482  -0.689  1.00  0.00     0.138 A 
HETATM   17  F1  UNL     1      -5.153   5.634  -0.818  1.00  0.00    -0.204 F 
HETATM   18  C11 UNL     1      -3.508   4.436   0.309  1.00  0.00     0.074 A 
HETATM   19 CL1  UNL     1      -3.215   5.807   1.373  1.00  0.00    -0.081 Cl
HETATM   20  C12 UNL     1      -2.782   3.278   0.466  1.00  0.00     0.056 A 
ENDBRANCH  11  13
ENDBRANCH   7  11
BRANCH  10  21
HETATM   21  O2  UNL     1       1.714  -2.226   1.279  1.00  0.00    -0.347 OA
BRANCH  21  22
HETATM   22  C16 UNL     1       2.773  -1.834   1.955  1.00  0.00     0.195 C 
BRANCH  22  23
HETATM   23  C17 UNL     1       3.687  -0.772   1.333  1.00  0.00     0.147 C 
BRANCH  23  24
HETATM   24  N4  UNL     1       2.913   0.422   1.129  1.00  0.00    -0.375 N 
HETATM   25  H15 UNL     1       1.937   0.637   1.373  1.00  0.00     0.160 HD
BRANCH  24  26
HETATM   26  C18 UNL     1       3.586   1.532   0.488  1.00  0.00     0.121 C 
HETATM   27  N5  UNL     1       4.839   1.550   0.197  1.00  0.00    -0.249 NA
HETATM   28  C19 UNL     1       5.135   2.821  -0.429  1.00  0.00     0.319 C 
HETATM   29  O3  UNL     1       4.108   3.640   0.023  1.00  0.00    -0.363 OA
HETATM   30  C20 UNL     1       2.965   2.818   0.065  1.00  0.00     0.247 C 
ENDBRANCH  24  26
ENDBRANCH  23  24
ENDBRANCH  22  23
ENDBRANCH  21  22
ENDBRANCH  10  21
BRANCH   1  31
HETATM   31  O1  UNL     1       1.051  -4.603   0.330  1.00  0.00    -0.353 OA
HETATM   32  C1  UNL     1       0.687  -5.852  -0.178  1.00  0.00     0.210 C 
ENDBRANCH   1  31
TORSDOF 8
