REMARK  10 active torsions:
REMARK  status: ('A' for Active; 'I' for Inactive)
REMARK    1  A    between atoms: C2_2  and  O1_3 
REMARK    2  A    between atoms: C3_4  and  O2_5 
REMARK    3  A    between atoms: O2_5  and  C4_6 
REMARK    4  A    between atoms: C6_8  and  C7_9 
REMARK    5  A    between atoms: C6_8  and  C8_11 
REMARK    6  A    between atoms: C7_9  and  O3_10 
REMARK    7  A    between atoms: C8_11  and  C9_13 
REMARK    8  A    between atoms: C9_13  and  C10_14 
REMARK    9  A    between atoms: C10_14  and  C11_15 
REMARK   10  A    between atoms: C14_18  and  O5_19 
ROOT
HETATM    1  C4  UNL     1      -2.122  -0.657  -1.553  1.00  0.00     0.060 C 
HETATM    2  C5  UNL     1      -3.294  -1.308  -2.247  1.00  0.00     0.077 C 
HETATM    3  C6  UNL     1      -1.362  -1.593  -1.019  1.00  0.00     0.040 C 
ENDROOT
BRANCH   3   4
HETATM    4  C7  UNL     1      -0.598  -2.770  -0.467  1.00  0.00     0.209 C 
BRANCH   4   5
HETATM    5  O3  UNL     1      -0.456  -2.761   0.894  1.00  0.00    -0.396 OA
HETATM    6  H11 UNL     1      -1.322  -2.956   1.336  1.00  0.00     0.209 HD
ENDBRANCH   4   5
ENDBRANCH   3   4
BRANCH   3   7
HETATM    7  C8  UNL     1      -0.383  -0.571  -0.545  1.00  0.00     0.160 C 
HETATM    8  O4  UNL     1      -0.467   0.694  -0.743  1.00  0.00    -0.293 OA
BRANCH   7   9
HETATM    9  C9  UNL     1       0.873  -0.394   0.197  1.00  0.00     0.088 C 
BRANCH   9  10
HETATM   10  C10 UNL     1       1.817   0.507  -0.615  1.00  0.00     0.046 C 
BRANCH  10  11
HETATM   11  C11 UNL     1       3.103   0.683   0.132  1.00  0.00    -0.058 A 
HETATM   12  C12 UNL     1       3.363   1.750   1.006  1.00  0.00     0.010 A 
HETATM   13  C13 UNL     1       4.597   1.789   1.654  1.00  0.00     0.037 A 
HETATM   14  C14 UNL     1       5.517   0.774   1.409  1.00  0.00     0.065 A 
HETATM   15  C15 UNL     1       5.238  -0.244   0.559  1.00  0.00     0.037 A 
HETATM   16  C16 UNL     1       4.035  -0.327  -0.105  1.00  0.00     0.010 A 
BRANCH  14  17
HETATM   17  O5  UNL     1       6.758   0.755   2.022  1.00  0.00    -0.361 OA
HETATM   18  H18 UNL     1       7.577   1.153   1.544  1.00  0.00     0.217 HD
ENDBRANCH  14  17
ENDBRANCH  10  11
ENDBRANCH   9  10
ENDBRANCH   7   9
ENDBRANCH   3   7
BRANCH   1  19
HETATM   19  O2  UNL     1      -2.341   0.727  -1.776  1.00  0.00    -0.324 OA
BRANCH  19  20
HETATM   20  C3  UNL     1      -3.445   1.245  -1.069  1.00  0.00     0.173 C 
HETATM   21  C2  UNL     1      -4.137   1.151   0.057  1.00  0.00     0.061 C 
HETATM   22  C1  UNL     1      -5.321   1.997   0.337  1.00  0.00     0.078 C 
BRANCH  21  23
HETATM   23  O1  UNL     1      -3.832   0.273   1.062  1.00  0.00    -0.363 OA
HETATM   24  H4  UNL     1      -4.267  -0.637   1.051  1.00  0.00     0.217 HD
ENDBRANCH  21  23
ENDBRANCH  19  20
ENDBRANCH   1  19
TORSDOF 10
