REMARK  5 active torsions:
REMARK  status: ('A' for Active; 'I' for Inactive)
REMARK    1  A    between atoms: O1_2  and  C2_3 
REMARK    2  A    between atoms: C9_12  and  O2_13 
REMARK    3  A    between atoms: O2_13  and  C10_14 
REMARK    4  A    between atoms: C10_14  and  C11_15 
REMARK    5  A    between atoms: C11_15  and  N3_16 
ROOT
HETATM    1  C2  UNL     1       1.738   1.394   0.193  1.00  0.00     0.103 A 
HETATM    2  C3  UNL     1       3.039   0.886   0.274  1.00  0.00     0.072 A 
HETATM    3  C4  UNL     1       3.302  -0.477   0.097  1.00  0.00     0.072 A 
HETATM    4  N1  UNL     1       4.522  -1.009   0.164  1.00  0.00    -0.241 NA
HETATM    5  C5  UNL     1       4.717  -2.348  -0.018  1.00  0.00     0.233 A 
HETATM    6  N2  UNL     1       3.646  -3.145  -0.272  1.00  0.00    -0.253 NA
HETATM    7  C6  UNL     1       2.386  -2.686  -0.356  1.00  0.00     0.132 A 
HETATM    8  C7  UNL     1       2.251  -1.327  -0.163  1.00  0.00     0.013 A 
HETATM    9  C8  UNL     1       0.995  -0.774  -0.232  1.00  0.00     0.055 A 
HETATM   10  C9  UNL     1       0.664   0.548  -0.069  1.00  0.00     0.103 A 
ENDROOT
BRANCH  10  11
HETATM   11  O2  UNL     1      -0.500   1.234  -0.103  1.00  0.00    -0.347 OA
BRANCH  11  12
HETATM   12  C10 UNL     1      -1.803   0.800  -0.306  1.00  0.00     0.196 C 
BRANCH  12  13
HETATM   13  C11 UNL     1      -2.334  -0.155   0.739  1.00  0.00     0.156 C 
BRANCH  13  14
HETATM   14  N3  UNL     1      -3.703  -0.555   0.436  1.00  0.00    -0.348 N 
HETATM   15  C12 UNL     1      -4.815   0.096   0.870  1.00  0.00     0.111 A 
HETATM   16  C13 UNL     1      -5.911  -0.575   0.383  1.00  0.00     0.135 A 
HETATM   17  N4  UNL     1      -5.482  -1.627  -0.341  1.00  0.00    -0.255 NA
HETATM   18  C14 UNL     1      -4.137  -1.605  -0.303  1.00  0.00     0.209 A 
ENDBRANCH  13  14
ENDBRANCH  12  13
ENDBRANCH  11  12
ENDBRANCH  10  11
BRANCH   1  19
HETATM   19  O1  UNL     1       1.628   2.762   0.390  1.00  0.00    -0.353 OA
HETATM   20  C1  UNL     1       2.786   3.508   0.646  1.00  0.00     0.210 C 
ENDBRANCH   1  19
TORSDOF 5
