REMARK  7 active torsions:
REMARK  status: ('A' for Active; 'I' for Inactive)
REMARK    1  A    between atoms: O1_2  and  C2_3 
REMARK    2  A    between atoms: C6_9  and  N3_10 
REMARK    3  A    between atoms: N3_10  and  C7_11 
REMARK    4  A    between atoms: C15_21  and  O2_22 
REMARK    5  A    between atoms: O2_22  and  C16_23 
REMARK    6  A    between atoms: C16_23  and  C17_24 
REMARK    7  A    between atoms: C17_24  and  N4_25 
ROOT
HETATM    1  C2  UNL     1       1.443  -1.570   1.980  1.00  0.00     0.103 A 
HETATM    2  C3  UNL     1       1.500  -0.535   2.929  1.00  0.00     0.072 A 
HETATM    3  C4  UNL     1       1.105   0.749   2.575  1.00  0.00     0.075 A 
HETATM    4  N1  UNL     1       1.123   1.801   3.434  1.00  0.00    -0.241 NA
HETATM    5  C5  UNL     1       0.710   3.024   3.007  1.00  0.00     0.236 A 
HETATM    6  N2  UNL     1       0.273   3.274   1.762  1.00  0.00    -0.224 NA
HETATM    7  C6  UNL     1       0.235   2.250   0.855  1.00  0.00     0.142 A 
HETATM    8  C13 UNL     1       0.657   1.020   1.305  1.00  0.00     0.042 A 
HETATM    9  C14 UNL     1       0.622  -0.021   0.426  1.00  0.00     0.057 A 
HETATM   10  C15 UNL     1       0.989  -1.324   0.672  1.00  0.00     0.103 A 
ENDROOT
BRANCH   7  11
HETATM   11  N3  UNL     1      -0.236   2.566  -0.444  1.00  0.00    -0.340 N 
HETATM   12  H6  UNL     1       0.383   2.952  -1.170  1.00  0.00     0.167 HD
BRANCH  11  13
HETATM   13  C7  UNL     1      -1.588   2.374  -0.824  1.00  0.00     0.035 A 
HETATM   14  C8  UNL     1      -2.147   2.830  -2.002  1.00  0.00     0.032 A 
HETATM   15  C9  UNL     1      -3.488   2.608  -2.339  1.00  0.00     0.046 A 
HETATM   16  C10 UNL     1      -4.277   1.891  -1.429  1.00  0.00     0.138 A 
HETATM   17  F1  UNL     1      -5.587   1.688  -1.786  1.00  0.00    -0.204 F 
HETATM   18  C11 UNL     1      -3.805   1.386  -0.209  1.00  0.00     0.074 A 
HETATM   19 CL1  UNL     1      -4.820   0.503   0.887  1.00  0.00    -0.081 Cl
HETATM   20  C12 UNL     1      -2.479   1.693  -0.040  1.00  0.00     0.056 A 
ENDBRANCH  11  13
ENDBRANCH   7  11
BRANCH  10  21
HETATM   21  O2  UNL     1       1.038  -2.445   0.002  1.00  0.00    -0.347 OA
BRANCH  21  22
HETATM   22  C16 UNL     1       0.830  -3.046  -1.186  1.00  0.00     0.205 C 
BRANCH  22  23
HETATM   23  C17 UNL     1       1.705  -2.516  -2.288  1.00  0.00     0.295 C 
BRANCH  23  24
HETATM   24  N4  UNL     1       1.554  -1.138  -2.594  1.00  0.00     0.081 N 
HETATM   25  C18 UNL     1       0.278  -0.837  -3.223  1.00  0.00     0.306 C 
HETATM   26  H15 UNL     1       2.341  -0.719  -3.123  1.00  0.00     0.315 HD
ENDBRANCH  23  24
ENDBRANCH  22  23
ENDBRANCH  21  22
ENDBRANCH  10  21
BRANCH   1  27
HETATM   27  O1  UNL     1       1.865  -2.803   2.460  1.00  0.00    -0.353 OA
HETATM   28  C1  UNL     1       2.301  -2.914   3.794  1.00  0.00     0.210 C 
ENDBRANCH   1  27
TORSDOF 7
