REMARK  5 active torsions:
REMARK  status: ('A' for Active; 'I' for Inactive)
REMARK    1  A    between atoms: C4_6  and  C5_7 
REMARK    2  A    between atoms: C5_7  and  O1_8 
REMARK    3  A    between atoms: O1_8  and  C6_9 
REMARK    4  A    between atoms: C8_11  and  N3_12 
REMARK    5  A    between atoms: N3_12  and  C9_13 
ROOT
HETATM    1  C6  UNL     1      -0.967  -0.632  -0.255  1.00  0.00     0.094 C 
HETATM    2  C7  UNL     1       0.148  -0.999  -0.964  1.00  0.00     0.067 C 
HETATM    3  C8  UNL     1       1.414  -0.205  -0.592  1.00  0.00     0.153 C 
HETATM    4  C15 UNL     1       1.058  -0.176   0.940  1.00  0.00     0.122 C 
HETATM    5  C16 UNL     1      -0.246   0.486   0.458  1.00  0.00     0.073 C 
HETATM    6  N4  UNL     1      -0.070   1.764   0.855  1.00  0.00    -0.244 NA
HETATM    7  C17 UNL     1       1.034   2.214  -0.115  1.00  0.00     0.230 C 
HETATM    8  N5  UNL     1       1.347   1.192  -0.920  1.00  0.00    -0.246 NA
ENDROOT
BRANCH   3   9
HETATM    9  N3  UNL     1       2.567  -0.919  -0.882  1.00  0.00    -0.358 N 
HETATM   10  H9  UNL     1       2.408  -1.856  -1.363  1.00  0.00     0.162 HD
BRANCH   9  11
HETATM   11  C9  UNL     1       3.914  -0.599  -0.640  1.00  0.00     0.032 A 
HETATM   12  C10 UNL     1       4.391   0.539  -0.029  1.00  0.00     0.032 A 
HETATM   13  C11 UNL     1       5.698   0.849   0.203  1.00  0.00     0.046 A 
HETATM   14  C12 UNL     1       6.628  -0.075  -0.221  1.00  0.00     0.138 A 
HETATM   15  F1  UNL     1       7.945   0.165  -0.024  1.00  0.00    -0.204 F 
HETATM   16  C13 UNL     1       6.276  -1.248  -0.843  1.00  0.00     0.074 A 
HETATM   17 CL1  UNL     1       7.472  -2.387  -1.363  1.00  0.00    -0.081 Cl
HETATM   18  C14 UNL     1       4.934  -1.474  -1.034  1.00  0.00     0.056 A 
ENDBRANCH   9  11
ENDBRANCH   3   9
BRANCH   1  19
HETATM   19  O1  UNL     1      -2.273  -0.727   0.118  1.00  0.00    -0.347 OA
BRANCH  19  20
HETATM   20  C5  UNL     1      -3.332  -0.007  -0.486  1.00  0.00     0.209 C 
BRANCH  20  21
HETATM   21  C4  UNL     1      -4.589  -0.466   0.265  1.00  0.00     0.180 A 
HETATM   22  C2  UNL     1      -5.767   0.325  -0.136  1.00  0.00     0.036 A 
HETATM   23  C1  UNL     1      -6.319   0.255  -1.525  1.00  0.00     0.068 C 
HETATM   24  N1  UNL     1      -6.148   1.005   0.890  1.00  0.00    -0.249 NA
HETATM   25  C3  UNL     1      -5.285   0.721   1.990  1.00  0.00     0.227 A 
HETATM   26  N2  UNL     1      -4.387  -0.122   1.644  1.00  0.00    -0.270 NA
ENDBRANCH  20  21
ENDBRANCH  19  20
ENDBRANCH   1  19
TORSDOF 5
