REMARK  6 active torsions:
REMARK  status: ('A' for Active; 'I' for Inactive)
REMARK    1  A    between atoms: O1_2  and  C2_3 
REMARK    2  A    between atoms: C6_9  and  N3_10 
REMARK    3  A    between atoms: N3_10  and  C7_11 
REMARK    4  A    between atoms: C16_21  and  O2_22 
REMARK    5  A    between atoms: O2_22  and  C17_23 
REMARK    6  A    between atoms: C17_23  and  C18_24 
ROOT
HETATM    1  C2  UNL     1      -3.230  -0.850  -0.762  1.00  0.00     0.102 C 
HETATM    2  C3  UNL     1      -2.306  -1.813  -1.107  1.00  0.00     0.059 C 
HETATM    3  C4  UNL     1      -1.934  -2.778  -0.165  1.00  0.00     0.121 C 
HETATM    4  N1  UNL     1      -1.483  -2.315   1.024  1.00  0.00    -0.254 NA
HETATM    5  C5  UNL     1      -0.205  -1.911   1.210  1.00  0.00     0.234 C 
HETATM    6  N2  UNL     1       0.101  -1.060   0.206  1.00  0.00    -0.225 NA
HETATM    7  C6  UNL     1       0.576   0.148   0.431  1.00  0.00     0.129 C 
HETATM    8  C14 UNL     1      -0.625   0.760   0.728  1.00  0.00     0.053 C 
HETATM    9  C15 UNL     1      -1.747   0.946  -0.054  1.00  0.00     0.043 C 
HETATM   10  C16 UNL     1      -2.961   0.461  -0.431  1.00  0.00     0.102 C 
ENDROOT
BRANCH   7  11
HETATM   11  N3  UNL     1       1.807   0.806   0.429  1.00  0.00    -0.341 N 
HETATM   12  H7  UNL     1       1.784   1.818   0.670  1.00  0.00     0.167 HD
BRANCH  11  13
HETATM   13  C7  UNL     1       3.036   0.181   0.125  1.00  0.00     0.034 A 
HETATM   14  C8  UNL     1       3.168  -1.136  -0.203  1.00  0.00     0.031 A 
HETATM   15  C9  UNL     1       4.420  -1.690  -0.493  1.00  0.00     0.026 A 
HETATM   16  C10 UNL     1       5.563  -0.883  -0.448  1.00  0.00     0.040 A 
HETATM   17 CL1  UNL     1       7.149  -1.544  -0.807  1.00  0.00    -0.084 Cl
HETATM   18  C11 UNL     1       5.458   0.440  -0.123  1.00  0.00    -0.038 A 
HETATM   19  C12 UNL     1       6.632   1.353  -0.057  1.00  0.00     0.050 C 
HETATM   20  C13 UNL     1       4.213   0.909   0.146  1.00  0.00     0.038 A 
ENDBRANCH  11  13
ENDBRANCH   7  11
BRANCH  10  21
HETATM   21  O2  UNL     1      -4.032   1.328  -0.499  1.00  0.00    -0.346 OA
BRANCH  21  22
HETATM   22  C17 UNL     1      -4.023   2.691  -0.217  1.00  0.00     0.207 C 
BRANCH  22  23
HETATM   23  C18 UNL     1      -3.621   3.064   1.171  1.00  0.00     0.248 C 
HETATM   24  F1  UNL     1      -3.665   4.461   1.285  1.00  0.00    -0.253 F 
ENDBRANCH  22  23
ENDBRANCH  21  22
ENDBRANCH  10  21
BRANCH   1  25
HETATM   25  O1  UNL     1      -4.535  -1.317  -0.771  1.00  0.00    -0.353 OA
HETATM   26  C1  UNL     1      -4.842  -2.638  -1.101  1.00  0.00     0.210 C 
ENDBRANCH   1  25
TORSDOF 6
