REMARK  6 active torsions:
REMARK  status: ('A' for Active; 'I' for Inactive)
REMARK    1  A    between atoms: N1_2  and  C2_3 
REMARK    2  A    between atoms: C2_3  and  C3_4 
REMARK    3  A    between atoms: C3_4  and  O1_5 
REMARK    4  A    between atoms: O1_5  and  C4_6 
REMARK    5  A    between atoms: N4_13  and  C9_14 
REMARK    6  A    between atoms: C15_22  and  O2_23 
ROOT
HETATM    1  C4  UNL     1       0.529  -0.398  -0.046  1.00  0.00     0.115 A 
HETATM    2  C5  UNL     1      -0.615   0.230   0.095  1.00  0.00     0.046 A 
HETATM    3  C6  UNL     1      -1.639  -0.430   0.530  1.00  0.00     0.097 A 
HETATM    4  C7  UNL     1      -1.623  -1.868   0.879  1.00  0.00     0.090 A 
HETATM    5  N2  UNL     1      -2.640  -2.508   1.306  1.00  0.00    -0.238 NA
HETATM    6  C8  UNL     1      -3.866  -1.802   1.458  1.00  0.00     0.255 A 
HETATM    7  N3  UNL     1      -3.975  -0.546   1.178  1.00  0.00    -0.164 NA
HETATM    8  N4  UNL     1      -2.895   0.211   0.706  1.00  0.00    -0.253 N 
HETATM    9  C14 UNL     1      -0.345  -2.557   0.712  1.00  0.00     0.073 A 
HETATM   10  C15 UNL     1       0.667  -1.817   0.265  1.00  0.00     0.104 A 
ENDROOT
BRANCH   8  11
HETATM   11  C9  UNL     1      -2.999   1.600   0.391  1.00  0.00     0.161 A 
HETATM   12  C10 UNL     1      -2.704   1.974  -0.987  1.00  0.00     0.048 A 
HETATM   13  C11 UNL     1      -3.802   2.547  -1.491  1.00  0.00     0.136 A 
HETATM   14  F1  UNL     1      -3.882   3.025  -2.775  1.00  0.00    -0.205 F 
HETATM   15  C12 UNL     1      -4.873   2.589  -0.500  1.00  0.00     0.070 A 
HETATM   16 CL1  UNL     1      -6.489   3.237  -0.678  1.00  0.00    -0.081 Cl
HETATM   17  C13 UNL     1      -4.403   2.035   0.602  1.00  0.00     0.031 A 
ENDBRANCH   8  11
BRANCH   1  18
HETATM   18  O1  UNL     1       1.573   0.392  -0.510  1.00  0.00    -0.346 OA
BRANCH  18  19
HETATM   19  C3  UNL     1       2.861  -0.151  -0.664  1.00  0.00     0.205 C 
BRANCH  19  20
HETATM   20  C2  UNL     1       3.832   0.924  -1.157  1.00  0.00     0.295 C 
BRANCH  20  21
HETATM   21  N1  UNL     1       3.862   1.990  -0.169  1.00  0.00     0.081 N 
HETATM   22  C1  UNL     1       4.477   1.533   1.045  1.00  0.00     0.306 C 
HETATM   23  H4  UNL     1       4.414   2.784  -0.567  1.00  0.00     0.315 HD
ENDBRANCH  20  21
ENDBRANCH  19  20
ENDBRANCH  18  19
ENDBRANCH   1  18
BRANCH  10  24
HETATM   24  O2  UNL     1       1.878  -2.440   0.099  1.00  0.00    -0.353 OA
HETATM   25  C16 UNL     1       2.086  -3.620  -0.655  1.00  0.00     0.210 C 
ENDBRANCH  10  24
TORSDOF 6
