REMARK  3 active torsions:
REMARK  status: ('A' for Active; 'I' for Inactive)
REMARK    1  A    between atoms: C6_8  and  N3_9 
REMARK    2  A    between atoms: N3_9  and  C7_10 
REMARK    3  A    between atoms: C15_19  and  N4_20 
ROOT
HETATM    1  C1  UNL     1      -5.474   0.204  -0.916  1.00  0.00     0.046 C 
HETATM    2  C2  UNL     1      -4.004  -0.051  -0.687  1.00  0.00    -0.058 C 
HETATM    3  C3  UNL     1      -3.063   0.688  -1.232  1.00  0.00     0.037 C 
HETATM    4  C4  UNL     1      -1.634   0.430  -0.990  1.00  0.00     0.070 A 
HETATM    5  N1  UNL     1      -1.107   0.257  -2.202  1.00  0.00    -0.241 NA
HETATM    6  C5  UNL     1       0.195   0.017  -2.423  1.00  0.00     0.235 A 
HETATM    7  N2  UNL     1       0.988  -0.047  -1.345  1.00  0.00    -0.224 NA
HETATM    8  C6  UNL     1       0.427   0.131  -0.138  1.00  0.00     0.140 A 
HETATM    9  C14 UNL     1      -0.919   0.385   0.183  1.00  0.00     0.049 A 
HETATM   10  C15 UNL     1      -1.138   0.499   1.625  1.00  0.00     0.259 C 
HETATM   11  C16 UNL     1      -2.296  -0.376   2.117  1.00  0.00     0.066 C 
HETATM   12  C17 UNL     1      -3.617   0.198   1.775  1.00  0.00     0.170 C 
HETATM   13  O1  UNL     1      -4.475  -0.890   1.403  1.00  0.00    -0.387 OA
HETATM   14  C18 UNL     1      -3.879  -1.309   0.163  1.00  0.00     0.201 C 
ENDROOT
BRANCH   8  15
HETATM   15  N3  UNL     1       1.454   0.031   0.885  1.00  0.00    -0.340 N 
HETATM   16  H6  UNL     1       1.567   0.053   1.938  1.00  0.00     0.167 HD
BRANCH  15  17
HETATM   17  C7  UNL     1       2.827  -0.152   0.566  1.00  0.00     0.035 A 
HETATM   18  C8  UNL     1       3.314   0.606  -0.505  1.00  0.00     0.030 A 
HETATM   19  C9  UNL     1       4.623   0.507  -0.941  1.00  0.00     0.011 A 
HETATM   20  C10 UNL     1       5.518  -0.359  -0.329  1.00  0.00    -0.040 A 
HETATM   21  C11 UNL     1       6.936  -0.534  -0.725  1.00  0.00     0.050 C 
HETATM   22  C12 UNL     1       5.068  -1.119   0.729  1.00  0.00     0.042 A 
HETATM   23 CL1  UNL     1       6.081  -2.262   1.609  1.00  0.00    -0.084 Cl
HETATM   24  C13 UNL     1       3.761  -0.992   1.133  1.00  0.00     0.053 A 
ENDBRANCH  15  17
ENDBRANCH   8  15
BRANCH  10  25
HETATM   25  N4  UNL     1      -1.470   1.864   2.025  1.00  0.00     0.087 N 
HETATM   26  H14 UNL     1      -0.590   2.373   2.334  1.00  0.00     0.313 HD
HETATM   27  H15 UNL     1      -1.949   2.382   1.257  1.00  0.00     0.313 HD
ENDBRANCH  10  25
TORSDOF 3
