REMARK  1 active torsions:
REMARK  status: ('A' for Active; 'I' for Inactive)
REMARK    1  A    between atoms: N1_2  and  C2_3 
ROOT
HETATM    1  C2  UNL     1      -0.510   0.590  -0.128  1.00  0.00     0.263 C 
HETATM    2  C3  UNL     1       0.754   1.332  -0.414  1.00  0.00     0.222 C 
HETATM    3  O1  UNL     1       1.260   0.821  -1.608  1.00  0.00    -0.384 OA
HETATM    4  C4  UNL     1       2.566   0.448  -1.501  1.00  0.00     0.201 C 
HETATM    5  C5  UNL     1       2.940  -0.279  -0.292  1.00  0.00    -0.058 C 
HETATM    6  C6  UNL     1       4.421  -0.239  -0.153  1.00  0.00     0.046 C 
HETATM    7  C7  UNL     1       2.389  -0.959   0.716  1.00  0.00     0.037 C 
HETATM    8  C8  UNL     1       0.958  -1.247   0.979  1.00  0.00     0.071 A 
HETATM    9  N2  UNL     1       1.121  -2.388   1.715  1.00  0.00    -0.241 NA
HETATM   10  C9  UNL     1       0.026  -3.011   2.174  1.00  0.00     0.235 A 
HETATM   11  N3  UNL     1      -1.160  -2.517   1.909  1.00  0.00    -0.224 NA
HETATM   12  C10 UNL     1      -1.391  -1.402   1.193  1.00  0.00     0.140 A 
HETATM   13  C11 UNL     1      -0.299  -0.674   0.667  1.00  0.00     0.064 A 
HETATM   14  N4  UNL     1      -2.842  -1.384   1.243  1.00  0.00    -0.350 N 
HETATM   15  C12 UNL     1      -3.747  -0.827   0.268  1.00  0.00     0.090 C 
HETATM   16  C13 UNL     1      -3.680  -0.256  -0.934  1.00  0.00     0.020 C 
HETATM   17  C14 UNL     1      -2.477   0.009  -1.731  1.00  0.00     0.042 C 
HETATM   18  C15 UNL     1      -1.207   0.347  -1.421  1.00  0.00     0.139 C 
HETATM   19  F1  UNL     1      -0.560   0.450  -2.637  1.00  0.00    -0.208 F 
HETATM   20  H14 UNL     1      -3.295  -1.820   2.066  1.00  0.00     0.166 HD
ENDROOT
BRANCH   1  21
HETATM   21  N1  UNL     1      -1.324   1.514   0.685  1.00  0.00     0.102 N 
HETATM   22  C1  UNL     1      -1.600   2.715  -0.006  1.00  0.00     0.308 C 
HETATM   23  H4  UNL     1      -0.770   1.635   1.576  1.00  0.00     0.317 HD
ENDBRANCH   1  21
TORSDOF 1
