REMARK  3 active torsions:
REMARK  status: ('A' for Active; 'I' for Inactive)
REMARK    1  A    between atoms: O1_2  and  C2_3 
REMARK    2  A    between atoms: N3_9  and  C6_10 
REMARK    3  A    between atoms: C6_10  and  C7_11 
ROOT
HETATM    1  C2  UNL     1      -2.571  -1.136   0.061  1.00  0.00     0.075 C 
HETATM    2  C3  UNL     1      -1.365  -1.639   0.298  1.00  0.00     0.064 C 
HETATM    3  C4  UNL     1       0.082  -1.627   0.174  1.00  0.00     0.067 A 
HETATM    4  N1  UNL     1       0.613  -2.763   0.222  1.00  0.00    -0.242 NA
HETATM    5  C5  UNL     1       1.964  -3.118   0.126  1.00  0.00     0.255 A 
HETATM    6  N2  UNL     1       2.864  -2.237  -0.041  1.00  0.00    -0.169 NA
HETATM    7  N3  UNL     1       2.308  -0.927  -0.107  1.00  0.00    -0.286 N 
HETATM    8  C9  UNL     1       0.981  -0.429  -0.025  1.00  0.00     0.098 A 
HETATM    9  C10 UNL     1       1.018   0.944  -0.099  1.00  0.00     0.084 C 
HETATM   10  C11 UNL     1       1.149   2.302  -0.188  1.00  0.00    -0.005 C 
HETATM   11  C12 UNL     1       0.062   3.019  -0.025  1.00  0.00    -0.025 C 
HETATM   12  C13 UNL     1      -1.110   2.251   0.231  1.00  0.00     0.057 C 
HETATM   13  C14 UNL     1      -2.297   2.344  -0.734  1.00  0.00     0.273 C 
HETATM   14  N4  UNL     1      -3.252   1.257  -0.309  1.00  0.00     0.089 NA
HETATM   15  C15 UNL     1      -2.615   0.078  -0.737  1.00  0.00     0.333 C 
HETATM   16  H17 UNL     1      -4.132   1.523  -0.841  1.00  0.00     0.316 HD
ENDROOT
BRANCH   7  17
HETATM   17  C6  UNL     1       3.245   0.206  -0.229  1.00  0.00     0.174 C 
BRANCH  17  18
HETATM   18  C7  UNL     1       4.614  -0.266  -0.319  1.00  0.00     0.006 C 
HETATM   19  C8  UNL     1       5.395   0.157   0.651  1.00  0.00     0.082 C 
HETATM   20 CL1  UNL     1       7.018   0.088   1.269  1.00  0.00    -0.097 Cl
ENDBRANCH  17  18
ENDBRANCH   7  17
BRANCH   1  21
HETATM   21  O1  UNL     1      -3.832  -1.496   0.400  1.00  0.00    -0.358 OA
HETATM   22  C1  UNL     1      -4.163  -2.350   1.460  1.00  0.00     0.209 C 
ENDBRANCH   1  21
TORSDOF 3
