REMARK  6 active torsions:
REMARK  status: ('A' for Active; 'I' for Inactive)
REMARK    1  A    between atoms: N1_2  and  C2_3 
REMARK    2  A    between atoms: C2_3  and  C3_4 
REMARK    3  A    between atoms: C3_4  and  O1_5 
REMARK    4  A    between atoms: O1_5  and  C4_6 
REMARK    5  A    between atoms: C5_7  and  C6_8 
REMARK    6  A    between atoms: C9_13  and  C10_14 
ROOT
HETATM    1  C6  UNL     1      -0.881   1.633   0.282  1.00  0.00     0.013 A 
HETATM    2  C7  UNL     1      -0.350   2.865   0.558  1.00  0.00     0.132 A 
HETATM    3  N2  UNL     1      -1.288   3.795   0.891  1.00  0.00    -0.253 NA
HETATM    4  C8  UNL     1      -2.584   3.475   0.928  1.00  0.00     0.233 A 
HETATM    5  N3  UNL     1      -3.085   2.235   0.649  1.00  0.00    -0.241 NA
HETATM    6  C9  UNL     1      -2.194   1.246   0.304  1.00  0.00     0.079 A 
ENDROOT
BRANCH   1   7
HETATM    7  C5  UNL     1      -0.017   0.531  -0.100  1.00  0.00     0.039 C 
HETATM    8  C4  UNL     1       1.287   0.541  -0.257  1.00  0.00     0.135 C 
BRANCH   8   9
HETATM    9  O1  UNL     1       2.522   0.025  -0.535  1.00  0.00    -0.361 OA
BRANCH   9  10
HETATM   10  C3  UNL     1       3.207  -0.770   0.413  1.00  0.00     0.204 C 
BRANCH  10  11
HETATM   11  C2  UNL     1       4.358  -1.509  -0.224  1.00  0.00     0.295 C 
BRANCH  11  12
HETATM   12  N1  UNL     1       5.311  -0.588  -0.790  1.00  0.00     0.081 N 
HETATM   13  C1  UNL     1       6.034   0.173   0.206  1.00  0.00     0.306 C 
HETATM   14  H4  UNL     1       4.797   0.087  -1.416  1.00  0.00     0.315 HD
ENDBRANCH  11  12
ENDBRANCH  10  11
ENDBRANCH   9  10
ENDBRANCH   8   9
ENDBRANCH   1   7
BRANCH   6  15
HETATM   15  C10 UNL     1      -2.771  -0.052   0.008  1.00  0.00     0.010 C 
HETATM   16  C11 UNL     1      -3.784  -0.415   0.804  1.00  0.00     0.107 C 
HETATM   17  F1  UNL     1      -4.249   0.376   1.824  1.00  0.00    -0.210 F 
HETATM   18  C12 UNL     1      -4.470  -1.722   0.610  1.00  0.00     0.121 C 
HETATM   19  C13 UNL     1      -4.808  -1.818  -0.844  1.00  0.00     0.014 C 
HETATM   20 CL1  UNL     1      -6.415  -2.296  -1.355  1.00  0.00    -0.089 Cl
HETATM   21  C14 UNL     1      -3.820  -1.515  -1.679  1.00  0.00    -0.002 C 
HETATM   22  C15 UNL     1      -2.531  -1.128  -0.987  1.00  0.00     0.072 C 
ENDBRANCH   6  15
TORSDOF 6
