REMARK  5 active torsions:
REMARK  status: ('A' for Active; 'I' for Inactive)
REMARK    1  A    between atoms: C6_8  and  N3_9 
REMARK    2  A    between atoms: N3_9  and  C7_10 
REMARK    3  A    between atoms: C7_10  and  C8_11 
REMARK    4  A    between atoms: C9_12  and  C10_13 
REMARK    5  A    between atoms: C11_15  and  O1_16 
ROOT
HETATM    1  C1  UNL     1      -4.759  -0.323  -1.334  1.00  0.00     0.046 C 
HETATM    2  C2  UNL     1      -3.425  -0.535  -0.644  1.00  0.00    -0.059 C 
HETATM    3  C3  UNL     1      -2.824  -1.715  -0.649  1.00  0.00     0.018 C 
HETATM    4  C4  UNL     1      -1.632  -2.436  -0.198  1.00  0.00     0.090 C 
HETATM    5  N1  UNL     1      -1.006  -1.481   0.359  1.00  0.00    -0.161 NA
HETATM    6  C5  UNL     1       0.247  -1.600   0.983  1.00  0.00     0.197 A 
HETATM    7  N2  UNL     1       0.026  -0.522   0.382  1.00  0.00    -0.259 N 
HETATM    8  C6  UNL     1       0.838   0.637   0.214  1.00  0.00     0.215 A 
HETATM    9  C11 UNL     1       0.952   1.273  -1.100  1.00  0.00     0.127 A 
HETATM   10  C12 UNL     1       0.029   1.835  -0.224  1.00  0.00     0.098 A 
HETATM   11  N4  UNL     1      -0.998   2.696   0.350  1.00  0.00    -0.366 N 
HETATM   12  C13 UNL     1      -1.556   1.845   1.421  1.00  0.00     0.290 C 
HETATM   13  O2  UNL     1      -2.064   0.750   0.828  1.00  0.00    -0.368 OA
HETATM   14  C14 UNL     1      -3.144   0.777   0.035  1.00  0.00     0.204 C 
HETATM   15  H15 UNL     1      -1.099   3.632  -0.082  1.00  0.00     0.161 HD
ENDROOT
BRANCH   8  16
HETATM   16  N3  UNL     1       1.768   0.997   1.248  1.00  0.00    -0.382 N 
HETATM   17  H7  UNL     1       1.477   0.729   2.195  1.00  0.00     0.156 HD
BRANCH  16  18
HETATM   18  C7  UNL     1       3.142   0.740   0.958  1.00  0.00     0.144 C 
BRANCH  18  19
HETATM   19  C8  UNL     1       3.458  -0.699   0.888  1.00  0.00    -0.011 C 
HETATM   20  C9  UNL     1       3.944  -1.362  -0.126  1.00  0.00    -0.014 C 
BRANCH  20  21
HETATM   21  C10 UNL     1       4.319  -0.901  -1.482  1.00  0.00     0.141 C 
HETATM   22 CL1  UNL     1       6.049  -1.231  -1.750  1.00  0.00    -0.126 Cl
ENDBRANCH  20  21
ENDBRANCH  18  19
ENDBRANCH  16  18
ENDBRANCH   8  16
BRANCH   9  23
HETATM   23  O1  UNL     1       1.696   1.097  -2.280  1.00  0.00    -0.358 OA
HETATM   24  H14 UNL     1       1.343   0.474  -3.016  1.00  0.00     0.217 HD
ENDBRANCH   9  23
TORSDOF 5
