REMARK  3 active torsions:
REMARK  status: ('A' for Active; 'I' for Inactive)
REMARK    1  A    between atoms: C14_18  and  C15_19 
REMARK    2  A    between atoms: C15_19  and  C16_20 
REMARK    3  A    between atoms: C16_20  and  O4_21 
ROOT
HETATM    1  O1  UNL     1      -2.923  -2.405   1.658  1.00  0.00    -0.293 OA
HETATM    2  C1  UNL     1      -1.971  -1.850   1.025  1.00  0.00     0.156 C 
HETATM    3  C2  UNL     1      -1.101  -2.389  -0.082  1.00  0.00     0.093 C 
HETATM    4  C3  UNL     1       0.250  -2.779   0.448  1.00  0.00     0.082 C 
HETATM    5  S1  UNL     1       1.512  -2.833  -0.871  1.00  0.00    -0.153 SA
HETATM    6  C4  UNL     1       2.070  -1.074  -1.119  1.00  0.00     0.041 A 
HETATM    7  C5  UNL     1       1.326  -0.970  -2.202  1.00  0.00     0.028 A 
HETATM    8  C6  UNL     1       1.914   0.045  -1.412  1.00  0.00     0.072 A 
HETATM    9  C7  UNL     1       2.455   1.101  -0.692  1.00  0.00     0.055 A 
HETATM   10  C8  UNL     1       3.127   0.396   0.321  1.00  0.00     0.030 A 
HETATM   11  C9  UNL     1       2.842  -0.942  -0.009  1.00  0.00    -0.003 A 
HETATM   12  O2  UNL     1       2.762   2.393  -0.314  1.00  0.00    -0.330 OA
HETATM   13  C10 UNL     1       1.882   3.464  -0.245  1.00  0.00     0.350 C 
HETATM   14  O3  UNL     1       0.804   3.325   0.684  1.00  0.00    -0.338 OA
HETATM   15  C11 UNL     1       0.097   2.140   0.833  1.00  0.00     0.137 C 
HETATM   16  C12 UNL     1      -0.786   1.949   1.823  1.00  0.00     0.025 C 
HETATM   17  C13 UNL     1      -1.586   0.735   2.087  1.00  0.00     0.013 C 
HETATM   18  C14 UNL     1      -1.724  -0.465   1.543  1.00  0.00    -0.010 C 
ENDROOT
BRANCH  18  19
HETATM   19  C15 UNL     1      -1.691   0.012   0.093  1.00  0.00     0.068 C 
BRANCH  19  20
HETATM   20  C16 UNL     1      -3.006  -0.392  -0.581  1.00  0.00     0.168 C 
BRANCH  20  21
HETATM   21  O4  UNL     1      -3.024  -0.065  -1.914  1.00  0.00    -0.401 OA
HETATM   22  H18 UNL     1      -2.181  -0.356  -2.386  1.00  0.00     0.209 HD
ENDBRANCH  20  21
ENDBRANCH  19  20
ENDBRANCH  18  19
TORSDOF 3
