REMARK  7 active torsions:
REMARK  status: ('A' for Active; 'I' for Inactive)
REMARK    1  A    between atoms: O1_2  and  C2_3 
REMARK    2  A    between atoms: C6_9  and  N3_10 
REMARK    3  A    between atoms: N3_10  and  C7_11 
REMARK    4  A    between atoms: C15_21  and  O2_22 
REMARK    5  A    between atoms: O2_22  and  C16_23 
REMARK    6  A    between atoms: C16_23  and  C17_24 
REMARK    7  A    between atoms: C17_24  and  P1_25 
ROOT
HETATM    1  C2  UNL     1       1.680  -1.973   0.402  1.00  0.00     0.103 A 
HETATM    2  C3  UNL     1       0.735  -2.976   0.524  1.00  0.00     0.072 A 
HETATM    3  C4  UNL     1      -0.540  -2.770   0.023  1.00  0.00     0.075 A 
HETATM    4  N1  UNL     1      -1.521  -3.683   0.087  1.00  0.00    -0.241 NA
HETATM    5  C5  UNL     1      -2.757  -3.489  -0.404  1.00  0.00     0.236 A 
HETATM    6  N2  UNL     1      -2.993  -2.287  -0.992  1.00  0.00    -0.224 NA
HETATM    7  C6  UNL     1      -2.049  -1.323  -1.088  1.00  0.00     0.142 A 
HETATM    8  C13 UNL     1      -0.792  -1.550  -0.576  1.00  0.00     0.042 A 
HETATM    9  C14 UNL     1       0.084  -0.507  -0.736  1.00  0.00     0.057 A 
HETATM   10  C15 UNL     1       1.359  -0.762  -0.216  1.00  0.00     0.103 A 
ENDROOT
BRANCH   7  11
HETATM   11  N3  UNL     1      -2.570  -0.184  -1.751  1.00  0.00    -0.340 N 
HETATM   12  H6  UNL     1      -2.445   0.065  -2.749  1.00  0.00     0.167 HD
BRANCH  11  13
HETATM   13  C7  UNL     1      -3.332   0.666  -0.915  1.00  0.00     0.035 A 
HETATM   14  C8  UNL     1      -3.404   0.562   0.456  1.00  0.00     0.032 A 
HETATM   15  C9  UNL     1      -4.159   1.378   1.251  1.00  0.00     0.046 A 
HETATM   16  C10 UNL     1      -4.899   2.376   0.631  1.00  0.00     0.138 A 
HETATM   17  F1  UNL     1      -5.675   3.219   1.359  1.00  0.00    -0.204 F 
HETATM   18  C11 UNL     1      -4.883   2.551  -0.755  1.00  0.00     0.074 A 
HETATM   19 CL1  UNL     1      -5.844   3.824  -1.476  1.00  0.00    -0.081 Cl
HETATM   20  C12 UNL     1      -4.097   1.685  -1.466  1.00  0.00     0.056 A 
ENDBRANCH  11  13
ENDBRANCH   7  11
BRANCH  10  21
HETATM   21  O2  UNL     1       2.394   0.112  -0.254  1.00  0.00    -0.345 OA
BRANCH  21  22
HETATM   22  C16 UNL     1       2.494   1.393  -0.766  1.00  0.00     0.204 C 
BRANCH  22  23
HETATM   23  C17 UNL     1       3.869   1.969  -0.589  1.00  0.00     0.011 C 
BRANCH  23  24
HETATM   24  P1  UNL     1       4.127   2.910   0.758  1.00  0.00    -0.068 P 
HETATM   25  C18 UNL     1       5.731   3.707   1.166  1.00  0.00     0.053 C 
ENDBRANCH  23  24
ENDBRANCH  22  23
ENDBRANCH  21  22
ENDBRANCH  10  21
BRANCH   1  26
HETATM   26  O1  UNL     1       2.921  -2.243   0.914  1.00  0.00    -0.353 OA
HETATM   27  C1  UNL     1       3.294  -3.432   1.533  1.00  0.00     0.210 C 
ENDBRANCH   1  26
TORSDOF 7
