REMARK  1 active torsions:
REMARK  status: ('A' for Active; 'I' for Inactive)
REMARK    1  A    between atoms: C1_2  and  C2_3 
ROOT
HETATM    1  C2  UNL     1      -2.064  -1.190  -0.221  1.00  0.00    -0.012 C 
HETATM    2  C3  UNL     1      -0.920  -0.630  -0.489  1.00  0.00    -0.009 C 
HETATM    3  C4  UNL     1      -0.823   0.722  -0.876  1.00  0.00     0.032 C 
HETATM    4  C5  UNL     1      -2.071   1.092  -0.775  1.00  0.00     0.019 C 
HETATM    5  N1  UNL     1      -2.358   2.251  -1.570  1.00  0.00    -0.271 NA
HETATM    6  C6  UNL     1      -1.407   2.977  -0.716  1.00  0.00     0.062 C 
HETATM    7  C7  UNL     1      -0.290   2.908   0.043  1.00  0.00     0.014 C 
HETATM    8  C8  UNL     1       0.742   1.912   0.500  1.00  0.00     0.036 C 
HETATM    9  C9  UNL     1       1.049   0.582   0.391  1.00  0.00     0.085 C 
HETATM   10  O1  UNL     1       2.246   0.520   1.161  1.00  0.00    -0.350 OA
HETATM   11  C10 UNL     1       3.270  -0.489   1.148  1.00  0.00     0.205 C 
HETATM   12  C11 UNL     1       3.597  -0.793  -0.296  1.00  0.00     0.296 C 
HETATM   13  N2  UNL     1       2.690  -1.767  -0.844  1.00  0.00     0.088 N 
HETATM   14  C12 UNL     1       1.444  -1.132  -1.298  1.00  0.00     0.316 C 
HETATM   15  C13 UNL     1       0.569  -0.749  -0.226  1.00  0.00     0.176 C 
HETATM   16  N3  UNL     1       0.709  -1.568   1.037  1.00  0.00    -0.167 NA
HETATM   17  N4  UNL     1      -0.078  -1.364   2.077  1.00  0.00    -0.147 NA
HETATM   18  C14 UNL     1      -1.109  -0.380   2.342  1.00  0.00     0.251 C 
HETATM   19  N5  UNL     1      -1.889   0.380   1.577  1.00  0.00    -0.266 NA
HETATM   20  C15 UNL     1      -2.529   0.100   0.281  1.00  0.00     0.185 C 
HETATM   21  H4  UNL     1      -2.959   1.622  -2.045  1.00  0.00     0.132 HD
HETATM   22  H12 UNL     1       3.107  -2.202  -1.705  1.00  0.00     0.316 HD
ENDROOT
BRANCH   1  23
HETATM   23  C1  UNL     1      -3.082  -2.265  -0.153  1.00  0.00     0.259 C 
HETATM   24  F1  UNL     1      -2.649  -3.466  -0.667  1.00  0.00    -0.251 F 
ENDBRANCH   1  23
TORSDOF 1
