REMARK  5 active torsions:
REMARK  status: ('A' for Active; 'I' for Inactive)
REMARK    1  A    between atoms: O1_2  and  C2_3 
REMARK    2  A    between atoms: C7_9  and  C8_10 
REMARK    3  A    between atoms: C8_10  and  N2_11 
REMARK    4  A    between atoms: C8_10  and  N3_14 
REMARK    5  A    between atoms: N3_14  and  C10_15 
ROOT
HETATM    1  C8  UNL     1      -0.123   0.512   0.514  1.00  0.00     0.261 C 
ENDROOT
BRANCH   1   2
HETATM    2  C7  UNL     1      -1.567   0.514   0.676  1.00  0.00     0.111 A 
HETATM    3  C2  UNL     1      -2.593  -0.387   0.583  1.00  0.00     0.102 A 
HETATM    4  C3  UNL     1      -3.910  -0.115   0.853  1.00  0.00    -0.025 A 
HETATM    5  C4  UNL     1      -4.908  -1.195   0.709  1.00  0.00     0.051 C 
HETATM    6  C5  UNL     1      -4.231   1.164   1.249  1.00  0.00     0.029 A 
HETATM    7  C6  UNL     1      -3.221   2.094   1.351  1.00  0.00     0.117 A 
HETATM    8  N1  UNL     1      -1.958   1.749   1.069  1.00  0.00    -0.259 NA
BRANCH   3   9
HETATM    9  O1  UNL     1      -2.267  -1.671   0.180  1.00  0.00    -0.353 OA
HETATM   10  C1  UNL     1      -2.376  -1.902  -1.244  1.00  0.00     0.210 C 
ENDBRANCH   3   9
ENDBRANCH   1   2
BRANCH   1  11
HETATM   11  N2  UNL     1       0.351   1.619  -0.314  1.00  0.00    -0.268 N 
HETATM   12  C9  UNL     1       0.210   2.807   0.166  1.00  0.00     0.132 A 
HETATM   13  O2  UNL     1       0.796   2.780  -1.075  1.00  0.00     0.000 OA
HETATM   14  H11 UNL     1       1.095   3.617  -1.565  1.00  0.00     0.000 HD
ENDBRANCH   1  11
BRANCH   1  15
HETATM   15  N3  UNL     1       0.506  -0.734   0.210  1.00  0.00    -0.362 N 
HETATM   16  H12 UNL     1       0.033  -1.642   0.104  1.00  0.00     0.162 HD
BRANCH  15  17
HETATM   17  C10 UNL     1       1.905  -0.893   0.026  1.00  0.00     0.030 A 
HETATM   18  C11 UNL     1       2.516  -2.096  -0.292  1.00  0.00     0.029 A 
HETATM   19  C12 UNL     1       3.855  -2.291  -0.468  1.00  0.00     0.003 A 
HETATM   20  C13 UNL     1       4.699  -1.226  -0.326  1.00  0.00     0.007 A 
HETATM   21  C14 UNL     1       4.189  -0.003  -0.013  1.00  0.00    -0.060 A 
HETATM   22  C15 UNL     1       5.136   1.126   0.132  1.00  0.00     0.048 C 
HETATM   23  C16 UNL     1       2.828   0.124   0.151  1.00  0.00     0.036 A 
ENDBRANCH  15  17
ENDBRANCH   1  15
TORSDOF 5
