REMARK  4 active torsions:
REMARK  status: ('A' for Active; 'I' for Inactive)
REMARK    1  A    between atoms: O1_2  and  C2_3 
REMARK    2  A    between atoms: C5_6  and  N1_7 
REMARK    3  A    between atoms: N1_7  and  C6_8 
REMARK    4  A    between atoms: C16_20  and  O2_21 
ROOT
HETATM    1  C2  UNL     1      -1.815  -1.306  -0.265  1.00  0.00     0.102 A 
HETATM    2  C3  UNL     1      -0.709  -1.126   0.436  1.00  0.00     0.054 A 
HETATM    3  C4  UNL     1      -0.730   0.030   1.309  1.00  0.00     0.012 A 
HETATM    4  C5  UNL     1       0.284   0.362   2.077  1.00  0.00     0.102 C 
HETATM    5  C13 UNL     1      -1.853   0.939   1.432  1.00  0.00     0.083 A 
HETATM    6  N2  UNL     1      -2.109   1.976   2.092  1.00  0.00    -0.173 NA
HETATM    7  C14 UNL     1      -1.251   2.577   2.986  1.00  0.00     0.206 C 
HETATM    8  N3  UNL     1      -0.532   3.101   3.761  1.00  0.00    -0.170 NA
HETATM    9  C15 UNL     1      -3.019   0.600   0.580  1.00  0.00     0.073 A 
HETATM   10  C16 UNL     1      -2.999  -0.465  -0.223  1.00  0.00     0.103 A 
ENDROOT
BRANCH   4  11
HETATM   11  N1  UNL     1       1.387  -0.524   1.959  1.00  0.00    -0.365 N 
HETATM   12  H6  UNL     1       1.467  -1.422   2.491  1.00  0.00     0.165 HD
BRANCH  11  13
HETATM   13  C6  UNL     1       2.500  -0.253   1.078  1.00  0.00     0.032 A 
HETATM   14  C7  UNL     1       3.577  -1.104   0.951  1.00  0.00     0.029 A 
HETATM   15  C8  UNL     1       4.599  -0.748   0.073  1.00  0.00     0.003 A 
HETATM   16  C9  UNL     1       4.547   0.421  -0.656  1.00  0.00     0.007 A 
HETATM   17  C10 UNL     1       3.459   1.275  -0.524  1.00  0.00    -0.060 A 
HETATM   18  C11 UNL     1       3.404   2.538  -1.315  1.00  0.00     0.048 C 
HETATM   19  C12 UNL     1       2.430   0.930   0.351  1.00  0.00     0.036 A 
ENDBRANCH  11  13
ENDBRANCH   4  11
BRANCH  10  20
HETATM   20  O2  UNL     1      -4.019  -0.864  -1.047  1.00  0.00    -0.353 OA
HETATM   21  C17 UNL     1      -5.400  -0.762  -0.724  1.00  0.00     0.210 C 
ENDBRANCH  10  20
BRANCH   1  22
HETATM   22  O1  UNL     1      -1.726  -2.445  -1.090  1.00  0.00    -0.353 OA
HETATM   23  C1  UNL     1      -1.805  -2.331  -2.484  1.00  0.00     0.210 C 
ENDBRANCH   1  22
TORSDOF 4
