REMARK  5 active torsions:
REMARK  status: ('A' for Active; 'I' for Inactive)
REMARK    1  A    between atoms: O1_2  and  C2_3 
REMARK    2  A    between atoms: C2_3  and  O2_4 
REMARK    3  A    between atoms: O2_4  and  C3_5 
REMARK    4  A    between atoms: C8_12  and  N3_13 
REMARK    5  A    between atoms: N3_13  and  C9_14 
ROOT
HETATM    1  C3  UNL     1       3.070   0.978  -0.590  1.00  0.00     0.072 A 
HETATM    2  C4  UNL     1       3.532   1.703  -1.670  1.00  0.00     0.039 A 
HETATM    3  C5  UNL     1       2.625   2.165  -2.586  1.00  0.00     0.035 A 
HETATM    4  C6  UNL     1       1.285   1.903  -2.420  1.00  0.00     0.072 A 
HETATM    5  N1  UNL     1       0.473   2.397  -3.368  1.00  0.00    -0.241 NA
HETATM    6  C7  UNL     1      -0.832   2.179  -3.266  1.00  0.00     0.236 A 
HETATM    7  N2  UNL     1      -1.298   1.481  -2.230  1.00  0.00    -0.224 NA
HETATM    8  C8  UNL     1      -0.589   0.945  -1.234  1.00  0.00     0.142 A 
HETATM    9  C16 UNL     1       0.759   1.187  -1.368  1.00  0.00     0.041 A 
HETATM   10  C17 UNL     1       1.715   0.749  -0.481  1.00  0.00     0.054 A 
ENDROOT
BRANCH   8  11
HETATM   11  N3  UNL     1      -1.053   0.212  -0.142  1.00  0.00    -0.340 N 
HETATM   12  H9  UNL     1      -0.432  -0.170   0.565  1.00  0.00     0.167 HD
BRANCH  11  13
HETATM   13  C9  UNL     1      -2.397  -0.120   0.174  1.00  0.00     0.034 A 
HETATM   14  C10 UNL     1      -3.467   0.346  -0.552  1.00  0.00     0.029 A 
HETATM   15  C11 UNL     1      -4.783   0.043  -0.280  1.00  0.00     0.003 A 
HETATM   16  C12 UNL     1      -5.099  -0.776   0.780  1.00  0.00     0.007 A 
HETATM   17  C13 UNL     1      -4.074  -1.266   1.535  1.00  0.00    -0.060 A 
HETATM   18  C14 UNL     1      -4.338  -2.157   2.694  1.00  0.00     0.048 C 
HETATM   19  C15 UNL     1      -2.778  -0.932   1.219  1.00  0.00     0.036 A 
ENDBRANCH  11  13
ENDBRANCH   8  11
BRANCH   1  20
HETATM   20  O2  UNL     1       3.987   0.515   0.330  1.00  0.00    -0.326 OA
BRANCH  20  21
HETATM   21  C2  UNL     1       3.493  -0.227   1.431  1.00  0.00     0.344 C 
BRANCH  21  22
HETATM   22  O1  UNL     1       4.554  -0.593   2.221  1.00  0.00    -0.371 OA
HETATM   23  C1  UNL     1       5.484  -1.381   1.541  1.00  0.00     0.204 C 
ENDBRANCH  21  22
ENDBRANCH  20  21
ENDBRANCH   1  20
TORSDOF 5
