REMARK  6 active torsions:
REMARK  status: ('A' for Active; 'I' for Inactive)
REMARK    1  A    between atoms: C6_6  and  C7_7 
REMARK    2  A    between atoms: C10_10  and  C11_11 
REMARK    3  A    between atoms: C11_11  and  N1_12 
REMARK    4  A    between atoms: C12_13  and  C13_14 
REMARK    5  A    between atoms: C13_14  and  O1_15 
REMARK    6  A    between atoms: C16_19  and  O2_20 
ROOT
HETATM    1  C7  UNL     1       0.940  -0.883   0.334  1.00  0.00     0.014 A 
HETATM    2  C8  UNL     1      -0.365  -0.675   0.260  1.00  0.00     0.004 A 
HETATM    3  C9  UNL     1      -1.096   0.483   0.156  1.00  0.00     0.024 A 
HETATM    4  C10 UNL     1      -2.474   0.471   0.092  1.00  0.00    -0.021 A 
HETATM    5  C12 UNL     1      -3.159  -0.737   0.133  1.00  0.00    -0.025 A 
HETATM    6  C14 UNL     1      -2.413  -1.914   0.239  1.00  0.00     0.042 A 
HETATM    7  C15 UNL     1      -1.030  -1.859   0.300  1.00  0.00     0.066 A 
HETATM    8  N2  UNL     1      -0.225  -2.845   0.397  1.00  0.00    -0.253 NA
HETATM    9  C16 UNL     1       1.127  -2.360   0.431  1.00  0.00     0.277 A 
ENDROOT
BRANCH   1  10
HETATM   10  C6  UNL     1       2.053   0.049   0.330  1.00  0.00    -0.024 A 
HETATM   11  C5  UNL     1       1.954   1.135   1.166  1.00  0.00     0.012 A 
HETATM   12  C4  UNL     1       2.930   2.101   1.270  1.00  0.00     0.001 A 
HETATM   13  C3  UNL     1       4.081   1.997   0.504  1.00  0.00     0.007 A 
HETATM   14  C2  UNL     1       4.189   0.923  -0.331  1.00  0.00    -0.061 A 
HETATM   15  C1  UNL     1       5.419   0.795  -1.163  1.00  0.00     0.048 C 
HETATM   16  C17 UNL     1       3.203  -0.037  -0.423  1.00  0.00     0.019 A 
ENDBRANCH   1  10
BRANCH   9  17
HETATM   17  O2  UNL     1       1.762  -2.770  -0.756  1.00  0.00    -0.371 OA
HETATM   18  H17 UNL     1       2.534  -3.336  -0.576  1.00  0.00     0.212 HD
ENDBRANCH   9  17
BRANCH   4  19
HETATM   19  C11 UNL     1      -3.296   1.724  -0.020  1.00  0.00     0.305 C 
BRANCH  19  20
HETATM   20  N1  UNL     1      -3.794   1.902  -1.363  1.00  0.00     0.082 N 
HETATM   21  H10 UNL     1      -4.775   2.233  -1.380  1.00  0.00     0.313 HD
HETATM   22  H11 UNL     1      -3.547   1.151  -2.018  1.00  0.00     0.313 HD
ENDBRANCH  19  20
ENDBRANCH   4  19
BRANCH   5  23
HETATM   23  C13 UNL     1      -4.642  -0.813   0.069  1.00  0.00     0.203 C 
BRANCH  23  24
HETATM   24  O1  UNL     1      -5.043  -2.148   0.136  1.00  0.00    -0.396 OA
HETATM   25  H14 UNL     1      -4.895  -2.526   1.047  1.00  0.00     0.209 HD
ENDBRANCH  23  24
ENDBRANCH   5  23
TORSDOF 6
