REMARK  2 active torsions:
REMARK  status: ('A' for Active; 'I' for Inactive)
REMARK    1  A    between atoms: C2_2  and  C3_4 
REMARK    2  A    between atoms: C5_6  and  C6_7 
ROOT
HETATM    1  C6  UNL     1      -0.551   0.574  -0.303  1.00  0.00     0.040 C 
HETATM    2  N1  UNL     1       0.642   0.888  -0.680  1.00  0.00    -0.247 NA
HETATM    3  C7  UNL     1       1.224   2.161  -0.787  1.00  0.00     0.228 C 
HETATM    4  N2  UNL     1       2.063   1.456  -0.227  1.00  0.00    -0.264 NA
HETATM    5  C8  UNL     1       3.344   1.509   0.312  1.00  0.00     0.267 C 
HETATM    6  N3  UNL     1       4.219   0.397   0.205  1.00  0.00    -0.401 N 
HETATM    7  C9  UNL     1       3.790  -0.867   0.720  1.00  0.00     0.154 C 
HETATM    8  C10 UNL     1       2.658  -1.424  -0.093  1.00  0.00    -0.040 A 
HETATM    9  C11 UNL     1       3.039  -2.197  -1.198  1.00  0.00     0.009 A 
HETATM   10  C12 UNL     1       2.052  -2.645  -2.054  1.00  0.00     0.001 A 
HETATM   11  C13 UNL     1       0.726  -2.338  -1.831  1.00  0.00     0.007 A 
HETATM   12  C14 UNL     1       0.404  -1.580  -0.740  1.00  0.00    -0.052 A 
HETATM   13  C15 UNL     1       1.344  -1.110   0.156  1.00  0.00     0.016 A 
HETATM   14  C16 UNL     1      -0.853  -0.934  -0.271  1.00  0.00     0.097 C 
HETATM   15  H11 UNL     1       4.833   0.361  -0.618  1.00  0.00     0.155 HD
ENDROOT
BRANCH   1  16
HETATM   16  C5  UNL     1      -1.712   1.332   0.134  1.00  0.00     0.034 C 
HETATM   17  C3  UNL     1      -2.951   1.129   0.532  1.00  0.00    -0.053 C 
HETATM   18  C4  UNL     1      -3.798   2.292   0.892  1.00  0.00     0.049 C 
BRANCH  17  19
HETATM   19  C2  UNL     1      -3.728  -0.086   0.708  1.00  0.00    -0.045 A 
HETATM   20  C1  UNL     1      -4.998  -0.260   1.118  1.00  0.00     0.044 A 
HETATM   21  O1  UNL     1      -4.034  -1.415   0.721  1.00  0.00     0.000 OA
HETATM   22  H3  UNL     1      -3.321  -2.105   0.643  1.00  0.00     0.000 HD
ENDBRANCH  17  19
ENDBRANCH   1  16
TORSDOF 2
