REMARK  2 active torsions:
REMARK  status: ('A' for Active; 'I' for Inactive)
REMARK    1  A    between atoms: N1_2  and  C2_3 
REMARK    2  A    between atoms: C11_15  and  O2_16 
ROOT
HETATM    1  C2  UNL     1       2.614   0.902   0.566  1.00  0.00     0.284 C 
HETATM    2  C3  UNL     1       2.216  -0.561   0.857  1.00  0.00     0.216 C 
HETATM    3  O1  UNL     1       1.244  -1.121   0.081  1.00  0.00    -0.346 OA
HETATM    4  C4  UNL     1      -0.042  -0.993  -0.210  1.00  0.00     0.103 A 
HETATM    5  C5  UNL     1      -1.067  -0.182  -0.450  1.00  0.00     0.057 A 
HETATM    6  C6  UNL     1      -2.279   0.307  -0.724  1.00  0.00     0.041 A 
HETATM    7  C7  UNL     1      -2.855   1.592  -0.843  1.00  0.00     0.137 A 
HETATM    8  N2  UNL     1      -4.145   1.559  -1.104  1.00  0.00    -0.224 NA
HETATM    9  C8  UNL     1      -4.807   0.360  -1.232  1.00  0.00     0.235 A 
HETATM   10  N3  UNL     1      -4.276  -0.900  -1.119  1.00  0.00    -0.241 NA
HETATM   11  C9  UNL     1      -2.928  -0.934  -0.847  1.00  0.00     0.075 A 
HETATM   12  C10 UNL     1      -2.225  -2.142  -0.673  1.00  0.00     0.072 A 
HETATM   13  C11 UNL     1      -0.850  -2.141  -0.369  1.00  0.00     0.103 A 
HETATM   14  N4  UNL     1      -1.780   2.458  -0.550  1.00  0.00    -0.372 N 
HETATM   15  C13 UNL     1      -0.686   3.338  -0.238  1.00  0.00     0.146 C 
HETATM   16  C14 UNL     1       0.299   2.365   0.483  1.00  0.00     0.130 A 
HETATM   17  C15 UNL     1       1.392   1.691   0.489  1.00  0.00     0.028 A 
HETATM   18 CL1  UNL     1       1.612   2.548  -1.092  1.00  0.00    -0.176 Cl
HETATM   19  H14 UNL     1      -1.873   2.664  -1.604  1.00  0.00     0.161 HD
ENDROOT
BRANCH   1  20
HETATM   20  N1  UNL     1       3.556   1.363   1.510  1.00  0.00     0.090 N 
HETATM   21  C1  UNL     1       4.817   0.697   1.474  1.00  0.00     0.307 C 
HETATM   22  H4  UNL     1       3.152   1.322   2.493  1.00  0.00     0.316 HD
ENDBRANCH   1  20
BRANCH  13  23
HETATM   23  O2  UNL     1      -0.255  -3.418  -0.212  1.00  0.00    -0.353 OA
HETATM   24  C12 UNL     1      -0.949  -4.618  -0.340  1.00  0.00     0.210 C 
ENDBRANCH  13  23
TORSDOF 2
