REMARK  5 active torsions:
REMARK  status: ('A' for Active; 'I' for Inactive)
REMARK    1  A    between atoms: C4_4  and  O1_5 
REMARK    2  A    between atoms: C7_9  and  C8_10 
REMARK    3  A    between atoms: C8_10  and  C9_12 
REMARK    4  A    between atoms: C9_12  and  P1_13 
REMARK    5  A    between atoms: C11_15  and  O4_16 
ROOT
HETATM    1  C1  UNL     1      -1.782   2.224   0.688  1.00  0.00     0.044 C 
HETATM    2  C2  UNL     1      -2.230   1.326  -0.427  1.00  0.00     0.146 C 
HETATM    3  C3  UNL     1      -3.650   1.004  -0.208  1.00  0.00     0.041 C 
HETATM    4  C4  UNL     1      -4.493  -0.041  -0.151  1.00  0.00     0.066 C 
HETATM    5  C5  UNL     1      -4.249  -1.490  -0.319  1.00  0.00     0.060 C 
HETATM    6  C6  UNL     1      -3.119  -2.218  -0.276  1.00  0.00     0.141 C 
HETATM    7  O2  UNL     1      -1.802  -1.834  -0.058  1.00  0.00    -0.325 OA
HETATM    8  C7  UNL     1      -1.166  -0.619   0.300  1.00  0.00     0.336 C 
HETATM    9  O5  UNL     1      -1.410   0.273  -0.709  1.00  0.00    -0.345 OA
ENDROOT
BRANCH   8  10
HETATM   10  C8  UNL     1       0.269  -0.958   0.495  1.00  0.00     0.186 C 
HETATM   11  O3  UNL     1      -0.250  -2.015   0.188  1.00  0.00    -0.292 OA
BRANCH  10  12
HETATM   12  C9  UNL     1       0.971   0.300   0.876  1.00  0.00     0.122 C 
BRANCH  12  13
HETATM   13  P1  UNL     1       2.738  -0.130   1.115  1.00  0.00    -0.081 P 
HETATM   14  C10 UNL     1       3.891   0.977   0.247  1.00  0.00     0.044 A 
HETATM   15  C11 UNL     1       4.828   0.707  -0.646  1.00  0.00     0.066 A 
HETATM   16  C12 UNL     1       4.988  -0.694  -1.016  1.00  0.00     0.033 A 
HETATM   17  C13 UNL     1       4.257  -1.671  -0.509  1.00  0.00    -0.019 A 
HETATM   18  C14 UNL     1       3.152  -1.823   0.470  1.00  0.00     0.066 A 
BRANCH  15  19
HETATM   19  O4  UNL     1       5.679   1.628  -1.270  1.00  0.00    -0.361 OA
HETATM   20  H13 UNL     1       5.901   2.531  -0.886  1.00  0.00     0.217 HD
ENDBRANCH  15  19
ENDBRANCH  12  13
ENDBRANCH  10  12
ENDBRANCH   8  10
BRANCH   4  21
HETATM   21  O1  UNL     1      -5.837   0.290   0.111  1.00  0.00    -0.361 OA
HETATM   22  H6  UNL     1      -5.957   0.974   0.863  1.00  0.00     0.217 HD
ENDBRANCH   4  21
TORSDOF 5
