REMARK  8 active torsions:
REMARK  status: ('A' for Active; 'I' for Inactive)
REMARK    1  A    between atoms: O1_2  and  C2_3 
REMARK    2  A    between atoms: C6_9  and  N3_10 
REMARK    3  A    between atoms: N3_10  and  C7_11 
REMARK    4  A    between atoms: C14_21  and  O2_22 
REMARK    5  A    between atoms: O2_22  and  C15_23 
REMARK    6  A    between atoms: C15_23  and  C16_24 
REMARK    7  A    between atoms: C16_24  and  C17_25 
REMARK    8  A    between atoms: C17_25  and  N4_26 
ROOT
HETATM    1  C2  UNL     1       0.114  -1.912  -1.978  1.00  0.00     0.103 A 
HETATM    2  C3  UNL     1       1.339  -2.552  -2.211  1.00  0.00     0.072 A 
HETATM    3  C4  UNL     1       2.383  -2.426  -1.318  1.00  0.00     0.075 A 
HETATM    4  N1  UNL     1       3.582  -3.038  -1.500  1.00  0.00    -0.241 NA
HETATM    5  C5  UNL     1       4.533  -2.861  -0.562  1.00  0.00     0.236 A 
HETATM    6  N2  UNL     1       4.330  -2.106   0.530  1.00  0.00    -0.224 NA
HETATM    7  C6  UNL     1       3.141  -1.472   0.751  1.00  0.00     0.142 A 
HETATM    8  C12 UNL     1       2.166  -1.650  -0.203  1.00  0.00     0.042 A 
HETATM    9  C13 UNL     1       0.984  -1.002   0.072  1.00  0.00     0.057 A 
HETATM   10  C14 UNL     1      -0.053  -1.134  -0.825  1.00  0.00     0.103 A 
ENDROOT
BRANCH   7  11
HETATM   11  N3  UNL     1       3.100  -0.728   1.963  1.00  0.00    -0.339 N 
HETATM   12  H6  UNL     1       2.587  -0.888   2.866  1.00  0.00     0.167 HD
BRANCH  11  13
HETATM   13  C7  UNL     1       3.897   0.477   1.994  1.00  0.00     0.048 A 
HETATM   14  C8  UNL     1       4.006   1.332   3.069  1.00  0.00     0.034 A 
HETATM   15  C9  UNL     1       4.762   2.454   3.111  1.00  0.00     0.046 A 
HETATM   16  C10 UNL     1       5.571   2.999   2.145  1.00  0.00     0.139 A 
HETATM   17  F1  UNL     1       6.285   4.158   2.345  1.00  0.00    -0.204 F 
HETATM   18  C11 UNL     1       5.746   2.443   0.896  1.00  0.00     0.087 A 
HETATM   19 CL1  UNL     1       6.788   3.145  -0.342  1.00  0.00    -0.079 Cl
HETATM   20  P1  UNL     1       4.859   0.975   0.612  1.00  0.00     0.024 P 
ENDBRANCH  11  13
ENDBRANCH   7  11
BRANCH  10  21
HETATM   21  O2  UNL     1      -1.313  -0.593  -0.776  1.00  0.00    -0.348 OA
BRANCH  21  22
HETATM   22  C15 UNL     1      -1.878   0.233   0.184  1.00  0.00     0.177 C 
BRANCH  22  23
HETATM   23  C16 UNL     1      -3.312   0.578  -0.202  1.00  0.00     0.057 C 
BRANCH  23  24
HETATM   24  C17 UNL     1      -4.005   1.462   0.781  1.00  0.00     0.273 C 
BRANCH  24  25
HETATM   25  N4  UNL     1      -5.379   1.768   0.356  1.00  0.00     0.080 N 
HETATM   26  C18 UNL     1      -6.189   0.561   0.412  1.00  0.00     0.309 C 
HETATM   27  C19 UNL     1      -5.896   2.674   1.395  1.00  0.00     0.309 C 
ENDBRANCH  24  25
ENDBRANCH  23  24
ENDBRANCH  22  23
ENDBRANCH  21  22
ENDBRANCH  10  21
BRANCH   1  28
HETATM   28  O1  UNL     1      -0.880  -2.103  -2.943  1.00  0.00    -0.353 OA
HETATM   29  C1  UNL     1      -0.578  -2.913  -4.062  1.00  0.00     0.210 C 
ENDBRANCH   1  28
TORSDOF 8
