REMARK  9 active torsions:
REMARK  status: ('A' for Active; 'I' for Inactive)
REMARK    1  A    between atoms: C2_2  and  O1_3 
REMARK    2  A    between atoms: O1_3  and  C3_4 
REMARK    3  A    between atoms: C3_4  and  C4_5 
REMARK    4  A    between atoms: C4_5  and  O2_6 
REMARK    5  A    between atoms: C4_5  and  C7_10 
REMARK    6  A    between atoms: O2_6  and  C5_7 
REMARK    7  A    between atoms: C5_7  and  N1_8 
REMARK    8  A    between atoms: C9_14  and  N4_15 
REMARK    9  A    between atoms: N4_15  and  C10_16 
ROOT
HETATM    1  C7  UNL     1      -0.263  -1.363   0.537  1.00  0.00     0.109 A 
HETATM    2  N2  UNL     1       0.386  -2.334   1.232  1.00  0.00    -0.240 NA
HETATM    3  C8  UNL     1       1.725  -2.352   1.337  1.00  0.00     0.235 A 
HETATM    4  N3  UNL     1       2.426  -1.379   0.736  1.00  0.00    -0.221 NA
HETATM    5  C9  UNL     1       1.902  -0.373   0.027  1.00  0.00     0.170 A 
HETATM    6  C16 UNL     1       0.528  -0.401  -0.050  1.00  0.00     0.189 A 
HETATM    7  F1  UNL     1      -0.146   0.552  -0.734  1.00  0.00    -0.200 F 
ENDROOT
BRANCH   1   8
HETATM    8  C4  UNL     1      -1.721  -1.374   0.443  1.00  0.00     0.202 C 
BRANCH   8   9
HETATM    9  C3  UNL     1      -2.439  -0.630   1.532  1.00  0.00     0.206 C 
BRANCH   9  10
HETATM   10  O1  UNL     1      -2.242   0.723   1.370  1.00  0.00    -0.389 OA
BRANCH  10  11
HETATM   11  C2  UNL     1      -2.872   1.492   2.337  1.00  0.00     0.163 C 
HETATM   12  C1  UNL     1      -4.352   1.320   2.374  1.00  0.00     0.033 C 
ENDBRANCH  10  11
ENDBRANCH   9  10
ENDBRANCH   8   9
BRANCH   8  13
HETATM   13  O2  UNL     1      -2.241  -0.951  -0.756  1.00  0.00    -0.349 OA
BRANCH  13  14
HETATM   14  C5  UNL     1      -2.965  -1.837  -1.488  1.00  0.00     0.437 C 
BRANCH  14  15
HETATM   15  N1  UNL     1      -3.432  -1.210  -2.718  1.00  0.00     0.102 N 
HETATM   16  C6  UNL     1      -4.273  -0.065  -2.442  1.00  0.00     0.309 C 
HETATM   17  H11 UNL     1      -2.586  -0.826  -3.225  1.00  0.00     0.318 HD
ENDBRANCH  14  15
ENDBRANCH  13  14
ENDBRANCH   8  13
ENDBRANCH   1   8
BRANCH   5  18
HETATM   18  N4  UNL     1       2.596   0.674  -0.624  1.00  0.00    -0.338 N 
HETATM   19  H16 UNL     1       2.027   1.388  -1.141  1.00  0.00     0.167 HD
BRANCH  18  20
HETATM   20  C10 UNL     1       3.989   0.899  -0.677  1.00  0.00     0.035 A 
HETATM   21  C11 UNL     1       4.540   1.978  -1.361  1.00  0.00     0.029 A 
HETATM   22  C12 UNL     1       5.888   2.215  -1.425  1.00  0.00     0.004 A 
HETATM   23  C13 UNL     1       6.790   1.384  -0.806  1.00  0.00     0.024 A 
HETATM   24  C14 UNL     1       6.304   0.306  -0.118  1.00  0.00     0.036 A 
HETATM   25 CL1  UNL     1       7.443  -0.746   0.667  1.00  0.00    -0.084 Cl
HETATM   26  C15 UNL     1       4.946   0.107  -0.080  1.00  0.00     0.053 A 
ENDBRANCH  18  20
ENDBRANCH   5  18
TORSDOF 9
