REMARK  4 active torsions:
REMARK  status: ('A' for Active; 'I' for Inactive)
REMARK    1  A    between atoms: O1_2  and  C2_3 
REMARK    2  A    between atoms: C6_9  and  C7_10 
REMARK    3  A    between atoms: C11_14  and  N3_15 
REMARK    4  A    between atoms: C15_19  and  O2_20 
ROOT
HETATM    1  C2  UNL     1       3.014   0.307  -0.179  1.00  0.00     0.103 A 
HETATM    2  C3  UNL     1       2.690   1.255  -1.130  1.00  0.00     0.072 A 
HETATM    3  C4  UNL     1       1.360   1.493  -1.455  1.00  0.00     0.073 A 
HETATM    4  N1  UNL     1       1.003   2.399  -2.382  1.00  0.00    -0.241 NA
HETATM    5  C5  UNL     1      -0.334   2.539  -2.624  1.00  0.00     0.234 A 
HETATM    6  N2  UNL     1      -1.263   1.794  -1.955  1.00  0.00    -0.240 NA
HETATM    7  C6  UNL     1      -0.916   0.879  -1.019  1.00  0.00     0.081 A 
HETATM    8  C13 UNL     1       0.416   0.745  -0.785  1.00  0.00     0.025 A 
HETATM    9  C14 UNL     1       0.749  -0.199   0.162  1.00  0.00     0.055 A 
HETATM   10  C15 UNL     1       2.048  -0.444   0.492  1.00  0.00     0.102 A 
ENDROOT
BRANCH   7  11
HETATM   11  C7  UNL     1      -2.056   0.199  -0.434  1.00  0.00    -0.004 A 
HETATM   12  C8  UNL     1      -2.959  -0.324  -1.370  1.00  0.00     0.014 A 
HETATM   13  C9  UNL     1      -4.134  -1.002  -1.030  1.00  0.00     0.003 A 
HETATM   14  C10 UNL     1      -4.424  -1.166   0.307  1.00  0.00     0.029 A 
HETATM   15  C11 UNL     1      -3.550  -0.660   1.246  1.00  0.00     0.026 A 
HETATM   16  C12 UNL     1      -2.398   0.004   0.887  1.00  0.00     0.042 A 
BRANCH  15  17
HETATM   17  N3  UNL     1      -3.802  -0.803   2.645  1.00  0.00    -0.399 N 
HETATM   18  H9  UNL     1      -3.518  -1.549   3.332  1.00  0.00     0.156 HD
HETATM   19  H10 UNL     1      -4.341  -0.156   3.269  1.00  0.00     0.156 HD
ENDBRANCH  15  17
ENDBRANCH   7  11
BRANCH  10  20
HETATM   20  O2  UNL     1       2.440  -1.380   1.437  1.00  0.00    -0.353 OA
HETATM   21  C16 UNL     1       1.419  -2.115   2.088  1.00  0.00     0.210 C 
ENDBRANCH  10  20
BRANCH   1  22
HETATM   22  O1  UNL     1       4.352   0.051   0.165  1.00  0.00    -0.353 OA
HETATM   23  C1  UNL     1       5.414   0.748  -0.446  1.00  0.00     0.210 C 
ENDBRANCH   1  22
TORSDOF 4
