REMARK  7 active torsions:
REMARK  status: ('A' for Active; 'I' for Inactive)
REMARK    1  A    between atoms: C3_3  and  C4_4 
REMARK    2  A    between atoms: C5_5  and  N1_6 
REMARK    3  A    between atoms: N1_6  and  C6_7 
REMARK    4  A    between atoms: C10_13  and  C11_14 
REMARK    5  A    between atoms: C11_14  and  O1_15 
REMARK    6  A    between atoms: C12_16  and  C13_17 
REMARK    7  A    between atoms: C13_17  and  O2_18 
ROOT
HETATM    1  C6  UNL     1       0.606  -1.254  -0.231  1.00  0.00     0.141 A 
HETATM    2  N2  UNL     1       1.052  -2.532  -0.140  1.00  0.00    -0.224 NA
HETATM    3  C7  UNL     1       0.152  -3.539   0.066  1.00  0.00     0.236 A 
HETATM    4  N3  UNL     1      -1.154  -3.234   0.173  1.00  0.00    -0.241 NA
HETATM    5  C8  UNL     1      -1.655  -2.011   0.094  1.00  0.00     0.072 A 
HETATM    6  C9  UNL     1      -2.992  -1.695   0.204  1.00  0.00     0.042 A 
HETATM    7  C10 UNL     1      -3.496  -0.413   0.119  1.00  0.00    -0.024 A 
HETATM    8  C12 UNL     1      -2.593   0.610  -0.089  1.00  0.00    -0.025 A 
HETATM    9  C14 UNL     1      -1.233   0.296  -0.201  1.00  0.00     0.027 A 
HETATM   10  C15 UNL     1      -0.754  -0.994  -0.113  1.00  0.00     0.039 A 
ENDROOT
BRANCH   1  11
HETATM   11  N1  UNL     1       1.446  -0.111  -0.444  1.00  0.00    -0.350 N 
HETATM   12  H8  UNL     1       1.509  -0.035  -1.472  1.00  0.00     0.166 HD
BRANCH  11  13
HETATM   13  C5  UNL     1       2.000   0.652   0.632  1.00  0.00     0.090 C 
HETATM   14  C4  UNL     1       3.328   0.778   0.772  1.00  0.00     0.017 C 
BRANCH  14  15
HETATM   15  C3  UNL     1       4.194   0.121  -0.194  1.00  0.00    -0.003 C 
HETATM   16  C2  UNL     1       5.498   0.224  -0.088  1.00  0.00    -0.031 C 
HETATM   17  C1  UNL     1       6.192   0.979   0.971  1.00  0.00     0.036 C 
ENDBRANCH  14  15
ENDBRANCH  11  13
ENDBRANCH   1  11
BRANCH   8  18
HETATM   18  C13 UNL     1      -3.019   2.027  -0.199  1.00  0.00     0.203 C 
BRANCH  18  19
HETATM   19  O2  UNL     1      -3.582   2.287  -1.442  1.00  0.00    -0.396 OA
HETATM   20  H16 UNL     1      -3.014   2.922  -1.929  1.00  0.00     0.209 HD
ENDBRANCH  18  19
ENDBRANCH   8  18
BRANCH   7  21
HETATM   21  C11 UNL     1      -4.946  -0.128   0.245  1.00  0.00     0.203 C 
BRANCH  21  22
HETATM   22  O1  UNL     1      -5.581   0.143  -0.943  1.00  0.00    -0.396 OA
HETATM   23  H13 UNL     1      -5.978   1.046  -0.925  1.00  0.00     0.209 HD
ENDBRANCH  21  22
ENDBRANCH   7  21
TORSDOF 7
