REMARK  7 active torsions:
REMARK  status: ('A' for Active; 'I' for Inactive)
REMARK    1  A    between atoms: N1_2  and  C3_4 
REMARK    2  A    between atoms: C3_4  and  C4_5 
REMARK    3  A    between atoms: C4_5  and  C5_6 
REMARK    4  A    between atoms: C5_6  and  O1_7 
REMARK    5  A    between atoms: O1_7  and  C6_8 
REMARK    6  A    between atoms: C9_11  and  N2_12 
REMARK    7  A    between atoms: N2_12  and  C10_13 
ROOT
HETATM    1  C6  UNL     1       0.111   1.332  -0.478  1.00  0.00     0.102 C 
HETATM    2  C7  UNL     1       0.226   2.154   0.553  1.00  0.00     0.051 C 
HETATM    3  C8  UNL     1       1.389   1.287   0.931  1.00  0.00    -0.006 C 
HETATM    4  C9  UNL     1       1.844   0.117   1.411  1.00  0.00     0.136 C 
HETATM    5  N3  UNL     1       0.813  -0.858   1.653  1.00  0.00    -0.224 NA
HETATM    6  C16 UNL     1       0.482  -1.645   0.625  1.00  0.00     0.237 C 
HETATM    7  N4  UNL     1       0.713  -1.987  -0.735  1.00  0.00    -0.230 NA
HETATM    8  C17 UNL     1       0.635  -1.035  -1.619  1.00  0.00     0.260 C 
HETATM    9  O2  UNL     1       0.445   0.278  -2.151  1.00  0.00    -0.302 OA
HETATM   10  C18 UNL     1       1.222   1.240  -1.470  1.00  0.00     0.106 C 
HETATM   11  C19 UNL     1       2.213   2.095  -1.096  1.00  0.00     0.018 C 
HETATM   12  C20 UNL     1       2.519   2.142   0.399  1.00  0.00     0.072 C 
ENDROOT
BRANCH   4  13
HETATM   13  N2  UNL     1       3.163  -0.301   1.625  1.00  0.00    -0.340 N 
HETATM   14  H14 UNL     1       3.178  -0.240   2.654  1.00  0.00     0.167 HD
BRANCH  13  15
HETATM   15  C10 UNL     1       4.293  -0.715   0.875  1.00  0.00     0.035 A 
HETATM   16  C11 UNL     1       5.428  -1.024   1.597  1.00  0.00     0.032 A 
HETATM   17  C12 UNL     1       6.530  -1.431   0.881  1.00  0.00     0.046 A 
HETATM   18  C13 UNL     1       6.536  -1.536  -0.493  1.00  0.00     0.138 A 
HETATM   19  F1  UNL     1       7.640  -1.941  -1.180  1.00  0.00    -0.204 F 
HETATM   20  C14 UNL     1       5.409  -1.232  -1.237  1.00  0.00     0.074 A 
HETATM   21 CL1  UNL     1       5.345  -1.344  -2.965  1.00  0.00    -0.081 Cl
HETATM   22  C15 UNL     1       4.319  -0.827  -0.496  1.00  0.00     0.056 A 
ENDBRANCH  13  15
ENDBRANCH   4  13
BRANCH   1  23
HETATM   23  O1  UNL     1      -1.135   1.022   0.067  1.00  0.00    -0.348 OA
BRANCH  23  24
HETATM   24  C5  UNL     1      -2.273   0.801  -0.740  1.00  0.00     0.177 C 
BRANCH  24  25
HETATM   25  C4  UNL     1      -3.478   0.614   0.123  1.00  0.00     0.057 C 
BRANCH  25  26
HETATM   26  C3  UNL     1      -4.677   0.371  -0.801  1.00  0.00     0.273 C 
BRANCH  26  27
HETATM   27  N1  UNL     1      -5.870   0.190  -0.001  1.00  0.00     0.080 N 
HETATM   28  C1  UNL     1      -6.980  -0.044  -0.881  1.00  0.00     0.309 C 
HETATM   29  C2  UNL     1      -5.701  -0.786   1.028  1.00  0.00     0.309 C 
ENDBRANCH  26  27
ENDBRANCH  25  26
ENDBRANCH  24  25
ENDBRANCH  23  24
ENDBRANCH   1  23
TORSDOF 7
