REMARK  7 active torsions:
REMARK  status: ('A' for Active; 'I' for Inactive)
REMARK    1  A    between atoms: N1_2  and  C3_4 
REMARK    2  A    between atoms: C3_4  and  C4_5 
REMARK    3  A    between atoms: C4_5  and  C5_6 
REMARK    4  A    between atoms: C5_6  and  O1_7 
REMARK    5  A    between atoms: O1_7  and  C6_8 
REMARK    6  A    between atoms: C11_14  and  C12_15 
REMARK    7  A    between atoms: C13_16  and  C14_18 
ROOT
HETATM    1  C6  UNL     1      -0.799   0.598  -0.940  1.00  0.00     0.046 C 
HETATM    2  C7  UNL     1      -0.177   1.098   0.147  1.00  0.00     0.033 C 
HETATM    3  C8  UNL     1       1.266   1.372   0.346  1.00  0.00     0.020 C 
HETATM    4  C9  UNL     1       2.376   0.766  -0.115  1.00  0.00     0.100 C 
HETATM    5  N2  UNL     1       2.586  -0.353  -0.957  1.00  0.00    -0.294 N 
HETATM    6  C10 UNL     1       3.922  -0.683  -0.751  1.00  0.00     0.136 A 
HETATM    7  C11 UNL     1       4.687  -0.028   0.094  1.00  0.00     0.054 C 
HETATM    8  N3  UNL     1       4.461  -1.778  -1.471  1.00  0.00    -0.224 NA
HETATM    9  C15 UNL     1       3.696  -2.416  -2.277  1.00  0.00     0.237 A 
HETATM   10  N4  UNL     1       2.341  -2.049  -2.457  1.00  0.00    -0.228 NA
HETATM   11  C16 UNL     1       1.752  -1.071  -1.854  1.00  0.00     0.113 A 
HETATM   12  C17 UNL     1       0.389  -1.102  -2.360  1.00  0.00     0.085 C 
HETATM   13  C18 UNL     1      -0.416   0.136  -2.289  1.00  0.00     0.072 C 
ENDROOT
BRANCH   1  14
HETATM   14  O1  UNL     1      -2.171   0.512  -0.674  1.00  0.00    -0.355 OA
BRANCH  14  15
HETATM   15  C5  UNL     1      -2.605  -0.450   0.253  1.00  0.00     0.177 C 
BRANCH  15  16
HETATM   16  C4  UNL     1      -4.116  -0.437   0.402  1.00  0.00     0.057 C 
BRANCH  16  17
HETATM   17  C3  UNL     1      -4.581   0.915   0.878  1.00  0.00     0.273 C 
BRANCH  17  18
HETATM   18  N1  UNL     1      -6.004   1.017   1.045  1.00  0.00     0.080 N 
HETATM   19  C1  UNL     1      -6.765   0.968  -0.163  1.00  0.00     0.309 C 
HETATM   20  C2  UNL     1      -6.484   0.048   2.009  1.00  0.00     0.309 C 
ENDBRANCH  17  18
ENDBRANCH  16  17
ENDBRANCH  15  16
ENDBRANCH  14  15
ENDBRANCH   1  14
BRANCH   7  21
HETATM   21  C12 UNL     1       6.093  -0.479   0.219  1.00  0.00     0.042 C 
HETATM   22  C13 UNL     1       7.177  -0.156   0.894  1.00  0.00     0.107 C 
HETATM   23  F1  UNL     1       8.404  -0.705   0.868  1.00  0.00    -0.210 F 
BRANCH  22  24
HETATM   24  C14 UNL     1       7.273   0.946   1.889  1.00  0.00     0.184 C 
HETATM   25 CL1  UNL     1       7.747   0.251   3.479  1.00  0.00    -0.123 Cl
ENDBRANCH  22  24
ENDBRANCH   7  21
TORSDOF 7
