REMARK  6 active torsions:
REMARK  status: ('A' for Active; 'I' for Inactive)
REMARK    1  A    between atoms: N1_2  and  C3_4 
REMARK    2  A    between atoms: C3_4  and  C4_5 
REMARK    3  A    between atoms: C4_5  and  C5_6 
REMARK    4  A    between atoms: C5_6  and  O1_7 
REMARK    5  A    between atoms: O1_7  and  C6_8 
REMARK    6  A    between atoms: C9_11  and  N2_12 
ROOT
HETATM    1  C6  UNL     1      -0.333  -0.069  -0.189  1.00  0.00     0.060 A 
HETATM    2  C7  UNL     1       0.519   0.833   0.279  1.00  0.00     0.043 A 
HETATM    3  C8  UNL     1       1.566  -0.172   0.086  1.00  0.00    -0.016 A 
HETATM    4  C9  UNL     1       2.806  -0.645   0.137  1.00  0.00     0.035 C 
HETATM    5  C15 UNL     1       2.838  -2.035  -0.447  1.00  0.00     0.205 C 
HETATM    6  N3  UNL     1       2.150  -1.984  -1.721  1.00  0.00    -0.299 NA
HETATM    7  C16 UNL     1       0.950  -1.530  -1.804  1.00  0.00     0.100 C 
HETATM    8  C17 UNL     1       0.627  -1.172  -0.425  1.00  0.00     0.117 A 
ENDROOT
BRANCH   4   9
HETATM    9  N2  UNL     1       3.893   0.130   0.650  1.00  0.00    -0.377 N 
HETATM   10  C10 UNL     1       4.759  -0.012   1.804  1.00  0.00     0.153 C 
HETATM   11  C11 UNL     1       6.149   0.343   1.445  1.00  0.00     0.032 C 
HETATM   12  C12 UNL     1       6.293   1.432   0.704  1.00  0.00     0.111 C 
HETATM   13  F1  UNL     1       7.598   1.730   0.390  1.00  0.00    -0.209 F 
HETATM   14  C13 UNL     1       5.098   2.218   0.283  1.00  0.00     0.162 C 
HETATM   15 CL1  UNL     1       4.436   3.098   1.677  1.00  0.00    -0.116 Cl
HETATM   16  C14 UNL     1       4.069   1.265  -0.257  1.00  0.00     0.150 C 
ENDBRANCH   4   9
BRANCH   1  17
HETATM   17  O1  UNL     1      -1.681   0.108  -0.351  1.00  0.00    -0.354 OA
BRANCH  17  18
HETATM   18  C5  UNL     1      -2.450  -0.300  -1.460  1.00  0.00     0.177 C 
BRANCH  18  19
HETATM   19  C4  UNL     1      -3.912   0.072  -1.276  1.00  0.00     0.057 C 
BRANCH  19  20
HETATM   20  C3  UNL     1      -4.450  -0.608  -0.034  1.00  0.00     0.273 C 
BRANCH  20  21
HETATM   21  N1  UNL     1      -5.832  -0.256   0.139  1.00  0.00     0.080 N 
HETATM   22  C1  UNL     1      -6.425  -0.867   1.308  1.00  0.00     0.309 C 
HETATM   23  C2  UNL     1      -6.069   1.165   0.074  1.00  0.00     0.309 C 
ENDBRANCH  20  21
ENDBRANCH  19  20
ENDBRANCH  18  19
ENDBRANCH  17  18
ENDBRANCH   1  17
TORSDOF 6
