REMARK  8 active torsions:
REMARK  status: ('A' for Active; 'I' for Inactive)
REMARK    1  A    between atoms: C4_5  and  O1_6 
REMARK    2  A    between atoms: C6_8  and  O2_9 
REMARK    3  A    between atoms: O2_9  and  C7_10 
REMARK    4  A    between atoms: C7_10  and  C8_11 
REMARK    5  A    between atoms: C8_11  and  C9_12 
REMARK    6  A    between atoms: C9_12  and  N2_13 
REMARK    7  A    between atoms: C14_18  and  N3_20 
REMARK    8  A    between atoms: N3_20  and  C15_21 
ROOT
HETATM    1  C1  UNL     1       2.454  -4.934  -0.141  1.00  0.00     0.178 C 
HETATM    2  N1  UNL     1       2.682  -3.534   0.111  1.00  0.00    -0.293 NA
HETATM    3  C2  UNL     1       1.716  -2.704  -0.012  1.00  0.00     0.066 A 
HETATM    4  C3  UNL     1       0.342  -3.001  -0.392  1.00  0.00     0.071 A 
HETATM    5  C4  UNL     1      -0.637  -2.134  -0.511  1.00  0.00     0.103 A 
HETATM    6  C6  UNL     1      -0.275  -0.733  -0.225  1.00  0.00     0.103 A 
HETATM    7  C12 UNL     1       0.923  -0.329   0.127  1.00  0.00     0.056 A 
HETATM    8  C13 UNL     1       1.998  -1.299   0.255  1.00  0.00     0.034 A 
HETATM    9  C14 UNL     1       3.220  -0.948   0.607  1.00  0.00     0.116 C 
HETATM   10 CL1  UNL     1       4.499  -2.111   0.759  1.00  0.00    -0.064 Cl
ENDROOT
BRANCH   9  11
HETATM   11  N3  UNL     1       3.720   0.340   0.916  1.00  0.00    -0.346 N 
HETATM   12  H21 UNL     1       3.652   0.553   1.931  1.00  0.00     0.167 HD
BRANCH  11  13
HETATM   13  C15 UNL     1       4.306   1.511   0.363  1.00  0.00     0.036 A 
HETATM   14  C16 UNL     1       3.632   2.622  -0.099  1.00  0.00     0.029 A 
HETATM   15  C17 UNL     1       4.356   3.680  -0.608  1.00  0.00     0.005 A 
HETATM   16  C18 UNL     1       5.733   3.578  -0.630  1.00  0.00     0.042 A 
HETATM   17  C19 UNL     1       6.449   2.487  -0.179  1.00  0.00     0.118 A 
HETATM   18  F1  UNL     1       7.784   2.546  -0.271  1.00  0.00    -0.206 F 
HETATM   19  C20 UNL     1       5.699   1.431   0.329  1.00  0.00     0.071 A 
ENDBRANCH  11  13
ENDBRANCH   9  11
BRANCH   6  20
HETATM   20  O2  UNL     1      -1.287   0.219  -0.338  1.00  0.00    -0.348 OA
BRANCH  20  21
HETATM   21  C7  UNL     1      -1.447   1.276   0.586  1.00  0.00     0.177 C 
BRANCH  21  22
HETATM   22  C8  UNL     1      -2.692   2.026   0.160  1.00  0.00     0.057 C 
BRANCH  22  23
HETATM   23  C9  UNL     1      -3.819   1.031   0.216  1.00  0.00     0.273 C 
BRANCH  23  24
HETATM   24  N2  UNL     1      -5.099   1.601  -0.164  1.00  0.00     0.080 N 
HETATM   25  C10 UNL     1      -5.529   2.558   0.841  1.00  0.00     0.309 C 
HETATM   26  C11 UNL     1      -6.072   0.541  -0.347  1.00  0.00     0.309 C 
ENDBRANCH  23  24
ENDBRANCH  22  23
ENDBRANCH  21  22
ENDBRANCH  20  21
ENDBRANCH   6  20
BRANCH   5  27
HETATM   27  O1  UNL     1      -1.918  -2.520  -0.881  1.00  0.00    -0.353 OA
HETATM   28  C5  UNL     1      -2.575  -3.453  -0.056  1.00  0.00     0.210 C 
ENDBRANCH   5  27
TORSDOF 8
