REMARK  2 active torsions:
REMARK  status: ('A' for Active; 'I' for Inactive)
REMARK    1  A    between atoms: C7_10  and  N3_11 
REMARK    2  A    between atoms: N3_11  and  C8_12 
ROOT
HETATM    1  C1  UNL     1      -5.053   1.249   0.510  1.00  0.00     0.016 C 
HETATM    2  C2  UNL     1      -3.579   0.853   0.347  1.00  0.00     0.030 C 
HETATM    3  C3  UNL     1      -3.473   0.287  -1.023  1.00  0.00     0.004 C 
HETATM    4  C4  UNL     1      -2.632   0.743  -1.921  1.00  0.00     0.139 C 
HETATM    5  O1  UNL     1      -1.769   1.790  -1.676  1.00  0.00    -0.316 OA
HETATM    6  C5  UNL     1      -0.521   1.700  -1.114  1.00  0.00     0.258 C 
HETATM    7  N1  UNL     1       0.586   1.091  -1.255  1.00  0.00    -0.230 NA
HETATM    8  C6  UNL     1       0.920   0.137  -2.227  1.00  0.00     0.231 C 
HETATM    9  N2  UNL     1       1.178  -1.050  -1.787  1.00  0.00    -0.257 NA
HETATM   10  C7  UNL     1       1.137  -1.408  -0.397  1.00  0.00     0.210 C 
HETATM   11  C14 UNL     1      -0.264  -1.861  -0.079  1.00  0.00     0.077 C 
HETATM   12  C15 UNL     1      -0.418  -2.261   1.360  1.00  0.00     0.001 C 
HETATM   13  C16 UNL     1      -1.322  -1.567   2.071  1.00  0.00     0.130 C 
HETATM   14  O2  UNL     1      -1.918  -0.604   1.262  1.00  0.00    -0.363 OA
HETATM   15  C17 UNL     1      -3.273  -0.215   1.385  1.00  0.00     0.182 C 
ENDROOT
BRANCH  10  16
HETATM   16  N3  UNL     1       1.623  -0.407   0.501  1.00  0.00    -0.367 N 
HETATM   17  H10 UNL     1       1.063   0.037   1.258  1.00  0.00     0.161 HD
BRANCH  16  18
HETATM   18  C8  UNL     1       2.971   0.026   0.362  1.00  0.00     0.031 A 
HETATM   19  C9  UNL     1       3.530   0.999   1.193  1.00  0.00     0.032 A 
HETATM   20  C10 UNL     1       4.830   1.446   1.093  1.00  0.00     0.046 A 
HETATM   21  C11 UNL     1       5.645   0.911   0.117  1.00  0.00     0.138 A 
HETATM   22  F1  UNL     1       6.931   1.319  -0.021  1.00  0.00    -0.204 F 
HETATM   23  C12 UNL     1       5.141  -0.065  -0.744  1.00  0.00     0.074 A 
HETATM   24 CL1  UNL     1       6.183  -0.743  -1.986  1.00  0.00    -0.081 Cl
HETATM   25  C13 UNL     1       3.832  -0.471  -0.592  1.00  0.00     0.056 A 
ENDBRANCH  16  18
ENDBRANCH  10  16
TORSDOF 2
