REMARK  11 active torsions:
REMARK  status: ('A' for Active; 'I' for Inactive)
REMARK    1  A    between atoms: C2_2  and  C3_3 
REMARK    2  A    between atoms: C4_4  and  C5_5 
REMARK    3  A    between atoms: C4_4  and  C7_8 
REMARK    4  A    between atoms: C6_6  and  N1_7 
REMARK    5  A    between atoms: C11_14  and  O1_15 
REMARK    6  A    between atoms: O1_15  and  C12_16 
REMARK    7  A    between atoms: C13_18  and  O2_19 
REMARK    8  A    between atoms: O2_19  and  C14_20 
REMARK    9  A    between atoms: C14_20  and  C15_21 
REMARK   10  A    between atoms: C15_21  and  C16_22 
REMARK   11  A    between atoms: C16_22  and  N4_23 
ROOT
HETATM    1  C7  UNL     1      -2.962  -1.096  -0.119  1.00  0.00     0.081 A 
HETATM    2  N2  UNL     1      -4.023  -1.894  -0.446  1.00  0.00    -0.240 NA
HETATM    3  C8  UNL     1      -3.837  -3.241  -0.645  1.00  0.00     0.234 A 
HETATM    4  N3  UNL     1      -2.629  -3.798  -0.523  1.00  0.00    -0.241 NA
HETATM    5  C9  UNL     1      -1.526  -3.108  -0.204  1.00  0.00     0.073 A 
HETATM    6  C10 UNL     1      -0.263  -3.593  -0.041  1.00  0.00     0.072 A 
HETATM    7  C11 UNL     1       0.782  -2.765   0.311  1.00  0.00     0.107 A 
HETATM    8  C13 UNL     1       0.547  -1.419   0.503  1.00  0.00     0.103 A 
HETATM    9  C19 UNL     1      -0.736  -0.958   0.331  1.00  0.00     0.055 A 
HETATM   10  C20 UNL     1      -1.777  -1.778  -0.021  1.00  0.00     0.025 A 
ENDROOT
BRANCH   1  11
HETATM   11  C4  UNL     1      -3.367   0.267   0.038  1.00  0.00    -0.005 C 
HETATM   12  C3  UNL     1      -4.714   0.344   0.014  1.00  0.00     0.010 C 
BRANCH  12  13
HETATM   13  C2  UNL     1      -5.333   1.654   0.101  1.00  0.00    -0.025 C 
HETATM   14  C1  UNL     1      -6.623   1.886   0.093  1.00  0.00     0.031 C 
ENDBRANCH  12  13
BRANCH  11  15
HETATM   15  C5  UNL     1      -2.860   1.598   0.150  1.00  0.00     0.030 C 
HETATM   16  C6  UNL     1      -1.910   2.496   0.236  1.00  0.00     0.081 C 
BRANCH  16  17
HETATM   17  N1  UNL     1      -1.683   3.861   0.348  1.00  0.00    -0.408 N 
HETATM   18  H7  UNL     1      -1.600   4.425   1.228  1.00  0.00     0.155 HD
HETATM   19  H8  UNL     1      -1.565   4.556  -0.439  1.00  0.00     0.155 HD
ENDBRANCH  16  17
ENDBRANCH  11  15
ENDBRANCH   1  11
BRANCH   8  20
HETATM   20  O2  UNL     1       1.661  -0.689   0.853  1.00  0.00    -0.348 OA
BRANCH  20  21
HETATM   21  C14 UNL     1       1.727   0.680   1.109  1.00  0.00     0.177 C 
BRANCH  21  22
HETATM   22  C15 UNL     1       3.143   1.029   1.459  1.00  0.00     0.057 C 
BRANCH  22  23
HETATM   23  C16 UNL     1       4.157   0.738   0.411  1.00  0.00     0.273 C 
BRANCH  23  24
HETATM   24  N4  UNL     1       3.930   1.445  -0.833  1.00  0.00     0.080 N 
HETATM   25  C17 UNL     1       4.137   2.875  -0.678  1.00  0.00     0.309 C 
HETATM   26  C18 UNL     1       4.964   0.987  -1.765  1.00  0.00     0.309 C 
ENDBRANCH  23  24
ENDBRANCH  22  23
ENDBRANCH  21  22
ENDBRANCH  20  21
ENDBRANCH   8  20
BRANCH   7  27
HETATM   27  O1  UNL     1       2.064  -3.331   0.463  1.00  0.00    -0.319 OA
BRANCH  27  28
HETATM   28  C12 UNL     1       2.275  -4.713   0.261  1.00  0.00     0.398 C 
HETATM   29  F1  UNL     1       3.567  -5.095   0.448  1.00  0.00    -0.227 F 
ENDBRANCH  27  28
ENDBRANCH   7  27
TORSDOF 11
