REMARK  8 active torsions:
REMARK  status: ('A' for Active; 'I' for Inactive)
REMARK    1  A    between atoms: C2_2  and  O1_3 
REMARK    2  A    between atoms: C2_2  and  C3_4 
REMARK    3  A    between atoms: C4_5  and  C5_6 
REMARK    4  A    between atoms: C5_6  and  C6_7 
REMARK    5  A    between atoms: C6_7  and  C7_8 
REMARK    6  A    between atoms: C7_8  and  O2_9 
REMARK    7  A    between atoms: O2_9  and  C8_10 
REMARK    8  A    between atoms: C8_10  and  C10_12 
ROOT
HETATM    1  C8  UNL     1      -1.143  -0.374   0.611  1.00  0.00     0.172 C 
HETATM    2  C9  UNL     1      -0.972  -1.807   0.241  1.00  0.00     0.044 C 
ENDROOT
BRANCH   1   3
HETATM    3  O2  UNL     1      -0.099   0.109   1.370  1.00  0.00    -0.381 OA
BRANCH   3   4
HETATM    4  C7  UNL     1       0.594   1.158   0.842  1.00  0.00     0.168 C 
BRANCH   4   5
HETATM    5  C6  UNL     1       1.273   0.836  -0.463  1.00  0.00     0.030 C 
BRANCH   5   6
HETATM    6  C5  UNL     1       2.296  -0.281  -0.260  1.00  0.00     0.029 C 
BRANCH   6   7
HETATM    7  C4  UNL     1       3.335   0.131   0.721  1.00  0.00    -0.028 C 
HETATM    8  C3  UNL     1       4.626   0.201   0.429  1.00  0.00    -0.000 C 
BRANCH   8   9
HETATM    9  C2  UNL     1       5.369  -0.078  -0.827  1.00  0.00     0.136 C 
HETATM   10  C1  UNL     1       6.459  -1.102  -0.550  1.00  0.00     0.043 C 
BRANCH   9  11
HETATM   11  O1  UNL     1       5.989   1.109  -1.216  1.00  0.00    -0.392 OA
HETATM   12  H5  UNL     1       5.453   1.587  -1.880  1.00  0.00     0.210 HD
ENDBRANCH   9  11
ENDBRANCH   8   9
ENDBRANCH   6   7
ENDBRANCH   5   6
ENDBRANCH   4   5
ENDBRANCH   3   4
ENDBRANCH   1   3
BRANCH   1  13
HETATM   13  C10 UNL     1      -2.427  -0.121   1.378  1.00  0.00     0.294 C 
HETATM   14  O3  UNL     1      -2.535   1.263   1.587  1.00  0.00    -0.330 OA
HETATM   15  C11 UNL     1      -3.006   2.392   0.935  1.00  0.00     0.138 C 
HETATM   16  C12 UNL     1      -3.932   2.540  -0.024  1.00  0.00     0.024 C 
HETATM   17  C13 UNL     1      -4.788   1.580  -0.738  1.00  0.00     0.000 C 
HETATM   18  C14 UNL     1      -4.684   0.252  -0.871  1.00  0.00     0.004 C 
HETATM   19  C15 UNL     1      -3.752  -0.844  -0.418  1.00  0.00     0.143 C 
HETATM   20  C16 UNL     1      -4.560  -2.131  -0.650  1.00  0.00     0.044 C 
HETATM   21  O4  UNL     1      -3.526  -0.761   0.914  1.00  0.00    -0.350 OA
ENDBRANCH   1  13
TORSDOF 8
