REMARK  10 active torsions:
REMARK  status: ('A' for Active; 'I' for Inactive)
REMARK    1  A    between atoms: N1_2  and  C3_4 
REMARK    2  A    between atoms: C3_4  and  C4_5 
REMARK    3  A    between atoms: C4_5  and  C5_6 
REMARK    4  A    between atoms: C5_6  and  O1_7 
REMARK    5  A    between atoms: O1_7  and  C6_8 
REMARK    6  A    between atoms: C8_10  and  C9_11 
REMARK    7  A    between atoms: C9_11  and  N2_12 
REMARK    8  A    between atoms: N2_12  and  C10_13 
REMARK    9  A    between atoms: C17_22  and  O2_23 
REMARK   10  A    between atoms: O2_23  and  C18_24 
ROOT
HETATM    1  C6  UNL     1       0.292  -0.574  -0.074  1.00  0.00     0.102 A 
HETATM    2  C7  UNL     1       1.496  -0.100   0.053  1.00  0.00     0.049 A 
HETATM    3  C8  UNL     1       2.658  -0.815   0.513  1.00  0.00    -0.019 A 
HETATM    4  C14 UNL     1       2.500  -2.219   1.011  1.00  0.00     0.152 A 
HETATM    5  C15 UNL     1       3.463  -3.108   0.289  1.00  0.00     0.072 C 
HETATM    6  N3  UNL     1       4.200  -3.766  -0.268  1.00  0.00    -0.196 NA
HETATM    7  C16 UNL     1       1.109  -2.655   0.795  1.00  0.00     0.037 A 
HETATM    8  C17 UNL     1       0.069  -1.958   0.312  1.00  0.00     0.103 A 
ENDROOT
BRANCH   3   9
HETATM    9  C9  UNL     1       3.926  -0.518   0.502  1.00  0.00     0.092 C 
BRANCH   9  10
HETATM   10  N2  UNL     1       4.678   0.587   0.043  1.00  0.00    -0.390 N 
HETATM   11  H15 UNL     1       4.834  -0.040  -0.805  1.00  0.00     0.159 HD
BRANCH  10  12
HETATM   12  C10 UNL     1       5.435   1.700  -0.417  1.00  0.00     0.110 A 
HETATM   13  C11 UNL     1       4.761   2.821  -1.061  1.00  0.00     0.018 A 
HETATM   14  C12 UNL     1       5.147   3.695  -0.201  1.00  0.00     0.012 A 
HETATM   15 CL1  UNL     1       5.155   5.388   0.352  1.00  0.00    -0.089 Cl
HETATM   16  C13 UNL     1       5.803   2.710   0.653  1.00  0.00     0.080 A 
ENDBRANCH  10  12
ENDBRANCH   9  10
ENDBRANCH   3   9
BRANCH   8  17
HETATM   17  O2  UNL     1      -1.000  -2.859   0.325  1.00  0.00    -0.319 OA
BRANCH  17  18
HETATM   18  C18 UNL     1      -0.953  -3.939  -0.638  1.00  0.00     0.398 C 
HETATM   19  F1  UNL     1      -1.931  -4.830  -0.260  1.00  0.00    -0.227 F 
ENDBRANCH  17  18
ENDBRANCH   8  17
BRANCH   1  20
HETATM   20  O1  UNL     1      -0.868   0.031  -0.511  1.00  0.00    -0.348 OA
BRANCH  20  21
HETATM   21  C5  UNL     1      -1.981  -0.037   0.319  1.00  0.00     0.177 C 
BRANCH  21  22
HETATM   22  C4  UNL     1      -3.235   0.631  -0.245  1.00  0.00     0.057 C 
BRANCH  22  23
HETATM   23  C3  UNL     1      -4.306   0.394   0.796  1.00  0.00     0.273 C 
BRANCH  23  24
HETATM   24  N1  UNL     1      -5.582   0.923   0.492  1.00  0.00     0.080 N 
HETATM   25  C1  UNL     1      -5.679   2.356   0.510  1.00  0.00     0.309 C 
HETATM   26  C2  UNL     1      -6.199   0.340  -0.680  1.00  0.00     0.309 C 
ENDBRANCH  23  24
ENDBRANCH  22  23
ENDBRANCH  21  22
ENDBRANCH  20  21
ENDBRANCH   1  20
TORSDOF 10
