REMARK  5 active torsions:
REMARK  status: ('A' for Active; 'I' for Inactive)
REMARK    1  A    between atoms: N1_1  and  C1_2 
REMARK    2  A    between atoms: C2_4  and  N3_5 
REMARK    3  A    between atoms: N3_5  and  C3_6 
REMARK    4  A    between atoms: C11_15  and  C12_16 
REMARK    5  A    between atoms: C12_16  and  C13_17 
ROOT
HETATM    1  C1  UNL     1      -0.455  -3.537   0.275  1.00  0.00     0.723 C 
HETATM    2  N2  UNL     1      -0.950  -2.461   0.015  1.00  0.00    -0.044 NA
HETATM    3  C2  UNL     1      -1.570  -1.574  -0.746  1.00  0.00     0.159 C 
HETATM    4  C9  UNL     1      -0.409  -1.317  -1.276  1.00  0.00     0.039 C 
HETATM    5  C10 UNL     1       0.299  -0.392  -0.676  1.00  0.00     0.015 C 
HETATM    6  C11 UNL     1       0.190  -0.425   0.651  1.00  0.00     0.026 C 
HETATM    7  N4  UNL     1      -0.566  -1.196   1.571  1.00  0.00    -0.353 N 
HETATM    8  C23 UNL     1       0.004  -2.323   2.297  1.00  0.00     0.227 C 
HETATM    9  N5  UNL     1       0.025  -3.418   1.612  1.00  0.00    -0.058 NA
HETATM   10  H17 UNL     1      -1.497  -0.728   1.536  1.00  0.00     0.166 HD
ENDROOT
BRANCH   6  11
HETATM   11  C12 UNL     1       0.999   0.525   1.462  1.00  0.00     0.097 C 
BRANCH  11  12
HETATM   12  C13 UNL     1       1.835   1.397   0.606  1.00  0.00    -0.041 A 
HETATM   13  C14 UNL     1       1.533   2.734   0.337  1.00  0.00     0.008 A 
HETATM   14  C15 UNL     1       2.381   3.471  -0.482  1.00  0.00     0.001 A 
HETATM   15  C16 UNL     1       3.512   2.902  -1.030  1.00  0.00     0.012 A 
HETATM   16  C17 UNL     1       3.822   1.592  -0.774  1.00  0.00    -0.025 A 
HETATM   17  C18 UNL     1       4.966   1.093  -1.354  1.00  0.00     0.012 A 
HETATM   18  C22 UNL     1       2.977   0.871   0.037  1.00  0.00    -0.019 A 
HETATM   19  C19 UNL     1       5.271  -0.235  -1.089  1.00  0.00     0.001 A 
HETATM   20  C20 UNL     1       4.455  -1.011  -0.277  1.00  0.00     0.001 A 
HETATM   21  C21 UNL     1       3.335  -0.441   0.262  1.00  0.00     0.013 A 
ENDBRANCH  11  12
ENDBRANCH   6  11
BRANCH   3  22
HETATM   22  N3  UNL     1      -2.901  -1.115  -0.909  1.00  0.00    -0.340 N 
HETATM   23  H3  UNL     1      -3.224  -2.015  -1.319  1.00  0.00     0.167 HD
BRANCH  22  24
HETATM   24  C3  UNL     1      -3.680   0.022  -0.686  1.00  0.00     0.035 A 
HETATM   25  C4  UNL     1      -3.144   1.163  -0.132  1.00  0.00     0.029 A 
HETATM   26  C5  UNL     1      -3.929   2.277   0.079  1.00  0.00     0.004 A 
HETATM   27  C6  UNL     1      -5.277   2.213  -0.283  1.00  0.00     0.019 A 
HETATM   28  C7  UNL     1      -5.777   1.052  -0.835  1.00  0.00     0.013 A 
HETATM   29 BR1  UNL     1      -7.626   1.004  -1.317  1.00  0.00    -0.051 Br
HETATM   30  C8  UNL     1      -5.002  -0.082  -1.056  1.00  0.00     0.048 A 
ENDBRANCH  22  24
ENDBRANCH   3  22
BRANCH   1  31
HETATM   31  N1  UNL     1      -0.202  -4.818  -0.281  1.00  0.00    -0.231 N 
HETATM   32  H1  UNL     1      -1.080  -5.151  -0.772  1.00  0.00     0.174 HD
HETATM   33  H2  UNL     1       0.726  -5.280  -0.173  1.00  0.00     0.174 HD
ENDBRANCH   1  31
TORSDOF 5
