REMARK  4 active torsions:
REMARK  status: ('A' for Active; 'I' for Inactive)
REMARK    1  A    between atoms: O1_2  and  C2_3 
REMARK    2  A    between atoms: C5_6  and  O2_7 
REMARK    3  A    between atoms: C12_15  and  C13_16 
REMARK    4  A    between atoms: N4_25  and  N5_26 
ROOT
HETATM    1  C2  UNL     1       4.440   1.131   0.025  1.00  0.00     0.064 C 
HETATM    2  C3  UNL     1       4.802  -0.019   0.572  1.00  0.00     0.016 C 
HETATM    3  C4  UNL     1       4.197  -1.260   1.116  1.00  0.00     0.096 C 
HETATM    4  C5  UNL     1       2.939  -1.647   0.427  1.00  0.00     0.072 C 
HETATM    5  C7  UNL     1       1.748  -1.059   0.220  1.00  0.00     0.049 C 
HETATM    6  N1  UNL     1       0.799  -1.820  -0.519  1.00  0.00    -0.363 N 
HETATM    7  C8  UNL     1      -0.185  -0.844  -1.003  1.00  0.00     0.254 C 
HETATM    8  C9  UNL     1      -0.236   0.108   0.084  1.00  0.00    -0.021 C 
HETATM    9  C10 UNL     1      -1.098   0.881   0.759  1.00  0.00     0.010 C 
HETATM   10  C11 UNL     1      -2.540   1.047   0.588  1.00  0.00     0.034 C 
HETATM   11  C12 UNL     1      -3.547   0.394   0.077  1.00  0.00     0.091 C 
HETATM   12  N2  UNL     1      -3.554  -0.870  -0.566  1.00  0.00    -0.131 NA
HETATM   13  N3  UNL     1      -2.712  -1.560  -1.165  1.00  0.00    -0.052 NA
HETATM   14  N4  UNL     1      -1.361  -1.431  -1.494  1.00  0.00    -0.189 N 
HETATM   15  C19 UNL     1       1.177   0.249   0.600  1.00  0.00     0.093 C 
HETATM   16  C20 UNL     1       1.847   1.394  -0.099  1.00  0.00    -0.009 C 
HETATM   17  C21 UNL     1       3.128   1.687  -0.292  1.00  0.00     0.033 C 
HETATM   18  H10 UNL     1       0.803  -2.869  -0.683  1.00  0.00     0.162 HD
ENDROOT
BRANCH  11  19
HETATM   19  C13 UNL     1      -4.876   0.977   0.138  1.00  0.00    -0.004 A 
HETATM   20  C14 UNL     1      -5.274   2.174   0.673  1.00  0.00     0.014 A 
HETATM   21  C15 UNL     1      -6.554   2.660   0.696  1.00  0.00     0.002 A 
HETATM   22  C16 UNL     1      -7.567   1.910   0.143  1.00  0.00     0.019 A 
HETATM   23  C17 UNL     1      -7.237   0.698  -0.410  1.00  0.00     0.011 A 
HETATM   24 BR1  UNL     1      -8.605  -0.375  -1.187  1.00  0.00    -0.051 Br
HETATM   25  C18 UNL     1      -5.934   0.278  -0.396  1.00  0.00     0.033 A 
ENDBRANCH  11  19
BRANCH  14  26
HETATM   26  N5  UNL     1      -1.024  -2.090  -2.711  1.00  0.00    -0.227 NA
HETATM   27  H18 UNL     1      -1.806  -1.909  -3.379  1.00  0.00     0.145 HD
HETATM   28  H19 UNL     1      -1.142  -3.113  -2.452  1.00  0.00     0.145 HD
ENDBRANCH  14  26
BRANCH   4  29
HETATM   29  O2  UNL     1       2.956  -2.923  -0.162  1.00  0.00    -0.358 OA
HETATM   30  C6  UNL     1       3.290  -4.089   0.523  1.00  0.00     0.209 C 
ENDBRANCH   4  29
BRANCH   1  31
HETATM   31  O1  UNL     1       5.387   2.063  -0.361  1.00  0.00    -0.356 OA
HETATM   32  C1  UNL     1       6.337   2.520   0.570  1.00  0.00     0.210 C 
ENDBRANCH   1  31
TORSDOF 4
