REMARK  7 active torsions:
REMARK  status: ('A' for Active; 'I' for Inactive)
REMARK    1  A    between atoms: O1_2  and  C2_3 
REMARK    2  A    between atoms: C5_6  and  O2_7 
REMARK    3  A    between atoms: C7_9  and  C8_10 
REMARK    4  A    between atoms: C8_10  and  C9_11 
REMARK    5  A    between atoms: C12_14  and  N1_15 
REMARK    6  A    between atoms: N1_15  and  C13_16 
REMARK    7  A    between atoms: C19_24  and  N3_25 
ROOT
HETATM    1  C9  UNL     1      -0.106  -0.940  -0.931  1.00  0.00     0.011 C 
HETATM    2  C10 UNL     1       1.107  -0.350  -0.760  1.00  0.00     0.038 C 
HETATM    3  C11 UNL     1       1.855  -1.132   0.258  1.00  0.00     0.020 C 
HETATM    4  C12 UNL     1       2.929  -1.611   0.858  1.00  0.00     0.139 C 
HETATM    5  N2  UNL     1       2.521  -2.464   1.922  1.00  0.00    -0.215 NA
HETATM    6  C19 UNL     1       1.211  -2.509   1.981  1.00  0.00     0.127 C 
HETATM    7  C20 UNL     1       0.622  -1.593   1.011  1.00  0.00     0.188 C 
HETATM    8  N4  UNL     1      -0.176  -2.099  -0.047  1.00  0.00    -0.377 N 
HETATM    9  H20 UNL     1      -0.740  -2.898  -0.410  1.00  0.00     0.160 HD
ENDROOT
BRANCH   1  10
HETATM   10  C8  UNL     1      -1.044  -0.321  -1.925  1.00  0.00     0.098 C 
BRANCH  10  11
HETATM   11  C7  UNL     1      -2.278   0.119  -1.246  1.00  0.00    -0.017 A 
HETATM   12  C5  UNL     1      -3.339  -0.635  -0.813  1.00  0.00     0.075 A 
HETATM   13  C4  UNL     1      -4.418  -0.059  -0.190  1.00  0.00     0.040 A 
HETATM   14  C3  UNL     1      -4.505   1.304   0.041  1.00  0.00     0.039 A 
HETATM   15  C2  UNL     1      -3.454   2.061  -0.386  1.00  0.00     0.068 A 
HETATM   16  C21 UNL     1      -2.366   1.497  -1.012  1.00  0.00     0.047 A 
BRANCH  12  17
HETATM   17  O2  UNL     1      -3.237  -1.992  -1.052  1.00  0.00    -0.355 OA
HETATM   18  C6  UNL     1      -4.201  -2.950  -0.697  1.00  0.00     0.210 C 
ENDBRANCH  12  17
BRANCH  15  19
HETATM   19  O1  UNL     1      -3.496   3.416  -0.179  1.00  0.00    -0.356 OA
HETATM   20  C1  UNL     1      -4.564   4.089   0.451  1.00  0.00     0.210 C 
ENDBRANCH  15  19
ENDBRANCH  10  11
ENDBRANCH   1  10
BRANCH   4  21
HETATM   21  N1  UNL     1       4.198  -1.260   0.350  1.00  0.00    -0.340 N 
HETATM   22  H12 UNL     1       4.720  -2.119   0.093  1.00  0.00     0.167 HD
BRANCH  21  23
HETATM   23  C13 UNL     1       4.744   0.044   0.187  1.00  0.00     0.035 A 
HETATM   24  C14 UNL     1       6.015   0.154  -0.334  1.00  0.00     0.029 A 
HETATM   25  C15 UNL     1       6.578   1.407  -0.507  1.00  0.00     0.004 A 
HETATM   26  C16 UNL     1       5.865   2.532  -0.158  1.00  0.00     0.019 A 
HETATM   27  C17 UNL     1       4.609   2.347   0.353  1.00  0.00     0.013 A 
HETATM   28 BR1  UNL     1       3.641   3.932   0.830  1.00  0.00    -0.051 Br
HETATM   29  C18 UNL     1       3.976   1.133   0.556  1.00  0.00     0.048 A 
ENDBRANCH  21  23
ENDBRANCH   4  21
BRANCH   6  30
HETATM   30  N3  UNL     1       0.267  -3.173   2.801  1.00  0.00    -0.385 N 
HETATM   31  H17 UNL     1       0.327  -2.661   3.712  1.00  0.00     0.157 HD
HETATM   32  H18 UNL     1      -0.275  -3.981   2.396  1.00  0.00     0.157 HD
ENDBRANCH   6  30
TORSDOF 7
