REMARK  3 active torsions:
REMARK  status: ('A' for Active; 'I' for Inactive)
REMARK    1  A    between atoms: O1_2  and  C2_3 
REMARK    2  A    between atoms: C5_6  and  O2_7 
REMARK    3  A    between atoms: C12_16  and  N3_17 
ROOT
HETATM    1  C2  UNL     1      -2.717   0.211  -0.843  1.00  0.00     0.059 C 
HETATM    2  C3  UNL     1      -1.795   1.088  -0.384  1.00  0.00     0.065 C 
HETATM    3  C4  UNL     1      -0.983   0.348   0.566  1.00  0.00     0.066 C 
HETATM    4  C5  UNL     1      -1.488  -0.931   0.641  1.00  0.00     0.083 C 
HETATM    5  C7  UNL     1      -1.815  -1.022  -0.814  1.00  0.00     0.105 C 
HETATM    6  C8  UNL     1      -0.510  -0.821  -1.539  1.00  0.00     0.045 C 
HETATM    7  C9  UNL     1       0.601  -1.713  -1.140  1.00  0.00    -0.027 C 
HETATM    8  C10 UNL     1       1.890  -1.711  -0.615  1.00  0.00     0.003 C 
HETATM    9  C11 UNL     1       2.344  -0.376  -0.347  1.00  0.00     0.194 C 
HETATM   10  N1  UNL     1       3.656   0.053  -0.185  1.00  0.00    -0.282 N 
HETATM   11  N2  UNL     1       4.031   1.260   0.438  1.00  0.00     0.015 NA
HETATM   12  C12 UNL     1       3.169   1.857   1.238  1.00  0.00     0.738 C 
HETATM   13  N4  UNL     1       1.793   1.383   1.377  1.00  0.00    -0.046 NA
HETATM   14  C13 UNL     1       1.501   0.371   0.641  1.00  0.00     0.152 C 
HETATM   15  N5  UNL     1       0.199   0.450   1.333  1.00  0.00    -0.340 N 
HETATM   16  H14 UNL     1       4.273  -0.664  -0.596  1.00  0.00     0.184 HD
HETATM   17  H17 UNL     1      -0.299   0.565   2.225  1.00  0.00     0.167 HD
ENDROOT
BRANCH  12  18
HETATM   18  N3  UNL     1       3.752   3.064   1.785  1.00  0.00    -0.230 N 
HETATM   19  H15 UNL     1       3.586   3.822   1.072  1.00  0.00     0.174 HD
HETATM   20  H16 UNL     1       4.189   2.922   2.723  1.00  0.00     0.174 HD
ENDBRANCH  12  18
BRANCH   4  21
HETATM   21  O2  UNL     1      -1.738  -1.974   1.519  1.00  0.00    -0.357 OA
HETATM   22  C6  UNL     1      -0.774  -2.411   2.427  1.00  0.00     0.209 C 
ENDBRANCH   4  21
BRANCH   1  23
HETATM   23  O1  UNL     1      -3.929   0.755  -1.106  1.00  0.00    -0.359 OA
HETATM   24  C1  UNL     1      -4.257   1.537  -2.233  1.00  0.00     0.209 C 
ENDBRANCH   1  23
TORSDOF 3
