REMARK  0 active torsions:
REMARK  status: ('A' for Active; 'I' for Inactive)
ROOT
HETATM    1  C1  UNL     1      -2.838   0.330   2.440  1.00  0.00     0.049 C 
HETATM    2  C2  UNL     1      -2.750  -0.301   1.091  1.00  0.00    -0.055 A 
HETATM    3  C3  UNL     1      -3.908  -0.814   0.490  1.00  0.00     0.007 A 
HETATM    4  C4  UNL     1      -3.756  -1.385  -0.757  1.00  0.00     0.001 A 
HETATM    5  C5  UNL     1      -2.508  -1.425  -1.342  1.00  0.00     0.008 A 
HETATM    6  C6  UNL     1      -1.375  -0.901  -0.708  1.00  0.00    -0.048 A 
HETATM    7  C7  UNL     1      -1.486  -0.324   0.537  1.00  0.00    -0.040 A 
HETATM    8  C8  UNL     1      -0.317   0.229   1.219  1.00  0.00     0.096 C 
HETATM    9  C9  UNL     1       0.151   1.533   0.695  1.00  0.00     0.010 C 
HETATM   10  C10 UNL     1       1.343   1.890   1.212  1.00  0.00     0.036 C 
HETATM   11  C11 UNL     1       1.937   2.003  -0.121  1.00  0.00    -0.005 C 
HETATM   12  C12 UNL     1       2.865   1.390  -0.883  1.00  0.00     0.083 C 
HETATM   13 BR1  UNL     1       3.255   2.009  -2.670  1.00  0.00    -0.031 Br
HETATM   14  N1  UNL     1       3.630   0.240  -0.453  1.00  0.00    -0.383 N 
HETATM   15  C13 UNL     1       3.718  -1.200  -0.375  1.00  0.00     0.071 C 
HETATM   16  C14 UNL     1       2.445  -1.470  -0.748  1.00  0.00     0.092 C 
HETATM   17  C15 UNL     1       1.768  -2.789  -0.904  1.00  0.00    -0.023 C 
HETATM   18  C16 UNL     1       0.535  -2.376  -1.290  1.00  0.00    -0.026 C 
HETATM   19  C17 UNL     1      -0.165  -1.069  -1.546  1.00  0.00     0.066 C 
HETATM   20  C18 UNL     1       1.116   3.179  -0.521  1.00  0.00     0.161 C 
HETATM   21  N2  UNL     1      -0.207   2.609  -0.200  1.00  0.00    -0.389 N 
HETATM   22  H10 UNL     1       4.286   1.015  -0.127  1.00  0.00     0.160 HD
HETATM   23  H19 UNL     1      -1.245   2.716  -0.391  1.00  0.00     0.159 HD
ENDROOT
TORSDOF 0
