REMARK  4 active torsions:
REMARK  status: ('A' for Active; 'I' for Inactive)
REMARK    1  A    between atoms: N1_2  and  C2_3 
REMARK    2  A    between atoms: C3_5  and  C4_6 
REMARK    3  A    between atoms: C6_8  and  N4_11 
REMARK    4  A    between atoms: N5_13  and  C9_14 
ROOT
HETATM    1  C2  UNL     1      -0.854   1.514   0.128  1.00  0.00     0.123 A 
HETATM    2  N2  UNL     1      -1.648   0.640   0.341  1.00  0.00    -0.166 NA
HETATM    3  C3  UNL     1      -0.857  -0.704   0.395  1.00  0.00     0.306 C 
HETATM    4  N4  UNL     1      -1.406  -0.307   1.843  1.00  0.00     0.022 N 
HETATM    5  C8  UNL     1      -0.358   0.561   1.172  1.00  0.00     0.386 A 
HETATM    6  N5  UNL     1       0.414  -0.162   0.114  1.00  0.00    -0.290 N 
HETATM    7  H9  UNL     1      -1.902   0.632   2.317  1.00  0.00     0.290 HD
ENDROOT
BRANCH   6   8
HETATM    8  C9  UNL     1       1.632  -0.181  -0.639  1.00  0.00     0.038 A 
HETATM    9  C10 UNL     1       2.584  -0.959   0.032  1.00  0.00     0.029 A 
HETATM   10  C11 UNL     1       3.855  -1.119  -0.528  1.00  0.00     0.004 A 
HETATM   11  C12 UNL     1       4.096  -0.489  -1.730  1.00  0.00     0.019 A 
HETATM   12  C13 UNL     1       3.110   0.268  -2.344  1.00  0.00     0.013 A 
HETATM   13 BR1  UNL     1       3.493   1.129  -4.020  1.00  0.00    -0.051 Br
HETATM   14  C14 UNL     1       1.872   0.435  -1.817  1.00  0.00     0.048 A 
ENDBRANCH   6   8
BRANCH   3  15
HETATM   15  C4  UNL     1      -1.761  -1.757   0.879  1.00  0.00     0.137 A 
HETATM   16  C5  UNL     1      -0.568  -2.200   1.896  1.00  0.00     0.072 A 
HETATM   17  C6  UNL     1      -1.792  -2.035   1.897  1.00  0.00     0.189 A 
HETATM   18  C7  UNL     1      -3.361  -1.988   1.906  1.00  0.00     0.157 A 
HETATM   19  N3  UNL     1      -3.233  -1.489   0.487  1.00  0.00    -0.403 N 
HETATM   20  H8  UNL     1      -3.284  -1.147  -0.459  1.00  0.00     0.154 HD
ENDBRANCH   3  15
BRANCH   1  21
HETATM   21  N1  UNL     1      -0.324   2.653  -0.429  1.00  0.00    -0.384 N 
HETATM   22  C1  UNL     1      -1.265   3.050  -1.496  1.00  0.00     0.147 C 
HETATM   23  H4  UNL     1       0.576   2.954   0.025  1.00  0.00     0.160 HD
ENDBRANCH   1  21
TORSDOF 4
