REMARK  3 active torsions:
REMARK  status: ('A' for Active; 'I' for Inactive)
REMARK    1  A    between atoms: C7_7  and  C8_8 
REMARK    2  A    between atoms: C19_19  and  N1_20 
REMARK    3  A    between atoms: N3_22  and  N4_23 
ROOT
HETATM    1  C8  UNL     1       1.175   0.096  -0.833  1.00  0.00     0.132 C 
HETATM    2  C9  UNL     1       0.587   1.422  -1.161  1.00  0.00     0.008 C 
HETATM    3  C10 UNL     1      -0.745   1.442  -0.974  1.00  0.00    -0.026 C 
HETATM    4  C11 UNL     1      -1.885   2.410  -1.114  1.00  0.00     0.037 C 
HETATM    5  C12 UNL     1      -2.970   1.810  -0.572  1.00  0.00     0.040 C 
HETATM    6  C13 UNL     1      -4.175   1.948   0.329  1.00  0.00     0.086 C 
HETATM    7  C14 UNL     1      -3.899   0.978   1.496  1.00  0.00    -0.024 C 
HETATM    8  C15 UNL     1      -2.865   0.044   1.465  1.00  0.00    -0.023 C 
HETATM    9  C16 UNL     1      -1.465  -0.022   0.949  1.00  0.00     0.040 C 
HETATM   10  C17 UNL     1      -0.906  -1.319   1.520  1.00  0.00     0.017 C 
HETATM   11  C18 UNL     1      -1.158   0.063  -0.473  1.00  0.00     0.121 C 
HETATM   12  C19 UNL     1      -2.215  -0.329  -1.464  1.00  0.00     0.128 C 
HETATM   13  N2  UNL     1      -3.038   0.357  -0.830  1.00  0.00    -0.238 NA
HETATM   14  N3  UNL     1       0.056  -0.740  -0.671  1.00  0.00    -0.219 NA
ENDROOT
BRANCH   1  15
HETATM   15  C7  UNL     1       2.192   0.128   0.214  1.00  0.00    -0.029 A 
HETATM   16  C2  UNL     1       3.355  -0.636   0.023  1.00  0.00    -0.054 A 
HETATM   17  C1  UNL     1       3.479  -1.438  -1.220  1.00  0.00     0.049 C 
HETATM   18  C3  UNL     1       4.385  -0.658   0.961  1.00  0.00     0.007 A 
HETATM   19  C4  UNL     1       4.307   0.070   2.120  1.00  0.00     0.001 A 
HETATM   20  C5  UNL     1       3.183   0.833   2.347  1.00  0.00     0.001 A 
HETATM   21  C6  UNL     1       2.197   0.824   1.397  1.00  0.00     0.009 A 
ENDBRANCH   1  15
BRANCH  14  22
HETATM   22  N4  UNL     1      -0.108  -1.700  -1.648  1.00  0.00    -0.266 NA
HETATM   23  H21 UNL     1       0.400  -1.514  -2.541  1.00  0.00     0.137 HD
HETATM   24  H22 UNL     1       0.227  -2.610  -1.208  1.00  0.00     0.137 HD
ENDBRANCH  14  22
BRANCH  12  25
HETATM   25  N1  UNL     1      -2.103  -1.168  -2.608  1.00  0.00    -0.385 N 
HETATM   26  H19 UNL     1      -1.695  -0.901  -3.539  1.00  0.00     0.157 HD
HETATM   27  H20 UNL     1      -2.485  -2.138  -2.444  1.00  0.00     0.157 HD
ENDBRANCH  12  25
TORSDOF 3
