REMARK  3 active torsions:
REMARK  status: ('A' for Active; 'I' for Inactive)
REMARK    1  A    between atoms: N1_1  and  C1_2 
REMARK    2  A    between atoms: C2_4  and  N3_5 
REMARK    3  A    between atoms: N3_5  and  C3_6 
ROOT
HETATM    1  C1  UNL     1      -1.121   2.883  -0.179  1.00  0.00     0.718 C 
HETATM    2  N2  UNL     1      -0.512   1.830   0.448  1.00  0.00    -0.051 NA
HETATM    3  C2  UNL     1       0.400   0.892  -0.118  1.00  0.00     0.230 A 
HETATM    4  C9  UNL     1      -0.038  -0.580  -0.297  1.00  0.00     0.063 C 
HETATM    5  C10 UNL     1      -1.338  -0.396  -0.280  1.00  0.00     0.012 C 
HETATM    6  C11 UNL     1      -2.645  -0.884   0.071  1.00  0.00    -0.025 A 
HETATM    7  C12 UNL     1      -3.757  -0.159  -0.189  1.00  0.00     0.012 A 
HETATM    8  C13 UNL     1      -4.968  -0.706   0.178  1.00  0.00     0.001 A 
HETATM    9  C14 UNL     1      -5.009  -1.936   0.779  1.00  0.00     0.000 A 
HETATM   10  C15 UNL     1      -3.801  -2.604   1.003  1.00  0.00     0.001 A 
HETATM   11  C16 UNL     1      -2.555  -2.110   0.660  1.00  0.00     0.012 A 
HETATM   12  C17 UNL     1      -1.039   0.863  -1.072  1.00  0.00     0.236 A 
HETATM   13  N4  UNL     1      -1.573   2.066  -1.435  1.00  0.00    -0.062 NA
HETATM   14  N5  UNL     1       0.347   1.222  -1.504  1.00  0.00    -0.339 N 
HETATM   15  H14 UNL     1       1.271   1.475  -1.853  1.00  0.00     0.161 HD
ENDROOT
BRANCH   3  16
HETATM   16  N3  UNL     1       1.701   0.914   0.497  1.00  0.00    -0.343 N 
HETATM   17  H3  UNL     1       1.791   1.572   1.312  1.00  0.00     0.164 HD
BRANCH  16  18
HETATM   18  C3  UNL     1       2.850   0.162   0.133  1.00  0.00     0.032 A 
HETATM   19  C4  UNL     1       2.921  -0.665  -0.964  1.00  0.00     0.029 A 
HETATM   20  C5  UNL     1       4.019  -1.403  -1.329  1.00  0.00     0.004 A 
HETATM   21  C6  UNL     1       5.143  -1.302  -0.523  1.00  0.00     0.019 A 
HETATM   22  C7  UNL     1       5.121  -0.489   0.583  1.00  0.00     0.013 A 
HETATM   23 BR1  UNL     1       6.656  -0.317   1.732  1.00  0.00    -0.051 Br
HETATM   24  C8  UNL     1       3.991   0.223   0.894  1.00  0.00     0.048 A 
ENDBRANCH  16  18
ENDBRANCH   3  16
BRANCH   1  25
HETATM   25  N1  UNL     1      -1.061   4.130   0.544  1.00  0.00    -0.231 N 
HETATM   26  H1  UNL     1      -0.435   4.768  -0.025  1.00  0.00     0.174 HD
HETATM   27  H2  UNL     1      -1.670   3.962   1.394  1.00  0.00     0.174 HD
ENDBRANCH   1  25
TORSDOF 3
