REMARK  4 active torsions:
REMARK  status: ('A' for Active; 'I' for Inactive)
REMARK    1  A    between atoms: O1_2  and  C2_3 
REMARK    2  A    between atoms: C6_9  and  N3_10 
REMARK    3  A    between atoms: N3_10  and  C7_11 
REMARK    4  A    between atoms: C15_20  and  O2_21 
ROOT
HETATM    1  C2  UNL     1      -1.973   0.886  -0.701  1.00  0.00     0.174 C 
HETATM    2  C3  UNL     1      -1.040   1.066   0.409  1.00  0.00     0.024 C 
HETATM    3  C4  UNL     1       0.245   1.237   0.149  1.00  0.00     0.087 C 
HETATM    4  N1  UNL     1       0.721   1.245  -1.188  1.00  0.00    -0.361 N 
HETATM    5  C5  UNL     1       1.133   0.211  -2.034  1.00  0.00     0.209 C 
HETATM    6  N2  UNL     1       1.262  -0.975  -1.606  1.00  0.00    -0.227 NA
HETATM    7  C6  UNL     1       1.029  -1.427  -0.299  1.00  0.00     0.125 C 
HETATM    8  C13 UNL     1      -0.299  -1.639  -0.297  1.00  0.00     0.026 C 
HETATM    9  C14 UNL     1      -1.328  -1.474  -1.332  1.00  0.00     0.066 C 
HETATM   10  C15 UNL     1      -2.412  -0.514  -0.966  1.00  0.00     0.157 C 
HETATM   11  H7  UNL     1       0.674   2.270  -1.364  1.00  0.00     0.166 HD
ENDROOT
BRANCH   7  12
HETATM   12  N3  UNL     1       1.716  -1.709   0.908  1.00  0.00    -0.341 N 
HETATM   13  H9  UNL     1       1.346  -2.551   1.436  1.00  0.00     0.167 HD
BRANCH  12  14
HETATM   14  C7  UNL     1       2.815  -1.038   1.496  1.00  0.00     0.034 A 
HETATM   15  C8  UNL     1       3.347  -1.464   2.703  1.00  0.00     0.029 A 
HETATM   16  C9  UNL     1       4.416  -0.834   3.296  1.00  0.00     0.004 A 
HETATM   17  C10 UNL     1       5.022   0.263   2.719  1.00  0.00     0.019 A 
HETATM   18  C11 UNL     1       4.518   0.717   1.513  1.00  0.00     0.013 A 
HETATM   19 BR1  UNL     1       5.323   2.217   0.692  1.00  0.00    -0.051 Br
HETATM   20  C12 UNL     1       3.452   0.054   0.964  1.00  0.00     0.048 A 
ENDBRANCH  12  14
ENDBRANCH   7  12
BRANCH  10  21
HETATM   21  O2  UNL     1      -3.277  -0.452  -2.084  1.00  0.00    -0.388 OA
HETATM   22  C16 UNL     1      -4.528  -0.975  -1.758  1.00  0.00     0.202 C 
ENDBRANCH  10  21
BRANCH   1  23
HETATM   23  O1  UNL     1      -3.124   1.630  -0.441  1.00  0.00    -0.384 OA
HETATM   24  C1  UNL     1      -3.376   2.624  -1.353  1.00  0.00     0.202 C 
ENDBRANCH   1  23
TORSDOF 4
