REMARK  6 active torsions:
REMARK  status: ('A' for Active; 'I' for Inactive)
REMARK    1  A    between atoms: C2_2  and  O1_3 
REMARK    2  A    between atoms: O1_3  and  C3_4 
REMARK    3  A    between atoms: C4_5  and  O2_6 
REMARK    4  A    between atoms: C8_11  and  C9_12 
REMARK    5  A    between atoms: C12_15  and  O4_16 
REMARK    6  A    between atoms: C17_22  and  O6_23 
ROOT
HETATM    1  C3  UNL     1       2.894   0.142   0.484  1.00  0.00     0.136 A 
HETATM    2  C4  UNL     1       2.896  -0.810   1.507  1.00  0.00     0.104 A 
HETATM    3  C5  UNL     1       1.713  -1.398   1.957  1.00  0.00     0.077 A 
HETATM    4  C6  UNL     1       0.524  -1.015   1.363  1.00  0.00     0.094 A 
HETATM    5  O3  UNL     1      -0.549  -1.613   1.840  1.00  0.00    -0.321 OA
HETATM    6  C7  UNL     1      -1.745  -1.316   1.337  1.00  0.00     0.159 A 
HETATM    7  C8  UNL     1      -1.818  -0.376   0.316  1.00  0.00     0.048 A 
HETATM    8  C15 UNL     1      -0.698   0.252  -0.187  1.00  0.00     0.200 A 
HETATM    9  O5  UNL     1      -0.763   1.097  -1.105  1.00  0.00    -0.286 OA
HETATM   10  C16 UNL     1       0.530  -0.075   0.353  1.00  0.00     0.085 A 
HETATM   11  C17 UNL     1       1.698   0.507  -0.092  1.00  0.00     0.119 A 
ENDROOT
BRANCH   7  12
HETATM   12  C9  UNL     1      -3.154  -0.066  -0.223  1.00  0.00    -0.020 A 
HETATM   13  C10 UNL     1      -3.499   0.048  -1.555  1.00  0.00     0.015 A 
HETATM   14  C11 UNL     1      -4.815   0.347  -1.836  1.00  0.00     0.037 A 
HETATM   15  C12 UNL     1      -5.779   0.532  -0.872  1.00  0.00     0.065 A 
HETATM   16  C13 UNL     1      -5.430   0.418   0.441  1.00  0.00     0.037 A 
HETATM   17  C14 UNL     1      -4.126   0.120   0.767  1.00  0.00     0.015 A 
BRANCH  15  18
HETATM   18  O4  UNL     1      -7.072   0.828  -1.243  1.00  0.00    -0.361 OA
HETATM   19  H11 UNL     1      -7.515   1.652  -0.869  1.00  0.00     0.217 HD
ENDBRANCH  15  18
ENDBRANCH   7  12
BRANCH  11  20
HETATM   20  O6  UNL     1       1.684   1.447  -1.105  1.00  0.00    -0.357 OA
HETATM   21  H14 UNL     1       1.515   1.273  -2.068  1.00  0.00     0.218 HD
ENDBRANCH  11  20
BRANCH   1  22
HETATM   22  O1  UNL     1       4.123   0.675   0.100  1.00  0.00    -0.346 OA
BRANCH  22  23
HETATM   23  C2  UNL     1       4.809  -0.010  -0.933  1.00  0.00     0.171 C 
HETATM   24  C1  UNL     1       6.127   0.656  -1.266  1.00  0.00     0.034 C 
ENDBRANCH  22  23
ENDBRANCH   1  22
BRANCH   2  25
HETATM   25  O2  UNL     1       4.076  -1.198   2.105  1.00  0.00    -0.358 OA
HETATM   26  H6  UNL     1       4.611  -0.510   2.620  1.00  0.00     0.217 HD
ENDBRANCH   2  25
TORSDOF 6
