REMARK  3 active torsions:
REMARK  status: ('A' for Active; 'I' for Inactive)
REMARK    1  A    between atoms: C3_4  and  N2_5 
REMARK    2  A    between atoms: N2_5  and  C4_6 
REMARK    3  A    between atoms: C12_16  and  C13_17 
ROOT
HETATM    1  C1  UNL     1      -0.598  -1.722   3.417  1.00  0.00     0.093 C 
HETATM    2  C2  UNL     1      -0.292  -1.059   2.118  1.00  0.00     0.125 A 
HETATM    3  N1  UNL     1      -1.265  -0.618   1.318  1.00  0.00    -0.215 NA
HETATM    4  C3  UNL     1      -1.092  -0.020   0.152  1.00  0.00     0.142 A 
HETATM    5  C10 UNL     1       0.247   0.120  -0.192  1.00  0.00     0.041 A 
HETATM    6  C11 UNL     1       1.300  -0.295   0.555  1.00  0.00     0.084 A 
HETATM    7  N3  UNL     1       1.001  -0.892   1.726  1.00  0.00    -0.232 NA
HETATM    8  C12 UNL     1       2.288   0.175  -0.409  1.00  0.00     0.005 A 
HETATM    9  C19 UNL     1       1.271   0.586  -1.149  1.00  0.00     0.032 A 
ENDROOT
BRANCH   4  10
HETATM   10  N2  UNL     1      -2.070   0.467  -0.738  1.00  0.00    -0.340 N 
HETATM   11  H4  UNL     1      -1.744   0.921  -1.634  1.00  0.00     0.167 HD
BRANCH  10  12
HETATM   12  C4  UNL     1      -3.475   0.420  -0.571  1.00  0.00     0.035 A 
HETATM   13  C5  UNL     1      -4.135  -0.120   0.510  1.00  0.00     0.029 A 
HETATM   14  C6  UNL     1      -5.503  -0.161   0.663  1.00  0.00     0.004 A 
HETATM   15  C7  UNL     1      -6.299   0.372  -0.324  1.00  0.00     0.019 A 
HETATM   16  C8  UNL     1      -5.692   0.927  -1.431  1.00  0.00     0.013 A 
HETATM   17 BR1  UNL     1      -6.763   1.672  -2.814  1.00  0.00    -0.051 Br
HETATM   18  C9  UNL     1      -4.325   0.938  -1.526  1.00  0.00     0.048 A 
ENDBRANCH  10  12
ENDBRANCH   4  10
BRANCH   8  19
HETATM   19  C13 UNL     1       3.742   0.194  -0.523  1.00  0.00    -0.024 A 
HETATM   20  C14 UNL     1       4.327   0.750  -1.632  1.00  0.00     0.012 A 
HETATM   21  C15 UNL     1       5.699   0.764  -1.733  1.00  0.00     0.001 A 
HETATM   22  C16 UNL     1       6.492   0.221  -0.725  1.00  0.00     0.000 A 
HETATM   23  C17 UNL     1       5.890  -0.336   0.385  1.00  0.00     0.001 A 
HETATM   24  C18 UNL     1       4.512  -0.347   0.480  1.00  0.00     0.012 A 
ENDBRANCH   8  19
TORSDOF 3
