REMARK  9 active torsions:
REMARK  status: ('A' for Active; 'I' for Inactive)
REMARK    1  A    between atoms: N1_1  and  C1_2 
REMARK    2  A    between atoms: C2_4  and  N3_5 
REMARK    3  A    between atoms: N3_5  and  C3_6 
REMARK    4  A    between atoms: C7_10  and  C8_11 
REMARK    5  A    between atoms: C11_14  and  C12_15 
REMARK    6  A    between atoms: C12_15  and  C13_16 
REMARK    7  A    between atoms: C15_18  and  C16_19 
REMARK    8  A    between atoms: C16_19  and  C17_20 
REMARK    9  A    between atoms: C17_20  and  P1_21 
ROOT
HETATM    1  C1  UNL     1      -2.597  -1.690  -0.312  1.00  0.00     0.127 C 
HETATM    2  N2  UNL     1      -3.169  -0.561  -0.667  1.00  0.00    -0.215 NA
HETATM    3  C2  UNL     1      -2.496   0.600  -0.294  1.00  0.00     0.138 C 
HETATM    4  C9  UNL     1      -1.455   0.091   0.253  1.00  0.00     0.020 C 
HETATM    5  C10 UNL     1      -0.222   0.415   0.885  1.00  0.00     0.038 C 
HETATM    6  C11 UNL     1       0.768  -0.451   0.389  1.00  0.00     0.006 C 
HETATM    7  N4  UNL     1      -0.098  -1.673   0.024  1.00  0.00    -0.378 N 
HETATM    8  C18 UNL     1      -1.448  -1.420   0.530  1.00  0.00     0.188 C 
HETATM    9  H17 UNL     1      -0.395  -2.592  -0.343  1.00  0.00     0.160 HD
ENDROOT
BRANCH   6  10
HETATM   10  C12 UNL     1       1.996  -1.166   0.086  1.00  0.00     0.057 C 
BRANCH  10  11
HETATM   11  C13 UNL     1       3.285  -0.855   0.765  1.00  0.00     0.009 A 
HETATM   12  C14 UNL     1       4.459  -0.563   1.256  1.00  0.00     0.005 A 
HETATM   13  C15 UNL     1       4.285  -0.520  -0.360  1.00  0.00    -0.008 A 
BRANCH  13  14
HETATM   14  C16 UNL     1       5.676  -0.107  -0.615  1.00  0.00     0.001 C 
BRANCH  14  15
HETATM   15  C17 UNL     1       6.717   0.118   0.442  1.00  0.00     0.071 C 
BRANCH  15  16
HETATM   16  P1  UNL     1       7.228   1.923   0.439  1.00  0.00     0.064 P 
HETATM   17  F1  UNL     1       8.348   2.264  -0.873  1.00  0.00    -0.229 F 
HETATM   18  H16 UNL     1       7.941   2.184   1.727  1.00  0.00     0.093 HD
ENDBRANCH  15  16
ENDBRANCH  14  15
ENDBRANCH  13  14
ENDBRANCH  10  11
ENDBRANCH   6  10
BRANCH   3  19
HETATM   19  N3  UNL     1      -3.065   1.941  -0.481  1.00  0.00    -0.343 N 
HETATM   20  H3  UNL     1      -2.704   2.840  -0.709  1.00  0.00     0.167 HD
BRANCH  19  21
HETATM   21  C3  UNL     1      -4.505   2.076  -0.328  1.00  0.00     0.019 A 
HETATM   22  C4  UNL     1      -5.700   2.841  -0.164  1.00  0.00     0.011 A 
HETATM   23  C5  UNL     1      -6.691   1.770  -0.170  1.00  0.00     0.004 A 
HETATM   24  C6  UNL     1      -7.588   0.441  -0.202  1.00  0.00     0.011 A 
HETATM   25  C8  UNL     1      -5.295   0.972  -0.352  1.00  0.00     0.034 A 
HETATM   26  C7  UNL     1      -6.494   0.647  -0.278  1.00  0.00     0.022 A 
ENDBRANCH  19  21
ENDBRANCH   3  19
BRANCH   1  27
HETATM   27  N1  UNL     1      -3.580  -2.521  -0.975  1.00  0.00    -0.385 N 
HETATM   28  H1  UNL     1      -4.305  -3.099  -1.378  1.00  0.00     0.157 HD
HETATM   29  H2  UNL     1      -3.377  -2.823  -2.001  1.00  0.00     0.157 HD
ENDBRANCH   1  27
TORSDOF 9
