REMARK  4 active torsions:
REMARK  status: ('A' for Active; 'I' for Inactive)
REMARK    1  A    between atoms: N1_1  and  C1_2 
REMARK    2  A    between atoms: C2_4  and  N3_5 
REMARK    3  A    between atoms: N3_5  and  C3_6 
REMARK    4  A    between atoms: C11_15  and  C12_16 
ROOT
HETATM    1  C1  UNL     1      -2.578   0.443   2.774  1.00  0.00     0.118 A 
HETATM    2  N2  UNL     1      -3.141   0.165   1.624  1.00  0.00    -0.214 NA
HETATM    3  C2  UNL     1      -2.312  -0.090   0.493  1.00  0.00     0.157 A 
HETATM    4  C9  UNL     1      -0.989  -0.070   0.510  1.00  0.00     0.078 A 
HETATM    5  C10 UNL     1       0.120  -0.269  -0.396  1.00  0.00     0.043 A 
HETATM    6  C11 UNL     1       1.255  -0.099   0.265  1.00  0.00    -0.028 A 
HETATM    7  C22 UNL     1       1.009   0.233   1.693  1.00  0.00     0.163 A 
HETATM    8  N4  UNL     1      -0.430   0.241   1.802  1.00  0.00    -0.366 N 
HETATM    9  C23 UNL     1      -1.129   0.523   3.040  1.00  0.00     0.201 A 
ENDROOT
BRANCH   6  10
HETATM   10  C12 UNL     1       2.554  -0.234  -0.378  1.00  0.00    -0.027 A 
HETATM   11  C13 UNL     1       2.626  -0.549  -1.719  1.00  0.00     0.013 A 
HETATM   12  C14 UNL     1       3.813  -0.697  -2.411  1.00  0.00     0.013 A 
HETATM   13  C15 UNL     1       4.979  -0.521  -1.724  1.00  0.00    -0.026 A 
HETATM   14  C16 UNL     1       6.210  -0.649  -2.334  1.00  0.00     0.012 A 
HETATM   15  C20 UNL     1       4.923  -0.202  -0.364  1.00  0.00    -0.025 A 
HETATM   16  C17 UNL     1       7.396  -0.472  -1.647  1.00  0.00     0.001 A 
HETATM   17  C18 UNL     1       7.350  -0.156  -0.298  1.00  0.00     0.001 A 
HETATM   18  C19 UNL     1       6.127  -0.026   0.319  1.00  0.00     0.012 A 
HETATM   19  C21 UNL     1       3.739  -0.054   0.328  1.00  0.00     0.024 A 
ENDBRANCH   6  10
BRANCH   3  20
HETATM   20  N3  UNL     1      -2.932  -0.389  -0.746  1.00  0.00    -0.339 N 
HETATM   21  H3  UNL     1      -2.445  -0.852  -1.530  1.00  0.00     0.167 HD
BRANCH  20  22
HETATM   22  C3  UNL     1      -4.279  -0.117  -1.115  1.00  0.00     0.035 A 
HETATM   23  C4  UNL     1      -4.509   1.105  -1.711  1.00  0.00     0.029 A 
HETATM   24  C5  UNL     1      -5.784   1.459  -2.104  1.00  0.00     0.004 A 
HETATM   25  C6  UNL     1      -6.785   0.541  -1.870  1.00  0.00     0.019 A 
HETATM   26  C7  UNL     1      -6.624  -0.714  -1.271  1.00  0.00     0.013 A 
HETATM   27 BR1  UNL     1      -8.065  -1.902  -0.995  1.00  0.00    -0.051 Br
HETATM   28  C8  UNL     1      -5.318  -0.999  -0.904  1.00  0.00     0.048 A 
ENDBRANCH  20  22
ENDBRANCH   3  20
BRANCH   1  29
HETATM   29  N1  UNL     1      -3.426   0.693   3.884  1.00  0.00    -0.386 N 
HETATM   30  H1  UNL     1      -3.820   0.304   4.791  1.00  0.00     0.157 HD
HETATM   31  H2  UNL     1      -4.060   1.437   4.283  1.00  0.00     0.157 HD
ENDBRANCH   1  29
TORSDOF 4
