REMARK  5 active torsions:
REMARK  status: ('A' for Active; 'I' for Inactive)
REMARK    1  A    between atoms: C2_3  and  C3_4 
REMARK    2  A    between atoms: C6_7  and  O2_8 
REMARK    3  A    between atoms: C11_14  and  O4_15 
REMARK    4  A    between atoms: C12_16  and  O5_17 
REMARK    5  A    between atoms: C13_18  and  O6_19 
ROOT
HETATM    1  O1  UNL     1      -0.140  -0.406  -2.072  1.00  0.00    -0.287 OA
HETATM    2  C1  UNL     1      -0.512  -0.221  -0.912  1.00  0.00     0.197 C 
HETATM    3  C2  UNL     1       0.363  -0.092   0.249  1.00  0.00     0.047 C 
HETATM    4  C9  UNL     1      -0.230   0.103   1.416  1.00  0.00     0.152 C 
HETATM    5  O3  UNL     1      -1.628   0.192   1.602  1.00  0.00    -0.345 OA
HETATM    6  C10 UNL     1      -2.334   0.751   0.514  1.00  0.00     0.227 A 
HETATM    7  C11 UNL     1      -3.784   0.700   0.584  1.00  0.00     0.113 A 
HETATM    8  C12 UNL     1      -4.209  -0.082  -0.423  1.00  0.00     0.132 A 
HETATM    9  C13 UNL     1      -3.058  -0.590  -1.199  1.00  0.00     0.114 A 
HETATM   10  C14 UNL     1      -1.967  -0.120  -0.661  1.00  0.00     0.065 A 
ENDROOT
BRANCH   3  11
HETATM   11  C3  UNL     1       1.805  -0.171   0.141  1.00  0.00    -0.020 A 
HETATM   12  C4  UNL     1       2.595  -0.045   1.260  1.00  0.00     0.015 A 
HETATM   13  C5  UNL     1       3.974  -0.105   1.260  1.00  0.00     0.037 A 
HETATM   14  C6  UNL     1       4.661  -0.308   0.068  1.00  0.00     0.065 A 
HETATM   15  C7  UNL     1       3.890  -0.440  -1.087  1.00  0.00     0.037 A 
HETATM   16  C8  UNL     1       2.517  -0.365  -0.990  1.00  0.00     0.015 A 
BRANCH  14  17
HETATM   17  O2  UNL     1       6.036  -0.377   0.009  1.00  0.00    -0.361 OA
HETATM   18  H3  UNL     1       6.600   0.468   0.055  1.00  0.00     0.217 HD
ENDBRANCH  14  17
ENDBRANCH   3  11
BRANCH   9  19
HETATM   19  O6  UNL     1      -3.025  -1.416  -2.308  1.00  0.00    -0.357 OA
HETATM   20  H10 UNL     1      -2.479  -1.106  -3.099  1.00  0.00     0.217 HD
ENDBRANCH   9  19
BRANCH   7  21
HETATM   21  O4  UNL     1      -4.570   1.346   1.527  1.00  0.00    -0.359 OA
HETATM   22  H8  UNL     1      -4.433   2.331   1.765  1.00  0.00     0.217 HD
ENDBRANCH   7  21
BRANCH   8  23
HETATM   23  O5  UNL     1      -5.515  -0.405  -0.738  1.00  0.00    -0.356 OA
HETATM   24  H9  UNL     1      -6.210  -0.674  -0.055  1.00  0.00     0.218 HD
ENDBRANCH   8  23
TORSDOF 5
