REMARK  5 active torsions:
REMARK  status: ('A' for Active; 'I' for Inactive)
REMARK    1  A    between atoms: N1_1  and  C1_2 
REMARK    2  A    between atoms: C2_4  and  N3_5 
REMARK    3  A    between atoms: N3_5  and  C3_6 
REMARK    4  A    between atoms: C11_15  and  C12_16 
REMARK    5  A    between atoms: C12_16  and  C13_17 
ROOT
HETATM    1  C1  UNL     1       1.449  -2.749  -0.121  1.00  0.00     0.719 C 
HETATM    2  N2  UNL     1       2.181  -1.683  -0.180  1.00  0.00    -0.079 NA
HETATM    3  C2  UNL     1       1.541  -0.354  -0.233  1.00  0.00     0.240 C 
HETATM    4  C9  UNL     1       0.276  -0.468  -0.943  1.00  0.00     0.125 C 
HETATM    5  C10 UNL     1      -0.635   0.687  -0.985  1.00  0.00     0.015 C 
HETATM    6  C11 UNL     1      -1.891   0.282  -1.005  1.00  0.00     0.012 C 
HETATM    7  N4  UNL     1      -1.901  -1.126  -0.746  1.00  0.00    -0.347 N 
HETATM    8  C19 UNL     1      -0.560  -1.605  -0.537  1.00  0.00     0.135 C 
HETATM    9  N5  UNL     1       0.046  -2.708  -0.291  1.00  0.00    -0.049 NA
HETATM   10  H17 UNL     1      -2.634  -1.882  -0.673  1.00  0.00     0.167 HD
ENDROOT
BRANCH   3  11
HETATM   11  N3  UNL     1       2.506   0.515  -0.903  1.00  0.00    -0.366 N 
HETATM   12  H4  UNL     1       2.211   0.957  -1.776  1.00  0.00     0.162 HD
BRANCH  11  13
HETATM   13  C3  UNL     1       3.799   0.733  -0.357  1.00  0.00     0.030 A 
HETATM   14  C4  UNL     1       4.199   0.139   0.822  1.00  0.00     0.029 A 
HETATM   15  C5  UNL     1       5.471   0.380   1.317  1.00  0.00     0.004 A 
HETATM   16  C6  UNL     1       6.337   1.210   0.638  1.00  0.00     0.019 A 
HETATM   17  C7  UNL     1       5.947   1.814  -0.549  1.00  0.00     0.013 A 
HETATM   18 BR1  UNL     1       7.111   2.981  -1.536  1.00  0.00    -0.051 Br
HETATM   19  C8  UNL     1       4.675   1.560  -1.025  1.00  0.00     0.048 A 
ENDBRANCH  11  13
ENDBRANCH   3  11
BRANCH   1  20
HETATM   20  N1  UNL     1       1.829  -4.145  -0.047  1.00  0.00    -0.231 N 
HETATM   21  H1  UNL     1       2.000  -4.850  -0.824  1.00  0.00     0.174 HD
HETATM   22  H2  UNL     1       2.008  -4.723   0.805  1.00  0.00     0.174 HD
ENDBRANCH   1  20
BRANCH   6  23
HETATM   23  C12 UNL     1      -3.239   0.857  -1.060  1.00  0.00     0.097 C 
BRANCH  23  24
HETATM   24  C13 UNL     1      -4.109   0.567   0.079  1.00  0.00    -0.031 A 
HETATM   25  C14 UNL     1      -3.871  -0.123   1.249  1.00  0.00     0.009 A 
HETATM   26  C15 UNL     1      -4.830  -0.290   2.217  1.00  0.00     0.001 A 
HETATM   27  C16 UNL     1      -6.104   0.242   2.052  1.00  0.00     0.002 A 
HETATM   28  C17 UNL     1      -6.360   0.937   0.885  1.00  0.00     0.024 A 
HETATM   29  C18 UNL     1      -5.393   1.103  -0.087  1.00  0.00     0.040 A 
HETATM   30 CL1  UNL     1      -5.935   2.020  -1.490  1.00  0.00    -0.084 Cl
ENDBRANCH  23  24
ENDBRANCH   6  23
TORSDOF 5
