REMARK  4 active torsions:
REMARK  status: ('A' for Active; 'I' for Inactive)
REMARK    1  A    between atoms: N1_1  and  C1_2 
REMARK    2  A    between atoms: C6_7  and  C7_8 
REMARK    3  A    between atoms: C7_8  and  C8_9 
REMARK    4  A    between atoms: C8_9  and  C9_10 
ROOT
HETATM    1  C9  UNL     1       0.559  -1.026  -0.080  1.00  0.00     0.011 A 
HETATM    2  C10 UNL     1       0.110   0.097   0.459  1.00  0.00     0.015 A 
HETATM    3  C11 UNL     1      -1.190  -0.140   1.099  1.00  0.00     0.115 A 
HETATM    4  C12 UNL     1      -1.438  -1.609   0.877  1.00  0.00     0.112 A 
HETATM    5  N2  UNL     1      -2.386  -2.429   1.205  1.00  0.00    -0.260 NA
HETATM    6  C13 UNL     1      -3.607  -2.177   1.948  1.00  0.00     0.261 C 
HETATM    7  N3  UNL     1      -4.712  -1.851   1.106  1.00  0.00    -0.220 NA
HETATM    8  N4  UNL     1      -4.528  -0.770   0.257  1.00  0.00    -0.319 N 
HETATM    9  C14 UNL     1      -3.625   0.318   0.089  1.00  0.00     0.051 A 
HETATM   10  C15 UNL     1      -4.408   1.254  -0.574  1.00  0.00     0.050 A 
HETATM   11  C16 UNL     1      -3.908   2.488  -0.935  1.00  0.00     0.013 A 
HETATM   12 BR1  UNL     1      -4.971   3.758  -1.835  1.00  0.00    -0.051 Br
HETATM   13  C17 UNL     1      -2.598   2.759  -0.613  1.00  0.00     0.020 A 
HETATM   14  C18 UNL     1      -1.857   1.804   0.044  1.00  0.00     0.012 A 
HETATM   15  C19 UNL     1      -2.312   0.552   0.428  1.00  0.00    -0.015 A 
HETATM   16  N5  UNL     1      -0.313  -2.093   0.129  1.00  0.00    -0.347 N 
HETATM   17  H13 UNL     1      -5.151  -2.672   0.641  1.00  0.00     0.148 HD
HETATM   18  H14 UNL     1      -5.301  -0.781  -0.472  1.00  0.00     0.181 HD
HETATM   19  H18 UNL     1      -0.235  -3.089  -0.168  1.00  0.00     0.167 HD
ENDROOT
BRANCH   1  20
HETATM   20  C8  UNL     1       1.805  -1.402  -0.852  1.00  0.00     0.084 C 
BRANCH  20  21
HETATM   21  C7  UNL     1       2.657  -0.217  -0.936  1.00  0.00    -0.014 C 
BRANCH  21  22
HETATM   22  C6  UNL     1       3.778   0.105  -0.566  1.00  0.00    -0.034 A 
HETATM   23  C1  UNL     1       4.783   1.693  -0.737  1.00  0.00     0.314 A 
HETATM   24  C2  UNL     1       5.417   0.782  -0.105  1.00  0.00    -0.131 A 
HETATM   25  C3  UNL     1       5.859   0.105   0.352  1.00  0.00     0.045 A 
HETATM   26  C4  UNL     1       6.402  -0.774   0.931  1.00  0.00     0.024 A 
HETATM   27  C5  UNL     1       4.888  -0.914   0.316  1.00  0.00     0.045 A 
BRANCH  23  28
HETATM   28  N1  UNL     1       3.702   2.385  -0.017  1.00  0.00     0.097 N 
HETATM   29  H1  UNL     1       3.730   3.398  -0.180  1.00  0.00     0.314 HD
HETATM   30  H2  UNL     1       3.795   2.213   1.005  1.00  0.00     0.314 HD
ENDBRANCH  23  28
ENDBRANCH  21  22
ENDBRANCH  20  21
ENDBRANCH   1  20
TORSDOF 4
