REMARK  5 active torsions:
REMARK  status: ('A' for Active; 'I' for Inactive)
REMARK    1  A    between atoms: C2_2  and  S1_3 
REMARK    2  A    between atoms: S1_3  and  C3_4 
REMARK    3  A    between atoms: C4_5  and  N1_6 
REMARK    4  A    between atoms: C5_7  and  C6_8 
REMARK    5  A    between atoms: C12_16  and  N3_17 
ROOT
HETATM    1  C3  UNL     1       1.767   0.417   0.058  1.00  0.00     0.027 C 
HETATM    2  C4  UNL     1       0.784   0.771   0.895  1.00  0.00     0.074 C 
HETATM    3  C5  UNL     1      -0.410   0.586   0.079  1.00  0.00     0.219 C 
HETATM    4  N2  UNL     1      -1.398   1.610   0.497  1.00  0.00    -0.062 NA
HETATM    5  C12 UNL     1      -2.001   2.303  -0.425  1.00  0.00     0.719 C 
HETATM    6  N4  UNL     1      -1.723   2.292  -1.808  1.00  0.00    -0.059 NA
HETATM    7  C13 UNL     1      -0.758   1.538  -2.281  1.00  0.00     0.227 C 
HETATM    8  N5  UNL     1      -0.058   0.793  -1.295  1.00  0.00    -0.332 N 
HETATM    9  C14 UNL     1       1.195   0.068  -1.275  1.00  0.00     0.175 C 
ENDROOT
BRANCH   3  10
HETATM   10  C6  UNL     1      -1.061  -0.749   0.340  1.00  0.00     0.001 A 
HETATM   11  C7  UNL     1      -0.470  -1.970   0.562  1.00  0.00     0.012 A 
HETATM   12  C8  UNL     1      -1.199  -3.116   0.764  1.00  0.00     0.002 A 
HETATM   13  C9  UNL     1      -2.578  -3.096   0.755  1.00  0.00     0.019 A 
HETATM   14  C10 UNL     1      -3.253  -1.912   0.540  1.00  0.00     0.011 A 
HETATM   15 BR1  UNL     1      -5.145  -1.781   0.509  1.00  0.00    -0.051 Br
HETATM   16  C11 UNL     1      -2.462  -0.799   0.344  1.00  0.00     0.031 A 
ENDBRANCH   3  10
BRANCH   2  17
HETATM   17  N1  UNL     1       0.887   1.197   2.249  1.00  0.00    -0.398 N 
HETATM   18  H4  UNL     1       1.200   2.201   2.256  1.00  0.00     0.156 HD
HETATM   19  H5  UNL     1       0.714   0.707   3.139  1.00  0.00     0.156 HD
ENDBRANCH   2  17
BRANCH   1  20
HETATM   20  S1  UNL     1       3.509   0.412   0.527  1.00  0.00    -0.103 SA
BRANCH  20  21
HETATM   21  C2  UNL     1       4.506  -0.087  -0.872  1.00  0.00     0.040 C 
HETATM   22  C1  UNL     1       5.340  -0.788  -0.076  1.00  0.00     0.019 C 
ENDBRANCH  20  21
ENDBRANCH   1  20
BRANCH   5  23
HETATM   23  N3  UNL     1      -2.983   3.313  -0.176  1.00  0.00    -0.231 N 
HETATM   24  H10 UNL     1      -3.846   3.138   0.399  1.00  0.00     0.174 HD
HETATM   25  H11 UNL     1      -3.007   4.296  -0.491  1.00  0.00     0.174 HD
ENDBRANCH   5  23
TORSDOF 5
