REMARK  2 active torsions:
REMARK  status: ('A' for Active; 'I' for Inactive)
REMARK    1  A    between atoms: C8_8  and  C9_9 
REMARK    2  A    between atoms: B1_20  and  N3_21 
ROOT
HETATM    1  C9  UNL     1      -0.137   0.146  -0.001  1.00  0.00     0.020 C 
HETATM    2  C10 UNL     1      -1.007  -0.604  -0.630  1.00  0.00     0.053 C 
HETATM    3  C11 UNL     1      -1.198  -1.818  -1.362  1.00  0.00     0.082 C 
HETATM    4  C12 UNL     1      -2.346  -2.287  -1.889  1.00  0.00     0.087 C 
HETATM    5  N1  UNL     1      -3.064  -1.093  -1.388  1.00  0.00    -0.324 N 
HETATM    6  C13 UNL     1      -3.397  -1.384  -0.030  1.00  0.00     0.041 C 
HETATM    7  C14 UNL     1      -2.788  -2.382   0.660  1.00  0.00     0.028 C 
HETATM    8  C15 UNL     1      -2.241  -1.412   1.791  1.00  0.00     0.008 C 
HETATM    9  C16 UNL     1      -2.710  -0.208   1.378  1.00  0.00    -0.043 C 
HETATM   10  C17 UNL     1      -2.372   1.142   0.909  1.00  0.00     0.110 C 
HETATM   11  N2  UNL     1      -0.948   1.248   0.502  1.00  0.00    -0.389 N 
HETATM   12  B1  UNL     1      -3.109   1.282  -0.599  1.00  0.00     0.392 B 
HETATM   13  N4  UNL     1      -3.510   0.259  -1.621  1.00  0.00    -0.258 NA
HETATM   14  C18 UNL     1      -4.933   0.188  -1.774  1.00  0.00     0.119 C 
HETATM   15  C19 UNL     1      -4.188  -0.670   1.132  1.00  0.00     0.139 C 
HETATM   16 BR1  UNL     1      -4.862  -1.819   2.421  1.00  0.00    -0.080 Br
HETATM   17  H14 UNL     1      -0.578   2.216   0.598  1.00  0.00     0.159 HD
ENDROOT
BRANCH   1  18
HETATM   18  C8  UNL     1       1.305   0.194   0.358  1.00  0.00    -0.013 A 
HETATM   19  C7  UNL     1       1.853   1.191   1.089  1.00  0.00     0.025 A 
HETATM   20  C6  UNL     1       3.200   1.108   1.339  1.00  0.00    -0.025 A 
HETATM   21  C5  UNL     1       3.701   2.168   2.098  1.00  0.00     0.012 A 
HETATM   22  C22 UNL     1       4.016   0.088   0.898  1.00  0.00    -0.020 A 
HETATM   23  C4  UNL     1       5.054   2.154   2.391  1.00  0.00     0.001 A 
HETATM   24  C3  UNL     1       5.903   1.155   1.970  1.00  0.00     0.007 A 
HETATM   25  C2  UNL     1       5.350   0.119   1.215  1.00  0.00    -0.051 A 
HETATM   26  C1  UNL     1       6.217  -0.992   0.729  1.00  0.00     0.049 C 
HETATM   27  C21 UNL     1       3.452  -0.914   0.161  1.00  0.00     0.013 A 
HETATM   28  C20 UNL     1       2.108  -0.857  -0.104  1.00  0.00     0.014 A 
ENDBRANCH   1  18
BRANCH  12  29
HETATM   29  N3  UNL     1      -2.569   2.558  -1.221  1.00  0.00    -0.361 NA
HETATM   30  H15 UNL     1      -2.599   2.528  -2.261  1.00  0.00     0.102 HD
HETATM   31  H16 UNL     1      -3.189   3.339  -0.903  1.00  0.00     0.102 HD
ENDBRANCH  12  29
TORSDOF 2
