REMARK  6 active torsions:
REMARK  status: ('A' for Active; 'I' for Inactive)
REMARK    1  A    between atoms: C3_4  and  N1_5 
REMARK    2  A    between atoms: N1_5  and  N2_6 
REMARK    3  A    between atoms: N2_6  and  C4_7 
REMARK    4  A    between atoms: C4_7  and  C5_8 
REMARK    5  A    between atoms: C7_10  and  C8_11 
REMARK    6  A    between atoms: C8_11  and  C9_12 
ROOT
HETATM    1  C5  UNL     1      -0.171   0.833   0.026  1.00  0.00     0.028 A 
HETATM    2  C6  UNL     1      -0.813  -0.205  -0.731  1.00  0.00     0.043 A 
HETATM    3  C7  UNL     1      -1.908  -0.477  -0.014  1.00  0.00     0.010 A 
HETATM    4  N3  UNL     1      -2.035   0.310   1.165  1.00  0.00    -0.388 N 
HETATM    5  C15 UNL     1      -0.865   1.193   1.287  1.00  0.00     0.168 A 
HETATM    6  H12 UNL     1      -2.821   0.271   1.833  1.00  0.00     0.159 HD
ENDROOT
BRANCH   1   7
HETATM    7  C4  UNL     1       0.949   1.409  -0.380  1.00  0.00     0.014 C 
BRANCH   7   8
HETATM    8  N2  UNL     1       2.158   1.762  -0.557  1.00  0.00    -0.133 NA
BRANCH   8   9
HETATM    9  N1  UNL     1       3.183   0.998  -0.002  1.00  0.00    -0.297 N 
HETATM   10  H3  UNL     1       3.303   1.944   0.470  1.00  0.00     0.183 HD
BRANCH   9  11
HETATM   11  C3  UNL     1       4.074  -0.107   0.309  1.00  0.00     0.129 A 
HETATM   12  C2  UNL     1       4.763  -0.531  -0.910  1.00  0.00     0.019 A 
HETATM   13  C1  UNL     1       5.998  -0.616  -1.324  1.00  0.00     0.009 A 
HETATM   14 BR1  UNL     1       6.629  -1.221  -3.009  1.00  0.00    -0.051 Br
HETATM   15  C18 UNL     1       6.973  -0.181  -0.331  1.00  0.00     0.015 A 
HETATM   16  C17 UNL     1       6.427   0.219   0.805  1.00  0.00    -0.023 A 
HETATM   17  C16 UNL     1       5.057   0.348   1.353  1.00  0.00     0.058 A 
ENDBRANCH   9  11
ENDBRANCH   8   9
ENDBRANCH   7   8
ENDBRANCH   1   7
BRANCH   3  18
HETATM   18  C8  UNL     1      -2.916  -1.515  -0.410  1.00  0.00     0.095 C 
BRANCH  18  19
HETATM   19  C9  UNL     1      -4.248  -0.882  -0.596  1.00  0.00    -0.053 A 
HETATM   20  C10 UNL     1      -4.682  -0.370  -1.817  1.00  0.00     0.007 A 
HETATM   21  C11 UNL     1      -5.946   0.197  -1.867  1.00  0.00     0.001 A 
HETATM   22  C12 UNL     1      -6.762   0.258  -0.737  1.00  0.00     0.000 A 
HETATM   23  C13 UNL     1      -6.310  -0.253   0.450  1.00  0.00     0.001 A 
HETATM   24  C14 UNL     1      -5.051  -0.823   0.519  1.00  0.00     0.007 A 
ENDBRANCH  18  19
ENDBRANCH   3  18
TORSDOF 6
