REMARK  3 active torsions:
REMARK  status: ('A' for Active; 'I' for Inactive)
REMARK    1  A    between atoms: C6_7  and  C7_8 
REMARK    2  A    between atoms: C7_8  and  C8_9 
REMARK    3  A    between atoms: C8_9  and  N1_10 
ROOT
HETATM    1  N1  UNL     1      -0.472  -1.264  -0.642  1.00  0.00    -0.327 N 
HETATM    2  C9  UNL     1      -1.303  -1.381   0.479  1.00  0.00     0.147 C 
HETATM    3  C10 UNL     1      -2.713  -0.934   0.439  1.00  0.00     0.004 C 
HETATM    4  C11 UNL     1      -2.887   0.369   1.116  1.00  0.00     0.022 C 
HETATM    5  C12 UNL     1      -2.674   1.701   1.277  1.00  0.00    -0.001 C 
HETATM    6  C13 UNL     1      -1.983   2.904   0.737  1.00  0.00     0.023 C 
HETATM    7 BR1  UNL     1      -2.271   4.465   1.736  1.00  0.00    -0.050 Br
HETATM    8  C14 UNL     1      -1.284   2.651  -0.318  1.00  0.00     0.107 C 
HETATM    9  N2  UNL     1      -0.565   2.274  -1.444  1.00  0.00    -0.364 N 
HETATM   10  C15 UNL     1      -1.031   0.936  -1.443  1.00  0.00     0.035 C 
HETATM   11  B1  UNL     1      -2.783   0.492  -1.822  1.00  0.00     0.232 B 
HETATM   12  C16 UNL     1      -3.364  -0.978  -0.936  1.00  0.00    -0.041 C 
HETATM   13  N3  UNL     1      -0.057  -0.049  -1.092  1.00  0.00    -0.303 N 
HETATM   14  H15 UNL     1       0.035   2.262  -2.243  1.00  0.00     0.165 HD
HETATM   15  H18 UNL     1       0.858   0.428  -1.277  1.00  0.00     0.187 HD
ENDROOT
BRANCH   1  16
HETATM   16  C8  UNL     1       0.483  -2.314  -0.730  1.00  0.00     0.147 C 
BRANCH  16  17
HETATM   17  C7  UNL     1       1.519  -2.253   0.373  1.00  0.00     0.061 C 
BRANCH  17  18
HETATM   18  C6  UNL     1       2.309  -1.022   0.390  1.00  0.00    -0.035 A 
HETATM   19  C1  UNL     1       3.321  -0.865  -0.565  1.00  0.00     0.040 A 
HETATM   20 CL1  UNL     1       3.624  -2.109  -1.745  1.00  0.00    -0.084 Cl
HETATM   21  C2  UNL     1       4.090   0.279  -0.586  1.00  0.00     0.024 A 
HETATM   22  C3  UNL     1       3.885   1.306   0.337  1.00  0.00     0.002 A 
HETATM   23  C4  UNL     1       2.894   1.162   1.280  1.00  0.00     0.001 A 
HETATM   24  C5  UNL     1       2.122   0.009   1.297  1.00  0.00     0.009 A 
ENDBRANCH  17  18
ENDBRANCH  16  17
ENDBRANCH   1  16
TORSDOF 3
