REMARK  0 active torsions:
REMARK  status: ('A' for Active; 'I' for Inactive)
REMARK       I    between atoms: N1_1  and  C1_2 
ROOT
HETATM    1  N1  UNL     1       1.407  -1.118   2.899  1.00  0.00    -0.230 N 
HETATM    2  C1  UNL     1       1.797  -0.546   1.657  1.00  0.00     0.742 C 
HETATM    3  N2  UNL     1       2.475  -1.198   0.733  1.00  0.00     0.044 NA
HETATM    4  N3  UNL     1       2.773  -0.461  -0.433  1.00  0.00    -0.132 NA
HETATM    5  C2  UNL     1       2.639  -1.111  -1.540  1.00  0.00     0.110 C 
HETATM    6  C3  UNL     1       2.874  -2.388  -1.449  1.00  0.00     0.036 C 
HETATM    7  C4  UNL     1       1.537  -2.684  -1.059  1.00  0.00     0.002 C 
HETATM    8  C5  UNL     1       0.314  -2.595  -0.693  1.00  0.00     0.001 C 
HETATM    9  C6  UNL     1      -0.593  -1.579  -0.397  1.00  0.00     0.012 C 
HETATM   10  C7  UNL     1      -1.589  -0.801  -0.083  1.00  0.00    -0.026 A 
HETATM   11  C8  UNL     1      -2.494  -1.809   0.144  1.00  0.00     0.012 A 
HETATM   12  C9  UNL     1      -3.833  -1.654   0.539  1.00  0.00     0.001 A 
HETATM   13  C10 UNL     1      -4.220  -0.347   0.699  1.00  0.00     0.001 A 
HETATM   14  C11 UNL     1      -3.305   0.648   0.469  1.00  0.00     0.012 A 
HETATM   15  C12 UNL     1      -2.005   0.478   0.086  1.00  0.00    -0.024 A 
HETATM   16  C13 UNL     1      -1.408   1.632  -0.033  1.00  0.00     0.043 C 
HETATM   17  C14 UNL     1      -0.097   2.108  -0.379  1.00  0.00     0.060 C 
HETATM   18  C15 UNL     1       0.049   2.545  -1.618  1.00  0.00     0.039 C 
HETATM   19 BR1  UNL     1      -1.664   2.351  -2.499  1.00  0.00    -0.049 Br
HETATM   20  C16 UNL     1       1.254   3.083  -2.290  1.00  0.00     0.035 C 
HETATM   21  C17 UNL     1       2.261   3.303  -1.507  1.00  0.00    -0.007 C 
HETATM   22  C18 UNL     1       2.191   2.780  -0.291  1.00  0.00     0.113 C 
HETATM   23  N4  UNL     1       1.080   2.203   0.450  1.00  0.00    -0.280 N 
HETATM   24  C19 UNL     1       1.363   1.839   1.836  1.00  0.00     0.311 C 
HETATM   25  F1  UNL     1       1.199   3.080   2.320  1.00  0.00    -0.162 F 
HETATM   26  N5  UNL     1       1.492   0.731   1.280  1.00  0.00    -0.014 NA
HETATM   27  H1  UNL     1       2.226  -0.771   3.451  1.00  0.00     0.174 HD
HETATM   28  H2  UNL     1       0.722  -1.680   3.446  1.00  0.00     0.174 HD
ENDROOT
TORSDOF 0
