REMARK  1 active torsions:
REMARK  status: ('A' for Active; 'I' for Inactive)
REMARK    1  A    between atoms: N1_1  and  C1_2 
ROOT
HETATM    1  C1  UNL     1      -3.334  -2.383   0.306  1.00  0.00     0.719 A 
HETATM    2  N2  UNL     1      -3.336  -1.296   0.985  1.00  0.00    -0.074 NA
HETATM    3  C2  UNL     1      -2.046  -0.739   1.456  1.00  0.00     0.267 A 
HETATM    4  C3  UNL     1      -1.004  -1.668   1.036  1.00  0.00     0.056 A 
HETATM    5  C4  UNL     1       0.280  -1.868   1.095  1.00  0.00     0.028 A 
HETATM    6  C5  UNL     1       1.079  -0.834   1.848  1.00  0.00     0.086 C 
HETATM    7  C6  UNL     1       2.339  -0.554   1.201  1.00  0.00    -0.009 C 
HETATM    8  C7  UNL     1       3.020  -0.103   0.184  1.00  0.00    -0.030 A 
HETATM    9  C8  UNL     1       4.363  -0.238   0.463  1.00  0.00     0.012 A 
HETATM   10  C9  UNL     1       5.419   0.116  -0.332  1.00  0.00     0.001 A 
HETATM   11  C10 UNL     1       5.144   0.664  -1.539  1.00  0.00     0.001 A 
HETATM   12  C11 UNL     1       3.820   0.812  -1.847  1.00  0.00     0.012 A 
HETATM   13  C12 UNL     1       2.709   0.460  -1.056  1.00  0.00    -0.030 A 
HETATM   14  C13 UNL     1       1.501   0.667  -1.548  1.00  0.00    -0.014 C 
HETATM   15  C14 UNL     1       0.238   0.925  -2.152  1.00  0.00     0.030 C 
HETATM   16  C15 UNL     1      -0.994   0.496  -1.325  1.00  0.00     0.033 C 
HETATM   17  C16 UNL     1      -1.057   1.246  -0.054  1.00  0.00     0.109 A 
HETATM   18  C17 UNL     1      -1.487   2.648  -0.312  1.00  0.00    -0.000 A 
HETATM   19  C18 UNL     1      -2.458   3.358   0.230  1.00  0.00     0.018 A 
HETATM   20  C19 UNL     1      -3.242   2.661   1.236  1.00  0.00     0.026 A 
HETATM   21 BR1  UNL     1      -4.642   3.709   2.037  1.00  0.00    -0.050 Br
HETATM   22  C20 UNL     1      -2.970   1.400   1.540  1.00  0.00     0.107 A 
HETATM   23  N3  UNL     1      -1.920   0.613   0.927  1.00  0.00    -0.354 N 
HETATM   24  N4  UNL     1       0.390  -3.087   0.379  1.00  0.00    -0.342 N 
HETATM   25  C21 UNL     1      -1.022  -2.945   0.271  1.00  0.00     0.159 A 
HETATM   26  N5  UNL     1      -2.252  -3.254  -0.091  1.00  0.00    -0.045 NA
HETATM   27  H20 UNL     1       1.044  -3.818   0.029  1.00  0.00     0.167 HD
ENDROOT
BRANCH   1  28
HETATM   28  N1  UNL     1      -4.543  -2.994  -0.196  1.00  0.00    -0.231 N 
HETATM   29  H1  UNL     1      -5.402  -3.158   0.375  1.00  0.00     0.174 HD
HETATM   30  H2  UNL     1      -4.740  -3.348  -1.157  1.00  0.00     0.174 HD
ENDBRANCH   1  28
TORSDOF 1
