REMARK  6 active torsions:
REMARK  status: ('A' for Active; 'I' for Inactive)
REMARK    1  A    between atoms: C3_3  and  C4_4 
REMARK    2  A    between atoms: C5_5  and  C6_7 
REMARK    3  A    between atoms: C9_10  and  N1_11 
REMARK    4  A    between atoms: C10_12  and  N2_13 
REMARK    5  A    between atoms: N4_16  and  N5_17 
REMARK    6  A    between atoms: N5_17  and  C12_18 
ROOT
HETATM    1  C6  UNL     1       0.393   0.897   0.295  1.00  0.00     0.159 C 
HETATM    2  C7  UNL     1       1.162   1.766  -0.639  1.00  0.00     0.068 C 
HETATM    3  C8  UNL     1       0.860   2.750  -1.468  1.00  0.00     0.006 C 
HETATM    4  C9  UNL     1      -0.091   3.551  -1.016  1.00  0.00     0.248 C 
HETATM    5  C10 UNL     1      -1.416   3.794  -0.398  1.00  0.00     0.381 C 
HETATM    6  N3  UNL     1      -2.289   2.634  -0.549  1.00  0.00    -0.245 NA
HETATM    7  C11 UNL     1      -2.026   1.356  -0.503  1.00  0.00     0.223 C 
HETATM    8  N4  UNL     1      -0.885   0.519  -0.305  1.00  0.00    -0.275 N 
ENDROOT
BRANCH   8   9
HETATM    9  N5  UNL     1      -1.152  -0.768  -0.779  1.00  0.00    -0.297 N 
HETATM   10  H15 UNL     1      -0.591  -0.963  -1.638  1.00  0.00     0.187 HD
BRANCH   9  11
HETATM   11  C12 UNL     1      -2.055  -1.690  -0.186  1.00  0.00     0.049 A 
HETATM   12  C13 UNL     1      -2.725  -1.288   0.949  1.00  0.00     0.031 A 
HETATM   13  C14 UNL     1      -3.589  -2.268   1.454  1.00  0.00     0.004 A 
HETATM   14  C15 UNL     1      -3.756  -3.514   0.876  1.00  0.00     0.019 A 
HETATM   15  C16 UNL     1      -3.049  -3.820  -0.247  1.00  0.00     0.013 A 
HETATM   16 BR1  UNL     1      -3.227  -5.525  -1.104  1.00  0.00    -0.051 Br
HETATM   17  C17 UNL     1      -2.180  -2.912  -0.804  1.00  0.00     0.050 A 
ENDBRANCH   9  11
ENDBRANCH   8   9
BRANCH   1  18
HETATM   18  C5  UNL     1       1.230  -0.295   0.571  1.00  0.00     0.037 C 
HETATM   19  C4  UNL     1       2.422  -0.470   0.041  1.00  0.00     0.021 C 
HETATM   20 CL1  UNL     1       0.694  -1.579   1.636  1.00  0.00    -0.087 Cl
BRANCH  19  21
HETATM   21  C3  UNL     1       3.131  -1.690   0.402  1.00  0.00    -0.003 C 
HETATM   22  C2  UNL     1       4.319  -1.990  -0.051  1.00  0.00    -0.031 C 
HETATM   23  C1  UNL     1       5.149  -3.170   0.222  1.00  0.00     0.036 C 
ENDBRANCH  19  21
ENDBRANCH   1  18
BRANCH   5  24
HETATM   24  N2  UNL     1      -1.378   4.152   0.982  1.00  0.00     0.105 N 
HETATM   25  H12 UNL     1      -0.434   4.121   1.419  1.00  0.00     0.315 HD
HETATM   26  H13 UNL     1      -1.913   5.020   1.217  1.00  0.00     0.315 HD
ENDBRANCH   5  24
BRANCH   4  27
HETATM   27  N1  UNL     1       0.484   4.828  -1.265  1.00  0.00     0.095 NA
HETATM   28  H9  UNL     1       0.975   5.655  -0.853  1.00  0.00     0.314 HD
HETATM   29  H10 UNL     1       0.923   5.415  -0.540  1.00  0.00     0.314 HD
ENDBRANCH   4  27
TORSDOF 6
