REMARK  3 active torsions:
REMARK  status: ('A' for Active; 'I' for Inactive)
REMARK    1  A    between atoms: C11_13  and  C12_14 
REMARK    2  A    between atoms: C13_16  and  C14_17 
REMARK    3  A    between atoms: C15_19  and  N2_20 
ROOT
HETATM    1  C1  UNL     1      -3.319  -1.695  -0.080  1.00  0.00     0.037 C 
HETATM    2  C2  UNL     1      -3.375  -0.416   0.717  1.00  0.00     0.082 C 
HETATM    3 BR1  UNL     1      -4.353  -0.816   2.350  1.00  0.00    -0.076 Br
HETATM    4  C3  UNL     1      -4.158   0.568  -0.075  1.00  0.00    -0.001 C 
HETATM    5  C4  UNL     1      -4.300   1.890   0.125  1.00  0.00    -0.001 C 
HETATM    6  C5  UNL     1      -3.706   2.715   1.198  1.00  0.00     0.017 C 
HETATM    7  C6  UNL     1      -2.759   2.310   2.045  1.00  0.00     0.085 C 
HETATM    8  N1  UNL     1      -2.081   1.049   2.165  1.00  0.00    -0.367 N 
HETATM    9  C7  UNL     1      -2.044   0.109   1.095  1.00  0.00     0.168 C 
HETATM   10  C8  UNL     1      -1.339   0.736  -0.070  1.00  0.00     0.055 C 
HETATM   11  C9  UNL     1      -0.250   0.438  -0.838  1.00  0.00     0.015 C 
HETATM   12  C10 UNL     1       1.102   1.059  -0.998  1.00  0.00     0.099 C 
HETATM   13  C11 UNL     1       2.194   0.221  -0.431  1.00  0.00    -0.009 C 
HETATM   14  C15 UNL     1       2.152  -0.627   0.591  1.00  0.00     0.018 C 
HETATM   15  C16 UNL     1       0.893  -0.548   1.358  1.00  0.00     0.137 C 
HETATM   16  C17 UNL     1      -0.143  -1.523   0.977  1.00  0.00     0.131 C 
HETATM   17  N3  UNL     1      -1.238  -1.054   1.621  1.00  0.00    -0.236 NA
HETATM   18  N4  UNL     1       0.355  -2.530  -0.008  1.00  0.00    -0.229 NA
HETATM   19  C18 UNL     1       0.353  -2.032  -1.306  1.00  0.00     0.209 C 
HETATM   20  N5  UNL     1      -0.105  -0.698  -1.797  1.00  0.00    -0.354 N 
HETATM   21  H8  UNL     1      -1.651   0.970   3.130  1.00  0.00     0.161 HD
HETATM   22  H20 UNL     1      -0.249  -0.824  -2.801  1.00  0.00     0.166 HD
ENDROOT
BRANCH  13  23
HETATM   23  C12 UNL     1       3.497   0.375  -1.128  1.00  0.00     0.040 C 
HETATM   24 CL1  UNL     1       3.668   1.481  -2.505  1.00  0.00    -0.084 Cl
HETATM   25  C13 UNL     1       4.659  -0.212  -0.890  1.00  0.00     0.012 C 
BRANCH  25  26
HETATM   26  C14 UNL     1       5.947  -0.041  -1.600  1.00  0.00     0.143 C 
HETATM   27 CL2  UNL     1       6.448  -1.592  -2.265  1.00  0.00    -0.126 Cl
ENDBRANCH  25  26
ENDBRANCH  13  23
BRANCH  14  28
HETATM   28  N2  UNL     1       3.115  -1.479   1.201  1.00  0.00    -0.402 N 
HETATM   29  H15 UNL     1       2.836  -2.308   0.630  1.00  0.00     0.156 HD
HETATM   30  H16 UNL     1       3.744  -1.090   1.946  1.00  0.00     0.156 HD
ENDBRANCH  14  28
TORSDOF 3
