REMARK  2 active torsions:
REMARK  status: ('A' for Active; 'I' for Inactive)
REMARK    1  A    between atoms: C8_10  and  C9_11 
REMARK    2  A    between atoms: C9_11  and  C10_12 
ROOT
HETATM    1  O1  UNL     1      -0.950   3.462   1.755  1.00  0.00    -0.293 OA
HETATM    2  C1  UNL     1      -0.592   3.148   0.649  1.00  0.00     0.173 C 
HETATM    3  C2  UNL     1       0.714   3.631   0.006  1.00  0.00     0.137 C 
HETATM    4  C3  UNL     1       1.257   2.546  -0.914  1.00  0.00     0.022 C 
HETATM    5  N1  UNL     1       0.577   2.340  -2.069  1.00  0.00    -0.268 NA
HETATM    6  C4  UNL     1      -0.758   1.673  -2.124  1.00  0.00     0.226 C 
HETATM    7  C5  UNL     1      -0.627   0.149  -2.284  1.00  0.00     0.021 C 
HETATM    8  C6  UNL     1      -1.049  -0.979  -1.614  1.00  0.00     0.009 C 
HETATM    9  C7  UNL     1      -1.662  -1.177  -0.277  1.00  0.00    -0.028 C 
HETATM   10  C8  UNL     1      -1.851  -0.423   0.799  1.00  0.00     0.036 C 
HETATM   11  N2  UNL     1      -1.892   1.030   1.024  1.00  0.00    -0.362 N 
HETATM   12  C11 UNL     1      -1.719   2.240   0.162  1.00  0.00     0.251 C 
HETATM   13  N3  UNL     1      -1.047   1.662  -0.829  1.00  0.00    -0.370 N 
HETATM   14  C12 UNL     1      -2.238  -2.528  -0.038  1.00  0.00     0.067 C 
HETATM   15  C13 UNL     1      -1.125  -3.503   0.142  1.00  0.00    -0.026 C 
HETATM   16  C14 UNL     1       0.132  -3.129   0.095  1.00  0.00    -0.029 C 
HETATM   17  C15 UNL     1       1.629  -2.893   0.074  1.00  0.00     0.003 C 
HETATM   18  C16 UNL     1       2.822  -2.262  -0.016  1.00  0.00     0.051 C 
HETATM   19  C17 UNL     1       2.961  -0.800  -0.267  1.00  0.00    -0.025 C 
HETATM   20  C18 UNL     1       3.612   0.331  -0.469  1.00  0.00    -0.029 C 
HETATM   21  C19 UNL     1       3.708   1.800  -0.733  1.00  0.00     0.005 C 
HETATM   22  C20 UNL     1       2.369   1.637  -0.719  1.00  0.00     0.079 C 
HETATM   23  H8  UNL     1      -2.085   1.164   2.026  1.00  0.00     0.162 HD
HETATM   24  H10 UNL     1      -0.195   1.140  -0.344  1.00  0.00     0.158 HD
ENDROOT
BRANCH  10  25
HETATM   25  C9  UNL     1      -2.073  -1.174   2.010  1.00  0.00     0.037 C 
BRANCH  25  26
HETATM   26  C10 UNL     1      -2.303  -1.485   3.281  1.00  0.00     0.058 C 
HETATM   27 BR1  UNL     1      -2.569  -2.781   4.650  1.00  0.00    -0.064 Br
ENDBRANCH  25  26
ENDBRANCH  10  25
TORSDOF 2
