REMARK  6 active torsions:
REMARK  status: ('A' for Active; 'I' for Inactive)
REMARK    1  A    between atoms: N1_1  and  C1_2 
REMARK    2  A    between atoms: C2_4  and  N3_5 
REMARK    3  A    between atoms: N3_5  and  C3_6 
REMARK    4  A    between atoms: C7_10  and  S1_11 
REMARK    5  A    between atoms: C10_15  and  C11_16 
REMARK    6  A    between atoms: C11_16  and  C12_17 
ROOT
HETATM    1  C1  UNL     1      -0.867  -2.332   0.889  1.00  0.00     0.710 C 
HETATM    2  N2  UNL     1       0.205  -1.669   1.210  1.00  0.00    -0.068 NA
HETATM    3  C2  UNL     1       0.984  -0.696   0.544  1.00  0.00     0.183 C 
HETATM    4  C9  UNL     1       0.413   0.720   0.402  1.00  0.00     0.057 C 
HETATM    5  C10 UNL     1      -0.779   0.797  -0.330  1.00  0.00     0.034 C 
HETATM    6  N4  UNL     1      -0.790  -0.675  -0.491  1.00  0.00    -0.278 N 
HETATM    7  C18 UNL     1       0.612  -1.057  -0.957  1.00  0.00     0.210 C 
HETATM    8  N5  UNL     1      -1.685  -1.790  -0.246  1.00  0.00    -0.128 N 
HETATM    9  H17 UNL     1      -2.465  -1.703  -0.920  1.00  0.00     0.206 HD
ENDROOT
BRANCH   3  10
HETATM   10  N3  UNL     1       2.358  -0.735   0.732  1.00  0.00    -0.357 N 
HETATM   11  H3  UNL     1       2.623  -1.536   1.385  1.00  0.00     0.162 HD
BRANCH  10  12
HETATM   12  C3  UNL     1       3.425   0.026   0.264  1.00  0.00     0.031 A 
HETATM   13  C4  UNL     1       3.333   1.113  -0.579  1.00  0.00     0.029 A 
HETATM   14  C5  UNL     1       4.378   1.874  -1.058  1.00  0.00     0.004 A 
HETATM   15  C6  UNL     1       5.626   1.474  -0.627  1.00  0.00     0.020 A 
HETATM   16  C7  UNL     1       5.843   0.405   0.215  1.00  0.00     0.018 A 
HETATM   17  C8  UNL     1       4.735  -0.269   0.621  1.00  0.00     0.049 A 
BRANCH  16  18
HETATM   18  S1  UNL     1       7.487  -0.062   0.738  1.00  0.00    -0.019 SA
HETATM   19 CL1  UNL     1       7.422  -1.727   2.009  1.00  0.00    -0.038 Cl
ENDBRANCH  16  18
ENDBRANCH  10  12
ENDBRANCH   3  10
BRANCH   1  20
HETATM   20  N1  UNL     1      -1.539  -3.526   1.309  1.00  0.00    -0.232 N 
HETATM   21  H1  UNL     1      -1.512  -4.434   0.776  1.00  0.00     0.174 HD
HETATM   22  H2  UNL     1      -2.053  -3.360   2.215  1.00  0.00     0.174 HD
ENDBRANCH   1  20
BRANCH   5  23
HETATM   23  C11 UNL     1      -1.887   1.564  -0.871  1.00  0.00     0.097 C 
BRANCH  23  24
HETATM   24  C12 UNL     1      -3.249   1.162  -0.494  1.00  0.00    -0.051 A 
HETATM   25  C13 UNL     1      -3.673   1.553   0.780  1.00  0.00     0.007 A 
HETATM   26  C14 UNL     1      -4.905   1.306   1.328  1.00  0.00     0.002 A 
HETATM   27  C15 UNL     1      -5.826   0.612   0.573  1.00  0.00     0.024 A 
HETATM   28  C16 UNL     1      -5.462   0.202  -0.690  1.00  0.00     0.034 A 
HETATM   29 CL2  UNL     1      -6.524  -0.691  -1.771  1.00  0.00    -0.084 Cl
HETATM   30  C17 UNL     1      -4.231   0.462  -1.205  1.00  0.00     0.031 A 
ENDBRANCH  23  24
ENDBRANCH   5  23
TORSDOF 6
