REMARK  5 active torsions:
REMARK  status: ('A' for Active; 'I' for Inactive)
REMARK    1  A    between atoms: C2_2  and  O1_3 
REMARK    2  A    between atoms: O1_3  and  C3_4 
REMARK    3  A    between atoms: C6_7  and  N1_8 
REMARK    4  A    between atoms: N1_8  and  C7_9 
REMARK    5  A    between atoms: C16_22  and  O2_23 
ROOT
HETATM    1  C3  UNL     1      -2.361  -0.040  -0.061  1.00  0.00     0.103 A 
HETATM    2  C4  UNL     1      -0.988   0.045  -0.050  1.00  0.00     0.057 A 
HETATM    3  C5  UNL     1      -0.130  -0.903   0.454  1.00  0.00     0.042 A 
HETATM    4  C6  UNL     1       1.235  -0.801   0.458  1.00  0.00     0.142 A 
HETATM    5  N2  UNL     1       1.842  -1.845   1.000  1.00  0.00    -0.224 NA
HETATM    6  C13 UNL     1       1.267  -2.935   1.518  1.00  0.00     0.236 A 
HETATM    7  N3  UNL     1      -0.071  -3.021   1.508  1.00  0.00    -0.241 NA
HETATM    8  C14 UNL     1      -0.765  -2.005   0.976  1.00  0.00     0.075 A 
HETATM    9  C15 UNL     1      -2.136  -2.140   0.988  1.00  0.00     0.072 A 
HETATM   10  C16 UNL     1      -2.957  -1.161   0.471  1.00  0.00     0.103 A 
ENDROOT
BRANCH   4  11
HETATM   11  N1  UNL     1       1.853   0.345  -0.092  1.00  0.00    -0.340 N 
HETATM   12  H7  UNL     1       1.303   1.114  -0.518  1.00  0.00     0.167 HD
BRANCH  11  13
HETATM   13  C7  UNL     1       3.231   0.669  -0.177  1.00  0.00     0.035 A 
HETATM   14  C8  UNL     1       3.763   1.773  -0.804  1.00  0.00     0.032 A 
HETATM   15  C9  UNL     1       5.093   2.064  -0.868  1.00  0.00     0.046 A 
HETATM   16  C10 UNL     1       6.016   1.241  -0.289  1.00  0.00     0.138 A 
HETATM   17  F1  UNL     1       7.314   1.580  -0.385  1.00  0.00    -0.204 F 
HETATM   18  C11 UNL     1       5.538   0.104   0.363  1.00  0.00     0.074 A 
HETATM   19 CL1  UNL     1       6.756  -0.920   1.090  1.00  0.00    -0.081 Cl
HETATM   20  C12 UNL     1       4.183  -0.140   0.397  1.00  0.00     0.056 A 
ENDBRANCH  11  13
ENDBRANCH   4  11
BRANCH   1  21
HETATM   21  O1  UNL     1      -3.192   0.939  -0.579  1.00  0.00    -0.349 OA
BRANCH  21  22
HETATM   22  C2  UNL     1      -2.769   2.143  -1.159  1.00  0.00     0.171 C 
HETATM   23  C1  UNL     1      -3.925   2.998  -1.628  1.00  0.00     0.034 C 
ENDBRANCH  21  22
ENDBRANCH   1  21
BRANCH  10  24
HETATM   24  O2  UNL     1      -4.327  -1.337   0.505  1.00  0.00    -0.353 OA
HETATM   25  C17 UNL     1      -4.881  -2.493   1.056  1.00  0.00     0.210 C 
ENDBRANCH  10  24
TORSDOF 5
