REMARK  10 active torsions:
REMARK  status: ('A' for Active; 'I' for Inactive)
REMARK    1  A    between atoms: O1_2  and  C2_3 
REMARK    2  A    between atoms: C6_9  and  N3_10 
REMARK    3  A    between atoms: N3_10  and  C7_11 
REMARK    4  A    between atoms: C7_11  and  C8_12 
REMARK    5  A    between atoms: C9_13  and  C10_15 
REMARK    6  A    between atoms: C14_20  and  O2_21 
REMARK    7  A    between atoms: O2_21  and  C15_22 
REMARK    8  A    between atoms: C15_22  and  C16_23 
REMARK    9  A    between atoms: C16_23  and  C17_24 
REMARK   10  A    between atoms: C17_24  and  N4_25 
ROOT
HETATM    1  C2  UNL     1      -0.522  -1.805   2.976  1.00  0.00     0.103 A 
HETATM    2  C3  UNL     1       0.561  -2.365   3.640  1.00  0.00     0.072 A 
HETATM    3  C4  UNL     1       1.854  -2.063   3.274  1.00  0.00     0.075 A 
HETATM    4  N1  UNL     1       2.922  -2.592   3.890  1.00  0.00    -0.241 NA
HETATM    5  C5  UNL     1       4.171  -2.276   3.498  1.00  0.00     0.235 A 
HETATM    6  N2  UNL     1       4.367  -1.422   2.481  1.00  0.00    -0.224 NA
HETATM    7  C6  UNL     1       3.365  -0.841   1.802  1.00  0.00     0.137 A 
HETATM    8  C12 UNL     1       2.096  -1.177   2.218  1.00  0.00     0.041 A 
HETATM    9  C13 UNL     1       0.996  -0.644   1.588  1.00  0.00     0.057 A 
HETATM   10  C14 UNL     1      -0.316  -0.929   1.932  1.00  0.00     0.103 A 
ENDROOT
BRANCH  10  11
HETATM   11  O2  UNL     1      -1.379  -0.354   1.251  1.00  0.00    -0.348 OA
BRANCH  11  12
HETATM   12  C15 UNL     1      -1.106   0.538   0.188  1.00  0.00     0.177 C 
BRANCH  12  13
HETATM   13  C16 UNL     1      -2.397   1.052  -0.428  1.00  0.00     0.046 C 
BRANCH  13  14
HETATM   14  C17 UNL     1      -3.234  -0.079  -0.969  1.00  0.00     0.119 C 
BRANCH  14  15
HETATM   15  N4  UNL     1      -4.433   0.425  -1.535  1.00  0.00    -0.412 N 
HETATM   16  C18 UNL     1      -4.289   1.172  -2.730  1.00  0.00     0.117 C 
HETATM   17  C19 UNL     1      -5.399   2.166  -2.981  1.00  0.00     0.019 C 
HETATM   18  C20 UNL     1      -6.700   1.539  -2.597  1.00  0.00     0.003 C 
HETATM   19  C21 UNL     1      -6.713   1.230  -1.121  1.00  0.00     0.019 C 
HETATM   20  C22 UNL     1      -5.340   0.993  -0.565  1.00  0.00     0.117 C 
ENDBRANCH  14  15
ENDBRANCH  13  14
ENDBRANCH  12  13
ENDBRANCH  11  12
ENDBRANCH  10  11
BRANCH   1  21
HETATM   21  O1  UNL     1      -1.826  -2.113   3.348  1.00  0.00    -0.353 OA
HETATM   22  C1  UNL     1      -2.072  -3.022   4.430  1.00  0.00     0.210 C 
ENDBRANCH   1  21
BRANCH   7  23
HETATM   23  N3  UNL     1       3.623   0.060   0.735  1.00  0.00    -0.370 N 
HETATM   24  H6  UNL     1       2.937   0.566   0.154  1.00  0.00     0.161 HD
BRANCH  23  25
HETATM   25  C7  UNL     1       5.016   0.327   0.390  1.00  0.00     0.150 C 
BRANCH  25  26
HETATM   26  C8  UNL     1       5.166   1.277  -0.732  1.00  0.00     0.015 C 
HETATM   27  C9  UNL     1       5.738   1.103  -1.921  1.00  0.00     0.043 C 
HETATM   28 CL1  UNL     1       5.846   2.353  -3.177  1.00  0.00    -0.086 Cl
BRANCH  27  29
HETATM   29  C10 UNL     1       6.397   0.022  -2.697  1.00  0.00     0.210 C 
HETATM   30  C11 UNL     1       7.766   0.509  -3.168  1.00  0.00     0.051 C 
HETATM   31  F1  UNL     1       5.671  -0.376  -3.801  1.00  0.00    -0.244 F 
ENDBRANCH  27  29
ENDBRANCH  25  26
ENDBRANCH  23  25
ENDBRANCH   7  23
TORSDOF 10
