REMARK  8 active torsions:
REMARK  status: ('A' for Active; 'I' for Inactive)
REMARK    1  A    between atoms: C3_3  and  O1_4 
REMARK    2  A    between atoms: C6_9  and  N3_10 
REMARK    3  A    between atoms: N3_10  and  C7_11 
REMARK    4  A    between atoms: C14_20  and  C15_21 
REMARK    5  A    between atoms: C15_21  and  C16_22 
REMARK    6  A    between atoms: C16_22  and  C17_23 
REMARK    7  A    between atoms: C17_23  and  N4_24 
REMARK    8  A    between atoms: C22_29  and  O2_30 
ROOT
HETATM    1  C1  UNL     1       0.523  -4.168  -0.699  1.00  0.00     0.047 C 
HETATM    2  C2  UNL     1      -0.434  -3.130  -0.243  1.00  0.00    -0.040 A 
HETATM    3  C3  UNL     1      -0.956  -3.427   0.947  1.00  0.00     0.097 A 
HETATM    4  C4  UNL     1      -1.916  -2.429   1.399  1.00  0.00     0.102 A 
HETATM    5  N1  UNL     1      -2.665  -2.403   2.530  1.00  0.00    -0.239 NA
HETATM    6  C5  UNL     1      -3.521  -1.387   2.700  1.00  0.00     0.236 A 
HETATM    7  N2  UNL     1      -3.579  -0.463   1.735  1.00  0.00    -0.224 NA
HETATM    8  C6  UNL     1      -2.857  -0.456   0.608  1.00  0.00     0.138 A 
HETATM    9  C13 UNL     1      -1.952  -1.491   0.391  1.00  0.00     0.028 A 
HETATM   10  C14 UNL     1      -0.973  -1.820  -0.690  1.00  0.00     0.056 A 
ENDROOT
BRANCH  10  11
HETATM   11  C15 UNL     1       0.167  -0.793  -0.543  1.00  0.00     0.016 C 
BRANCH  11  12
HETATM   12  C16 UNL     1       1.363  -1.104  -1.354  1.00  0.00     0.020 C 
BRANCH  12  13
HETATM   13  C17 UNL     1       2.493  -0.123  -1.313  1.00  0.00     0.119 C 
BRANCH  13  14
HETATM   14  N4  UNL     1       3.099   0.148  -0.080  1.00  0.00    -0.388 N 
HETATM   15  C18 UNL     1       2.423   0.869   0.919  1.00  0.00     0.119 C 
HETATM   16  C19 UNL     1       3.217   2.052   1.452  1.00  0.00     0.020 C 
HETATM   17  C20 UNL     1       4.410   2.345   0.572  1.00  0.00     0.006 C 
HETATM   18  C21 UNL     1       5.272   1.107   0.581  1.00  0.00     0.053 C 
HETATM   19  C22 UNL     1       4.490  -0.077   0.065  1.00  0.00     0.215 C 
BRANCH  19  20
HETATM   20  O2  UNL     1       4.754  -1.150   0.933  1.00  0.00    -0.377 OA
HETATM   21  H26 UNL     1       5.610  -1.583   0.721  1.00  0.00     0.212 HD
ENDBRANCH  19  20
ENDBRANCH  13  14
ENDBRANCH  12  13
ENDBRANCH  11  12
ENDBRANCH  10  11
BRANCH   3  22
HETATM   22  O1  UNL     1      -0.628  -4.579   1.683  1.00  0.00    -0.358 OA
HETATM   23  H4  UNL     1      -1.379  -5.130   2.077  1.00  0.00     0.217 HD
ENDBRANCH   3  22
BRANCH   8  24
HETATM   24  N3  UNL     1      -2.977   0.537  -0.396  1.00  0.00    -0.340 N 
HETATM   25  H6  UNL     1      -2.437   0.441  -1.279  1.00  0.00     0.167 HD
BRANCH  24  26
HETATM   26  C7  UNL     1      -3.761   1.717  -0.464  1.00  0.00     0.035 A 
HETATM   27  C8  UNL     1      -3.700   2.667  -1.468  1.00  0.00     0.032 A 
HETATM   28  C9  UNL     1      -4.487   3.784  -1.481  1.00  0.00     0.046 A 
HETATM   29  C10 UNL     1      -5.387   4.028  -0.492  1.00  0.00     0.138 A 
HETATM   30  F1  UNL     1      -6.113   5.166  -0.608  1.00  0.00    -0.204 F 
HETATM   31  C11 UNL     1      -5.501   3.125   0.539  1.00  0.00     0.074 A 
HETATM   32 CL1  UNL     1      -6.678   3.499   1.773  1.00  0.00    -0.081 Cl
HETATM   33  C12 UNL     1      -4.696   2.006   0.530  1.00  0.00     0.056 A 
ENDBRANCH  24  26
ENDBRANCH   8  24
TORSDOF 8
