REMARK  1 active torsions:
REMARK  status: ('A' for Active; 'I' for Inactive)
REMARK    1  A    between atoms: C7_9  and  C8_10 
ROOT
HETATM    1  C8  UNL     1       0.934   0.743   0.782  1.00  0.00    -0.007 C 
HETATM    2  C9  UNL     1      -0.042   0.848  -0.150  1.00  0.00     0.019 C 
HETATM    3  C10 UNL     1      -1.316   1.270   0.546  1.00  0.00     0.113 C 
HETATM    4  C11 UNL     1      -1.644   0.277   1.567  1.00  0.00     0.007 C 
HETATM    5  C12 UNL     1      -2.598  -0.657   1.748  1.00  0.00     0.000 C 
HETATM    6  C13 UNL     1      -3.576  -0.679   0.584  1.00  0.00     0.055 C 
HETATM    7  C14 UNL     1      -3.357  -1.974  -0.102  1.00  0.00     0.171 C 
HETATM    8  O1  UNL     1      -3.815  -2.035  -1.436  1.00  0.00    -0.391 OA
HETATM    9  C15 UNL     1      -3.227  -0.926  -2.111  1.00  0.00     0.169 C 
HETATM   10  C16 UNL     1      -1.784  -0.830  -1.814  1.00  0.00     0.046 C 
HETATM   11  C17 UNL     1      -1.112   0.470  -2.274  1.00  0.00     0.121 C 
HETATM   12  N1  UNL     1       0.172   0.594  -1.577  1.00  0.00    -0.392 N 
HETATM   13  N2  UNL     1      -0.648   0.279   2.613  1.00  0.00    -0.389 N 
HETATM   14  C18 UNL     1       0.717   0.700   2.246  1.00  0.00     0.161 C 
HETATM   15  H19 UNL     1       1.150   0.532  -1.896  1.00  0.00     0.159 HD
HETATM   16  H20 UNL     1      -0.802  -0.005   3.632  1.00  0.00     0.159 HD
ENDROOT
BRANCH   1  17
HETATM   17  C7  UNL     1       2.319   0.718   0.296  1.00  0.00    -0.019 A 
HETATM   18  C2  UNL     1       3.332  -0.166   0.587  1.00  0.00    -0.048 A 
HETATM   19  C1  UNL     1       3.031  -1.316   1.449  1.00  0.00     0.049 C 
HETATM   20  C3  UNL     1       4.600  -0.004   0.073  1.00  0.00     0.051 A 
HETATM   21  C4  UNL     1       4.941   1.048  -0.764  1.00  0.00     0.138 A 
HETATM   22  F1  UNL     1       6.202   1.132  -1.221  1.00  0.00    -0.204 F 
HETATM   23  C5  UNL     1       3.965   1.945  -1.078  1.00  0.00     0.073 A 
HETATM   24 CL1  UNL     1       4.329   3.293  -2.128  1.00  0.00    -0.081 Cl
HETATM   25  C6  UNL     1       2.716   1.762  -0.555  1.00  0.00     0.039 A 
ENDBRANCH   1  17
TORSDOF 1
