REMARK  6 active torsions:
REMARK  status: ('A' for Active; 'I' for Inactive)
REMARK    1  A    between atoms: O1_1  and  C1_2 
REMARK    2  A    between atoms: C1_2  and  C2_3 
REMARK    3  A    between atoms: C1_2  and  C11_16 
REMARK    4  A    between atoms: C2_3  and  O2_4 
REMARK    5  A    between atoms: O2_4  and  C3_5 
REMARK    6  A    between atoms: C11_16  and  N2_17 
ROOT
HETATM    1  C3  UNL     1      -1.212  -0.679   0.295  1.00  0.00     0.142 C 
HETATM    2  C4  UNL     1      -1.334  -0.683  -1.157  1.00  0.00     0.034 C 
HETATM    3  C5  UNL     1      -2.571  -0.117  -2.048  1.00  0.00     0.073 C 
HETATM    4  C6  UNL     1      -3.592   0.110  -0.909  1.00  0.00    -0.015 C 
HETATM    5  C7  UNL     1      -4.366  -0.966  -0.518  1.00  0.00     0.138 C 
HETATM    6  F1  UNL     1      -5.435  -1.762  -0.595  1.00  0.00    -0.207 F 
HETATM    7  C8  UNL     1      -3.612  -1.491   0.738  1.00  0.00     0.250 C 
HETATM    8 CL1  UNL     1      -3.152  -3.074   0.253  1.00  0.00    -0.094 Cl
HETATM    9  N1  UNL     1      -2.613  -0.370   0.804  1.00  0.00    -0.314 N 
HETATM   10  C9  UNL     1      -3.441   0.953   1.208  1.00  0.00     0.096 C 
HETATM   11  C10 UNL     1      -3.049   1.295  -0.064  1.00  0.00     0.027 C 
ENDROOT
BRANCH   1  12
HETATM   12  O2  UNL     1       0.043  -0.925   0.903  1.00  0.00    -0.333 OA
BRANCH  12  13
HETATM   13  C2  UNL     1       0.784   0.068   1.536  1.00  0.00     0.210 C 
BRANCH  13  14
HETATM   14  C1  UNL     1       2.090  -0.437   2.108  1.00  0.00     0.160 C 
BRANCH  14  15
HETATM   15  O1  UNL     1       2.703   0.690   2.705  1.00  0.00    -0.392 OA
HETATM   16  H1  UNL     1       2.751   1.454   2.081  1.00  0.00     0.210 HD
ENDBRANCH  14  15
BRANCH  14  17
HETATM   17  C11 UNL     1       3.058  -0.900   1.024  1.00  0.00     0.163 C 
BRANCH  17  18
HETATM   18  N2  UNL     1       3.287   0.124   0.043  1.00  0.00    -0.348 N 
HETATM   19  C12 UNL     1       4.276   1.059   0.127  1.00  0.00     0.111 A 
HETATM   20  C13 UNL     1       4.227   1.899  -0.975  1.00  0.00     0.135 A 
HETATM   21  N3  UNL     1       3.201   1.459  -1.719  1.00  0.00    -0.255 NA
HETATM   22  C14 UNL     1       2.652   0.409  -1.108  1.00  0.00     0.209 A 
ENDBRANCH  17  18
ENDBRANCH  14  17
ENDBRANCH  13  14
ENDBRANCH  12  13
ENDBRANCH   1  12
TORSDOF 6
