REMARK  4 active torsions:
REMARK  status: ('A' for Active; 'I' for Inactive)
REMARK    1  A    between atoms: C3_3  and  O1_4 
REMARK    2  A    between atoms: O1_4  and  C4_5 
REMARK    3  A    between atoms: C9_12  and  N3_13 
REMARK    4  A    between atoms: N3_13  and  C10_14 
ROOT
HETATM    1  C4  UNL     1       1.438  -0.866  -0.776  1.00  0.00     0.185 C 
HETATM    2  C5  UNL     1       1.508   0.073  -1.754  1.00  0.00     0.073 C 
HETATM    3  C6  UNL     1       0.176   0.150  -2.210  1.00  0.00     0.007 A 
HETATM    4  C7  UNL     1      -1.153   0.289  -2.516  1.00  0.00     0.199 A 
HETATM    5  N1  UNL     1      -2.397   0.635  -2.337  1.00  0.00    -0.257 NA
HETATM    6  C8  UNL     1      -2.949   1.237  -1.287  1.00  0.00     0.143 A 
HETATM    7  N2  UNL     1      -1.748   1.253  -0.733  1.00  0.00    -0.232 NA
HETATM    8  C9  UNL     1      -0.641   0.794  -1.220  1.00  0.00     0.181 A 
HETATM    9  C14 UNL     1      -3.611   1.892  -0.172  1.00  0.00     0.056 C 
HETATM   10  C15 UNL     1      -3.627   1.269   1.036  1.00  0.00     0.062 C 
HETATM   11  C16 UNL     1      -3.019  -0.032   1.316  1.00  0.00     0.164 C 
HETATM   12  N4  UNL     1      -2.988  -0.301   2.590  1.00  0.00    -0.237 NA
HETATM   13  C17 UNL     1      -2.552  -1.552   3.094  1.00  0.00     0.118 C 
HETATM   14  C18 UNL     1      -2.157  -2.488   2.246  1.00  0.00     0.027 C 
HETATM   15  C19 UNL     1      -1.705  -2.085   0.899  1.00  0.00     0.179 C 
HETATM   16  C20 UNL     1      -0.244  -1.674   0.896  1.00  0.00     0.214 C 
HETATM   17  O2  UNL     1       0.316  -1.549  -0.357  1.00  0.00    -0.327 OA
HETATM   18  O3  UNL     1      -2.491  -0.995   0.517  1.00  0.00    -0.323 OA
ENDROOT
BRANCH   8  19
HETATM   19  N3  UNL     1       0.006   1.440  -0.080  1.00  0.00    -0.354 N 
HETATM   20  H8  UNL     1       1.075   1.416  -0.157  1.00  0.00     0.162 HD
BRANCH  19  21
HETATM   21  C10 UNL     1      -0.290   2.140   1.150  1.00  0.00     0.069 A 
HETATM   22  C11 UNL     1      -0.875   3.328   1.205  1.00  0.00     0.142 A 
HETATM   23  F1  UNL     1      -1.273   4.049   0.139  1.00  0.00    -0.204 F 
HETATM   24  C12 UNL     1      -0.747   3.162   2.636  1.00  0.00     0.047 A 
HETATM   25  C13 UNL     1      -0.162   1.975   2.568  1.00  0.00     0.035 A 
ENDBRANCH  19  21
ENDBRANCH   8  19
BRANCH   1  26
HETATM   26  O1  UNL     1       2.653  -1.163  -0.122  1.00  0.00    -0.301 OA
BRANCH  26  27
HETATM   27  C3  UNL     1       3.816  -1.147  -0.856  1.00  0.00     0.140 C 
HETATM   28  C2  UNL     1       4.823  -1.828  -1.373  1.00  0.00    -0.006 C 
HETATM   29  C1  UNL     1       6.000  -1.407  -2.186  1.00  0.00     0.038 C 
ENDBRANCH  26  27
ENDBRANCH   1  26
TORSDOF 4
