REMARK  7 active torsions:
REMARK  status: ('A' for Active; 'I' for Inactive)
REMARK    1  A    between atoms: N1_1  and  P1_2 
REMARK    2  A    between atoms: C12_18  and  O1_19 
REMARK    3  A    between atoms: O1_19  and  C13_20 
REMARK    4  A    between atoms: C13_20  and  C14_21 
REMARK    5  A    between atoms: C14_21  and  N4_22 
REMARK    6  A    between atoms: C18_27  and  C19_28 
REMARK    7  A    between atoms: C19_28  and  O2_29 
ROOT
HETATM    1  P1  UNL     1       0.996  -2.674  -1.075  1.00  0.00     0.008 P 
HETATM    2  C1  UNL     1      -0.743  -2.916  -0.662  1.00  0.00     0.012 C 
HETATM    3  C2  UNL     1      -1.085  -1.774  -1.492  1.00  0.00     0.076 C 
HETATM    4  C3  UNL     1      -1.680  -0.797  -2.145  1.00  0.00     0.047 C 
HETATM    5  C4  UNL     1      -3.014  -0.283  -2.321  1.00  0.00    -0.010 A 
HETATM    6  C5  UNL     1      -3.925  -0.899  -1.504  1.00  0.00     0.016 A 
HETATM    7  C6  UNL     1      -5.261  -0.576  -1.536  1.00  0.00     0.045 A 
HETATM    8  C7  UNL     1      -5.823   0.372  -2.362  1.00  0.00     0.138 A 
HETATM    9  F1  UNL     1      -7.042   0.865  -2.604  1.00  0.00    -0.204 F 
HETATM   10  C8  UNL     1      -4.916   0.984  -3.182  1.00  0.00     0.073 A 
HETATM   11 CL1  UNL     1      -5.193   2.223  -4.371  1.00  0.00    -0.081 Cl
HETATM   12  C9  UNL     1      -3.555   0.640  -3.134  1.00  0.00     0.040 A 
HETATM   13  N2  UNL     1      -1.021   0.269  -2.842  1.00  0.00    -0.281 N 
HETATM   14  N3  UNL     1      -0.705   1.582  -2.315  1.00  0.00    -0.190 NA
HETATM   15  C10 UNL     1      -0.008   1.472  -1.168  1.00  0.00     0.124 C 
HETATM   16  C11 UNL     1       0.592   0.716  -0.199  1.00  0.00     0.101 C 
HETATM   17  C12 UNL     1       1.115  -0.348   0.537  1.00  0.00     0.067 C 
HETATM   18  C18 UNL     1       1.253  -1.750   0.393  1.00  0.00     0.018 C 
HETATM   19  H8  UNL     1      -0.568   0.865  -3.464  1.00  0.00     0.189 HD
ENDROOT
BRANCH   1  20
HETATM   20  N1  UNL     1       0.647  -1.273  -2.213  1.00  0.00    -0.303 NA
HETATM   21  H1  UNL     1       1.672  -0.985  -2.319  1.00  0.00     0.123 HD
HETATM   22  H2  UNL     1       0.392  -1.768  -3.136  1.00  0.00     0.123 HD
ENDBRANCH   1  20
BRANCH  18  23
HETATM   23  C19 UNL     1       1.570  -2.763   1.298  1.00  0.00     0.207 C 
BRANCH  23  24
HETATM   24  O2  UNL     1       2.613  -2.255   2.165  1.00  0.00    -0.396 OA
HETATM   25  H20 UNL     1       3.270  -1.841   1.524  1.00  0.00     0.209 HD
ENDBRANCH  23  24
ENDBRANCH  18  23
BRANCH  17  26
HETATM   26  O1  UNL     1       1.571   0.250   1.611  1.00  0.00    -0.352 OA
BRANCH  26  27
HETATM   27  C13 UNL     1       0.986   1.272   2.381  1.00  0.00     0.195 C 
BRANCH  27  28
HETATM   28  C14 UNL     1       1.775   1.537   3.630  1.00  0.00     0.156 C 
BRANCH  28  29
HETATM   29  N4  UNL     1       3.164   1.883   3.211  1.00  0.00    -0.348 N 
HETATM   30  C15 UNL     1       4.020   0.865   3.139  1.00  0.00     0.111 A 
HETATM   31  C16 UNL     1       5.217   1.458   2.730  1.00  0.00     0.135 A 
HETATM   32  N5  UNL     1       5.062   2.787   2.569  1.00  0.00    -0.255 NA
HETATM   33  C17 UNL     1       3.762   3.047   2.869  1.00  0.00     0.209 A 
ENDBRANCH  28  29
ENDBRANCH  27  28
ENDBRANCH  26  27
ENDBRANCH  17  26
TORSDOF 7
