REMARK  2 active torsions:
REMARK  status: ('A' for Active; 'I' for Inactive)
REMARK    1  A    between atoms: O1_2  and  C2_3 
REMARK    2  A    between atoms: C8_11  and  O2_12 
ROOT
HETATM    1  C2  UNL     1      -1.064   0.204   0.732  1.00  0.00     0.152 A 
HETATM    2  C3  UNL     1      -1.025   1.573   0.602  1.00  0.00     0.091 A 
HETATM    3  C4  UNL     1       0.272   1.831   0.956  1.00  0.00     0.105 A 
HETATM    4  C5  UNL     1       1.090   0.802   1.313  1.00  0.00     0.090 A 
HETATM    5  C6  UNL     1       2.334   0.390   1.690  1.00  0.00     0.151 A 
HETATM    6  N1  UNL     1       2.215  -0.984   1.742  1.00  0.00    -0.242 NA
HETATM    7  C7  UNL     1       0.943  -1.211   1.397  1.00  0.00     0.143 A 
HETATM    8  N2  UNL     1       0.159  -0.152   1.127  1.00  0.00    -0.274 N 
HETATM    9  C8  UNL     1       0.308  -2.497   0.970  1.00  0.00     0.212 C 
HETATM   10  C9  UNL     1       0.597  -2.530  -0.598  1.00  0.00     0.214 C 
HETATM   11  O3  UNL     1       0.081  -1.372  -1.160  1.00  0.00    -0.359 OA
HETATM   12  C10 UNL     1       0.527  -0.517  -2.106  1.00  0.00     0.143 C 
HETATM   13  C11 UNL     1       0.811   0.738  -2.491  1.00  0.00     0.090 C 
HETATM   14  C12 UNL     1       0.642   1.871  -1.683  1.00  0.00    -0.058 C 
HETATM   15  C13 UNL     1       0.499   2.815  -0.985  1.00  0.00     0.007 C 
HETATM   16  N3  UNL     1       0.329   3.908  -0.144  1.00  0.00    -0.139 NA
HETATM   17  N4  UNL     1       0.973   2.920   0.649  1.00  0.00    -0.187 NA
HETATM   18  H12 UNL     1      -0.095   4.258  -1.048  1.00  0.00     0.165 HD
ENDROOT
BRANCH   1  19
HETATM   19  O1  UNL     1      -2.187  -0.558   0.487  1.00  0.00    -0.340 OA
HETATM   20  C1  UNL     1      -3.360   0.095   0.081  1.00  0.00     0.211 C 
ENDBRANCH   1  19
BRANCH   9  21
HETATM   21  O2  UNL     1       0.925  -3.589   1.476  1.00  0.00    -0.386 OA
HETATM   22  H7  UNL     1       1.845  -3.315   1.779  1.00  0.00     0.210 HD
ENDBRANCH   9  21
TORSDOF 2
