REMARK  0 active torsions:
REMARK  status: ('A' for Active; 'I' for Inactive)
ROOT
HETATM    1  B1  UNL     1       2.131   3.255  -0.002  1.00  0.00     0.366 B 
HETATM    2  C1  UNL     1       2.378   3.274  -2.060  1.00  0.00     0.025 C 
HETATM    3  N1  UNL     1       2.992   2.232  -2.335  1.00  0.00    -0.274 NA
HETATM    4  C2  UNL     1       3.494   1.314  -1.431  1.00  0.00     0.416 C 
HETATM    5  N2  UNL     1       2.785   0.043  -1.674  1.00  0.00     0.101 N 
HETATM    6  C3  UNL     1       3.264  -1.006  -0.782  1.00  0.00     0.261 C 
HETATM    7  C4  UNL     1       2.525  -2.309  -1.034  1.00  0.00    -0.023 C 
HETATM    8  B2  UNL     1       0.847  -2.009  -0.746  1.00  0.00     0.173 B 
HETATM    9  C5  UNL     1      -0.427  -2.495  -1.868  1.00  0.00    -0.061 C 
HETATM   10  C6  UNL     1      -1.777  -2.143  -1.428  1.00  0.00     0.020 C 
HETATM   11  N3  UNL     1      -2.903  -2.250  -2.034  1.00  0.00    -0.267 NA
HETATM   12  C7  UNL     1      -4.018  -1.385  -1.833  1.00  0.00     0.113 C 
HETATM   13  C8  UNL     1      -4.006  -0.350  -0.973  1.00  0.00    -0.000 C 
HETATM   14  C9  UNL     1      -2.696  -0.168  -0.307  1.00  0.00     0.039 C 
HETATM   15  C10 UNL     1      -2.906   0.482   1.043  1.00  0.00     0.183 C 
HETATM   16  O1  UNL     1      -1.678   0.481   1.772  1.00  0.00    -0.363 OA
HETATM   17  C11 UNL     1      -1.576   1.009   3.042  1.00  0.00     0.131 C 
HETATM   18  C12 UNL     1      -0.524   1.674   3.478  1.00  0.00     0.002 C 
HETATM   19  C13 UNL     1       0.776   2.084   2.937  1.00  0.00     0.073 C 
HETATM   20  C14 UNL     1       0.966   1.608   1.546  1.00  0.00     0.066 C 
HETATM   21  N4  UNL     1       1.371   1.741   0.334  1.00  0.00    -0.368 NA
HETATM   22  C15 UNL     1      -2.063  -1.546  -0.084  1.00  0.00     0.068 C 
HETATM   23  H3  UNL     1       2.893  -0.302  -2.637  1.00  0.00     0.318 HD
ENDROOT
TORSDOF 0
