REMARK  8 active torsions:
REMARK  status: ('A' for Active; 'I' for Inactive)
REMARK    1  A    between atoms: O1_2  and  C2_3 
REMARK    2  A    between atoms: C6_9  and  C7_10 
REMARK    3  A    between atoms: C7_10  and  C8_11 
REMARK    4  A    between atoms: C10_14  and  C11_15 
REMARK    5  A    between atoms: C11_15  and  C12_16 
REMARK    6  A    between atoms: C12_16  and  O2_17 
REMARK    7  A    between atoms: C12_16  and  C13_18 
REMARK    8  A    between atoms: C13_18  and  N3_19 
ROOT
HETATM    1  C2  UNL     1      -1.245  -0.514  -0.726  1.00  0.00     0.085 A 
HETATM    2  C3  UNL     1      -2.119   0.482  -0.954  1.00  0.00     0.027 A 
HETATM    3  C4  UNL     1      -3.156   0.382  -1.972  1.00  0.00     0.131 C 
HETATM    4  N1  UNL     1      -3.412   1.620  -2.385  1.00  0.00    -0.254 NA
HETATM    5  C5  UNL     1      -2.719   2.700  -1.715  1.00  0.00     0.228 C 
HETATM    6  N2  UNL     1      -1.867   2.782  -0.653  1.00  0.00    -0.263 NA
HETATM    7  C6  UNL     1      -1.661   1.492  -0.026  1.00  0.00     0.106 A 
HETATM    8  C9  UNL     1      -0.539   1.060   0.675  1.00  0.00     0.021 A 
HETATM    9  C10 UNL     1      -0.234  -0.198   0.289  1.00  0.00    -0.023 A 
ENDROOT
BRANCH   9  10
HETATM   10  C11 UNL     1       0.878  -1.005   0.811  1.00  0.00     0.074 C 
BRANCH  10  11
HETATM   11  C12 UNL     1       1.886  -1.446  -0.207  1.00  0.00     0.140 C 
BRANCH  11  12
HETATM   12  O2  UNL     1       2.840  -2.199   0.524  1.00  0.00    -0.394 OA
HETATM   13  H14 UNL     1       3.255  -2.893  -0.026  1.00  0.00     0.210 HD
ENDBRANCH  11  12
BRANCH  11  14
HETATM   14  C13 UNL     1       2.632  -0.309  -0.861  1.00  0.00     0.161 C 
BRANCH  14  15
HETATM   15  N3  UNL     1       3.377   0.498   0.060  1.00  0.00    -0.348 N 
HETATM   16  C14 UNL     1       4.666   0.140   0.329  1.00  0.00     0.111 A 
HETATM   17  C15 UNL     1       5.234   1.022   1.227  1.00  0.00     0.135 A 
HETATM   18  N4  UNL     1       4.274   1.918   1.499  1.00  0.00    -0.255 NA
HETATM   19  C16 UNL     1       3.182   1.598   0.803  1.00  0.00     0.209 A 
ENDBRANCH  14  15
ENDBRANCH  11  14
ENDBRANCH  10  11
ENDBRANCH   9  10
BRANCH   1  20
HETATM   20  O1  UNL     1      -1.122  -1.778  -1.311  1.00  0.00    -0.355 OA
HETATM   21  C1  UNL     1      -1.934  -2.877  -1.018  1.00  0.00     0.210 C 
ENDBRANCH   1  20
BRANCH   7  22
HETATM   22  C7  UNL     1      -2.891   1.474   1.041  1.00  0.00     0.074 C 
BRANCH  22  23
HETATM   23  C8  UNL     1      -2.993   0.122   1.627  1.00  0.00     0.225 C 
HETATM   24  F1  UNL     1      -1.877  -0.275   2.329  1.00  0.00    -0.255 F 
ENDBRANCH  22  23
ENDBRANCH   7  22
TORSDOF 8
