REMARK  4 active torsions:
REMARK  status: ('A' for Active; 'I' for Inactive)
REMARK    1  A    between atoms: C3_4  and  O2_5 
REMARK    2  A    between atoms: C9_13  and  O4_14 
REMARK    3  A    between atoms: C11_16  and  S1_17 
REMARK    4  A    between atoms: C14_21  and  O6_22 
ROOT
HETATM    1  C1  UNL     1       3.871   0.607  -1.093  1.00  0.00     0.000 C 
HETATM    2  O1  UNL     1       2.935   0.519  -0.023  1.00  0.00     0.000 OA
HETATM    3  C2  UNL     1       1.591   0.512  -0.338  1.00  0.00     0.031 A 
HETATM    4  C3  UNL     1       1.881  -0.656   0.179  1.00  0.00     0.164 A 
HETATM    5  C4  UNL     1       1.063  -1.835   0.386  1.00  0.00     0.360 C 
HETATM    6  N1  UNL     1       0.422  -2.904   0.608  1.00  0.00    -0.303 NA
HETATM    7  O3  UNL     1      -0.836  -3.211   0.298  1.00  0.00    -0.286 OA
HETATM    8  C5  UNL     1      -1.997  -2.798   0.905  1.00  0.00     0.240 C 
HETATM    9  C6  UNL     1      -2.090  -1.324   0.840  1.00  0.00    -0.015 A 
HETATM   10  C7  UNL     1      -2.413  -0.717   2.028  1.00  0.00     0.013 A 
HETATM   11  C8  UNL     1      -2.465   0.676   1.983  1.00  0.00     0.038 A 
HETATM   12  C9  UNL     1      -2.171   1.233   0.711  1.00  0.00     0.081 A 
HETATM   13  C10 UNL     1      -1.833   0.575  -0.518  1.00  0.00     0.064 A 
HETATM   14  C11 UNL     1      -1.808  -0.789  -0.387  1.00  0.00     0.023 A 
HETATM   15  C12 UNL     1      -1.659   1.808  -1.303  1.00  0.00     0.189 C 
HETATM   16  O5  UNL     1      -2.772   2.181  -1.697  1.00  0.00    -0.287 OA
HETATM   17  C13 UNL     1      -0.198   1.997  -1.200  1.00  0.00     0.092 C 
HETATM   18  C14 UNL     1       1.055   1.715  -0.915  1.00  0.00     0.080 C 
ENDROOT
BRANCH   4  19
HETATM   19  O2  UNL     1       3.238  -0.735   0.559  1.00  0.00    -0.375 OA
HETATM   20  H4  UNL     1       3.704  -1.605   0.371  1.00  0.00     0.211 HD
ENDBRANCH   4  19
BRANCH  18  21
HETATM   21  O6  UNL     1       1.941   2.744  -1.227  1.00  0.00    -0.360 OA
HETATM   22  H13 UNL     1       2.404   3.320  -0.553  1.00  0.00     0.217 HD
ENDBRANCH  18  21
BRANCH  12  23
HETATM   23  O4  UNL     1      -2.294   2.644   0.932  1.00  0.00    -0.360 OA
HETATM   24  H10 UNL     1      -1.404   3.158   0.865  1.00  0.00     0.217 HD
ENDBRANCH  12  23
BRANCH  14  25
HETATM   25  S1  UNL     1      -1.448  -1.669  -1.890  1.00  0.00    -0.141 SA
HETATM   26  H11 UNL     1      -2.030  -1.085  -3.013  1.00  0.00     0.107 HD
ENDBRANCH  14  25
TORSDOF 4
