REMARK  9 active torsions:
REMARK  status: ('A' for Active; 'I' for Inactive)
REMARK    1  A    between atoms: C2_2  and  O1_3 
REMARK    2  A    between atoms: C2_2  and  C11_14 
REMARK    3  A    between atoms: O1_3  and  C3_4 
REMARK    4  A    between atoms: C4_5  and  C6_7 
REMARK    5  A    between atoms: C8_10  and  O2_11 
REMARK    6  A    between atoms: C11_14  and  O3_15 
REMARK    7  A    between atoms: C12_16  and  C13_17 
REMARK    8  A    between atoms: C12_16  and  O5_19 
REMARK    9  A    between atoms: C13_17  and  O4_18 
ROOT
HETATM    1  O1  UNL     1       0.532   0.020  -0.139  1.00  0.00    -0.324 OA
ENDROOT
BRANCH   1   2
HETATM    2  C2  UNL     1       1.262   0.398   0.973  1.00  0.00     0.088 C 
HETATM    3  C1  UNL     1       0.424   0.863   1.917  1.00  0.00     0.074 C 
BRANCH   2   4
HETATM    4  C11 UNL     1       2.707   0.308   1.102  1.00  0.00     0.127 C 
HETATM    5  C12 UNL     1       3.576  -0.138   0.213  1.00  0.00     0.104 C 
BRANCH   4   6
HETATM    6  O3  UNL     1       3.194   0.753   2.321  1.00  0.00    -0.356 OA
HETATM    7  H11 UNL     1       2.996   0.270   3.184  1.00  0.00     0.218 HD
ENDBRANCH   4   6
BRANCH   5   8
HETATM    8  C13 UNL     1       3.375  -0.671  -1.153  1.00  0.00     0.231 C 
BRANCH   8   9
HETATM    9  O4  UNL     1       4.041   0.083  -2.129  1.00  0.00    -0.394 OA
HETATM   10  H14 UNL     1       3.546   0.906  -2.334  1.00  0.00     0.209 HD
ENDBRANCH   8   9
ENDBRANCH   5   8
BRANCH   5  11
HETATM   11  O5  UNL     1       4.923  -0.159   0.488  1.00  0.00    -0.355 OA
HETATM   12  C14 UNL     1       5.969   0.165  -0.373  1.00  0.00     0.209 C 
ENDBRANCH   5  11
ENDBRANCH   2   4
ENDBRANCH   1   2
BRANCH   1  13
HETATM   13  C3  UNL     1      -0.621   0.591  -0.592  1.00  0.00     0.148 C 
HETATM   14  C4  UNL     1      -1.439  -0.425  -0.303  1.00  0.00    -0.045 C 
HETATM   15  C5  UNL     1      -0.986  -1.687   0.323  1.00  0.00     0.049 C 
BRANCH  14  16
HETATM   16  C6  UNL     1      -2.862  -0.463  -0.542  1.00  0.00    -0.094 C 
HETATM   17  B1  UNL     1      -4.172  -1.914  -0.153  1.00  0.00     0.215 B 
HETATM   18  C7  UNL     1      -5.520  -0.890   0.676  1.00  0.00    -0.045 C 
HETATM   19  C8  UNL     1      -5.741   0.200  -0.113  1.00  0.00     0.051 C 
HETATM   20  C9  UNL     1      -4.922   0.912  -0.949  1.00  0.00     0.035 C 
HETATM   21  C10 UNL     1      -3.601   0.554  -1.104  1.00  0.00    -0.002 C 
BRANCH  19  22
HETATM   22  O2  UNL     1      -7.050   0.729  -0.097  1.00  0.00    -0.362 OA
HETATM   23  H8  UNL     1      -7.285   1.483   0.530  1.00  0.00     0.217 HD
ENDBRANCH  19  22
ENDBRANCH  14  16
ENDBRANCH   1  13
TORSDOF 9
