REMARK  4 active torsions:
REMARK  status: ('A' for Active; 'I' for Inactive)
REMARK    1  A    between atoms: C2_2  and  C3_3 
REMARK    2  A    between atoms: C3_3  and  O1_4 
REMARK    3  A    between atoms: C5_7  and  C6_8 
REMARK    4  A    between atoms: C8_11  and  C9_12 
ROOT
HETATM    1  C1  UNL     1      -2.824  -0.163  -1.874  1.00  0.00     0.042 C 
HETATM    2  C2  UNL     1      -2.269   0.397  -0.564  1.00  0.00     0.065 C 
HETATM    3  C4  UNL     1      -1.104   1.378  -0.930  1.00  0.00     0.208 C 
HETATM    4  O2  UNL     1      -0.487   1.701   0.327  1.00  0.00    -0.347 OA
HETATM    5  C5  UNL     1       0.877   1.490   0.516  1.00  0.00     0.082 C 
HETATM    6  C7  UNL     1       1.983   0.902   0.067  1.00  0.00     0.017 C 
HETATM    7  C8  UNL     1       2.789   0.073  -0.839  1.00  0.00     0.028 C 
HETATM    8  C10 UNL     1       3.412  -1.076  -0.099  1.00  0.00     0.038 C 
HETATM    9  C11 UNL     1       2.516  -2.102   0.403  1.00  0.00    -0.002 C 
HETATM   10  C12 UNL     1       1.422  -2.798   0.661  1.00  0.00     0.130 C 
HETATM   11  O3  UNL     1       0.109  -2.660   0.352  1.00  0.00    -0.362 OA
HETATM   12  C13 UNL     1      -1.006  -2.594   1.198  1.00  0.00     0.193 C 
HETATM   13  C14 UNL     1      -2.165  -1.868   0.427  1.00  0.00     0.141 C 
HETATM   14  N2  UNL     1      -1.600  -0.631   0.105  1.00  0.00    -0.407 N 
HETATM   15  H23 UNL     1      -1.004  -0.288   0.917  1.00  0.00     0.154 HD
ENDROOT
BRANCH   2  16
HETATM   16  C3  UNL     1      -3.287   1.192   0.155  1.00  0.00     0.196 C 
BRANCH  16  17
HETATM   17  O1  UNL     1      -3.782   2.145  -0.768  1.00  0.00    -0.398 OA
HETATM   18  H6  UNL     1      -4.315   2.818  -0.255  1.00  0.00     0.209 HD
ENDBRANCH  16  17
ENDBRANCH   2  16
BRANCH   5  19
HETATM   19  C6  UNL     1       0.843   2.320   1.701  1.00  0.00     0.143 C 
HETATM   20  N1  UNL     1      -0.371   2.710   1.823  1.00  0.00    -0.310 NA
HETATM   21  H10 UNL     1      -0.626   3.319   2.609  1.00  0.00     0.186 HD
ENDBRANCH   5  19
BRANCH   7  22
HETATM   22  C9  UNL     1       3.939   0.871  -1.480  1.00  0.00     0.123 C 
HETATM   23 CL1  UNL     1       4.971   1.475  -0.173  1.00  0.00    -0.130 Cl
ENDBRANCH   7  22
TORSDOF 4
