REMARK  4 active torsions:
REMARK  status: ('A' for Active; 'I' for Inactive)
REMARK    1  A    between atoms: C2_2  and  C3_3 
REMARK    2  A    between atoms: C4_4  and  C5_5 
REMARK    3  A    between atoms: C8_10  and  N3_11 
REMARK    4  A    between atoms: N3_11  and  C9_12 
ROOT
HETATM    1  C5  UNL     1       0.063  -1.394  -0.142  1.00  0.00     0.036 A 
HETATM    2  C6  UNL     1      -0.578  -2.609  -0.047  1.00  0.00     0.134 A 
HETATM    3  N1  UNL     1       0.145  -3.726   0.159  1.00  0.00    -0.253 NA
HETATM    4  C7  UNL     1       1.496  -3.642   0.271  1.00  0.00     0.234 A 
HETATM    5  N2  UNL     1       2.113  -2.465   0.177  1.00  0.00    -0.224 NA
HETATM    6  C8  UNL     1       1.454  -1.330  -0.027  1.00  0.00     0.141 A 
ENDROOT
BRANCH   1   7
HETATM    7  C4  UNL     1      -0.747  -0.171  -0.377  1.00  0.00    -0.012 C 
HETATM    8  C3  UNL     1      -1.529   0.049  -1.452  1.00  0.00    -0.026 C 
HETATM    9  C21 UNL     1      -2.127   1.393  -1.534  1.00  0.00     0.206 C 
HETATM   10  O1  UNL     1      -3.505   1.365  -1.494  1.00  0.00    -0.386 OA
HETATM   11  C20 UNL     1      -3.945   0.655  -0.392  1.00  0.00     0.174 C 
HETATM   12  C18 UNL     1      -3.504   1.061   0.945  1.00  0.00     0.027 C 
HETATM   13  C17 UNL     1      -2.961  -0.160   1.663  1.00  0.00     0.011 C 
HETATM   14  C19 UNL     1      -2.560   2.176   1.126  1.00  0.00     0.121 C 
HETATM   15  C16 UNL     1      -1.511  -0.156   1.956  1.00  0.00     0.030 C 
HETATM   16  C15 UNL     1      -0.709   0.622   0.876  1.00  0.00     0.111 C 
HETATM   17  N4  UNL     1      -1.189   1.950   0.846  1.00  0.00    -0.413 N 
HETATM   18  H18 UNL     1      -0.541   2.687   1.102  1.00  0.00     0.153 HD
BRANCH   8  19
HETATM   19  C2  UNL     1      -1.585  -1.010  -2.447  1.00  0.00    -0.001 C 
HETATM   20  C1  UNL     1      -2.297  -0.991  -3.560  1.00  0.00     0.012 C 
ENDBRANCH   8  19
ENDBRANCH   1   7
BRANCH   6  21
HETATM   21  N3  UNL     1       2.167  -0.115  -0.190  1.00  0.00    -0.340 N 
HETATM   22  H6  UNL     1       1.602   0.691  -0.560  1.00  0.00     0.167 HD
BRANCH  21  23
HETATM   23  C9  UNL     1       3.537   0.163   0.043  1.00  0.00     0.035 A 
HETATM   24  C10 UNL     1       4.440  -0.674   0.657  1.00  0.00     0.032 A 
HETATM   25  C11 UNL     1       5.764  -0.443   0.890  1.00  0.00     0.046 A 
HETATM   26  C12 UNL     1       6.228   0.783   0.449  1.00  0.00     0.138 A 
HETATM   27  F1  UNL     1       7.513   1.156   0.607  1.00  0.00    -0.204 F 
HETATM   28  C13 UNL     1       5.396   1.678  -0.173  1.00  0.00     0.074 A 
HETATM   29 CL1  UNL     1       5.982   3.248  -0.738  1.00  0.00    -0.081 Cl
HETATM   30  C14 UNL     1       4.069   1.374  -0.374  1.00  0.00     0.056 A 
ENDBRANCH  21  23
ENDBRANCH   6  21
TORSDOF 4
