REMARK  8 active torsions:
REMARK  status: ('A' for Active; 'I' for Inactive)
REMARK    1  A    between atoms: C3_3  and  C4_4 
REMARK    2  A    between atoms: N1_10  and  C9_11 
REMARK    3  A    between atoms: C9_11  and  C11_13 
REMARK    4  A    between atoms: C9_11  and  C12_15 
REMARK    5  A    between atoms: C11_13  and  O2_14 
REMARK    6  A    between atoms: C12_15  and  O3_16 
REMARK    7  A    between atoms: C14_20  and  N4_21 
REMARK    8  A    between atoms: N4_21  and  C15_22 
ROOT
HETATM    1  C1  UNL     1       1.277  -1.057  -1.138  1.00  0.00     0.055 C 
HETATM    2  C2  UNL     1       1.471   0.062  -0.185  1.00  0.00     0.013 A 
HETATM    3  C3  UNL     1       0.389   0.727   0.332  1.00  0.00     0.069 A 
HETATM    4  N2  UNL     1       0.728   1.755   1.171  1.00  0.00    -0.241 NA
HETATM    5  C13 UNL     1       1.968   2.099   1.476  1.00  0.00     0.235 A 
HETATM    6  N3  UNL     1       2.962   1.418   0.945  1.00  0.00    -0.224 NA
HETATM    7  C14 UNL     1       2.775   0.391   0.110  1.00  0.00     0.137 A 
ENDROOT
BRANCH   3   8
HETATM    8  C4  UNL     1      -0.992   0.353   0.077  1.00  0.00     0.059 C 
HETATM    9  C5  UNL     1      -1.773  -0.723   0.171  1.00  0.00     0.034 C 
HETATM   10  C6  UNL     1      -1.521  -2.111   0.617  1.00  0.00     0.224 C 
HETATM   11  N1  UNL     1      -3.149  -0.489  -0.221  1.00  0.00    -0.367 N 
HETATM   12  O1  UNL     1      -2.108  -3.052  -0.207  1.00  0.00    -0.384 OA
HETATM   13  C7  UNL     1      -2.594  -2.488  -1.346  1.00  0.00     0.188 C 
HETATM   14  C8  UNL     1      -3.790  -1.607  -0.956  1.00  0.00     0.150 C 
BRANCH  11  15
HETATM   15  C9  UNL     1      -3.894   0.706   0.025  1.00  0.00     0.071 C 
HETATM   16  C10 UNL     1      -3.344   1.667   1.015  1.00  0.00     0.043 C 
BRANCH  15  17
HETATM   17  C11 UNL     1      -5.276   0.300   0.544  1.00  0.00     0.197 C 
BRANCH  17  18
HETATM   18  O2  UNL     1      -5.966  -0.461  -0.371  1.00  0.00    -0.398 OA
HETATM   19  H16 UNL     1      -6.868  -0.042  -0.492  1.00  0.00     0.209 HD
ENDBRANCH  17  18
ENDBRANCH  15  17
BRANCH  15  20
HETATM   20  C12 UNL     1      -4.230   1.414  -1.308  1.00  0.00     0.197 C 
BRANCH  20  21
HETATM   21  O3  UNL     1      -4.956   2.555  -0.906  1.00  0.00    -0.398 OA
HETATM   22  H19 UNL     1      -4.445   3.377  -0.929  1.00  0.00     0.209 HD
ENDBRANCH  20  21
ENDBRANCH  15  20
ENDBRANCH  11  15
ENDBRANCH   3   8
BRANCH   7  23
HETATM   23  N4  UNL     1       3.849  -0.336  -0.457  1.00  0.00    -0.340 N 
HETATM   24  H21 UNL     1       3.608  -1.131  -1.105  1.00  0.00     0.167 HD
BRANCH  23  25
HETATM   25  C15 UNL     1       5.224  -0.133  -0.262  1.00  0.00     0.035 A 
HETATM   26  C16 UNL     1       5.820   0.744   0.618  1.00  0.00     0.032 A 
HETATM   27  C17 UNL     1       7.175   0.913   0.768  1.00  0.00     0.046 A 
HETATM   28  C18 UNL     1       8.027   0.168  -0.002  1.00  0.00     0.138 A 
HETATM   29  F1  UNL     1       9.366   0.300   0.110  1.00  0.00    -0.204 F 
HETATM   30  C19 UNL     1       7.508  -0.723  -0.898  1.00  0.00     0.074 A 
HETATM   31 CL1  UNL     1       8.603  -1.663  -1.871  1.00  0.00    -0.081 Cl
HETATM   32  C20 UNL     1       6.157  -0.843  -0.997  1.00  0.00     0.056 A 
ENDBRANCH  23  25
ENDBRANCH   7  23
TORSDOF 8
