REMARK  5 active torsions:
REMARK  status: ('A' for Active; 'I' for Inactive)
REMARK    1  A    between atoms: C2_2  and  O1_3 
REMARK    2  A    between atoms: O1_3  and  C3_4 
REMARK    3  A    between atoms: C3_4  and  C4_5 
REMARK    4  A    between atoms: C7_8  and  N1_9 
REMARK    5  A    between atoms: N1_9  and  C8_10 
ROOT
HETATM    1  C4  UNL     1      -2.469  -0.601  -0.107  1.00  0.00     0.001 A 
HETATM    2  C5  UNL     1      -1.203  -0.105  -0.162  1.00  0.00     0.047 A 
HETATM    3  C6  UNL     1      -0.058   0.843  -0.232  1.00  0.00     0.045 C 
HETATM    4  C7  UNL     1       1.013   0.012  -0.324  1.00  0.00     0.104 C 
HETATM    5  N2  UNL     1       1.177  -1.314  -0.490  1.00  0.00    -0.252 NA
HETATM    6  C14 UNL     1       1.033  -2.456  -0.305  1.00  0.00     0.091 C 
HETATM    7  C15 UNL     1       0.363  -3.448   0.465  1.00  0.00     0.047 C 
HETATM    8  C16 UNL     1      -0.979  -4.008   0.120  1.00  0.00     0.006 C 
HETATM    9  C17 UNL     1      -2.082  -3.046  -0.000  1.00  0.00    -0.022 C 
HETATM   10  C18 UNL     1      -1.586  -1.752  -0.042  1.00  0.00     0.030 A 
ENDROOT
BRANCH   4  11
HETATM   11  N1  UNL     1       2.285   0.561  -0.395  1.00  0.00    -0.344 N 
HETATM   12  H10 UNL     1       2.260   0.784  -1.438  1.00  0.00     0.167 HD
BRANCH  11  13
HETATM   13  C8  UNL     1       3.576   1.060  -0.150  1.00  0.00     0.035 A 
HETATM   14  C9  UNL     1       4.497   0.001  -0.051  1.00  0.00     0.032 A 
HETATM   15  C10 UNL     1       5.828   0.347   0.163  1.00  0.00     0.046 A 
HETATM   16  C11 UNL     1       6.103   1.698   0.257  1.00  0.00     0.138 A 
HETATM   17  F1  UNL     1       7.391   2.039   0.471  1.00  0.00    -0.204 F 
HETATM   18  C12 UNL     1       5.202   2.724   0.164  1.00  0.00     0.074 A 
HETATM   19 CL1  UNL     1       5.593   4.433   0.282  1.00  0.00    -0.081 Cl
HETATM   20  C13 UNL     1       3.868   2.402  -0.053  1.00  0.00     0.056 A 
ENDBRANCH  11  13
ENDBRANCH   4  11
BRANCH   1  21
HETATM   21  C3  UNL     1      -3.383   0.597  -0.175  1.00  0.00     0.178 C 
BRANCH  21  22
HETATM   22  O1  UNL     1      -4.168   0.672   0.961  1.00  0.00    -0.391 OA
BRANCH  22  23
HETATM   23  C2  UNL     1      -4.649   1.966   1.142  1.00  0.00     0.163 C 
HETATM   24  C1  UNL     1      -5.265   2.627  -0.036  1.00  0.00     0.033 C 
ENDBRANCH  22  23
ENDBRANCH  21  22
ENDBRANCH   1  21
TORSDOF 5
