REMARK  4 active torsions:
REMARK  status: ('A' for Active; 'I' for Inactive)
REMARK    1  A    between atoms: O1_2  and  C2_3 
REMARK    2  A    between atoms: C6_9  and  N3_10 
REMARK    3  A    between atoms: N3_10  and  C7_11 
REMARK    4  A    between atoms: C15_21  and  O2_22 
ROOT
HETATM    1  C2  UNL     1      -3.588   0.459  -0.455  1.00  0.00     0.104 A 
HETATM    2  C3  UNL     1      -3.224  -0.507   0.459  1.00  0.00     0.072 A 
HETATM    3  C4  UNL     1      -1.900  -0.759   0.732  1.00  0.00     0.075 A 
HETATM    4  N1  UNL     1      -1.676  -1.723   1.639  1.00  0.00    -0.241 NA
HETATM    5  C5  UNL     1      -0.390  -1.990   1.925  1.00  0.00     0.236 A 
HETATM    6  N2  UNL     1       0.617  -1.338   1.343  1.00  0.00    -0.224 NA
HETATM    7  C6  UNL     1       0.443  -0.386   0.449  1.00  0.00     0.142 A 
HETATM    8  C13 UNL     1      -0.860  -0.083   0.129  1.00  0.00     0.042 A 
HETATM    9  C14 UNL     1      -1.263   0.862  -0.766  1.00  0.00     0.058 A 
HETATM   10  C15 UNL     1      -2.573   1.155  -1.077  1.00  0.00     0.116 A 
ENDROOT
BRANCH   7  11
HETATM   11  N3  UNL     1       1.477   0.337  -0.196  1.00  0.00    -0.340 N 
HETATM   12  H6  UNL     1       1.294   1.088  -0.870  1.00  0.00     0.167 HD
BRANCH  11  13
HETATM   13  C7  UNL     1       2.881   0.191  -0.061  1.00  0.00     0.035 A 
HETATM   14  C8  UNL     1       3.833   1.048  -0.572  1.00  0.00     0.032 A 
HETATM   15  C9  UNL     1       5.189   0.885  -0.436  1.00  0.00     0.046 A 
HETATM   16  C10 UNL     1       5.686  -0.197   0.252  1.00  0.00     0.138 A 
HETATM   17  F1  UNL     1       7.026  -0.285   0.341  1.00  0.00    -0.204 F 
HETATM   18  C11 UNL     1       4.784  -1.090   0.787  1.00  0.00     0.074 A 
HETATM   19 CL1  UNL     1       5.475  -2.438   1.645  1.00  0.00    -0.081 Cl
HETATM   20  C12 UNL     1       3.435  -0.870   0.615  1.00  0.00     0.056 A 
ENDBRANCH  11  13
ENDBRANCH   7  11
BRANCH  10  21
HETATM   21  O2  UNL     1      -2.903   2.135  -2.003  1.00  0.00    -0.276 OA
HETATM   22  I1  UNL     1      -1.492   3.236  -2.993  1.00  0.00     0.116 I 
ENDBRANCH  10  21
BRANCH   1  23
HETATM   23  O1  UNL     1      -4.895   0.764  -0.777  1.00  0.00    -0.353 OA
HETATM   24  C1  UNL     1      -6.024   0.144  -0.230  1.00  0.00     0.210 C 
ENDBRANCH   1  23
TORSDOF 4
