REMARK  6 active torsions:
REMARK  status: ('A' for Active; 'I' for Inactive)
REMARK    1  A    between atoms: O1_2  and  C2_3 
REMARK    2  A    between atoms: C6_9  and  N3_10 
REMARK    3  A    between atoms: N3_10  and  C7_11 
REMARK    4  A    between atoms: C16_23  and  C18_25 
REMARK    5  A    between atoms: C18_25  and  O3_26 
REMARK    6  A    between atoms: C21_30  and  O4_31 
ROOT
HETATM    1  C2  UNL     1      -1.957   2.389  -0.099  1.00  0.00     0.130 C 
HETATM    2  C3  UNL     1      -0.768   1.937  -0.159  1.00  0.00     0.092 C 
HETATM    3  C4  UNL     1       0.459   1.195  -0.052  1.00  0.00     0.056 A 
HETATM    4  N1  UNL     1       1.201   2.299   0.009  1.00  0.00    -0.245 NA
HETATM    5  C5  UNL     1       2.517   2.346   0.086  1.00  0.00     0.235 A 
HETATM    6  N2  UNL     1       3.087   1.138   0.099  1.00  0.00    -0.224 NA
HETATM    7  C6  UNL     1       2.337   0.012   0.038  1.00  0.00     0.139 A 
HETATM    8  C13 UNL     1       0.935  -0.101  -0.043  1.00  0.00     0.037 A 
HETATM    9  C14 UNL     1       0.625  -1.533  -0.075  1.00  0.00     0.212 C 
HETATM   10  O2  UNL     1      -0.598  -1.966   0.272  1.00  0.00    -0.384 OA
HETATM   11  C15 UNL     1      -1.618  -1.506  -0.486  1.00  0.00     0.211 C 
HETATM   12  C16 UNL     1      -2.995  -1.889  -0.112  1.00  0.00     0.195 C 
HETATM   13  C17 UNL     1      -3.168  -3.305  -0.808  1.00  0.00     0.053 C 
HETATM   14  N4  UNL     1      -4.016  -1.148  -0.828  1.00  0.00     0.097 N 
HETATM   15  C19 UNL     1      -3.740   0.279  -0.798  1.00  0.00     0.273 C 
HETATM   16  C20 UNL     1      -3.811   0.946   0.521  1.00  0.00     0.065 C 
HETATM   17  C21 UNL     1      -3.382   2.422   0.284  1.00  0.00     0.158 C 
HETATM   18  H20 UNL     1      -3.994  -1.384  -1.855  1.00  0.00     0.317 HD
ENDROOT
BRANCH   7  19
HETATM   19  N3  UNL     1       3.200  -1.154   0.041  1.00  0.00    -0.340 N 
HETATM   20  H6  UNL     1       3.034  -2.195  -0.076  1.00  0.00     0.167 HD
BRANCH  19  21
HETATM   21  C7  UNL     1       4.604  -1.046   0.217  1.00  0.00     0.035 A 
HETATM   22  C8  UNL     1       5.201  -0.125   1.051  1.00  0.00     0.032 A 
HETATM   23  C9  UNL     1       6.554   0.039   1.224  1.00  0.00     0.046 A 
HETATM   24  C10 UNL     1       7.424  -0.765   0.523  1.00  0.00     0.138 A 
HETATM   25  F1  UNL     1       8.756  -0.646   0.653  1.00  0.00    -0.204 F 
HETATM   26  C11 UNL     1       6.903  -1.705  -0.326  1.00  0.00     0.074 A 
HETATM   27 CL1  UNL     1       8.006  -2.733  -1.224  1.00  0.00    -0.081 Cl
HETATM   28  C12 UNL     1       5.552  -1.813  -0.449  1.00  0.00     0.056 A 
ENDBRANCH  19  21
ENDBRANCH   7  19
BRANCH   1  29
HETATM   29  O1  UNL     1      -1.592   3.484  -0.871  1.00  0.00    -0.378 OA
HETATM   30  C1  UNL     1      -1.247   4.749  -0.391  1.00  0.00     0.202 C 
ENDBRANCH   1  29
BRANCH  17  31
HETATM   31  O4  UNL     1      -4.149   2.919  -0.758  1.00  0.00    -0.392 OA
HETATM   32  H26 UNL     1      -3.637   3.666  -1.161  1.00  0.00     0.210 HD
ENDBRANCH  17  31
BRANCH  12  33
HETATM   33  C18 UNL     1      -3.383  -2.161   1.273  1.00  0.00     0.207 C 
BRANCH  33  34
HETATM   34  O3  UNL     1      -2.408  -2.853   2.012  1.00  0.00    -0.398 OA
HETATM   35  H19 UNL     1      -2.398  -2.480   2.907  1.00  0.00     0.209 HD
ENDBRANCH  33  34
ENDBRANCH  12  33
TORSDOF 6
