REMARK  3 active torsions:
REMARK  status: ('A' for Active; 'I' for Inactive)
REMARK    1  A    between atoms: C4_5  and  N1_6 
REMARK    2  A    between atoms: N1_6  and  S1_7 
REMARK    3  A    between atoms: S1_7  and  C5_8 
ROOT
HETATM    1  C5  UNL     1      -0.757  -1.302   0.333  1.00  0.00     0.205 C 
HETATM    2  C6  UNL     1      -1.999  -1.045   1.069  1.00  0.00     0.120 C 
HETATM    3  N2  UNL     1      -2.312   0.034   0.595  1.00  0.00    -0.303 NA
HETATM    4  C7  UNL     1      -3.347   0.958   0.743  1.00  0.00     0.150 C 
HETATM    5  C8  UNL     1      -4.605   0.268   0.148  1.00  0.00     0.048 C 
HETATM    6  C9  UNL     1      -4.073  -0.237  -1.205  1.00  0.00     0.176 C 
HETATM    7  O1  UNL     1      -3.457   0.844  -1.899  1.00  0.00    -0.362 OA
HETATM    8  C10 UNL     1      -2.177   0.624  -2.477  1.00  0.00     0.151 C 
HETATM    9  C11 UNL     1      -1.193  -0.211  -2.113  1.00  0.00     0.108 C 
HETATM   10  N3  UNL     1      -0.910  -1.184  -1.123  1.00  0.00    -0.378 N 
HETATM   11  H14 UNL     1      -0.790  -2.091  -1.679  1.00  0.00     0.160 HD
ENDROOT
BRANCH   1  12
HETATM   12  S1  UNL     1       0.465  -0.037   0.847  1.00  0.00    -0.024 SA
BRANCH  12  13
HETATM   13  N1  UNL     1       1.942  -0.356  -0.039  1.00  0.00    -0.328 N 
HETATM   14  H3  UNL     1       1.915  -0.830  -0.959  1.00  0.00     0.174 HD
BRANCH  13  15
HETATM   15  C4  UNL     1       3.193   0.032   0.491  1.00  0.00     0.040 A 
HETATM   16  C3  UNL     1       3.300   0.667   1.707  1.00  0.00     0.033 A 
HETATM   17  C2  UNL     1       4.527   1.041   2.215  1.00  0.00     0.046 A 
HETATM   18  C1  UNL     1       5.680   0.777   1.494  1.00  0.00     0.138 A 
HETATM   19  F1  UNL     1       6.905   1.128   1.957  1.00  0.00    -0.204 F 
HETATM   20  C13 UNL     1       5.639   0.138   0.257  1.00  0.00     0.074 A 
HETATM   21  C12 UNL     1       4.372  -0.206  -0.184  1.00  0.00     0.057 A 
HETATM   22 CL1  UNL     1       7.069  -0.218  -0.692  1.00  0.00    -0.081 Cl
ENDBRANCH  13  15
ENDBRANCH  12  13
ENDBRANCH   1  12
TORSDOF 3
