REMARK  2 active torsions:
REMARK  status: ('A' for Active; 'I' for Inactive)
REMARK    1  A    between atoms: C5_5  and  O1_6 
REMARK    2  A    between atoms: C12_17  and  O5_18 
ROOT
HETATM    1  C1  UNL     1      -2.648   1.380  -1.302  1.00  0.00     0.048 C 
HETATM    2  C2  UNL     1      -2.899   0.588  -0.209  1.00  0.00     0.085 C 
HETATM    3  C3  UNL     1      -2.013   0.856   0.968  1.00  0.00     0.103 C 
HETATM    4  C4  UNL     1      -2.369   0.079   2.012  1.00  0.00     0.067 C 
HETATM    5  C5  UNL     1      -3.870   0.074   1.718  1.00  0.00     0.274 C 
HETATM    6  N1  UNL     1      -3.758  -0.472   0.354  1.00  0.00    -0.221 N 
HETATM    7  O2  UNL     1      -3.666  -1.003  -0.918  1.00  0.00    -0.248 OA
HETATM    8  C6  UNL     1      -2.438  -1.731  -1.032  1.00  0.00     0.381 C 
HETATM    9  O3  UNL     1      -1.428  -0.897  -0.696  1.00  0.00    -0.289 OA
HETATM   10  C7  UNL     1      -0.118  -0.915  -0.649  1.00  0.00     0.298 C 
HETATM   11  O4  UNL     1       0.259  -2.018  -1.060  1.00  0.00    -0.259 OA
HETATM   12  C8  UNL     1       0.727   0.170  -0.196  1.00  0.00     0.072 C 
HETATM   13  C9  UNL     1       2.168   0.175  -0.211  1.00  0.00    -0.018 A 
HETATM   14  C10 UNL     1       2.866  -0.816  -0.844  1.00  0.00     0.015 A 
HETATM   15  C11 UNL     1       4.224  -0.925  -0.908  1.00  0.00     0.037 A 
HETATM   16  C12 UNL     1       5.013   0.025  -0.296  1.00  0.00     0.065 A 
HETATM   17  C13 UNL     1       4.365   1.048   0.357  1.00  0.00     0.037 A 
HETATM   18  C14 UNL     1       2.999   1.078   0.370  1.00  0.00     0.015 A 
HETATM   19  C15 UNL     1       0.273   1.254   0.398  1.00  0.00     0.161 C 
HETATM   20  O6  UNL     1      -0.965   1.827   0.825  1.00  0.00    -0.320 OA
ENDROOT
BRANCH  16  21
HETATM   21  O5  UNL     1       6.397  -0.021  -0.320  1.00  0.00    -0.361 OA
HETATM   22  H10 UNL     1       6.961   0.827  -0.367  1.00  0.00     0.217 HD
ENDBRANCH  16  21
BRANCH   5  23
HETATM   23  O1  UNL     1      -4.556  -0.752   2.568  1.00  0.00    -0.371 OA
HETATM   24  H5  UNL     1      -4.792  -1.575   2.072  1.00  0.00     0.212 HD
ENDBRANCH   5  23
TORSDOF 2
