REMARK  9 active torsions:
REMARK  status: ('A' for Active; 'I' for Inactive)
REMARK    1  A    between atoms: O1_2  and  C2_3 
REMARK    2  A    between atoms: C6_7  and  N1_8 
REMARK    3  A    between atoms: N1_8  and  C7_9 
REMARK    4  A    between atoms: C7_9  and  C8_10 
REMARK    5  A    between atoms: C9_11  and  C10_13 
REMARK    6  A    between atoms: C13_18  and  O2_19 
REMARK    7  A    between atoms: O2_19  and  C14_20 
REMARK    8  A    between atoms: C14_20  and  C15_21 
REMARK    9  A    between atoms: C15_21  and  N3_22 
ROOT
HETATM    1  C2  UNL     1      -1.072  -1.831  -0.843  1.00  0.00     0.124 C 
HETATM    2  C3  UNL     1       0.152  -2.301  -1.081  1.00  0.00     0.046 C 
HETATM    3  C4  UNL     1       0.913  -2.855   0.205  1.00  0.00     0.100 C 
HETATM    4  C5  UNL     1       1.269  -1.332   0.254  1.00  0.00    -0.026 C 
HETATM    5  C6  UNL     1       2.342  -1.064  -0.464  1.00  0.00     0.029 C 
HETATM    6  C11 UNL     1       2.521  -1.975  -1.677  1.00  0.00     0.176 C 
HETATM    7  N2  UNL     1       1.108  -2.279  -2.147  1.00  0.00    -0.385 N 
HETATM    8  C12 UNL     1       0.198  -0.555   0.884  1.00  0.00     0.049 C 
HETATM    9  C13 UNL     1      -1.032  -0.829   0.304  1.00  0.00     0.104 C 
HETATM   10  H14 UNL     1       0.425  -2.487  -2.969  1.00  0.00     0.159 HD
ENDROOT
BRANCH   5  11
HETATM   11  N1  UNL     1       2.870   0.077   0.258  1.00  0.00    -0.388 N 
HETATM   12  H6  UNL     1       2.498   0.726   0.928  1.00  0.00     0.159 HD
BRANCH  11  13
HETATM   13  C7  UNL     1       4.248   0.325  -0.092  1.00  0.00     0.148 C 
BRANCH  13  14
HETATM   14  C8  UNL     1       4.853   1.473   0.631  1.00  0.00     0.014 C 
HETATM   15  C9  UNL     1       5.350   2.563   0.059  1.00  0.00     0.038 C 
HETATM   16 CL1  UNL     1       5.340   2.760  -1.683  1.00  0.00    -0.087 Cl
BRANCH  15  17
HETATM   17  C10 UNL     1       5.924   3.631   0.898  1.00  0.00     0.273 C 
HETATM   18  F1  UNL     1       7.263   3.854   0.593  1.00  0.00    -0.250 F 
ENDBRANCH  15  17
ENDBRANCH  13  14
ENDBRANCH  11  13
ENDBRANCH   5  11
BRANCH   9  19
HETATM   19  O2  UNL     1      -2.110  -0.195   0.785  1.00  0.00    -0.346 OA
BRANCH  19  20
HETATM   20  C14 UNL     1      -3.420  -0.507   0.459  1.00  0.00     0.206 C 
BRANCH  20  21
HETATM   21  C15 UNL     1      -4.288   0.626   1.013  1.00  0.00     0.297 C 
BRANCH  21  22
HETATM   22  N3  UNL     1      -3.815   1.836   0.356  1.00  0.00     0.082 N 
HETATM   23  C16 UNL     1      -4.137   1.788  -1.036  1.00  0.00     0.309 C 
HETATM   24  C17 UNL     1      -4.427   2.970   1.001  1.00  0.00     0.309 C 
ENDBRANCH  21  22
ENDBRANCH  20  21
ENDBRANCH  19  20
ENDBRANCH   9  19
BRANCH   1  25
HETATM   25  O1  UNL     1      -1.894  -2.408  -1.719  1.00  0.00    -0.351 OA
HETATM   26  C1  UNL     1      -2.739  -3.486  -1.408  1.00  0.00     0.210 C 
ENDBRANCH   1  25
TORSDOF 9
