REMARK  4 active torsions:
REMARK  status: ('A' for Active; 'I' for Inactive)
REMARK    1  A    between atoms: C8_9  and  O1_10 
REMARK    2  A    between atoms: O1_10  and  C9_11 
REMARK    3  A    between atoms: C9_11  and  C10_12 
REMARK    4  A    between atoms: C10_12  and  N2_13 
ROOT
HETATM    1  C1  UNL     1      -3.881  -1.417   3.298  1.00  0.00     0.047 C 
HETATM    2  C2  UNL     1      -3.487  -1.269   1.863  1.00  0.00    -0.041 C 
HETATM    3  C3  UNL     1      -4.516  -1.194   1.050  1.00  0.00     0.007 C 
HETATM    4  C4  UNL     1      -4.413  -1.048  -0.396  1.00  0.00     0.017 C 
HETATM    5  C5  UNL     1      -3.370  -0.823  -1.208  1.00  0.00     0.085 C 
HETATM    6  N1  UNL     1      -2.041  -0.670  -0.754  1.00  0.00    -0.370 N 
HETATM    7  C6  UNL     1      -1.635  -0.168   0.586  1.00  0.00     0.143 C 
HETATM    8  C7  UNL     1      -0.191  -0.014   0.609  1.00  0.00     0.089 C 
HETATM    9  C8  UNL     1       1.071   0.261   0.817  1.00  0.00     0.124 C 
HETATM   10  C13 UNL     1       1.911   1.068   1.780  1.00  0.00     0.216 C 
HETATM   11  O2  UNL     1       2.595   2.032   0.973  1.00  0.00    -0.360 OA
HETATM   12  C14 UNL     1       2.105   3.323   0.994  1.00  0.00     0.136 C 
HETATM   13  C15 UNL     1       1.212   4.339   1.005  1.00  0.00     0.043 C 
HETATM   14  C16 UNL     1      -0.205   4.023   0.981  1.00  0.00     0.120 C 
HETATM   15  N3  UNL     1      -0.449   2.787   0.945  1.00  0.00    -0.254 NA
HETATM   16  C17 UNL     1      -1.735   2.200   0.916  1.00  0.00     0.397 C 
HETATM   17  N4  UNL     1      -2.359   1.098   0.790  1.00  0.00    -0.376 NA
HETATM   18  C18 UNL     1      -2.045  -1.230   1.574  1.00  0.00     0.166 C 
HETATM   19  C19 UNL     1      -1.655  -2.601   1.007  1.00  0.00     0.062 C 
HETATM   20  F1  UNL     1      -1.300  -1.011   2.717  1.00  0.00    -0.234 F 
HETATM   21  H7  UNL     1      -1.359  -0.957  -1.496  1.00  0.00     0.161 HD
ENDROOT
BRANCH   9  22
HETATM   22  O1  UNL     1       1.881  -0.352  -0.100  1.00  0.00    -0.372 OA
BRANCH  22  23
HETATM   23  C9  UNL     1       1.565  -0.830  -1.362  1.00  0.00     0.199 C 
BRANCH  23  24
HETATM   24  C10 UNL     1       2.762  -1.365  -2.119  1.00  0.00     0.297 C 
BRANCH  24  25
HETATM   25  N2  UNL     1       3.800  -0.414  -2.344  1.00  0.00     0.082 N 
HETATM   26  C11 UNL     1       3.482   0.651  -3.260  1.00  0.00     0.309 C 
HETATM   27  C12 UNL     1       4.946  -1.143  -2.863  1.00  0.00     0.309 C 
ENDBRANCH  24  25
ENDBRANCH  23  24
ENDBRANCH  22  23
ENDBRANCH   9  22
TORSDOF 4
