REMARK  9 active torsions:
REMARK  status: ('A' for Active; 'I' for Inactive)
REMARK    1  A    between atoms: O1_2  and  C2_3 
REMARK    2  A    between atoms: C6_9  and  N3_10 
REMARK    3  A    between atoms: N3_10  and  C7_11 
REMARK    4  A    between atoms: C7_11  and  C8_12 
REMARK    5  A    between atoms: C9_13  and  C10_15 
REMARK    6  A    between atoms: C13_19  and  O2_20 
REMARK    7  A    between atoms: O2_20  and  C14_21 
REMARK    8  A    between atoms: C14_21  and  C15_22 
REMARK    9  A    between atoms: C15_22  and  N4_23 
ROOT
HETATM    1  C2  UNL     1       1.556   2.738  -0.036  1.00  0.00     0.103 A 
HETATM    2  C3  UNL     1       0.358   3.431  -0.237  1.00  0.00     0.072 A 
HETATM    3  C4  UNL     1      -0.789   2.685  -0.286  1.00  0.00     0.075 A 
HETATM    4  N1  UNL     1      -1.958   3.315  -0.478  1.00  0.00    -0.241 NA
HETATM    5  C5  UNL     1      -3.086   2.586  -0.526  1.00  0.00     0.235 A 
HETATM    6  N2  UNL     1      -3.101   1.252  -0.391  1.00  0.00    -0.224 NA
HETATM    7  C6  UNL     1      -1.973   0.553  -0.197  1.00  0.00     0.137 A 
HETATM    8  C11 UNL     1      -0.829   1.318  -0.150  1.00  0.00     0.041 A 
HETATM    9  C12 UNL     1       0.394   0.722   0.044  1.00  0.00     0.057 A 
HETATM   10  C13 UNL     1       1.621   1.340   0.114  1.00  0.00     0.103 A 
ENDROOT
BRANCH   7  11
HETATM   11  N3  UNL     1      -1.992  -0.863  -0.058  1.00  0.00    -0.370 N 
HETATM   12  H6  UNL     1      -1.178  -1.461   0.086  1.00  0.00     0.161 HD
BRANCH  11  13
HETATM   13  C7  UNL     1      -3.269  -1.539  -0.125  1.00  0.00     0.150 C 
BRANCH  13  14
HETATM   14  C8  UNL     1      -4.101  -1.030   1.015  1.00  0.00     0.014 C 
HETATM   15  C9  UNL     1      -4.683  -1.621   2.079  1.00  0.00     0.038 C 
HETATM   16 CL1  UNL     1      -5.660  -1.020   3.418  1.00  0.00    -0.087 Cl
BRANCH  15  17
HETATM   17  C10 UNL     1      -4.580  -3.088   2.334  1.00  0.00     0.273 C 
HETATM   18  F1  UNL     1      -5.848  -3.628   2.340  1.00  0.00    -0.250 F 
ENDBRANCH  15  17
ENDBRANCH  13  14
ENDBRANCH  11  13
ENDBRANCH   7  11
BRANCH  10  19
HETATM   19  O2  UNL     1       2.862   0.964   0.286  1.00  0.00    -0.347 OA
BRANCH  19  20
HETATM   20  C14 UNL     1       3.715  -0.055   0.473  1.00  0.00     0.206 C 
BRANCH  20  21
HETATM   21  C15 UNL     1       3.737  -1.037  -0.640  1.00  0.00     0.297 C 
BRANCH  21  22
HETATM   22  N4  UNL     1       2.537  -1.725  -0.950  1.00  0.00     0.082 N 
HETATM   23  C16 UNL     1       2.737  -2.591  -2.117  1.00  0.00     0.309 C 
HETATM   24  C17 UNL     1       2.119  -2.644   0.103  1.00  0.00     0.309 C 
ENDBRANCH  21  22
ENDBRANCH  20  21
ENDBRANCH  19  20
ENDBRANCH  10  19
BRANCH   1  25
HETATM   25  O1  UNL     1       2.680   3.586  -0.000  1.00  0.00    -0.353 OA
HETATM   26  C1  UNL     1       2.562   4.972  -0.154  1.00  0.00     0.210 C 
ENDBRANCH   1  25
TORSDOF 9
