REMARK  8 active torsions:
REMARK  status: ('A' for Active; 'I' for Inactive)
REMARK    1  A    between atoms: O1_2  and  C2_3 
REMARK    2  A    between atoms: C6_9  and  N3_10 
REMARK    3  A    between atoms: N3_10  and  C7_11 
REMARK    4  A    between atoms: C15_21  and  O2_22 
REMARK    5  A    between atoms: O2_22  and  C16_23 
REMARK    6  A    between atoms: C16_23  and  C17_24 
REMARK    7  A    between atoms: C17_24  and  C18_25 
REMARK    8  A    between atoms: C18_25  and  N4_26 
ROOT
HETATM    1  C2  UNL     1       0.073  -0.614  -2.376  1.00  0.00     0.103 A 
HETATM    2  C3  UNL     1       1.053  -0.268  -3.298  1.00  0.00     0.072 A 
HETATM    3  C4  UNL     1       2.210   0.425  -2.954  1.00  0.00     0.075 A 
HETATM    4  N1  UNL     1       3.130   0.751  -3.845  1.00  0.00    -0.241 NA
HETATM    5  C5  UNL     1       4.243   1.424  -3.514  1.00  0.00     0.236 A 
HETATM    6  N2  UNL     1       4.421   1.778  -2.205  1.00  0.00    -0.224 NA
HETATM    7  C6  UNL     1       3.498   1.452  -1.297  1.00  0.00     0.142 A 
HETATM    8  C13 UNL     1       2.348   0.763  -1.619  1.00  0.00     0.042 A 
HETATM    9  C14 UNL     1       1.449   0.476  -0.621  1.00  0.00     0.057 A 
HETATM   10  C15 UNL     1       0.337  -0.210  -1.053  1.00  0.00     0.103 A 
ENDROOT
BRANCH   7  11
HETATM   11  N3  UNL     1       3.862   1.904  -0.004  1.00  0.00    -0.340 N 
HETATM   12  H6  UNL     1       3.449   2.754   0.444  1.00  0.00     0.167 HD
BRANCH  11  13
HETATM   13  C7  UNL     1       4.842   1.181   0.733  1.00  0.00     0.035 A 
HETATM   14  C8  UNL     1       5.399   0.003   0.303  1.00  0.00     0.032 A 
HETATM   15  C9  UNL     1       6.382  -0.698   1.020  1.00  0.00     0.046 A 
HETATM   16  C10 UNL     1       6.805  -0.164   2.224  1.00  0.00     0.138 A 
HETATM   17  F1  UNL     1       7.762  -0.827   2.957  1.00  0.00    -0.204 F 
HETATM   18  C11 UNL     1       6.280   1.033   2.724  1.00  0.00     0.074 A 
HETATM   19 CL1  UNL     1       6.812   1.711   4.244  1.00  0.00    -0.081 Cl
HETATM   20  C12 UNL     1       5.322   1.635   1.939  1.00  0.00     0.056 A 
ENDBRANCH  11  13
ENDBRANCH   7  11
BRANCH  10  21
HETATM   21  O2  UNL     1      -0.687  -0.600  -0.228  1.00  0.00    -0.348 OA
BRANCH  21  22
HETATM   22  C16 UNL     1      -0.671  -0.305   1.142  1.00  0.00     0.177 C 
BRANCH  22  23
HETATM   23  C17 UNL     1      -1.967  -0.889   1.780  1.00  0.00     0.046 C 
BRANCH  23  24
HETATM   24  C18 UNL     1      -3.073  -0.198   1.018  1.00  0.00     0.119 C 
BRANCH  24  25
HETATM   25  N4  UNL     1      -4.389  -0.533   1.338  1.00  0.00    -0.408 N 
HETATM   26  C19 UNL     1      -4.979  -0.166   2.549  1.00  0.00     0.143 C 
HETATM   27  C20 UNL     1      -5.991   0.947   2.340  1.00  0.00     0.187 C 
HETATM   28  O3  UNL     1      -7.008   0.528   1.532  1.00  0.00    -0.388 OA
HETATM   29  C21 UNL     1      -6.728  -0.441   0.613  1.00  0.00     0.187 C 
HETATM   30  C22 UNL     1      -5.265  -0.384   0.214  1.00  0.00     0.143 C 
ENDBRANCH  24  25
ENDBRANCH  23  24
ENDBRANCH  22  23
ENDBRANCH  21  22
ENDBRANCH  10  21
BRANCH   1  31
HETATM   31  O1  UNL     1      -1.073  -1.297  -2.702  1.00  0.00    -0.353 OA
HETATM   32  C1  UNL     1      -1.366  -1.722  -3.993  1.00  0.00     0.210 C 
ENDBRANCH   1  31
TORSDOF 8
