REMARK  7 active torsions:
REMARK  status: ('A' for Active; 'I' for Inactive)
REMARK    1  A    between atoms: C5_7  and  C6_8 
REMARK    2  A    between atoms: C6_8  and  C7_9 
REMARK    3  A    between atoms: C7_9  and  O2_10 
REMARK    4  A    between atoms: O2_10  and  C8_11 
REMARK    5  A    between atoms: C10_13  and  N2_14 
REMARK    6  A    between atoms: N2_14  and  C11_15 
REMARK    7  A    between atoms: C15_20  and  O3_21 
ROOT
HETATM    1  C8  UNL     1       0.082   0.506  -0.860  1.00  0.00     0.176 C 
HETATM    2  C9  UNL     1      -1.235   1.158  -0.823  1.00  0.00     0.059 C 
HETATM    3  C10 UNL     1      -1.924   0.702   0.243  1.00  0.00     0.128 C 
HETATM    4  N3  UNL     1      -1.762  -0.188   1.319  1.00  0.00    -0.225 NA
HETATM    5  C17 UNL     1      -1.579  -1.438   1.315  1.00  0.00     0.234 C 
HETATM    6  N4  UNL     1      -1.490  -2.273   0.207  1.00  0.00    -0.254 NA
HETATM    7  C18 UNL     1      -0.995  -2.070  -0.937  1.00  0.00     0.118 C 
HETATM    8  C19 UNL     1      -0.348  -1.504  -2.117  1.00  0.00     0.024 C 
HETATM    9  C20 UNL     1       0.167  -0.289  -2.127  1.00  0.00    -0.050 C 
HETATM   10  C21 UNL     1       0.627   0.080  -3.513  1.00  0.00     0.046 C 
ENDROOT
BRANCH   1  11
HETATM   11  O2  UNL     1       0.460  -0.219   0.221  1.00  0.00    -0.377 OA
BRANCH  11  12
HETATM   12  C7  UNL     1       1.600   0.171   0.878  1.00  0.00     0.171 C 
BRANCH  12  13
HETATM   13  C6  UNL     1       2.845   0.143   0.026  1.00  0.00     0.063 C 
BRANCH  13  14
HETATM   14  C5  UNL     1       4.075   0.583   0.791  1.00  0.00     0.236 C 
HETATM   15  C2  UNL     1       4.364  -0.279   1.966  1.00  0.00     0.024 C 
HETATM   16  C1  UNL     1       3.898  -1.409   2.481  1.00  0.00     0.015 C 
HETATM   17  C3  UNL     1       5.476   0.289   2.765  1.00  0.00     0.182 C 
HETATM   18  O1  UNL     1       6.241   1.083   1.949  1.00  0.00    -0.362 OA
HETATM   19  C4  UNL     1       6.463   0.566   0.674  1.00  0.00     0.438 C 
HETATM   20  N1  UNL     1       5.225   0.493  -0.091  1.00  0.00     0.112 N 
HETATM   21  H7  UNL     1       5.186   1.190  -0.868  1.00  0.00     0.319 HD
ENDBRANCH  13  14
ENDBRANCH  12  13
ENDBRANCH  11  12
ENDBRANCH   1  11
BRANCH   3  22
HETATM   22  N2  UNL     1      -3.230   1.192   0.483  1.00  0.00    -0.341 N 
HETATM   23  H15 UNL     1      -3.164   2.065   1.051  1.00  0.00     0.167 HD
BRANCH  22  24
HETATM   24  C11 UNL     1      -4.477   0.663   0.065  1.00  0.00     0.036 A 
HETATM   25  C12 UNL     1      -4.580  -0.484  -0.685  1.00  0.00     0.032 A 
HETATM   26  C13 UNL     1      -5.834  -0.922  -1.045  1.00  0.00     0.047 A 
HETATM   27  C14 UNL     1      -6.995  -0.276  -0.697  1.00  0.00     0.149 A 
HETATM   28  F1  UNL     1      -8.175  -0.801  -1.109  1.00  0.00    -0.203 F 
HETATM   29  C15 UNL     1      -6.854   0.882   0.062  1.00  0.00     0.106 A 
HETATM   30  C16 UNL     1      -5.617   1.337   0.432  1.00  0.00     0.069 A 
BRANCH  29  31
HETATM   31  O3  UNL     1      -8.012   1.541   0.419  1.00  0.00    -0.358 OA
HETATM   32  H18 UNL     1      -7.996   2.547   0.460  1.00  0.00     0.217 HD
ENDBRANCH  29  31
ENDBRANCH  22  24
ENDBRANCH   3  22
TORSDOF 7
