REMARK  7 active torsions:
REMARK  status: ('A' for Active; 'I' for Inactive)
REMARK    1  A    between atoms: C2_2  and  C3_3 
REMARK    2  A    between atoms: C3_3  and  C4_4 
REMARK    3  A    between atoms: C4_4  and  O1_5 
REMARK    4  A    between atoms: O1_5  and  C5_6 
REMARK    5  A    between atoms: C8_9  and  N1_10 
REMARK    6  A    between atoms: N1_10  and  C9_11 
REMARK    7  A    between atoms: C18_24  and  O2_25 
ROOT
HETATM    1  C5  UNL     1      -1.579  -0.868   0.231  1.00  0.00     0.103 A 
HETATM    2  C6  UNL     1      -0.255  -0.485   0.176  1.00  0.00     0.057 A 
HETATM    3  C7  UNL     1       0.775  -1.271  -0.294  1.00  0.00     0.042 A 
HETATM    4  C8  UNL     1       2.092  -0.866  -0.339  1.00  0.00     0.142 A 
HETATM    5  N2  UNL     1       2.912  -1.797  -0.832  1.00  0.00    -0.224 NA
HETATM    6  C15 UNL     1       2.597  -3.007  -1.259  1.00  0.00     0.236 A 
HETATM    7  N3  UNL     1       1.300  -3.371  -1.201  1.00  0.00    -0.241 NA
HETATM    8  C16 UNL     1       0.367  -2.508  -0.717  1.00  0.00     0.075 A 
HETATM    9  C17 UNL     1      -0.935  -2.950  -0.688  1.00  0.00     0.072 A 
HETATM   10  C18 UNL     1      -1.928  -2.127  -0.210  1.00  0.00     0.103 A 
ENDROOT
BRANCH   4  11
HETATM   11  N1  UNL     1       2.444   0.424   0.110  1.00  0.00    -0.340 N 
HETATM   12  H11 UNL     1       1.737   1.080   0.460  1.00  0.00     0.167 HD
BRANCH  11  13
HETATM   13  C9  UNL     1       3.730   1.013   0.159  1.00  0.00     0.035 A 
HETATM   14  C10 UNL     1       4.869   0.332  -0.172  1.00  0.00     0.032 A 
HETATM   15  C11 UNL     1       6.137   0.854  -0.145  1.00  0.00     0.046 A 
HETATM   16  C12 UNL     1       6.318   2.179   0.244  1.00  0.00     0.138 A 
HETATM   17  F1  UNL     1       7.536   2.760   0.293  1.00  0.00    -0.204 F 
HETATM   18  C13 UNL     1       5.214   2.894   0.581  1.00  0.00     0.074 A 
HETATM   19 CL1  UNL     1       5.377   4.555   1.075  1.00  0.00    -0.081 Cl
HETATM   20  C14 UNL     1       3.970   2.310   0.533  1.00  0.00     0.056 A 
ENDBRANCH  11  13
ENDBRANCH   4  11
BRANCH   1  21
HETATM   21  O1  UNL     1      -2.571  -0.054   0.706  1.00  0.00    -0.348 OA
BRANCH  21  22
HETATM   22  C4  UNL     1      -2.478   1.239   1.200  1.00  0.00     0.176 C 
BRANCH  22  23
HETATM   23  C3  UNL     1      -3.896   1.655   1.585  1.00  0.00     0.026 C 
BRANCH  23  24
HETATM   24  C2  UNL     1      -4.717   1.578   0.310  1.00  0.00    -0.002 C 
HETATM   25  C1  UNL     1      -4.122   2.520  -0.708  1.00  0.00     0.005 C 
ENDBRANCH  23  24
ENDBRANCH  22  23
ENDBRANCH  21  22
ENDBRANCH   1  21
BRANCH  10  26
HETATM   26  O2  UNL     1      -3.247  -2.554  -0.173  1.00  0.00    -0.353 OA
HETATM   27  C19 UNL     1      -3.498  -3.866  -0.650  1.00  0.00     0.210 C 
ENDBRANCH  10  26
TORSDOF 7
