REMARK  4 active torsions:
REMARK  status: ('A' for Active; 'I' for Inactive)
REMARK    1  A    between atoms: O1_2  and  C2_3 
REMARK    2  A    between atoms: C2_3  and  C3_4 
REMARK    3  A    between atoms: C5_6  and  C6_7 
REMARK    4  A    between atoms: C9_10  and  O2_11 
ROOT
HETATM    1  C3  UNL     1      -1.460  -0.592   0.358  1.00  0.00     0.077 C 
HETATM    2  C4  UNL     1      -0.363  -0.298  -0.320  1.00  0.00     0.020 C 
HETATM    3  C5  UNL     1       0.620   0.584  -0.958  1.00  0.00     0.070 C 
HETATM    4  C12 UNL     1       0.659   1.965  -0.291  1.00  0.00     0.223 C 
HETATM    5  O3  UNL     1      -0.482   2.657  -0.442  1.00  0.00    -0.235 OA
HETATM    6  O4  UNL     1      -1.021   3.238   0.646  1.00  0.00    -0.210 OA
HETATM    7  C13 UNL     1      -2.259   3.911   0.452  1.00  0.00     0.182 C 
HETATM    8  C14 UNL     1      -3.091   2.878   0.206  1.00  0.00     0.109 C 
HETATM    9  C15 UNL     1      -2.838   1.443   0.158  1.00  0.00     0.289 C 
HETATM   10  O5  UNL     1      -3.709   0.597  -0.174  1.00  0.00    -0.260 OA
HETATM   11  O6  UNL     1      -1.702   0.749   0.443  1.00  0.00    -0.278 OA
ENDROOT
BRANCH   3  12
HETATM   12  C6  UNL     1       2.009   0.044  -0.861  1.00  0.00    -0.048 A 
HETATM   13  C7  UNL     1       2.368  -0.164   0.475  1.00  0.00     0.011 A 
HETATM   14  C8  UNL     1       3.618  -0.663   0.824  1.00  0.00     0.037 A 
HETATM   15  C9  UNL     1       4.506  -0.951  -0.211  1.00  0.00     0.065 A 
HETATM   16  C10 UNL     1       4.145  -0.743  -1.532  1.00  0.00     0.037 A 
HETATM   17  C11 UNL     1       2.912  -0.252  -1.861  1.00  0.00     0.011 A 
BRANCH  15  18
HETATM   18  O2  UNL     1       5.759  -1.448   0.082  1.00  0.00    -0.361 OA
HETATM   19  H10 UNL     1       6.547  -0.825   0.212  1.00  0.00     0.217 HD
ENDBRANCH  15  18
ENDBRANCH   3  12
BRANCH   1  20
HETATM   20  C2  UNL     1      -2.119  -1.839   0.822  1.00  0.00     0.231 C 
BRANCH  20  21
HETATM   21  O1  UNL     1      -3.396  -1.967   0.289  1.00  0.00    -0.390 OA
HETATM   22  C1  UNL     1      -3.897  -3.166   0.786  1.00  0.00     0.201 C 
ENDBRANCH  20  21
ENDBRANCH   1  20
TORSDOF 4
