REMARK  4 active torsions:
REMARK  status: ('A' for Active; 'I' for Inactive)
REMARK    1  A    between atoms: O1_2  and  C2_3 
REMARK    2  A    between atoms: C6_9  and  N3_10 
REMARK    3  A    between atoms: N3_10  and  C7_11 
REMARK    4  A    between atoms: C7_11  and  C8_12 
ROOT
HETATM    1  C2  UNL     1       3.863  -0.075  -1.040  1.00  0.00     0.092 A 
HETATM    2  C3  UNL     1       3.434  -0.709   0.107  1.00  0.00     0.071 A 
HETATM    3  C4  UNL     1       2.167  -0.505   0.606  1.00  0.00     0.075 A 
HETATM    4  N1  UNL     1       1.819  -1.163   1.738  1.00  0.00    -0.241 NA
HETATM    5  C5  UNL     1       0.574  -0.938   2.194  1.00  0.00     0.235 A 
HETATM    6  N2  UNL     1      -0.292  -0.133   1.609  1.00  0.00    -0.224 NA
HETATM    7  C6  UNL     1      -0.010   0.535   0.504  1.00  0.00     0.137 A 
HETATM    8  C13 UNL     1       1.252   0.332   0.006  1.00  0.00     0.040 A 
HETATM    9  C14 UNL     1       1.714   0.945  -1.133  1.00  0.00     0.044 A 
HETATM   10  C15 UNL     1       2.967   0.783  -1.682  1.00  0.00     0.068 A 
HETATM   11 CL1  UNL     1       3.503   1.587  -3.134  1.00  0.00    -0.081 Cl
ENDROOT
BRANCH   7  12
HETATM   12  N3  UNL     1      -0.923   1.401  -0.128  1.00  0.00    -0.371 N 
HETATM   13  H6  UNL     1      -0.687   1.926  -0.995  1.00  0.00     0.161 HD
BRANCH  12  14
HETATM   14  C7  UNL     1      -2.275   1.690   0.301  1.00  0.00     0.143 C 
BRANCH  14  15
HETATM   15  C8  UNL     1      -3.195   0.571   0.298  1.00  0.00    -0.102 C 
HETATM   16  C9  UNL     1      -3.676  -0.385   1.141  1.00  0.00     0.034 C 
HETATM   17  C10 UNL     1      -4.757  -1.186   1.062  1.00  0.00     0.114 C 
HETATM   18  F1  UNL     1      -4.931  -2.047   2.118  1.00  0.00    -0.206 F 
HETATM   19  C11 UNL     1      -5.598  -1.129   0.009  1.00  0.00     0.026 C 
HETATM   20  C12 UNL     1      -5.586  -0.356  -1.104  1.00  0.00    -0.078 C 
HETATM   21  B1  UNL     1      -3.971   0.359  -1.425  1.00  0.00     0.208 B 
ENDBRANCH  14  15
ENDBRANCH  12  14
ENDBRANCH   7  12
BRANCH   1  22
HETATM   22  O1  UNL     1       5.124  -0.279  -1.537  1.00  0.00    -0.354 OA
HETATM   23  C1  UNL     1       6.068  -1.149  -0.909  1.00  0.00     0.210 C 
ENDBRANCH   1  22
TORSDOF 4
