REMARK  9 active torsions:
REMARK  status: ('A' for Active; 'I' for Inactive)
REMARK    1  A    between atoms: O1_2  and  C2_3 
REMARK    2  A    between atoms: C6_9  and  N3_10 
REMARK    3  A    between atoms: N3_10  and  C7_11 
REMARK    4  A    between atoms: C7_11  and  C8_12 
REMARK    5  A    between atoms: C9_13  and  C10_14 
REMARK    6  A    between atoms: C15_20  and  O2_21 
REMARK    7  A    between atoms: O2_21  and  C16_22 
REMARK    8  A    between atoms: C16_22  and  C17_23 
REMARK    9  A    between atoms: C17_23  and  N4_24 
ROOT
HETATM    1  C2  UNL     1      -1.428   2.447   0.949  1.00  0.00     0.103 A 
HETATM    2  C3  UNL     1      -0.300   2.737   1.731  1.00  0.00     0.072 A 
HETATM    3  C4  UNL     1       0.880   2.006   1.592  1.00  0.00     0.075 A 
HETATM    4  N1  UNL     1       1.991   2.233   2.312  1.00  0.00    -0.241 NA
HETATM    5  C5  UNL     1       3.104   1.494   2.137  1.00  0.00     0.235 A 
HETATM    6  N2  UNL     1       3.092   0.510   1.221  1.00  0.00    -0.224 NA
HETATM    7  C6  UNL     1       2.033   0.205   0.453  1.00  0.00     0.137 A 
HETATM    8  C13 UNL     1       0.922   0.987   0.669  1.00  0.00     0.041 A 
HETATM    9  C14 UNL     1      -0.205   0.738  -0.075  1.00  0.00     0.057 A 
HETATM   10  C15 UNL     1      -1.399   1.409   0.003  1.00  0.00     0.103 A 
ENDROOT
BRANCH   7  11
HETATM   11  N3  UNL     1       2.125  -0.852  -0.487  1.00  0.00    -0.371 N 
HETATM   12  H6  UNL     1       1.387  -1.175  -1.130  1.00  0.00     0.161 HD
BRANCH  11  13
HETATM   13  C7  UNL     1       3.359  -1.613  -0.623  1.00  0.00     0.148 C 
BRANCH  13  14
HETATM   14  C8  UNL     1       3.667  -2.282   0.655  1.00  0.00    -0.006 C 
HETATM   15  C9  UNL     1       4.724  -2.182   1.450  1.00  0.00     0.013 C 
BRANCH  15  16
HETATM   16  C10 UNL     1       5.824  -1.301   1.107  1.00  0.00     0.017 A 
HETATM   17  C11 UNL     1       6.994  -0.843   1.467  1.00  0.00     0.031 A 
HETATM   18  C12 UNL     1       6.585  -0.342   0.347  1.00  0.00     0.139 A 
HETATM   19  F1  UNL     1       6.623   0.426  -0.775  1.00  0.00    -0.204 F 
ENDBRANCH  15  16
ENDBRANCH  13  14
ENDBRANCH  11  13
ENDBRANCH   7  11
BRANCH  10  20
HETATM   20  O2  UNL     1      -2.602   1.340  -0.603  1.00  0.00    -0.347 OA
BRANCH  20  21
HETATM   21  C16 UNL     1      -2.981   0.426  -1.569  1.00  0.00     0.206 C 
BRANCH  21  22
HETATM   22  C17 UNL     1      -3.015  -1.010  -1.159  1.00  0.00     0.297 C 
BRANCH  22  23
HETATM   23  N4  UNL     1      -3.438  -1.773  -2.324  1.00  0.00     0.082 N 
HETATM   24  C18 UNL     1      -4.801  -1.534  -2.699  1.00  0.00     0.309 C 
HETATM   25  C19 UNL     1      -3.108  -3.180  -2.218  1.00  0.00     0.309 C 
ENDBRANCH  22  23
ENDBRANCH  21  22
ENDBRANCH  20  21
ENDBRANCH  10  20
BRANCH   1  26
HETATM   26  O1  UNL     1      -2.528   3.260   1.200  1.00  0.00    -0.353 OA
HETATM   27  C1  UNL     1      -2.426   4.268   2.178  1.00  0.00     0.210 C 
ENDBRANCH   1  26
TORSDOF 9
