REMARK  6 active torsions:
REMARK  status: ('A' for Active; 'I' for Inactive)
REMARK    1  A    between atoms: N1_6  and  C6_7 
REMARK    2  A    between atoms: C6_7  and  C7_8 
REMARK    3  A    between atoms: C7_8  and  O1_9 
REMARK    4  A    between atoms: O1_9  and  C8_10 
REMARK    5  A    between atoms: C10_12  and  N2_13 
REMARK    6  A    between atoms: N2_13  and  C11_14 
ROOT
HETATM    1  C8  UNL     1       0.127   0.024  -0.521  1.00  0.00     0.094 C 
HETATM    2  C9  UNL     1       1.254  -0.755  -0.612  1.00  0.00     0.067 C 
HETATM    3  C10 UNL     1       2.563   0.053  -0.544  1.00  0.00     0.153 C 
HETATM    4  C17 UNL     1       2.009   1.046   0.544  1.00  0.00     0.122 C 
HETATM    5  C18 UNL     1       0.907   1.314  -0.498  1.00  0.00     0.073 C 
HETATM    6  N3  UNL     1       1.227   2.553  -0.927  1.00  0.00    -0.244 NA
HETATM    7  C19 UNL     1       2.512   2.255  -1.716  1.00  0.00     0.230 C 
HETATM    8  N4  UNL     1       2.762   0.942  -1.651  1.00  0.00    -0.246 NA
ENDROOT
BRANCH   3   9
HETATM    9  N2  UNL     1       3.617  -0.731  -0.093  1.00  0.00    -0.358 N 
HETATM   10  H16 UNL     1       3.384  -1.758   0.071  1.00  0.00     0.162 HD
BRANCH   9  11
HETATM   11  C11 UNL     1       4.956  -0.388   0.185  1.00  0.00     0.032 A 
HETATM   12  C12 UNL     1       5.868  -1.353   0.630  1.00  0.00     0.032 A 
HETATM   13  C13 UNL     1       7.182  -1.090   0.923  1.00  0.00     0.046 A 
HETATM   14  C14 UNL     1       7.631   0.202   0.770  1.00  0.00     0.138 A 
HETATM   15  F1  UNL     1       8.917   0.452   1.059  1.00  0.00    -0.204 F 
HETATM   16  C15 UNL     1       6.811   1.221   0.338  1.00  0.00     0.074 A 
HETATM   17 CL1  UNL     1       7.382   2.878   0.142  1.00  0.00    -0.081 Cl
HETATM   18  C16 UNL     1       5.510   0.866   0.068  1.00  0.00     0.056 A 
ENDBRANCH   9  11
ENDBRANCH   3   9
BRANCH   1  19
HETATM   19  O1  UNL     1      -1.221   0.228  -0.449  1.00  0.00    -0.347 OA
BRANCH  19  20
HETATM   20  C7  UNL     1      -2.098  -0.309  -1.428  1.00  0.00     0.206 C 
BRANCH  20  21
HETATM   21  C6  UNL     1      -3.501   0.072  -1.158  1.00  0.00     0.299 C 
BRANCH  21  22
HETATM   22  N1  UNL     1      -4.024  -0.362   0.096  1.00  0.00     0.094 N 
HETATM   23  C2  UNL     1      -5.371   0.149   0.279  1.00  0.00     0.219 C 
HETATM   24  C1  UNL     1      -5.258   1.467   1.014  1.00  0.00     0.043 C 
HETATM   25  C3  UNL     1      -6.115  -0.842   1.114  1.00  0.00     0.037 C 
HETATM   26  C4  UNL     1      -5.058  -1.888   1.442  1.00  0.00     0.032 C 
HETATM   27  C5  UNL     1      -4.187  -1.800   0.192  1.00  0.00     0.273 C 
ENDBRANCH  21  22
ENDBRANCH  20  21
ENDBRANCH  19  20
ENDBRANCH   1  19
TORSDOF 6
