REMARK  10 active torsions:
REMARK  status: ('A' for Active; 'I' for Inactive)
REMARK    1  A    between atoms: C2_2  and  C3_3 
REMARK    2  A    between atoms: C3_3  and  C4_5 
REMARK    3  A    between atoms: C5_7  and  C6_8 
REMARK    4  A    between atoms: C6_8  and  N1_9 
REMARK    5  A    between atoms: N1_9  and  C7_10 
REMARK    6  A    between atoms: C11_16  and  O1_17 
REMARK    7  A    between atoms: C13_19  and  O2_20 
REMARK    8  A    between atoms: O2_20  and  C14_21 
REMARK    9  A    between atoms: C14_21  and  C15_22 
REMARK   10  A    between atoms: C15_22  and  N4_23 
ROOT
HETATM    1  C7  UNL     1       1.781  -0.711  -0.688  1.00  0.00     0.137 A 
HETATM    2  N2  UNL     1       2.680  -1.413  -1.391  1.00  0.00    -0.224 NA
HETATM    3  C8  UNL     1       2.461  -2.694  -1.726  1.00  0.00     0.235 A 
HETATM    4  N3  UNL     1       1.337  -3.346  -1.382  1.00  0.00    -0.241 NA
HETATM    5  C9  UNL     1       0.395  -2.712  -0.681  1.00  0.00     0.075 A 
HETATM    6  C10 UNL     1      -0.782  -3.317  -0.296  1.00  0.00     0.072 A 
HETATM    7  C11 UNL     1      -1.725  -2.602   0.431  1.00  0.00     0.103 A 
HETATM    8  C13 UNL     1      -1.528  -1.263   0.798  1.00  0.00     0.103 A 
HETATM    9  C18 UNL     1      -0.329  -0.740   0.374  1.00  0.00     0.057 A 
HETATM   10  C19 UNL     1       0.636  -1.398  -0.345  1.00  0.00     0.041 A 
ENDROOT
BRANCH   1  11
HETATM   11  N1  UNL     1       2.054   0.646  -0.347  1.00  0.00    -0.370 N 
HETATM   12  H6  UNL     1       1.417   1.263   0.199  1.00  0.00     0.161 HD
BRANCH  11  13
HETATM   13  C6  UNL     1       3.329   1.219  -0.799  1.00  0.00     0.150 C 
BRANCH  13  14
HETATM   14  C5  UNL     1       3.401   2.606  -0.315  1.00  0.00     0.020 C 
HETATM   15  C4  UNL     1       4.418   2.878   0.477  1.00  0.00     0.078 C 
HETATM   16 CL1  UNL     1       5.328   3.998   1.461  1.00  0.00    -0.081 Cl
BRANCH  15  17
HETATM   17  C3  UNL     1       5.303   1.763   0.743  1.00  0.00     0.179 C 
HETATM   18  F1  UNL     1       5.260   0.794   1.671  1.00  0.00    -0.195 F 
BRANCH  17  19
HETATM   19  C2  UNL     1       6.371   1.599  -0.023  1.00  0.00    -0.112 C 
HETATM   20  C1  UNL     1       7.271   1.512  -0.969  1.00  0.00     0.100 C 
ENDBRANCH  17  19
ENDBRANCH  15  17
ENDBRANCH  13  14
ENDBRANCH  11  13
ENDBRANCH   1  11
BRANCH   8  21
HETATM   21  O2  UNL     1      -2.588  -0.790   1.497  1.00  0.00    -0.347 OA
BRANCH  21  22
HETATM   22  C14 UNL     1      -2.878   0.445   2.045  1.00  0.00     0.206 C 
BRANCH  22  23
HETATM   23  C15 UNL     1      -2.993   1.574   1.062  1.00  0.00     0.297 C 
BRANCH  23  24
HETATM   24  N4  UNL     1      -4.010   1.385   0.080  1.00  0.00     0.082 N 
HETATM   25  C16 UNL     1      -5.359   1.428   0.538  1.00  0.00     0.309 C 
HETATM   26  C17 UNL     1      -3.835   2.371  -0.965  1.00  0.00     0.309 C 
ENDBRANCH  23  24
ENDBRANCH  22  23
ENDBRANCH  21  22
ENDBRANCH   8  21
BRANCH   7  27
HETATM   27  O1  UNL     1      -2.862  -3.328   0.753  1.00  0.00    -0.353 OA
HETATM   28  C12 UNL     1      -3.040  -4.664   0.374  1.00  0.00     0.210 C 
ENDBRANCH   7  27
TORSDOF 10
