REMARK  6 active torsions:
REMARK  status: ('A' for Active; 'I' for Inactive)
REMARK    1  A    between atoms: O1_2  and  C2_3 
REMARK    2  A    between atoms: C4_5  and  N1_6 
REMARK    3  A    between atoms: C12_15  and  N3_16 
REMARK    4  A    between atoms: C16_22  and  C17_23 
REMARK    5  A    between atoms: C20_26  and  N5_27 
REMARK    6  A    between atoms: N5_27  and  C21_28 
ROOT
HETATM    1  N3  UNL     1      -1.129  -0.777   0.195  1.00  0.00    -0.185 N 
HETATM    2  C13 UNL     1      -2.399  -0.416  -0.040  1.00  0.00     0.727 A 
HETATM    3  N4  UNL     1      -2.284   0.805  -0.680  1.00  0.00    -0.073 NA
HETATM    4  C14 UNL     1      -3.174   1.641  -1.157  1.00  0.00     0.162 A 
HETATM    5  C15 UNL     1      -4.435   1.201  -0.956  1.00  0.00     0.082 A 
HETATM    6 CL1  UNL     1      -5.621   2.351  -1.566  1.00  0.00    -0.080 Cl
HETATM    7  C16 UNL     1      -4.689  -0.019  -0.305  1.00  0.00     0.109 A 
HETATM    8  N6  UNL     1      -3.688  -0.792   0.134  1.00  0.00    -0.060 NA
HETATM    9  H18 UNL     1      -1.074  -0.093   1.017  1.00  0.00     0.184 HD
ENDROOT
BRANCH   1  10
HETATM   10  C12 UNL     1       0.141  -1.154   0.426  1.00  0.00     0.082 A 
HETATM   11  C2  UNL     1       0.989  -0.056  -0.061  1.00  0.00     0.097 A 
HETATM   12  C3  UNL     1       2.426  -0.020   0.101  1.00  0.00     0.068 A 
HETATM   13  C4  UNL     1       2.878  -1.164   0.762  1.00  0.00     0.033 A 
HETATM   14  C10 UNL     1       2.151  -2.205   1.225  1.00  0.00     0.032 A 
HETATM   15  C11 UNL     1       0.783  -2.146   1.026  1.00  0.00     0.035 A 
BRANCH  11  16
HETATM   16  O1  UNL     1       0.277   0.968  -0.721  1.00  0.00    -0.354 OA
HETATM   17  C1  UNL     1       0.918   2.076  -1.238  1.00  0.00     0.210 C 
ENDBRANCH  11  16
BRANCH  13  18
HETATM   18  N1  UNL     1       4.270  -0.818   0.787  1.00  0.00    -0.377 N 
HETATM   19  C5  UNL     1       5.141  -1.678   0.011  1.00  0.00     0.153 C 
HETATM   20  C6  UNL     1       5.984  -0.687  -0.788  1.00  0.00     0.291 C 
HETATM   21  N2  UNL     1       6.895   0.020   0.071  1.00  0.00     0.087 N 
HETATM   22  C7  UNL     1       7.244   1.289  -0.559  1.00  0.00     0.310 C 
HETATM   23  C8  UNL     1       6.423   0.167   1.427  1.00  0.00     0.291 C 
HETATM   24  C9  UNL     1       4.918   0.324   1.463  1.00  0.00     0.153 C 
ENDBRANCH  13  18
ENDBRANCH   1  10
BRANCH   7  25
HETATM   25  C17 UNL     1      -6.017  -0.349  -0.050  1.00  0.00    -0.006 A 
HETATM   26  C18 UNL     1      -6.408  -1.555   0.375  1.00  0.00    -0.007 A 
HETATM   27  C19 UNL     1      -7.919  -1.663   0.604  1.00  0.00     0.087 A 
HETATM   28  C20 UNL     1      -8.301  -0.225   0.222  1.00  0.00     0.043 A 
HETATM   29  C22 UNL     1      -7.199   0.421  -0.120  1.00  0.00     0.041 A 
BRANCH  28  30
HETATM   30  N5  UNL     1      -9.663   0.139   0.319  1.00  0.00    -0.210 NA
BRANCH  30  31
HETATM   31  C21 UNL     1     -10.072   1.305  -0.076  1.00  0.00     0.337 C 
HETATM   32  O2  UNL     1     -10.846   2.075  -0.733  1.00  0.00    -0.260 OA
ENDBRANCH  30  31
ENDBRANCH  28  30
ENDBRANCH   7  25
TORSDOF 6
