REMARK  6 active torsions:
REMARK  status: ('A' for Active; 'I' for Inactive)
REMARK    1  A    between atoms: N1_6  and  C6_7 
REMARK    2  A    between atoms: C6_7  and  C7_8 
REMARK    3  A    between atoms: C7_8  and  O1_9 
REMARK    4  A    between atoms: O1_9  and  C8_10 
REMARK    5  A    between atoms: C12_15  and  N3_16 
REMARK    6  A    between atoms: N3_16  and  C13_17 
ROOT
HETATM    1  C8  UNL     1       0.467   1.390  -1.523  1.00  0.00     0.163 C 
HETATM    2  C9  UNL     1       0.245   2.180  -2.774  1.00  0.00     0.078 C 
HETATM    3  C10 UNL     1       1.675   2.537  -2.740  1.00  0.00    -0.011 C 
HETATM    4  C11 UNL     1       2.918   2.931  -2.770  1.00  0.00     0.095 C 
HETATM    5  N2  UNL     1       3.741   1.930  -2.765  1.00  0.00    -0.228 NA
HETATM    6  C12 UNL     1       3.183   0.956  -1.854  1.00  0.00     0.138 C 
HETATM    7  C19 UNL     1       1.908   1.384  -1.877  1.00  0.00     0.026 C 
ENDROOT
BRANCH   6   8
HETATM    8  N3  UNL     1       3.664  -0.147  -1.098  1.00  0.00    -0.340 N 
HETATM    9  H18 UNL     1       4.003  -0.845  -1.796  1.00  0.00     0.167 HD
BRANCH   8  10
HETATM   10  C13 UNL     1       3.689  -0.296   0.310  1.00  0.00     0.035 A 
HETATM   11  C14 UNL     1       3.197   0.730   1.071  1.00  0.00     0.032 A 
HETATM   12  C15 UNL     1       3.254   0.517   2.446  1.00  0.00     0.046 A 
HETATM   13  C16 UNL     1       3.780  -0.665   2.972  1.00  0.00     0.138 A 
HETATM   14  F1  UNL     1       3.844  -0.891   4.318  1.00  0.00    -0.204 F 
HETATM   15  C17 UNL     1       4.266  -1.671   2.149  1.00  0.00     0.074 A 
HETATM   16 CL1  UNL     1       4.925  -3.150   2.778  1.00  0.00    -0.081 Cl
HETATM   17  C18 UNL     1       4.217  -1.477   0.767  1.00  0.00     0.056 A 
ENDBRANCH   8  10
ENDBRANCH   6   8
BRANCH   1  18
HETATM   18  O1  UNL     1       0.121   1.942  -0.340  1.00  0.00    -0.379 OA
BRANCH  18  19
HETATM   19  C7  UNL     1      -0.701   1.253   0.500  1.00  0.00     0.199 C 
BRANCH  19  20
HETATM   20  C6  UNL     1      -2.062   0.953  -0.088  1.00  0.00     0.299 C 
BRANCH  20  21
HETATM   21  N1  UNL     1      -2.942   0.233   0.788  1.00  0.00     0.094 N 
HETATM   22  C2  UNL     1      -2.520  -1.148   0.932  1.00  0.00     0.219 C 
HETATM   23  C1  UNL     1      -3.477  -1.920   1.812  1.00  0.00     0.043 C 
HETATM   24  C3  UNL     1      -2.672  -1.739  -0.471  1.00  0.00     0.037 C 
HETATM   25  C4  UNL     1      -3.870  -0.998  -0.962  1.00  0.00     0.032 C 
HETATM   26  C5  UNL     1      -4.234   0.014   0.112  1.00  0.00     0.273 C 
ENDBRANCH  20  21
ENDBRANCH  19  20
ENDBRANCH  18  19
ENDBRANCH   1  18
TORSDOF 6
