REMARK  2 active torsions:
REMARK  status: ('A' for Active; 'I' for Inactive)
REMARK    1  A    between atoms: N1_5  and  C5_6 
REMARK    2  A    between atoms: C11_15  and  C12_16 
ROOT
HETATM    1  C5  UNL     1       2.064   0.786   0.226  1.00  0.00     0.141 A 
HETATM    2  N2  UNL     1       2.141   1.682   1.220  1.00  0.00    -0.224 NA
HETATM    3  C6  UNL     1       1.010   2.205   1.695  1.00  0.00     0.235 A 
HETATM    4  N3  UNL     1      -0.216   1.892   1.239  1.00  0.00    -0.245 NA
HETATM    5  C7  UNL     1      -0.385   0.985   0.225  1.00  0.00     0.056 A 
HETATM    6  C8  UNL     1       0.794   0.450  -0.259  1.00  0.00     0.037 A 
HETATM    7  C9  UNL     1       0.778  -0.527  -1.346  1.00  0.00     0.041 C 
HETATM    8  C10 UNL     1      -0.180  -1.318  -1.808  1.00  0.00     0.136 C 
HETATM    9  O1  UNL     1      -1.427  -1.273  -1.208  1.00  0.00    -0.355 OA
HETATM   10  C11 UNL     1      -2.329  -0.231  -0.864  1.00  0.00     0.170 C 
HETATM   11  C17 UNL     1      -1.821   0.863  -0.043  1.00  0.00     0.066 C 
HETATM   12  C18 UNL     1      -2.222   2.231  -0.628  1.00  0.00     0.019 C 
ENDROOT
BRANCH   1  13
HETATM   13  N1  UNL     1       3.212   0.142  -0.368  1.00  0.00    -0.331 N 
HETATM   14  C4  UNL     1       3.635  -1.247  -0.442  1.00  0.00     0.155 C 
HETATM   15  C3  UNL     1       4.859  -1.470   0.398  1.00  0.00    -0.005 C 
HETATM   16  C2  UNL     1       5.647  -0.422   0.337  1.00  0.00    -0.082 C 
HETATM   17  C1  UNL     1       6.928  -0.462   1.120  1.00  0.00     0.043 C 
HETATM   18  C20 UNL     1       5.521   0.869  -0.389  1.00  0.00     0.092 C 
HETATM   19  C19 UNL     1       4.165   1.036  -1.037  1.00  0.00     0.277 C 
HETATM   20  F1  UNL     1       3.795   2.346  -0.952  1.00  0.00    -0.226 F 
ENDBRANCH   1  13
BRANCH  10  21
HETATM   21  C12 UNL     1      -3.573  -0.925  -0.431  1.00  0.00     0.254 C 
HETATM   22  N4  UNL     1      -3.493  -1.809   0.681  1.00  0.00     0.091 N 
HETATM   23  C13 UNL     1      -4.850  -2.323   0.771  1.00  0.00     0.270 C 
HETATM   24  H12 UNL     1      -3.256  -1.425   1.594  1.00  0.00     0.316 HD
HETATM   25  C14 UNL     1      -5.765  -1.277   0.118  1.00  0.00     0.036 C 
HETATM   26  C15 UNL     1      -4.769  -0.106  -0.123  1.00  0.00     0.019 C 
HETATM   27  C16 UNL     1      -4.798   0.685   1.125  1.00  0.00     0.012 C 
ENDBRANCH  10  21
TORSDOF 2
