REMARK  10 active torsions:
REMARK  status: ('A' for Active; 'I' for Inactive)
REMARK    1  A    between atoms: O1_2  and  C2_3 
REMARK    2  A    between atoms: C2_3  and  C3_4 
REMARK    3  A    between atoms: C3_4  and  O2_5 
REMARK    4  A    between atoms: C3_4  and  C11_14 
REMARK    5  A    between atoms: O2_5  and  C4_6 
REMARK    6  A    between atoms: C4_6  and  C5_7 
REMARK    7  A    between atoms: C5_7  and  C6_8 
REMARK    8  A    between atoms: C6_8  and  N1_9 
REMARK    9  A    between atoms: C15_20  and  N4_21 
REMARK   10  A    between atoms: N4_21  and  C16_22 
ROOT
HETATM    1  C11 UNL     1       2.005  -1.390  -0.708  1.00  0.00     0.043 A 
HETATM    2  C12 UNL     1       2.401  -2.596  -1.300  1.00  0.00     0.044 A 
HETATM    3  C13 UNL     1       1.472  -3.699  -1.541  1.00  0.00     0.071 C 
HETATM    4  N2  UNL     1       3.668  -2.823  -1.692  1.00  0.00    -0.246 NA
HETATM    5  C14 UNL     1       4.619  -1.910  -1.538  1.00  0.00     0.235 A 
HETATM    6  N3  UNL     1       4.274  -0.765  -0.983  1.00  0.00    -0.224 NA
HETATM    7  C15 UNL     1       3.041  -0.457  -0.566  1.00  0.00     0.140 A 
ENDROOT
BRANCH   1   8
HETATM    8  C3  UNL     1       0.611  -1.182  -0.293  1.00  0.00     0.184 C 
BRANCH   8   9
HETATM    9  C2  UNL     1       0.355  -1.629   1.133  1.00  0.00     0.203 C 
BRANCH   9  10
HETATM   10  O1  UNL     1       1.164  -0.987   2.060  1.00  0.00    -0.393 OA
HETATM   11  C1  UNL     1       0.820  -1.494   3.313  1.00  0.00     0.201 C 
ENDBRANCH   9  10
ENDBRANCH   8   9
BRANCH   8  12
HETATM   12  O2  UNL     1      -0.201  -1.839  -1.197  1.00  0.00    -0.379 OA
BRANCH  12  13
HETATM   13  C4  UNL     1      -1.141  -1.088  -1.840  1.00  0.00     0.170 C 
BRANCH  13  14
HETATM   14  C5  UNL     1      -2.111  -0.511  -0.869  1.00  0.00     0.056 C 
BRANCH  14  15
HETATM   15  C6  UNL     1      -3.182   0.336  -1.568  1.00  0.00     0.274 C 
BRANCH  15  16
HETATM   16  N1  UNL     1      -4.052   0.830  -0.516  1.00  0.00     0.088 N 
HETATM   17  C7  UNL     1      -5.115   1.658  -1.041  1.00  0.00     0.272 C 
HETATM   18  C8  UNL     1      -6.384   1.316  -0.337  1.00  0.00     0.032 C 
HETATM   19  C9  UNL     1      -6.028   0.267   0.661  1.00  0.00     0.032 C 
HETATM   20  C10 UNL     1      -4.671  -0.234   0.224  1.00  0.00     0.272 C 
ENDBRANCH  15  16
ENDBRANCH  14  15
ENDBRANCH  13  14
ENDBRANCH  12  13
ENDBRANCH   8  12
ENDBRANCH   1   8
BRANCH   7  21
HETATM   21  N4  UNL     1       2.751   0.803   0.017  1.00  0.00    -0.340 N 
HETATM   22  H25 UNL     1       1.771   1.003   0.315  1.00  0.00     0.167 HD
BRANCH  21  23
HETATM   23  C16 UNL     1       3.577   1.924   0.295  1.00  0.00     0.035 A 
HETATM   24  C17 UNL     1       3.111   3.107   0.884  1.00  0.00     0.032 A 
HETATM   25  C18 UNL     1       3.943   4.167   1.136  1.00  0.00     0.046 A 
HETATM   26  C19 UNL     1       5.280   4.117   0.820  1.00  0.00     0.138 A 
HETATM   27  F1  UNL     1       5.973   5.216   1.118  1.00  0.00    -0.204 F 
HETATM   28  C20 UNL     1       5.771   2.975   0.242  1.00  0.00     0.074 A 
HETATM   29 CL1  UNL     1       7.483   3.001  -0.126  1.00  0.00    -0.081 Cl
HETATM   30  C21 UNL     1       4.920   1.926  -0.001  1.00  0.00     0.056 A 
ENDBRANCH  21  23
ENDBRANCH   7  21
TORSDOF 10
