REMARK  4 active torsions:
REMARK  status: ('A' for Active; 'I' for Inactive)
REMARK    1  A    between atoms: C1_2  and  C2_3 
REMARK    2  A    between atoms: C3_4  and  C4_5 
REMARK    3  A    between atoms: C4_5  and  C5_6 
REMARK    4  A    between atoms: C5_6  and  C6_7 
ROOT
HETATM    1  C6  UNL     1       2.680  -1.416   0.077  1.00  0.00     0.040 C 
HETATM    2  C7  UNL     1       1.605  -2.233   0.517  1.00  0.00     0.059 C 
HETATM    3  O1  UNL     1       0.491  -1.663   0.055  1.00  0.00     0.000 OA
HETATM    4  C8  UNL     1      -0.871  -1.759   0.141  1.00  0.00     0.048 C 
HETATM    5  C9  UNL     1      -1.616  -0.498  -0.028  1.00  0.00    -0.002 C 
HETATM    6  C10 UNL     1      -2.802  -0.910   0.511  1.00  0.00     0.016 C 
HETATM    7  C11 UNL     1      -3.075  -2.246   1.048  1.00  0.00     0.059 C 
HETATM    8  C12 UNL     1      -4.592  -2.361   0.970  1.00  0.00     0.026 C 
HETATM    9  C13 UNL     1      -5.177  -0.993   0.997  1.00  0.00     0.123 C 
HETATM   10  N1  UNL     1      -4.031  -0.153   0.705  1.00  0.00    -0.383 N 
HETATM   11  C14 UNL     1      -4.342   1.258   0.670  1.00  0.00     0.125 C 
HETATM   12  C15 UNL     1      -4.534   1.875  -0.649  1.00  0.00     0.046 C 
HETATM   13  C16 UNL     1      -3.516   1.590  -1.705  1.00  0.00     0.177 C 
HETATM   14  O2  UNL     1      -2.181   1.743  -1.236  1.00  0.00    -0.351 OA
HETATM   15  C17 UNL     1      -1.307   0.880  -0.572  1.00  0.00     0.073 C 
HETATM   16  C18 UNL     1      -0.064   1.317  -0.401  1.00  0.00     0.021 C 
HETATM   17  C19 UNL     1       1.327   1.943  -0.273  1.00  0.00     0.064 A 
HETATM   18  C20 UNL     1       1.847   1.974   1.120  1.00  0.00     0.070 A 
HETATM   19  C21 UNL     1       2.140   0.788   0.244  1.00  0.00     0.022 A 
HETATM   20  N2  UNL     1       2.370  -0.153  -0.657  1.00  0.00    -0.261 NA
ENDROOT
BRANCH   1  21
HETATM   21  C5  UNL     1       4.053  -1.088  -0.006  1.00  0.00     0.027 C 
BRANCH  21  22
HETATM   22  C4  UNL     1       5.080  -0.325  -0.417  1.00  0.00     0.002 C 
BRANCH  22  23
HETATM   23  C3  UNL     1       6.345  -0.820   0.047  1.00  0.00    -0.002 C 
HETATM   24  C2  UNL     1       7.223   0.017  -0.440  1.00  0.00     0.004 C 
BRANCH  24  25
HETATM   25  C1  UNL     1       7.214   1.216  -1.264  1.00  0.00     0.249 C 
HETATM   26  F1  UNL     1       5.937   1.567  -1.633  1.00  0.00    -0.251 F 
ENDBRANCH  24  25
ENDBRANCH  22  23
ENDBRANCH  21  22
ENDBRANCH   1  21
TORSDOF 4
