REMARK  10 active torsions:
REMARK  status: ('A' for Active; 'I' for Inactive)
REMARK    1  A    between atoms: O1_1  and  C1_2 
REMARK    2  A    between atoms: C1_2  and  C2_3 
REMARK    3  A    between atoms: C2_3  and  N1_4 
REMARK    4  A    between atoms: N1_4  and  C3_5 
REMARK    5  A    between atoms: N1_4  and  C5_8 
REMARK    6  A    between atoms: C3_5  and  C4_6 
REMARK    7  A    between atoms: C5_8  and  C6_9 
REMARK    8  A    between atoms: C6_9  and  C7_10 
REMARK    9  A    between atoms: C13_18  and  C14_19 
REMARK   10  A    between atoms: C14_19  and  O2_20 
ROOT
HETATM    1  C7  UNL     1       1.053  -0.284   0.665  1.00  0.00    -0.045 C 
HETATM    2  C8  UNL     1       1.735  -1.194   1.483  1.00  0.00     0.018 C 
HETATM    3  C9  UNL     1       3.131  -1.331   1.036  1.00  0.00    -0.016 C 
HETATM    4  C10 UNL     1       4.340  -1.048   1.502  1.00  0.00     0.118 C 
HETATM    5  F1  UNL     1       4.182  -1.565   2.793  1.00  0.00    -0.208 F 
HETATM    6  C11 UNL     1       5.282  -0.309   0.520  1.00  0.00     0.190 C 
HETATM    7  N2  UNL     1       4.351   0.528  -0.335  1.00  0.00    -0.386 N 
HETATM    8  C12 UNL     1       3.092  -0.073  -0.505  1.00  0.00     0.018 C 
HETATM    9  C13 UNL     1       1.861   0.342  -0.450  1.00  0.00    -0.006 C 
HETATM   10  C15 UNL     1       3.223  -1.648  -0.501  1.00  0.00     0.099 C 
HETATM   11  H17 UNL     1       4.218   1.442  -0.881  1.00  0.00     0.159 HD
ENDROOT
BRANCH   1  12
HETATM   12  C6  UNL     1      -0.304   0.099   0.981  1.00  0.00     0.069 C 
BRANCH  12  13
HETATM   13  C5  UNL     1      -1.283  -0.341  -0.076  1.00  0.00     0.277 C 
BRANCH  13  14
HETATM   14  N1  UNL     1      -2.653   0.065   0.284  1.00  0.00     0.091 N 
BRANCH  14  15
HETATM   15  C2  UNL     1      -3.548  -0.600  -0.637  1.00  0.00     0.298 C 
BRANCH  15  16
HETATM   16  C1  UNL     1      -3.835  -2.034  -0.181  1.00  0.00     0.194 C 
BRANCH  16  17
HETATM   17  O1  UNL     1      -4.432  -1.898   1.094  1.00  0.00    -0.399 OA
HETATM   18  H1  UNL     1      -5.288  -1.375   1.030  1.00  0.00     0.209 HD
ENDBRANCH  16  17
ENDBRANCH  15  16
ENDBRANCH  14  15
BRANCH  14  19
HETATM   19  C3  UNL     1      -2.782   1.503  -0.031  1.00  0.00     0.283 C 
BRANCH  19  20
HETATM   20  C4  UNL     1      -4.101   1.985   0.473  1.00  0.00     0.115 C 
HETATM   21 BR1  UNL     1      -4.294   3.892   0.093  1.00  0.00    -0.095 Br
ENDBRANCH  19  20
ENDBRANCH  14  19
ENDBRANCH  13  14
ENDBRANCH  12  13
ENDBRANCH   1  12
BRANCH   9  22
HETATM   22  C14 UNL     1       1.499   1.434  -1.302  1.00  0.00     0.205 C 
BRANCH  22  23
HETATM   23  O2  UNL     1       2.546   1.903  -2.077  1.00  0.00    -0.396 OA
HETATM   24  H20 UNL     1       2.460   2.867  -2.268  1.00  0.00     0.209 HD
ENDBRANCH  22  23
ENDBRANCH   9  22
TORSDOF 10
