REMARK  12 active torsions:
REMARK  status: ('A' for Active; 'I' for Inactive)
REMARK    1  A    between atoms: O1_2  and  C2_3 
REMARK    2  A    between atoms: C6_9  and  N3_10 
REMARK    3  A    between atoms: N3_10  and  C7_11 
REMARK    4  A    between atoms: C7_11  and  C8_12 
REMARK    5  A    between atoms: C9_13  and  C10_15 
REMARK    6  A    between atoms: C10_15  and  C11_16 
REMARK    7  A    between atoms: C14_20  and  O2_21 
REMARK    8  A    between atoms: O2_21  and  C15_22 
REMARK    9  A    between atoms: C15_22  and  C16_23 
REMARK   10  A    between atoms: C16_23  and  O3_24 
REMARK   11  A    between atoms: C16_23  and  C17_25 
REMARK   12  A    between atoms: C17_25  and  N4_26 
ROOT
HETATM    1  C2  UNL     1      -0.914  -2.336   1.275  1.00  0.00     0.103 A 
HETATM    2  C3  UNL     1      -0.106  -3.468   1.109  1.00  0.00     0.072 A 
HETATM    3  C4  UNL     1       1.169  -3.299   0.612  1.00  0.00     0.075 A 
HETATM    4  N1  UNL     1       1.994  -4.353   0.431  1.00  0.00    -0.241 NA
HETATM    5  C5  UNL     1       3.249  -4.173  -0.059  1.00  0.00     0.235 A 
HETATM    6  N2  UNL     1       3.669  -2.934  -0.365  1.00  0.00    -0.224 NA
HETATM    7  C6  UNL     1       2.926  -1.833  -0.221  1.00  0.00     0.137 A 
HETATM    8  C12 UNL     1       1.665  -2.060   0.277  1.00  0.00     0.041 A 
HETATM    9  C13 UNL     1       0.807  -1.022   0.473  1.00  0.00     0.057 A 
HETATM   10  C14 UNL     1      -0.479  -1.036   0.955  1.00  0.00     0.103 A 
ENDROOT
BRANCH  10  11
HETATM   11  O2  UNL     1      -1.449  -0.184   1.211  1.00  0.00    -0.346 OA
BRANCH  11  12
HETATM   12  C15 UNL     1      -1.740   1.120   1.128  1.00  0.00     0.209 C 
BRANCH  12  13
HETATM   13  C16 UNL     1      -1.797   1.643  -0.284  1.00  0.00     0.160 C 
BRANCH  13  14
HETATM   14  O3  UNL     1      -0.581   1.462  -0.897  1.00  0.00    -0.392 OA
HETATM   15  H18 UNL     1      -0.597   0.844  -1.664  1.00  0.00     0.210 HD
ENDBRANCH  13  14
BRANCH  13  16
HETATM   16  C17 UNL     1      -2.903   0.911  -1.014  1.00  0.00     0.150 C 
BRANCH  16  17
HETATM   17  N4  UNL     1      -4.179   1.056  -0.458  1.00  0.00    -0.406 N 
HETATM   18  C18 UNL     1      -4.816   2.319  -0.500  1.00  0.00     0.143 C 
HETATM   19  C19 UNL     1      -6.317   2.050  -0.404  1.00  0.00     0.187 C 
HETATM   20  O4  UNL     1      -6.644   1.443   0.787  1.00  0.00    -0.388 OA
HETATM   21  C20 UNL     1      -5.660   0.684   1.365  1.00  0.00     0.187 C 
HETATM   22  C21 UNL     1      -4.748   0.039   0.322  1.00  0.00     0.143 C 
ENDBRANCH  16  17
ENDBRANCH  13  16
ENDBRANCH  12  13
ENDBRANCH  11  12
ENDBRANCH  10  11
BRANCH   1  23
HETATM   23  O1  UNL     1      -2.163  -2.648   1.780  1.00  0.00    -0.353 OA
HETATM   24  C1  UNL     1      -2.540  -3.969   2.078  1.00  0.00     0.210 C 
ENDBRANCH   1  23
BRANCH   7  25
HETATM   25  N3  UNL     1       3.434  -0.554  -0.568  1.00  0.00    -0.370 N 
HETATM   26  H6  UNL     1       2.964   0.359  -0.506  1.00  0.00     0.161 HD
BRANCH  25  27
HETATM   27  C7  UNL     1       4.782  -0.468  -1.079  1.00  0.00     0.150 C 
BRANCH  27  28
HETATM   28  C8  UNL     1       5.217   0.894  -1.425  1.00  0.00     0.012 C 
HETATM   29  C9  UNL     1       6.270   1.417  -0.806  1.00  0.00     0.012 C 
HETATM   30 CL1  UNL     1       7.033   0.381   0.385  1.00  0.00    -0.089 Cl
BRANCH  29  31
HETATM   31  C10 UNL     1       6.823   2.776  -1.051  1.00  0.00     0.082 C 
BRANCH  31  32
HETATM   32  C11 UNL     1       6.074   3.544  -2.089  1.00  0.00     0.227 C 
HETATM   33  F1  UNL     1       6.645   4.806  -2.271  1.00  0.00    -0.255 F 
ENDBRANCH  31  32
ENDBRANCH  29  31
ENDBRANCH  27  28
ENDBRANCH  25  27
ENDBRANCH   7  25
TORSDOF 12
