REMARK  4 active torsions:
REMARK  status: ('A' for Active; 'I' for Inactive)
REMARK    1  A    between atoms: C7_9  and  N1_10 
REMARK    2  A    between atoms: N1_10  and  C8_11 
REMARK    3  A    between atoms: C13_21  and  C14_22 
REMARK    4  A    between atoms: C14_22  and  N4_23 
ROOT
HETATM    1  C8  UNL     1       1.432   0.363  -0.404  1.00  0.00     0.353 C 
HETATM    2  N2  UNL     1       2.181   1.619  -0.393  1.00  0.00    -0.232 NA
HETATM    3  C9  UNL     1       1.725   2.778  -0.194  1.00  0.00     0.230 C 
HETATM    4  N3  UNL     1       1.097   4.019   0.042  1.00  0.00    -0.256 NA
HETATM    5  C10 UNL     1      -0.043   4.230   0.547  1.00  0.00     0.055 A 
HETATM    6  B1  UNL     1      -0.940   5.469   0.900  1.00  0.00     0.415 B 
HETATM    7  O1  UNL     1      -1.996   4.520   0.451  1.00  0.00    -0.421 OA
HETATM    8  C11 UNL     1      -1.312   3.587   1.152  1.00  0.00     0.234 A 
HETATM    9  O2  UNL     1      -1.286   2.270   0.876  1.00  0.00    -0.365 OA
HETATM   10  C12 UNL     1      -1.378   1.879  -0.435  1.00  0.00     0.204 C 
HETATM   11  C13 UNL     1      -0.921   0.376  -0.350  1.00  0.00     0.167 C 
HETATM   12  O4  UNL     1       0.323   0.559   0.340  1.00  0.00    -0.339 OA
HETATM   13  H9  UNL     1      -0.837   6.236   1.798  1.00  0.00     0.027 HD
ENDROOT
BRANCH   1  14
HETATM   14  N1  UNL     1       2.227  -0.700   0.190  1.00  0.00    -0.345 N 
HETATM   15  H6  UNL     1       1.868  -1.206   1.055  1.00  0.00     0.164 HD
BRANCH  14  16
HETATM   16  C7  UNL     1       3.485  -1.209  -0.218  1.00  0.00     0.039 A 
HETATM   17  C2  UNL     1       4.199  -2.238   0.406  1.00  0.00    -0.033 A 
HETATM   18  C1  UNL     1       3.578  -2.838   1.599  1.00  0.00     0.050 C 
HETATM   19  C3  UNL     1       5.411  -2.595  -0.144  1.00  0.00     0.053 A 
HETATM   20  C4  UNL     1       5.935  -1.985  -1.266  1.00  0.00     0.138 A 
HETATM   21  F1  UNL     1       7.133  -2.516  -1.603  1.00  0.00    -0.204 F 
HETATM   22  C5  UNL     1       5.218  -0.971  -1.869  1.00  0.00     0.074 A 
HETATM   23 CL1  UNL     1       5.994  -0.283  -3.280  1.00  0.00    -0.081 Cl
HETATM   24  C6  UNL     1       3.997  -0.588  -1.344  1.00  0.00     0.056 A 
ENDBRANCH  14  16
ENDBRANCH   1  14
BRANCH  11  25
HETATM   25  C14 UNL     1      -1.817  -0.384   0.534  1.00  0.00     0.151 C 
BRANCH  25  26
HETATM   26  N4  UNL     1      -3.059  -0.740   0.043  1.00  0.00    -0.406 N 
HETATM   27  C15 UNL     1      -4.117   0.129  -0.191  1.00  0.00     0.143 C 
HETATM   28  C16 UNL     1      -5.432  -0.628   0.018  1.00  0.00     0.187 C 
HETATM   29  O3  UNL     1      -5.203  -1.818   0.705  1.00  0.00    -0.388 OA
HETATM   30  C17 UNL     1      -4.437  -2.703  -0.048  1.00  0.00     0.187 C 
HETATM   31  C18 UNL     1      -3.171  -2.045  -0.547  1.00  0.00     0.143 C 
ENDBRANCH  25  26
ENDBRANCH  11  25
TORSDOF 4
