REMARK  8 active torsions:
REMARK  status: ('A' for Active; 'I' for Inactive)
REMARK    1  A    between atoms: O1_1  and  C1_2 
REMARK    2  A    between atoms: C1_2  and  C2_3 
REMARK    3  A    between atoms: C2_3  and  C3_4 
REMARK    4  A    between atoms: C5_8  and  C6_9 
REMARK    5  A    between atoms: C6_9  and  N3_10 
REMARK    6  A    between atoms: N3_10  and  C7_11 
REMARK    7  A    between atoms: C16_23  and  O3_24 
REMARK    8  A    between atoms: C17_25  and  N4_26 
ROOT
HETATM    1  C3  UNL     1      -1.911  -0.901  -1.302  1.00  0.00     0.062 C 
HETATM    2  N1  UNL     1      -0.738  -1.421  -1.325  1.00  0.00    -0.244 NA
HETATM    3  C4  UNL     1       0.418  -0.878  -1.942  1.00  0.00     0.233 C 
HETATM    4  N2  UNL     1       0.553  -0.523  -0.733  1.00  0.00    -0.245 NA
HETATM    5  C5  UNL     1       1.642   0.226  -0.279  1.00  0.00     0.051 C 
HETATM    6  C13 UNL     1       1.461   1.528  -0.336  1.00  0.00     0.028 C 
HETATM    7  C14 UNL     1       0.297   2.300  -0.807  1.00  0.00     0.197 C 
HETATM    8  O2  UNL     1      -0.700   1.472  -1.246  1.00  0.00    -0.385 OA
HETATM    9  C15 UNL     1      -1.846   2.080  -1.681  1.00  0.00     0.202 C 
HETATM   10  C16 UNL     1      -2.853   1.135  -2.241  1.00  0.00     0.170 C 
HETATM   11  C17 UNL     1      -3.170  -0.076  -1.427  1.00  0.00     0.162 C 
ENDROOT
BRANCH   5  12
HETATM   12  C6  UNL     1       2.782  -0.550   0.177  1.00  0.00     0.178 C 
BRANCH  12  13
HETATM   13  N3  UNL     1       3.881   0.266   0.637  1.00  0.00    -0.384 N 
HETATM   14  H7  UNL     1       4.012   1.316   0.705  1.00  0.00     0.160 HD
BRANCH  13  15
HETATM   15  C7  UNL     1       5.037  -0.462   1.101  1.00  0.00     0.030 A 
HETATM   16  C8  UNL     1       6.185   0.135   1.580  1.00  0.00     0.032 A 
HETATM   17  C9  UNL     1       7.286  -0.547   2.021  1.00  0.00     0.046 A 
HETATM   18  C10 UNL     1       7.275  -1.911   1.998  1.00  0.00     0.138 A 
HETATM   19  F1  UNL     1       8.338  -2.645   2.423  1.00  0.00    -0.204 F 
HETATM   20  C11 UNL     1       6.172  -2.587   1.537  1.00  0.00     0.074 A 
HETATM   21 CL1  UNL     1       6.143  -4.333   1.500  1.00  0.00    -0.081 Cl
HETATM   22  C12 UNL     1       5.099  -1.846   1.107  1.00  0.00     0.056 A 
ENDBRANCH  13  15
ENDBRANCH  12  13
ENDBRANCH   5  12
BRANCH   1  23
HETATM   23  C2  UNL     1      -2.221  -2.127  -0.528  1.00  0.00     0.053 C 
BRANCH  23  24
HETATM   24  C1  UNL     1      -1.265  -3.011  -0.288  1.00  0.00     0.133 C 
BRANCH  24  25
HETATM   25  O1  UNL     1      -0.059  -3.692  -0.230  1.00  0.00    -0.373 OA
HETATM   26  H1  UNL     1       0.852  -3.286  -0.415  1.00  0.00     0.216 HD
ENDBRANCH  24  25
ENDBRANCH  23  24
ENDBRANCH   1  23
BRANCH  11  27
HETATM   27  N4  UNL     1      -3.838   0.106  -0.220  1.00  0.00    -0.396 N 
HETATM   28  C18 UNL     1      -5.098   0.694  -0.197  1.00  0.00     0.144 C 
HETATM   29  C19 UNL     1      -5.068   2.019   0.529  1.00  0.00     0.187 C 
HETATM   30  O4  UNL     1      -4.546   1.798   1.796  1.00  0.00    -0.388 OA
HETATM   31  C20 UNL     1      -3.250   1.355   1.728  1.00  0.00     0.187 C 
HETATM   32  C21 UNL     1      -3.118   0.024   0.992  1.00  0.00     0.144 C 
ENDBRANCH  11  27
BRANCH  10  33
HETATM   33  O3  UNL     1      -4.007   1.810  -2.610  1.00  0.00    -0.391 OA
HETATM   34  H17 UNL     1      -4.423   1.355  -3.384  1.00  0.00     0.210 HD
ENDBRANCH  10  33
TORSDOF 8
