REMARK  11 active torsions:
REMARK  status: ('A' for Active; 'I' for Inactive)
REMARK    1  A    between atoms: O1_2  and  C2_3 
REMARK    2  A    between atoms: C2_3  and  C3_4 
REMARK    3  A    between atoms: C3_4  and  O2_22 
REMARK    4  A    between atoms: C4_5  and  C5_6 
REMARK    5  A    between atoms: C9_12  and  N3_13 
REMARK    6  A    between atoms: N3_13  and  C10_14 
REMARK    7  A    between atoms: O2_22  and  C16_23 
REMARK    8  A    between atoms: C16_23  and  C17_24 
REMARK    9  A    between atoms: C17_24  and  O3_25 
REMARK   10  A    between atoms: C17_24  and  C18_26 
REMARK   11  A    between atoms: C18_26  and  N4_27 
ROOT
HETATM    1  C5  UNL     1      -2.449  -1.294   0.613  1.00  0.00     0.037 A 
HETATM    2  C6  UNL     1      -1.957  -2.255   1.472  1.00  0.00     0.046 A 
HETATM    3  C7  UNL     1      -0.961  -1.944   2.525  1.00  0.00     0.071 C 
HETATM    4  N1  UNL     1      -2.396  -3.547   1.386  1.00  0.00    -0.246 NA
HETATM    5  C8  UNL     1      -3.309  -3.850   0.452  1.00  0.00     0.235 A 
HETATM    6  N2  UNL     1      -3.809  -2.932  -0.403  1.00  0.00    -0.224 NA
HETATM    7  C9  UNL     1      -3.396  -1.651  -0.343  1.00  0.00     0.141 A 
ENDROOT
BRANCH   1   8
HETATM    8  C4  UNL     1      -1.994   0.071   0.658  1.00  0.00     0.051 C 
HETATM    9  C3  UNL     1      -0.798   0.648   0.761  1.00  0.00     0.071 C 
BRANCH   9  10
HETATM   10  C2  UNL     1      -0.604   2.140   0.788  1.00  0.00     0.231 C 
BRANCH  10  11
HETATM   11  O1  UNL     1       0.181   2.605  -0.240  1.00  0.00    -0.390 OA
HETATM   12  C1  UNL     1       0.252   4.006  -0.064  1.00  0.00     0.201 C 
ENDBRANCH  10  11
ENDBRANCH   9  10
BRANCH   9  13
HETATM   13  O2  UNL     1       0.518   0.210   0.863  1.00  0.00    -0.351 OA
BRANCH  13  14
HETATM   14  C16 UNL     1       1.083  -0.718  -0.025  1.00  0.00     0.208 C 
BRANCH  14  15
HETATM   15  C17 UNL     1       2.553  -0.988   0.206  1.00  0.00     0.170 C 
BRANCH  15  16
HETATM   16  O3  UNL     1       2.824  -1.482   1.482  1.00  0.00    -0.392 OA
HETATM   17  H18 UNL     1       2.650  -0.800   2.162  1.00  0.00     0.210 HD
ENDBRANCH  15  16
BRANCH  15  18
HETATM   18  C18 UNL     1       3.436   0.181  -0.128  1.00  0.00     0.306 C 
BRANCH  18  19
HETATM   19  N4  UNL     1       4.806  -0.203  -0.088  1.00  0.00     0.095 N 
HETATM   20  C19 UNL     1       5.266  -1.083  -1.102  1.00  0.00     0.298 C 
HETATM   21  C20 UNL     1       6.688  -1.514  -0.772  1.00  0.00     0.198 C 
HETATM   22  O4  UNL     1       7.554  -0.475  -0.556  1.00  0.00    -0.388 OA
HETATM   23  C21 UNL     1       6.976   0.775  -0.698  1.00  0.00     0.198 C 
HETATM   24  C22 UNL     1       5.705   0.926   0.073  1.00  0.00     0.298 C 
ENDBRANCH  18  19
ENDBRANCH  15  18
ENDBRANCH  14  15
ENDBRANCH  13  14
ENDBRANCH   9  13
ENDBRANCH   1   8
BRANCH   7  25
HETATM   25  N3  UNL     1      -3.968  -0.752  -1.281  1.00  0.00    -0.340 N 
HETATM   26  H11 UNL     1      -3.493  -0.670  -2.206  1.00  0.00     0.167 HD
BRANCH  25  27
HETATM   27  C10 UNL     1      -5.133   0.002  -0.977  1.00  0.00     0.035 A 
HETATM   28  C11 UNL     1      -5.698  -0.067   0.278  1.00  0.00     0.032 A 
HETATM   29  C12 UNL     1      -6.831   0.668   0.556  1.00  0.00     0.046 A 
HETATM   30  C13 UNL     1      -7.392   1.475  -0.442  1.00  0.00     0.138 A 
HETATM   31  F1  UNL     1      -8.521   2.199  -0.145  1.00  0.00    -0.204 F 
HETATM   32  C14 UNL     1      -6.832   1.540  -1.678  1.00  0.00     0.074 A 
HETATM   33 CL1  UNL     1      -7.582   2.569  -2.903  1.00  0.00    -0.081 Cl
HETATM   34  C15 UNL     1      -5.689   0.800  -1.962  1.00  0.00     0.056 A 
ENDBRANCH  25  27
ENDBRANCH   7  25
TORSDOF 11
