REMARK  5 active torsions:
REMARK  status: ('A' for Active; 'I' for Inactive)
REMARK    1  A    between atoms: B1_1  and  C1_2 
REMARK    2  A    between atoms: C2_4  and  C3_5 
REMARK    3  A    between atoms: C4_6  and  N1_7 
REMARK    4  A    between atoms: N1_7  and  C5_8 
REMARK    5  A    between atoms: C9_14  and  O1_15 
ROOT
HETATM    1  C5  UNL     1       0.163  -0.169  -0.603  1.00  0.00     0.141 A 
HETATM    2  N2  UNL     1       0.729   1.017  -0.887  1.00  0.00    -0.224 NA
HETATM    3  C6  UNL     1      -0.044   2.142  -0.918  1.00  0.00     0.236 A 
HETATM    4  N3  UNL     1      -1.364   2.051  -0.664  1.00  0.00    -0.241 NA
HETATM    5  C7  UNL     1      -1.930   0.860  -0.380  1.00  0.00     0.075 A 
HETATM    6  C8  UNL     1      -3.286   0.817  -0.127  1.00  0.00     0.071 A 
HETATM    7  C9  UNL     1      -3.841  -0.412   0.161  1.00  0.00     0.092 A 
HETATM    8  C11 UNL     1      -3.097  -1.585   0.205  1.00  0.00     0.068 A 
HETATM    9 CL1  UNL     1      -3.831  -3.146   0.576  1.00  0.00    -0.081 Cl
HETATM   10  C12 UNL     1      -1.736  -1.534  -0.050  1.00  0.00     0.044 A 
HETATM   11  C13 UNL     1      -1.184  -0.304  -0.338  1.00  0.00     0.040 A 
ENDROOT
BRANCH   1  12
HETATM   12  N1  UNL     1       1.039  -1.266  -0.595  1.00  0.00    -0.350 N 
HETATM   13  H6  UNL     1       0.896  -2.280  -0.414  1.00  0.00     0.166 HD
BRANCH  12  14
HETATM   14  C4  UNL     1       2.412  -1.105  -0.868  1.00  0.00     0.090 C 
HETATM   15  C3  UNL     1       3.116  -0.496   0.072  1.00  0.00     0.019 C 
BRANCH  15  16
HETATM   16  C2  UNL     1       4.565  -0.213   0.016  1.00  0.00     0.025 C 
HETATM   17  C1  UNL     1       5.325   0.392   0.923  1.00  0.00     0.036 C 
HETATM   18  F1  UNL     1       4.587   0.759   2.001  1.00  0.00    -0.226 F 
BRANCH  17  19
HETATM   19  B1  UNL     1       6.846   0.590   0.661  1.00  0.00     0.212 B 
HETATM   20  H1  UNL     1       7.582  -0.341   0.749  1.00  0.00    -0.024 HD
HETATM   21  H2  UNL     1       7.303   1.679   0.685  1.00  0.00    -0.024 HD
ENDBRANCH  17  19
ENDBRANCH  15  16
ENDBRANCH  12  14
ENDBRANCH   1  12
BRANCH   7  22
HETATM   22  O1  UNL     1      -5.202  -0.581   0.434  1.00  0.00    -0.354 OA
HETATM   23  C10 UNL     1      -6.111   0.494   0.435  1.00  0.00     0.210 C 
ENDBRANCH   7  22
TORSDOF 5
