REMARK  9 active torsions:
REMARK  status: ('A' for Active; 'I' for Inactive)
REMARK    1  A    between atoms: C2_2  and  C3_3 
REMARK    2  A    between atoms: C2_2  and  O2_20 
REMARK    3  A    between atoms: C3_3  and  O1_4 
REMARK    4  A    between atoms: O1_4  and  C4_5 
REMARK    5  A    between atoms: C4_5  and  C5_6 
REMARK    6  A    between atoms: C7_8  and  C8_9 
REMARK    7  A    between atoms: O2_20  and  C15_21 
REMARK    8  A    between atoms: C15_21  and  C16_22 
REMARK    9  A    between atoms: C20_28  and  N5_29 
ROOT
HETATM    1  C3  UNL     1      -0.314   0.605   1.169  1.00  0.00     0.209 C 
ENDROOT
BRANCH   1   2
HETATM    2  C2  UNL     1      -0.662   1.462   0.037  1.00  0.00     0.115 C 
HETATM    3  C1  UNL     1       0.073   2.218  -0.733  1.00  0.00     0.047 C 
BRANCH   2   4
HETATM    4  O2  UNL     1      -1.984   1.564  -0.388  1.00  0.00    -0.372 OA
BRANCH   4   5
HETATM    5  C15 UNL     1      -2.597   0.360  -0.881  1.00  0.00     0.208 C 
BRANCH   5   6
HETATM    6  C16 UNL     1      -3.984   0.702  -1.398  1.00  0.00     0.307 C 
HETATM    7  N3  UNL     1      -4.816   1.242  -0.403  1.00  0.00     0.096 N 
HETATM    8  C17 UNL     1      -5.907   0.454   0.057  1.00  0.00     0.300 C 
HETATM    9  H15 UNL     1      -5.089   2.240  -0.573  1.00  0.00     0.316 HD
HETATM   10  C18 UNL     1      -6.398  -0.589  -0.867  1.00  0.00     0.304 C 
HETATM   11  N4  UNL     1      -5.335  -1.370  -1.451  1.00  0.00     0.121 N 
HETATM   12  C19 UNL     1      -4.663  -2.151  -0.471  1.00  0.00     0.312 C 
HETATM   13  C20 UNL     1      -4.518  -0.435  -2.179  1.00  0.00     0.485 C 
BRANCH  13  14
HETATM   14  N5  UNL     1      -3.497  -1.082  -2.968  1.00  0.00     0.114 N 
HETATM   15  H24 UNL     1      -3.343  -0.642  -3.899  1.00  0.00     0.315 HD
HETATM   16  H25 UNL     1      -3.684  -2.097  -3.140  1.00  0.00     0.315 HD
ENDBRANCH  13  14
ENDBRANCH   5   6
ENDBRANCH   4   5
ENDBRANCH   2   4
ENDBRANCH   1   2
BRANCH   1  17
HETATM   17  O1  UNL     1       1.002   0.564   1.510  1.00  0.00    -0.382 OA
BRANCH  17  18
HETATM   18  C4  UNL     1       1.507   1.765   1.950  1.00  0.00     0.226 C 
BRANCH  18  19
HETATM   19  C5  UNL     1       2.968   1.522   2.254  1.00  0.00     0.061 A 
HETATM   20  C6  UNL     1       3.611   0.574   1.458  1.00  0.00     0.061 A 
HETATM   21  C7  UNL     1       4.941   0.317   1.654  1.00  0.00     0.070 A 
HETATM   22  N1  UNL     1       5.597   0.988   2.614  1.00  0.00    -0.241 NA
HETATM   23  C14 UNL     1       4.974   1.912   3.392  1.00  0.00     0.234 A 
HETATM   24  N2  UNL     1       3.654   2.171   3.200  1.00  0.00    -0.244 NA
BRANCH  21  25
HETATM   25  C8  UNL     1       5.681  -0.645   0.860  1.00  0.00    -0.005 A 
HETATM   26  C9  UNL     1       5.086  -1.395  -0.168  1.00  0.00     0.017 A 
HETATM   27  C10 UNL     1       5.851  -2.289  -0.877  1.00  0.00     0.045 A 
HETATM   28  C11 UNL     1       7.192  -2.541  -0.683  1.00  0.00     0.138 A 
HETATM   29  F1  UNL     1       7.910  -3.430  -1.403  1.00  0.00    -0.204 F 
HETATM   30  C12 UNL     1       7.764  -1.777   0.348  1.00  0.00     0.073 A 
HETATM   31 CL1  UNL     1       9.474  -2.066   0.625  1.00  0.00    -0.081 Cl
HETATM   32  C13 UNL     1       7.022  -0.882   1.068  1.00  0.00     0.040 A 
ENDBRANCH  21  25
ENDBRANCH  18  19
ENDBRANCH  17  18
ENDBRANCH   1  17
TORSDOF 9
