REMARK  7 active torsions:
REMARK  status: ('A' for Active; 'I' for Inactive)
REMARK    1  A    between atoms: O1_2  and  C2_3 
REMARK    2  A    between atoms: C6_9  and  N3_10 
REMARK    3  A    between atoms: N3_10  and  C7_11 
REMARK    4  A    between atoms: C15_21  and  O2_22 
REMARK    5  A    between atoms: O2_22  and  C16_23 
REMARK    6  A    between atoms: C16_23  and  C17_24 
REMARK    7  A    between atoms: C17_24  and  N4_25 
ROOT
HETATM    1  C2  UNL     1       0.120   2.300   0.649  1.00  0.00     0.103 A 
HETATM    2  C3  UNL     1       1.300   2.982   0.960  1.00  0.00     0.072 A 
HETATM    3  C4  UNL     1       2.474   2.270   0.887  1.00  0.00     0.075 A 
HETATM    4  N1  UNL     1       3.562   2.983   1.196  1.00  0.00    -0.241 NA
HETATM    5  C5  UNL     1       4.768   2.399   1.162  1.00  0.00     0.236 A 
HETATM    6  N2  UNL     1       4.805   1.113   0.812  1.00  0.00    -0.224 NA
HETATM    7  C6  UNL     1       3.797   0.330   0.491  1.00  0.00     0.142 A 
HETATM    8  C13 UNL     1       2.573   0.950   0.534  1.00  0.00     0.042 A 
HETATM    9  C14 UNL     1       1.373   0.345   0.242  1.00  0.00     0.057 A 
HETATM   10  C15 UNL     1       0.121   0.951   0.278  1.00  0.00     0.103 A 
ENDROOT
BRANCH   7  11
HETATM   11  N3  UNL     1       3.865  -1.032   0.124  1.00  0.00    -0.340 N 
HETATM   12  H6  UNL     1       3.021  -1.589  -0.106  1.00  0.00     0.167 HD
BRANCH  11  13
HETATM   13  C7  UNL     1       5.004  -1.865  -0.001  1.00  0.00     0.035 A 
HETATM   14  C8  UNL     1       4.983  -3.222  -0.309  1.00  0.00     0.032 A 
HETATM   15  C9  UNL     1       6.093  -4.007  -0.428  1.00  0.00     0.046 A 
HETATM   16  C10 UNL     1       7.343  -3.468  -0.239  1.00  0.00     0.138 A 
HETATM   17  F1  UNL     1       8.388  -4.316  -0.375  1.00  0.00    -0.204 F 
HETATM   18  C11 UNL     1       7.429  -2.134   0.067  1.00  0.00     0.074 A 
HETATM   19 CL1  UNL     1       9.041  -1.506   0.294  1.00  0.00    -0.081 Cl
HETATM   20  C12 UNL     1       6.275  -1.385   0.174  1.00  0.00     0.056 A 
ENDBRANCH  11  13
ENDBRANCH   7  11
BRANCH  10  21
HETATM   21  O2  UNL     1      -0.961   0.377   0.007  1.00  0.00    -0.347 OA
BRANCH  21  22
HETATM   22  C16 UNL     1      -2.088  -0.221  -0.276  1.00  0.00     0.206 C 
BRANCH  22  23
HETATM   23  C17 UNL     1      -3.351   0.670  -0.163  1.00  0.00     0.299 C 
BRANCH  23  24
HETATM   24  N4  UNL     1      -4.464  -0.149  -0.505  1.00  0.00     0.093 N 
HETATM   25  C18 UNL     1      -5.733   0.535  -0.450  1.00  0.00     0.302 C 
HETATM   26  C19 UNL     1      -6.606  -0.117  -1.501  1.00  0.00     0.299 C 
HETATM   27  N5  UNL     1      -6.464  -1.539  -1.334  1.00  0.00     0.086 N 
HETATM   28  C20 UNL     1      -5.977  -1.917  -0.024  1.00  0.00     0.299 C 
HETATM   29  H19 UNL     1      -7.363  -2.027  -1.522  1.00  0.00     0.315 HD
HETATM   30  C21 UNL     1      -4.531  -1.426   0.129  1.00  0.00     0.302 C 
ENDBRANCH  23  24
ENDBRANCH  22  23
ENDBRANCH  21  22
ENDBRANCH  10  21
BRANCH   1  31
HETATM   31  O1  UNL     1      -1.087   2.979   0.709  1.00  0.00    -0.353 OA
HETATM   32  C1  UNL     1      -1.215   4.323   1.065  1.00  0.00     0.210 C 
ENDBRANCH   1  31
TORSDOF 7
