REMARK  8 active torsions:
REMARK  status: ('A' for Active; 'I' for Inactive)
REMARK    1  A    between atoms: C4_5  and  O1_6 
REMARK    2  A    between atoms: C5_7  and  C6_8 
REMARK    3  A    between atoms: C6_8  and  O2_9 
REMARK    4  A    between atoms: O2_9  and  C7_10 
REMARK    5  A    between atoms: C7_10  and  C8_11 
REMARK    6  A    between atoms: C8_11  and  N2_12 
REMARK    7  A    between atoms: C17_22  and  N4_23 
REMARK    8  A    between atoms: N4_23  and  C18_24 
ROOT
HETATM    1  C1  UNL     1      -4.039  -2.756  -2.422  1.00  0.00     0.179 C 
HETATM    2  N1  UNL     1      -3.783  -2.437  -1.063  1.00  0.00    -0.278 NA
HETATM    3  C2  UNL     1      -2.753  -1.770  -0.602  1.00  0.00     0.126 C 
HETATM    4  C3  UNL     1      -1.878  -1.388  -1.708  1.00  0.00     0.087 C 
HETATM    5  C4  UNL     1      -0.772  -0.698  -1.359  1.00  0.00     0.077 C 
HETATM    6  C5  UNL     1      -0.168  -0.232  -0.103  1.00  0.00    -0.005 C 
HETATM    7  C14 UNL     1      -0.460  -0.354   1.214  1.00  0.00    -0.011 C 
HETATM    8  C15 UNL     1      -1.556  -1.073   1.828  1.00  0.00     0.058 C 
HETATM    9  C16 UNL     1      -2.780  -0.337   2.131  1.00  0.00     0.025 C 
HETATM   10  C17 UNL     1      -3.771  -0.908   1.418  1.00  0.00     0.103 C 
HETATM   11  N5  UNL     1      -3.481  -2.047   0.541  1.00  0.00    -0.328 N 
HETATM   12  H31 UNL     1      -3.988  -2.603   1.229  1.00  0.00     0.169 HD
ENDROOT
BRANCH   6  13
HETATM   13  C6  UNL     1       1.080   0.581  -0.393  1.00  0.00     0.209 C 
BRANCH  13  14
HETATM   14  O2  UNL     1       2.024  -0.146  -1.064  1.00  0.00    -0.385 OA
BRANCH  14  15
HETATM   15  C7  UNL     1       2.510  -1.262  -0.458  1.00  0.00     0.187 C 
BRANCH  15  16
HETATM   16  C8  UNL     1       3.218  -1.089   0.836  1.00  0.00     0.143 C 
BRANCH  16  17
HETATM   17  N2  UNL     1       4.374  -0.290   0.852  1.00  0.00    -0.407 N 
HETATM   18  C9  UNL     1       4.270   1.097   0.646  1.00  0.00     0.147 C 
HETATM   19  C10 UNL     1       5.663   1.699   0.720  1.00  0.00     0.291 C 
HETATM   20  N3  UNL     1       6.334   1.251  -0.486  1.00  0.00     0.087 N 
HETATM   21  C11 UNL     1       7.647   1.829  -0.536  1.00  0.00     0.310 C 
HETATM   22  C12 UNL     1       6.316  -0.167  -0.655  1.00  0.00     0.291 C 
HETATM   23  C13 UNL     1       5.587  -0.910   0.434  1.00  0.00     0.147 C 
ENDBRANCH  16  17
ENDBRANCH  15  16
ENDBRANCH  14  15
ENDBRANCH  13  14
ENDBRANCH   6  13
BRANCH   5  24
HETATM   24  O1  UNL     1      -0.082  -0.414  -2.550  1.00  0.00    -0.360 OA
HETATM   25  H5  UNL     1       0.694  -1.055  -2.763  1.00  0.00     0.217 HD
ENDBRANCH   5  24
BRANCH  10  26
HETATM   26  N4  UNL     1      -5.004  -0.241   1.664  1.00  0.00    -0.343 N 
HETATM   27  H27 UNL     1      -5.387  -0.857   2.417  1.00  0.00     0.167 HD
BRANCH  26  28
HETATM   28  C18 UNL     1      -5.715   0.896   1.189  1.00  0.00     0.035 A 
HETATM   29  C19 UNL     1      -6.944   1.180   1.754  1.00  0.00     0.032 A 
HETATM   30  C20 UNL     1      -7.540   2.301   1.218  1.00  0.00     0.046 A 
HETATM   31  C21 UNL     1      -7.040   3.113   0.223  1.00  0.00     0.138 A 
HETATM   32  F1  UNL     1      -7.760   4.185  -0.193  1.00  0.00    -0.204 F 
HETATM   33  C22 UNL     1      -5.811   2.770  -0.295  1.00  0.00     0.074 A 
HETATM   34 CL1  UNL     1      -5.139   3.774  -1.560  1.00  0.00    -0.081 Cl
HETATM   35  C23 UNL     1      -5.139   1.654   0.188  1.00  0.00     0.056 A 
ENDBRANCH  26  28
ENDBRANCH  10  26
TORSDOF 8
