REMARK  3 active torsions:
REMARK  status: ('A' for Active; 'I' for Inactive)
REMARK    1  A    between atoms: B1_2  and  C2_3 
REMARK    2  A    between atoms: C2_3  and  N1_4 
REMARK    3  A    between atoms: C19_27  and  O2_28 
ROOT
HETATM    1  N1  UNL     1       1.729   0.334  -0.394  1.00  0.00     0.084 N 
HETATM    2  C3  UNL     1       1.008   1.052   0.663  1.00  0.00     0.301 C 
HETATM    3  C4  UNL     1       0.546   2.412   0.290  1.00  0.00     0.303 C 
HETATM    4  N2  UNL     1      -0.685   2.504  -0.483  1.00  0.00     0.099 N 
HETATM    5  C5  UNL     1      -0.575   3.822  -1.175  1.00  0.00     0.311 C 
HETATM    6  C6  UNL     1      -1.809   2.744   0.457  1.00  0.00     0.292 C 
HETATM    7  C7  UNL     1      -3.112   2.806  -0.222  1.00  0.00     0.032 C 
HETATM    8  C8  UNL     1      -3.778   1.739  -0.677  1.00  0.00     0.096 C 
HETATM    9  N3  UNL     1      -3.538   0.525  -0.033  1.00  0.00    -0.316 N 
HETATM   10  C9  UNL     1      -2.577   0.946   0.975  1.00  0.00     0.120 C 
HETATM   11  C10 UNL     1      -1.829   1.832   1.597  1.00  0.00     0.064 C 
HETATM   12 CL1  UNL     1      -1.008   2.311   3.055  1.00  0.00    -0.085 Cl
HETATM   13  C11 UNL     1      -3.543  -0.839   0.344  1.00  0.00     0.147 A 
HETATM   14  N4  UNL     1      -4.203  -1.417   1.348  1.00  0.00    -0.223 NA
HETATM   15  C12 UNL     1      -3.852  -2.705   1.674  1.00  0.00     0.236 A 
HETATM   16  N5  UNL     1      -2.866  -3.362   1.001  1.00  0.00    -0.241 NA
HETATM   17  C13 UNL     1      -2.231  -2.740  -0.002  1.00  0.00     0.074 A 
HETATM   18  C14 UNL     1      -2.541  -1.414  -0.410  1.00  0.00     0.041 A 
HETATM   19  C15 UNL     1      -1.996  -0.679  -1.596  1.00  0.00     0.042 C 
HETATM   20  C16 UNL     1      -0.893  -0.773  -2.344  1.00  0.00     0.137 C 
HETATM   21  O1  UNL     1       0.289  -1.359  -1.834  1.00  0.00    -0.349 OA
HETATM   22  C17 UNL     1       0.582  -1.693  -0.439  1.00  0.00     0.212 C 
HETATM   23  C18 UNL     1       1.880  -1.114  -0.083  1.00  0.00     0.310 C 
HETATM   24  C19 UNL     1       0.241  -3.088  -0.185  1.00  0.00     0.079 C 
HETATM   25  C21 UNL     1      -1.050  -3.555  -0.487  1.00  0.00     0.067 C 
ENDROOT
BRANCH   1  26
HETATM   26  C2  UNL     1       3.053   0.940  -0.538  1.00  0.00     0.210 C 
BRANCH  26  27
HETATM   27  B1  UNL     1       3.885   0.971   0.786  1.00  0.00     0.187 B 
HETATM   28  C1  UNL     1       5.416   0.508   0.714  1.00  0.00    -0.057 C 
HETATM   29  H4  UNL     1       3.713   1.933   1.491  1.00  0.00    -0.025 HD
ENDBRANCH  26  27
ENDBRANCH   1  26
BRANCH  24  30
HETATM   30  O2  UNL     1       0.728  -4.274   0.287  1.00  0.00    -0.357 OA
HETATM   31  C20 UNL     1       1.987  -4.837  -0.024  1.00  0.00     0.209 C 
ENDBRANCH  24  30
TORSDOF 3
