REMARK  5 active torsions:
REMARK  status: ('A' for Active; 'I' for Inactive)
REMARK    1  A    between atoms: O1_2  and  C2_3 
REMARK    2  A    between atoms: C6_9  and  N3_10 
REMARK    3  A    between atoms: N3_10  and  C7_11 
REMARK    4  A    between atoms: N4_23  and  C16_24 
REMARK    5  A    between atoms: C16_24  and  O3_25 
ROOT
HETATM    1  C2  UNL     1      -2.368   2.299  -0.256  1.00  0.00     0.074 C 
HETATM    2  C3  UNL     1      -1.119   1.770  -0.388  1.00  0.00     0.164 C 
HETATM    3  C4  UNL     1       0.290   1.917  -0.056  1.00  0.00     0.081 A 
HETATM    4  N1  UNL     1       1.155   2.795   0.447  1.00  0.00    -0.243 NA
HETATM    5  C5  UNL     1       2.451   2.573   0.598  1.00  0.00     0.235 A 
HETATM    6  N2  UNL     1       2.852   1.361   0.196  1.00  0.00    -0.221 NA
HETATM    7  C6  UNL     1       1.979   0.447  -0.323  1.00  0.00     0.165 A 
HETATM    8  C13 UNL     1       0.601   0.657  -0.493  1.00  0.00     0.140 A 
HETATM    9  O2  UNL     1       0.272  -0.588  -1.039  1.00  0.00    -0.344 OA
HETATM   10  C14 UNL     1      -0.071  -1.674  -0.257  1.00  0.00     0.206 C 
HETATM   11  C15 UNL     1      -1.352  -1.548   0.482  1.00  0.00     0.301 C 
HETATM   12  N4  UNL     1      -2.547  -1.505  -0.327  1.00  0.00     0.115 N 
HETATM   13  C17 UNL     1      -3.750  -1.268   0.356  1.00  0.00     0.301 C 
HETATM   14  C18 UNL     1      -4.149   0.086   0.809  1.00  0.00     0.198 C 
HETATM   15  O4  UNL     1      -4.360   0.997  -0.157  1.00  0.00    -0.387 OA
HETATM   16  C19 UNL     1      -3.400   1.469  -0.966  1.00  0.00     0.200 C 
ENDROOT
BRANCH   7  17
HETATM   17  N3  UNL     1       2.770  -0.721  -0.638  1.00  0.00    -0.339 N 
HETATM   18  H6  UNL     1       2.398  -1.554  -1.159  1.00  0.00     0.167 HD
BRANCH  17  19
HETATM   19  C7  UNL     1       4.121  -0.942  -0.307  1.00  0.00     0.035 A 
HETATM   20  C8  UNL     1       5.054  -1.492  -1.157  1.00  0.00     0.032 A 
HETATM   21  C9  UNL     1       6.333  -1.660  -0.678  1.00  0.00     0.046 A 
HETATM   22  C10 UNL     1       6.647  -1.281   0.617  1.00  0.00     0.138 A 
HETATM   23  F1  UNL     1       7.909  -1.449   1.084  1.00  0.00    -0.204 F 
HETATM   24  C11 UNL     1       5.723  -0.730   1.477  1.00  0.00     0.074 A 
HETATM   25 CL1  UNL     1       6.159  -0.263   3.127  1.00  0.00    -0.081 Cl
HETATM   26  C12 UNL     1       4.430  -0.563   0.986  1.00  0.00     0.056 A 
ENDBRANCH  17  19
ENDBRANCH   7  17
BRANCH   1  27
HETATM   27  O1  UNL     1      -3.304   3.275   0.217  1.00  0.00    -0.387 OA
HETATM   28  C1  UNL     1      -3.094   4.642  -0.144  1.00  0.00     0.202 C 
ENDBRANCH   1  27
BRANCH  12  29
HETATM   29  C16 UNL     1      -2.685  -2.816  -0.976  1.00  0.00     0.437 C 
BRANCH  29  30
HETATM   30  O3  UNL     1      -2.576  -3.861  -0.088  1.00  0.00    -0.373 OA
HETATM   31  H16 UNL     1      -3.049  -3.701   0.743  1.00  0.00     0.211 HD
ENDBRANCH  29  30
ENDBRANCH  12  29
TORSDOF 5
