REMARK  11 active torsions:
REMARK  status: ('A' for Active; 'I' for Inactive)
REMARK    1  A    between atoms: C2_2  and  C3_3 
REMARK    2  A    between atoms: C14_18  and  O1_19 
REMARK    3  A    between atoms: O1_19  and  C15_20 
REMARK    4  A    between atoms: C15_20  and  C16_21 
REMARK    5  A    between atoms: C16_21  and  N3_22 
REMARK    6  A    between atoms: N3_22  and  C17_23 
REMARK    7  A    between atoms: N3_22  and  C19_26 
REMARK    8  A    between atoms: C17_23  and  C18_24 
REMARK    9  A    between atoms: C18_24  and  O2_25 
REMARK   10  A    between atoms: C19_26  and  C20_27 
REMARK   11  A    between atoms: C20_27  and  O3_28 
ROOT
HETATM    1  C3  UNL     1      -1.695  -2.188  -0.331  1.00  0.00     0.081 C 
HETATM    2  C4  UNL     1      -2.369  -2.479  -1.622  1.00  0.00     0.102 C 
HETATM    3  N1  UNL     1      -3.322  -2.070  -2.426  1.00  0.00    -0.257 NA
HETATM    4  C5  UNL     1      -4.208  -0.948  -2.250  1.00  0.00     0.232 C 
HETATM    5  N2  UNL     1      -4.259   0.061  -1.449  1.00  0.00    -0.246 NA
HETATM    6  C6  UNL     1      -3.432   0.491  -0.374  1.00  0.00     0.044 C 
HETATM    7  C7  UNL     1      -2.214   0.219   0.145  1.00  0.00    -0.022 C 
HETATM    8  C8  UNL     1      -1.557   0.838   1.323  1.00  0.00     0.068 C 
HETATM    9  C9  UNL     1      -1.002   2.151   0.851  1.00  0.00     0.005 C 
HETATM   10  C10 UNL     1      -1.621   3.218   0.373  1.00  0.00     0.068 C 
HETATM   11 CL1  UNL     1      -0.494   4.498  -0.037  1.00  0.00    -0.081 Cl
HETATM   12  C11 UNL     1      -2.996   3.644   0.088  1.00  0.00     0.134 C 
HETATM   13  F1  UNL     1      -3.190   4.961  -0.063  1.00  0.00    -0.205 F 
HETATM   14  C12 UNL     1      -4.073   2.858  -0.035  1.00  0.00     0.023 C 
HETATM   15  C13 UNL     1      -4.535   1.448   0.008  1.00  0.00     0.090 C 
HETATM   16  C14 UNL     1      -1.188  -0.733  -0.267  1.00  0.00     0.165 C 
ENDROOT
BRANCH  16  17
HETATM   17  O1  UNL     1      -0.048  -0.745   0.483  1.00  0.00    -0.379 OA
BRANCH  17  18
HETATM   18  C15 UNL     1       1.132  -0.627  -0.259  1.00  0.00     0.188 C 
BRANCH  18  19
HETATM   19  C16 UNL     1       2.351  -0.665   0.614  1.00  0.00     0.143 C 
BRANCH  19  20
HETATM   20  N3  UNL     1       3.549  -0.558  -0.116  1.00  0.00    -0.406 N 
BRANCH  20  21
HETATM   21  C17 UNL     1       4.752  -0.653   0.681  1.00  0.00     0.143 C 
BRANCH  21  22
HETATM   22  C18 UNL     1       4.865  -2.072   1.188  1.00  0.00     0.183 C 
BRANCH  22  23
HETATM   23  O2  UNL     1       6.032  -2.222   1.977  1.00  0.00    -0.399 OA
HETATM   24  H22 UNL     1       5.836  -2.149   2.929  1.00  0.00     0.209 HD
ENDBRANCH  22  23
ENDBRANCH  21  22
ENDBRANCH  20  21
BRANCH  20  25
HETATM   25  C19 UNL     1       3.641   0.408  -1.153  1.00  0.00     0.143 C 
BRANCH  25  26
HETATM   26  C20 UNL     1       3.672   1.837  -0.742  1.00  0.00     0.183 C 
BRANCH  26  27
HETATM   27  O3  UNL     1       2.595   2.301  -0.043  1.00  0.00    -0.399 OA
HETATM   28  H27 UNL     1       2.843   3.173   0.363  1.00  0.00     0.209 HD
ENDBRANCH  26  27
ENDBRANCH  25  26
ENDBRANCH  20  25
ENDBRANCH  19  20
ENDBRANCH  18  19
ENDBRANCH  17  18
ENDBRANCH  16  17
BRANCH   1  29
HETATM   29  C2  UNL     1      -2.413  -2.623   0.853  1.00  0.00    -0.024 C 
HETATM   30  C1  UNL     1      -2.789  -2.179   2.016  1.00  0.00     0.008 C 
ENDBRANCH   1  29
TORSDOF 11
