REMARK  2 active torsions:
REMARK  status: ('A' for Active; 'I' for Inactive)
REMARK    1  A    between atoms: C6_9  and  N3_10 
REMARK    2  A    between atoms: N3_10  and  C7_11 
ROOT
HETATM    1  C1  UNL     1      -1.826   5.311   2.016  1.00  0.00     0.000 C 
HETATM    2  O1  UNL     1      -1.802   3.907   2.050  1.00  0.00     0.000 OA
HETATM    3  C2  UNL     1      -1.178   3.074   1.167  1.00  0.00     0.049 A 
HETATM    4  C3  UNL     1       0.090   2.975   0.822  1.00  0.00     0.054 C 
HETATM    5  C4  UNL     1       0.964   2.208  -0.054  1.00  0.00     0.073 A 
HETATM    6  N1  UNL     1       1.326   3.058  -1.020  1.00  0.00    -0.241 NA
HETATM    7  C5  UNL     1       2.132   2.797  -2.048  1.00  0.00     0.236 A 
HETATM    8  N2  UNL     1       2.641   1.562  -2.140  1.00  0.00    -0.224 NA
HETATM    9  C6  UNL     1       2.282   0.679  -1.161  1.00  0.00     0.142 A 
HETATM   10  C13 UNL     1       1.437   0.921  -0.069  1.00  0.00     0.041 A 
HETATM   11  C14 UNL     1       1.370  -0.335   0.661  1.00  0.00     0.041 C 
HETATM   12  C15 UNL     1       0.518  -1.331   0.753  1.00  0.00     0.135 C 
HETATM   13  O2  UNL     1      -0.487  -2.285   0.727  1.00  0.00    -0.362 OA
HETATM   14  C16 UNL     1      -1.534  -2.004  -0.219  1.00  0.00     0.191 C 
HETATM   15  C17 UNL     1      -2.710  -2.916  -0.081  1.00  0.00     0.146 C 
HETATM   16  N4  UNL     1      -3.704  -2.532  -1.065  1.00  0.00    -0.199 NA
HETATM   17  C18 UNL     1      -4.886  -3.328  -1.038  1.00  0.00     0.143 C 
HETATM   18  O3  UNL     1      -3.880  -1.217  -1.015  1.00  0.00    -0.302 OA
HETATM   19  C19 UNL     1      -4.519  -0.706   0.077  1.00  0.00     0.221 C 
HETATM   20  C20 UNL     1      -4.505   0.834   0.131  1.00  0.00     0.214 C 
HETATM   21  O4  UNL     1      -3.204   1.296   0.156  1.00  0.00    -0.313 OA
HETATM   22  S1  UNL     1      -2.934   2.645   1.133  1.00  0.00     0.030 SA
ENDROOT
BRANCH   9  23
HETATM   23  N3  UNL     1       2.911  -0.608  -1.363  1.00  0.00    -0.340 N 
HETATM   24  H6  UNL     1       2.434  -1.343  -1.940  1.00  0.00     0.167 HD
BRANCH  23  25
HETATM   25  C7  UNL     1       4.175  -0.956  -0.815  1.00  0.00     0.035 A 
HETATM   26  C8  UNL     1       4.768  -2.201  -1.024  1.00  0.00     0.032 A 
HETATM   27  C9  UNL     1       5.991  -2.495  -0.474  1.00  0.00     0.046 A 
HETATM   28  C10 UNL     1       6.666  -1.563   0.301  1.00  0.00     0.138 A 
HETATM   29  F1  UNL     1       7.858  -1.818   0.850  1.00  0.00    -0.204 F 
HETATM   30  C11 UNL     1       6.118  -0.320   0.534  1.00  0.00     0.074 A 
HETATM   31 CL1  UNL     1       6.924   0.876   1.494  1.00  0.00    -0.081 Cl
HETATM   32  C12 UNL     1       4.875  -0.063  -0.043  1.00  0.00     0.056 A 
ENDBRANCH  23  25
ENDBRANCH   9  23
TORSDOF 2
