REMARK  5 active torsions:
REMARK  status: ('A' for Active; 'I' for Inactive)
REMARK    1  A    between atoms: O1_2  and  C2_3 
REMARK    2  A    between atoms: C2_3  and  N1_4 
REMARK    3  A    between atoms: C6_9  and  O3_10 
REMARK    4  A    between atoms: C11_17  and  N4_18 
REMARK    5  A    between atoms: C18_27  and  O4_28 
ROOT
HETATM    1  N1  UNL     1      -0.971   0.912   0.913  1.00  0.00     0.146 N 
HETATM    2  C3  UNL     1      -1.831   1.228  -0.195  1.00  0.00     0.305 C 
HETATM    3  C4  UNL     1      -3.160   1.656   0.436  1.00  0.00     0.198 C 
HETATM    4  O2  UNL     1      -3.640   0.728   1.249  1.00  0.00    -0.383 OA
HETATM    5  C5  UNL     1      -4.062  -0.488   1.012  1.00  0.00     0.232 C 
HETATM    6  C6  UNL     1      -3.215  -1.503   0.389  1.00  0.00     0.071 C 
HETATM    7  C8  UNL     1      -2.150  -2.118  -0.190  1.00  0.00     0.067 C 
HETATM    8  C9  UNL     1      -0.743  -1.864  -0.633  1.00  0.00     0.075 A 
HETATM    9  N2  UNL     1      -0.421  -2.798  -1.525  1.00  0.00    -0.241 NA
HETATM   10  C10 UNL     1       0.731  -2.922  -2.161  1.00  0.00     0.235 A 
HETATM   11  N3  UNL     1       1.644  -2.001  -1.854  1.00  0.00    -0.224 NA
HETATM   12  C11 UNL     1       1.378  -1.031  -0.959  1.00  0.00     0.141 A 
HETATM   13  C17 UNL     1       0.177  -0.894  -0.292  1.00  0.00     0.075 A 
HETATM   14  C18 UNL     1       0.270   0.293   0.575  1.00  0.00     0.400 C 
ENDROOT
BRANCH  12  15
HETATM   15  N4  UNL     1       2.563  -0.222  -0.849  1.00  0.00    -0.344 N 
HETATM   16  C12 UNL     1       3.503   0.103   0.207  1.00  0.00     0.133 C 
HETATM   17  C13 UNL     1       4.763  -0.725  -0.087  1.00  0.00     0.089 C 
HETATM   18  C14 UNL     1       5.138  -0.463  -1.485  1.00  0.00     0.094 C 
HETATM   19  F1  UNL     1       6.416  -0.809  -1.867  1.00  0.00    -0.211 F 
HETATM   20  C15 UNL     1       4.393   0.075  -2.443  1.00  0.00     0.051 C 
HETATM   21  C16 UNL     1       2.986   0.469  -2.065  1.00  0.00     0.209 C 
HETATM   22 CL1  UNL     1       1.976   0.071  -3.455  1.00  0.00    -0.098 Cl
ENDBRANCH  12  15
BRANCH  14  23
HETATM   23  O4  UNL     1       1.032   1.311  -0.053  1.00  0.00    -0.364 OA
HETATM   24  H24 UNL     1       0.565   1.546  -0.915  1.00  0.00     0.212 HD
ENDBRANCH  14  23
BRANCH   1  25
HETATM   25  C2  UNL     1      -0.665   2.109   1.651  1.00  0.00     0.444 C 
BRANCH  25  26
HETATM   26  O1  UNL     1      -0.104   3.018   0.758  1.00  0.00    -0.367 OA
HETATM   27  C1  UNL     1       0.230   4.218   1.378  1.00  0.00     0.204 C 
ENDBRANCH  25  26
ENDBRANCH   1  25
BRANCH   6  28
HETATM   28  O3  UNL     1      -4.211  -2.554   0.428  1.00  0.00    -0.358 OA
HETATM   29  C7  UNL     1      -4.140  -3.536   1.448  1.00  0.00     0.209 C 
ENDBRANCH   6  28
TORSDOF 5
