REMARK  7 active torsions:
REMARK  status: ('A' for Active; 'I' for Inactive)
REMARK    1  A    between atoms: O1_2  and  C2_3 
REMARK    2  A    between atoms: C6_9  and  N3_10 
REMARK    3  A    between atoms: N3_10  and  C7_11 
REMARK    4  A    between atoms: C15_21  and  O2_22 
REMARK    5  A    between atoms: O2_22  and  B1_23 
REMARK    6  A    between atoms: B1_23  and  C16_24 
REMARK    7  A    between atoms: C16_24  and  C17_25 
ROOT
HETATM    1  C2  UNL     1       0.283   2.621  -0.514  1.00  0.00     0.102 A 
HETATM    2  C3  UNL     1       1.377   3.164   0.119  1.00  0.00     0.072 A 
HETATM    3  C4  UNL     1       2.438   2.326   0.381  1.00  0.00     0.075 A 
HETATM    4  N1  UNL     1       3.491   2.894   1.002  1.00  0.00    -0.241 NA
HETATM    5  C5  UNL     1       4.596   2.205   1.322  1.00  0.00     0.236 A 
HETATM    6  N2  UNL     1       4.593   0.911   0.986  1.00  0.00    -0.224 NA
HETATM    7  C6  UNL     1       3.621   0.246   0.377  1.00  0.00     0.142 A 
HETATM    8  C13 UNL     1       2.506   0.982   0.065  1.00  0.00     0.042 A 
HETATM    9  C14 UNL     1       1.379   0.507  -0.565  1.00  0.00     0.055 A 
HETATM   10  C15 UNL     1       0.268   1.272  -0.868  1.00  0.00     0.084 A 
ENDROOT
BRANCH  10  11
HETATM   11  O2  UNL     1      -0.823   0.697  -1.507  1.00  0.00    -0.420 OA
BRANCH  11  12
HETATM   12  B1  UNL     1      -1.981   1.572  -1.803  1.00  0.00     0.320 B 
HETATM   13  H11 UNL     1      -2.287   1.682  -2.949  1.00  0.00     0.008 HD
BRANCH  12  14
HETATM   14  C16 UNL     1      -3.116   1.707  -0.731  1.00  0.00     0.017 C 
BRANCH  14  15
HETATM   15  C17 UNL     1      -4.253   0.718  -0.937  1.00  0.00     0.241 C 
HETATM   16  C18 UNL     1      -3.723  -0.700  -0.859  1.00  0.00     0.306 C 
HETATM   17  N4  UNL     1      -4.806  -1.645  -0.779  1.00  0.00     0.087 N 
HETATM   18  C19 UNL     1      -4.317  -2.990  -0.824  1.00  0.00     0.310 C 
HETATM   19  C20 UNL     1      -5.713  -1.408   0.308  1.00  0.00     0.301 C 
HETATM   20  C21 UNL     1      -5.379  -0.106   1.029  1.00  0.00     0.300 C 
HETATM   21  N5  UNL     1      -5.228   0.974   0.092  1.00  0.00     0.090 N 
HETATM   22  H24 UNL     1      -6.165   1.227  -0.264  1.00  0.00     0.316 HD
ENDBRANCH  14  15
ENDBRANCH  12  14
ENDBRANCH  11  12
ENDBRANCH  10  11
BRANCH   1  23
HETATM   23  O1  UNL     1      -0.845   3.394  -0.822  1.00  0.00    -0.353 OA
HETATM   24  C1  UNL     1      -0.765   4.772  -0.433  1.00  0.00     0.210 C 
ENDBRANCH   1  23
BRANCH   7  25
HETATM   25  N3  UNL     1       3.640  -1.125   0.030  1.00  0.00    -0.340 N 
HETATM   26  H6  UNL     1       2.872  -1.587  -0.464  1.00  0.00     0.167 HD
BRANCH  25  27
HETATM   27  C7  UNL     1       4.672  -2.055   0.294  1.00  0.00     0.035 A 
HETATM   28  C8  UNL     1       5.719  -1.794   1.149  1.00  0.00     0.032 A 
HETATM   29  C9  UNL     1       6.736  -2.671   1.411  1.00  0.00     0.046 A 
HETATM   30  C10 UNL     1       6.761  -3.912   0.805  1.00  0.00     0.138 A 
HETATM   31  F1  UNL     1       7.713  -4.858   0.988  1.00  0.00    -0.204 F 
HETATM   32  C11 UNL     1       5.736  -4.241  -0.069  1.00  0.00     0.074 A 
HETATM   33 CL1  UNL     1       5.691  -5.780  -0.874  1.00  0.00    -0.081 Cl
HETATM   34  C12 UNL     1       4.757  -3.300  -0.274  1.00  0.00     0.056 A 
ENDBRANCH  25  27
ENDBRANCH   7  25
TORSDOF 7
