REMARK  8 active torsions:
REMARK  status: ('A' for Active; 'I' for Inactive)
REMARK    1  A    between atoms: N2_5  and  C4_6 
REMARK    2  A    between atoms: C4_6  and  C5_7 
REMARK    3  A    between atoms: C5_7  and  O1_8 
REMARK    4  A    between atoms: O1_8  and  C6_9 
REMARK    5  A    between atoms: C9_12  and  N3_13 
REMARK    6  A    between atoms: N3_13  and  C10_14 
REMARK    7  A    between atoms: C11_15  and  C12_16 
REMARK    8  A    between atoms: C13_17  and  C14_18 
ROOT
HETATM    1  C6  UNL     1      -0.088  -0.023  -0.508  1.00  0.00     0.104 C 
HETATM    2  C7  UNL     1       0.428  -1.272  -0.518  1.00  0.00     0.049 C 
HETATM    3  C8  UNL     1       1.841  -0.321  -0.415  1.00  0.00    -0.028 C 
HETATM    4  C9  UNL     1       2.446   0.750   0.313  1.00  0.00     0.030 C 
HETATM    5  C15 UNL     1       2.375   2.174  -0.195  1.00  0.00     0.175 C 
HETATM    6  N4  UNL     1       1.466   2.814  -0.982  1.00  0.00    -0.194 NA
HETATM    7  O2  UNL     1       0.484   2.050  -1.766  1.00  0.00    -0.261 OA
HETATM    8  C16 UNL     1       0.662   0.553  -1.694  1.00  0.00     0.121 C 
HETATM    9  C17 UNL     1       1.522  -0.032  -2.634  1.00  0.00     0.020 C 
HETATM   10  C18 UNL     1       2.621  -0.608  -1.720  1.00  0.00     0.071 C 
HETATM   11  H22 UNL     1       0.897   3.585  -0.562  1.00  0.00     0.154 HD
ENDROOT
BRANCH   1  12
HETATM   12  O1  UNL     1      -0.883  -0.225   0.535  1.00  0.00    -0.346 OA
BRANCH  12  13
HETATM   13  C5  UNL     1      -1.633  -0.415   1.520  1.00  0.00     0.206 C 
BRANCH  13  14
HETATM   14  C4  UNL     1      -2.929   0.399   1.623  1.00  0.00     0.299 C 
BRANCH  14  15
HETATM   15  N2  UNL     1      -3.812   0.212   0.541  1.00  0.00     0.093 N 
HETATM   16  C3  UNL     1      -5.049   0.963   0.614  1.00  0.00     0.302 C 
HETATM   17  C2  UNL     1      -6.110   0.336  -0.284  1.00  0.00     0.302 C 
HETATM   18  N1  UNL     1      -6.478  -0.986   0.116  1.00  0.00     0.087 N 
HETATM   19  C1  UNL     1      -6.979  -1.795  -0.955  1.00  0.00     0.310 C 
HETATM   20  C20 UNL     1      -5.373  -1.627   0.756  1.00  0.00     0.302 C 
HETATM   21  C19 UNL     1      -4.091  -1.108   0.109  1.00  0.00     0.302 C 
ENDBRANCH  14  15
ENDBRANCH  13  14
ENDBRANCH  12  13
ENDBRANCH   1  12
BRANCH   4  22
HETATM   22  N3  UNL     1       3.133   0.647   1.625  1.00  0.00    -0.368 N 
HETATM   23  H13 UNL     1       2.765   0.272   2.539  1.00  0.00     0.165 HD
BRANCH  22  24
HETATM   24  C10 UNL     1       4.410   1.188   1.315  1.00  0.00     0.088 C 
HETATM   25  C11 UNL     1       5.392   0.419   0.829  1.00  0.00     0.017 C 
BRANCH  25  26
HETATM   26  C12 UNL     1       6.685   1.010   0.524  1.00  0.00    -0.000 C 
HETATM   27  C13 UNL     1       7.689   0.307   0.044  1.00  0.00     0.004 C 
BRANCH  27  28
HETATM   28  C14 UNL     1       7.748  -1.131  -0.276  1.00  0.00     0.249 C 
HETATM   29  F1  UNL     1       8.727  -1.757   0.472  1.00  0.00    -0.251 F 
ENDBRANCH  27  28
ENDBRANCH  25  26
ENDBRANCH  22  24
ENDBRANCH   4  22
TORSDOF 8
