REMARK  5 active torsions:
REMARK  status: ('A' for Active; 'I' for Inactive)
REMARK    1  A    between atoms: C4_6  and  C5_7 
REMARK    2  A    between atoms: C5_7  and  O1_8 
REMARK    3  A    between atoms: O1_8  and  C6_9 
REMARK    4  A    between atoms: C9_12  and  N3_13 
REMARK    5  A    between atoms: C12_17  and  N4_18 
ROOT
HETATM    1  C6  UNL     1       0.135  -1.157   1.645  1.00  0.00     0.104 C 
HETATM    2  C7  UNL     1       0.426   0.055   2.099  1.00  0.00     0.049 C 
HETATM    3  C8  UNL     1      -1.253   0.110   2.061  1.00  0.00    -0.028 C 
HETATM    4  C9  UNL     1      -2.377  -0.148   1.212  1.00  0.00     0.033 C 
HETATM    5  C15 UNL     1      -3.138  -1.451   1.424  1.00  0.00     0.175 C 
HETATM    6  N5  UNL     1      -2.621  -2.733   1.445  1.00  0.00    -0.194 NA
HETATM    7  O2  UNL     1      -1.410  -2.895   2.290  1.00  0.00    -0.261 OA
HETATM    8  C16 UNL     1      -0.807  -1.617   2.784  1.00  0.00     0.121 C 
HETATM    9  C17 UNL     1      -1.164  -1.020   3.998  1.00  0.00     0.020 C 
HETATM   10  C18 UNL     1      -1.709   0.342   3.528  1.00  0.00     0.071 C 
HETATM   11  H21 UNL     1      -2.326  -3.118   0.517  1.00  0.00     0.154 HD
ENDROOT
BRANCH   1  12
HETATM   12  O1  UNL     1       1.001  -0.947   0.448  1.00  0.00    -0.346 OA
BRANCH  12  13
HETATM   13  C5  UNL     1       2.070  -1.895   0.370  1.00  0.00     0.213 C 
BRANCH  13  14
HETATM   14  C4  UNL     1       3.065  -1.295  -0.578  1.00  0.00     0.272 C 
HETATM   15  N2  UNL     1       2.422  -1.104  -1.850  1.00  0.00     0.093 N 
HETATM   16  C3  UNL     1       2.352   0.298  -2.205  1.00  0.00     0.300 C 
HETATM   17  H8  UNL     1       1.443  -1.494  -1.867  1.00  0.00     0.316 HD
HETATM   18  C2  UNL     1       3.802   0.781  -2.267  1.00  0.00     0.301 C 
HETATM   19  N1  UNL     1       4.398   0.738  -0.959  1.00  0.00     0.088 N 
HETATM   20  C1  UNL     1       5.807   0.443  -0.989  1.00  0.00     0.310 C 
HETATM   21  C19 UNL     1       3.671  -0.055  -0.010  1.00  0.00     0.309 C 
ENDBRANCH  13  14
ENDBRANCH  12  13
ENDBRANCH   1  12
BRANCH   4  22
HETATM   22  N3  UNL     1      -2.886   0.706   0.102  1.00  0.00    -0.353 N 
HETATM   23  C10 UNL     1      -3.546   1.952   0.288  1.00  0.00     0.117 A 
HETATM   24  C11 UNL     1      -3.927   2.569  -0.820  1.00  0.00     0.075 A 
HETATM   25 CL1  UNL     1      -4.732   4.084  -0.627  1.00  0.00    -0.080 Cl
HETATM   26  C12 UNL     1      -3.678   1.995  -2.138  1.00  0.00     0.046 A 
HETATM   27  C13 UNL     1      -3.057   0.829  -2.242  1.00  0.00     0.024 A 
HETATM   28  C14 UNL     1      -2.568   0.016  -1.097  1.00  0.00     0.158 A 
BRANCH  26  29
HETATM   29  N4  UNL     1      -4.106   2.693  -3.303  1.00  0.00    -0.398 N 
HETATM   30  H14 UNL     1      -4.966   2.562  -3.883  1.00  0.00     0.156 HD
HETATM   31  H15 UNL     1      -3.803   3.466  -3.935  1.00  0.00     0.156 HD
ENDBRANCH  26  29
ENDBRANCH   4  22
TORSDOF 5
