REMARK  7 active torsions:
REMARK  status: ('A' for Active; 'I' for Inactive)
REMARK    1  A    between atoms: O1_2  and  C2_3 
REMARK    2  A    between atoms: C8_10  and  C9_11 
REMARK    3  A    between atoms: C10_12  and  C12_14 
REMARK    4  A    between atoms: C15_18  and  O2_19 
REMARK    5  A    between atoms: O2_19  and  C16_20 
REMARK    6  A    between atoms: C16_20  and  C17_21 
REMARK    7  A    between atoms: C17_21  and  N2_22 
ROOT
HETATM    1  C2  UNL     1       0.511  -2.778   0.305  1.00  0.00     0.103 A 
HETATM    2  C3  UNL     1       1.549  -3.260   1.010  1.00  0.00     0.067 A 
HETATM    3  C4  UNL     1       2.448  -2.291   1.632  1.00  0.00     0.043 A 
HETATM    4  N1  UNL     1       3.494  -2.691   2.316  1.00  0.00    -0.293 NA
HETATM    5  C5  UNL     1       4.365  -1.665   2.919  1.00  0.00     0.153 C 
HETATM    6  C6  UNL     1       4.757  -0.652   1.850  1.00  0.00     0.057 C 
HETATM    7  C7  UNL     1       3.532  -0.223   1.089  1.00  0.00    -0.065 C 
HETATM    8  C8  UNL     1       3.725   0.631   0.092  1.00  0.00     0.004 C 
HETATM    9  C13 UNL     1       2.260  -0.800   1.545  1.00  0.00     0.091 A 
HETATM   10  C14 UNL     1       1.085  -0.469   0.735  1.00  0.00     0.028 A 
HETATM   11  C15 UNL     1       0.278  -1.349   0.165  1.00  0.00     0.099 A 
ENDROOT
BRANCH  11  12
HETATM   12  O2  UNL     1      -0.832  -1.093  -0.598  1.00  0.00    -0.347 OA
BRANCH  12  13
HETATM   13  C16 UNL     1      -1.747  -0.053  -0.351  1.00  0.00     0.195 C 
BRANCH  13  14
HETATM   14  C17 UNL     1      -2.915  -0.060  -1.313  1.00  0.00     0.149 C 
BRANCH  14  15
HETATM   15  N2  UNL     1      -3.862   1.005  -1.067  1.00  0.00    -0.379 N 
HETATM   16  C18 UNL     1      -4.268   2.451  -1.057  1.00  0.00     0.153 C 
HETATM   17  C19 UNL     1      -5.749   2.364  -1.469  1.00  0.00     0.293 C 
HETATM   18  N3  UNL     1      -6.675   1.894  -0.452  1.00  0.00     0.099 N 
HETATM   19  C20 UNL     1      -7.321   0.603  -0.812  1.00  0.00     0.302 C 
HETATM   20  C23 UNL     1      -5.819   1.270   0.619  1.00  0.00     0.329 C 
HETATM   21  C21 UNL     1      -6.108  -0.336  -0.870  1.00  0.00     0.029 C 
HETATM   22  C22 UNL     1      -5.128   0.564  -0.567  1.00  0.00     0.033 C 
ENDBRANCH  14  15
ENDBRANCH  13  14
ENDBRANCH  12  13
ENDBRANCH  11  12
BRANCH   1  23
HETATM   23  O1  UNL     1      -0.232  -3.828  -0.214  1.00  0.00    -0.353 OA
HETATM   24  C1  UNL     1      -0.896  -4.713   0.642  1.00  0.00     0.210 C 
ENDBRANCH   1  23
BRANCH   8  25
HETATM   25  C9  UNL     1       5.091   1.064  -0.163  1.00  0.00     0.005 C 
HETATM   26  C10 UNL     1       5.377   1.913  -1.133  1.00  0.00    -0.056 C 
HETATM   27  C11 UNL     1       4.473   2.570  -2.107  1.00  0.00     0.046 C 
BRANCH  26  28
HETATM   28  C12 UNL     1       6.775   2.365  -1.406  1.00  0.00     0.256 C 
HETATM   29  F1  UNL     1       6.840   3.723  -1.266  1.00  0.00    -0.251 F 
ENDBRANCH  26  28
ENDBRANCH   8  25
TORSDOF 7
