REMARK  2 active torsions:
REMARK  status: ('A' for Active; 'I' for Inactive)
REMARK    1  A    between atoms: N1_2  and  C2_3 
REMARK    2  A    between atoms: C10_14  and  N4_15 
ROOT
HETATM    1  C2  UNL     1      -1.892   1.181  -0.825  1.00  0.00     0.166 C 
HETATM    2  C3  UNL     1      -3.209   0.564  -1.114  1.00  0.00     0.029 C 
HETATM    3  C4  UNL     1      -4.279   0.091  -1.716  1.00  0.00     0.141 C 
HETATM    4  O1  UNL     1      -5.463  -0.523  -1.259  1.00  0.00    -0.317 OA
HETATM    5  C5  UNL     1      -5.373  -1.907  -0.955  1.00  0.00     0.253 C 
HETATM    6  N2  UNL     1      -4.698  -2.763  -0.221  1.00  0.00    -0.259 NA
HETATM    7  C6  UNL     1      -3.623  -2.273   0.647  1.00  0.00     0.272 C 
HETATM    8  N3  UNL     1      -2.512  -1.866  -0.215  1.00  0.00    -0.371 N 
HETATM    9  C7  UNL     1      -1.244  -1.225  -0.132  1.00  0.00     0.038 A 
HETATM   10  C8  UNL     1      -0.183  -2.017   0.251  1.00  0.00     0.032 A 
HETATM   11  C9  UNL     1       1.161  -1.659   0.431  1.00  0.00     0.031 A 
HETATM   12  C10 UNL     1       1.367  -0.325   0.171  1.00  0.00     0.030 A 
HETATM   13  C15 UNL     1       0.372   0.539  -0.217  1.00  0.00     0.041 A 
HETATM   14  C16 UNL     1      -0.920   0.117  -0.373  1.00  0.00    -0.001 A 
HETATM   15  H9  UNL     1      -2.308  -1.962  -1.227  1.00  0.00     0.161 HD
ENDROOT
BRANCH  12  16
HETATM   16  N4  UNL     1       2.702   0.155   0.323  1.00  0.00    -0.378 N 
HETATM   17  C11 UNL     1       3.726  -0.810   0.753  1.00  0.00     0.153 C 
HETATM   18  C12 UNL     1       5.043  -0.162   1.024  1.00  0.00     0.289 C 
HETATM   19  N5  UNL     1       5.317   0.751  -0.082  1.00  0.00     0.086 N 
HETATM   20  C13 UNL     1       4.445   1.875   0.032  1.00  0.00     0.289 C 
HETATM   21  H16 UNL     1       5.239   0.211  -0.955  1.00  0.00     0.316 HD
HETATM   22  C14 UNL     1       2.987   1.566   0.047  1.00  0.00     0.153 C 
ENDBRANCH  12  16
BRANCH   1  23
HETATM   23  N1  UNL     1      -1.929   2.305   0.036  1.00  0.00    -0.298 NA
HETATM   24  C1  UNL     1      -2.357   3.410  -0.396  1.00  0.00     0.143 C 
ENDBRANCH   1  23
TORSDOF 2
