REMARK  7 active torsions:
REMARK  status: ('A' for Active; 'I' for Inactive)
REMARK    1  A    between atoms: O1_2  and  C2_3 
REMARK    2  A    between atoms: C6_9  and  N2_10 
REMARK    3  A    between atoms: N2_10  and  C7_11 
REMARK    4  A    between atoms: C15_21  and  O2_22 
REMARK    5  A    between atoms: O2_22  and  C16_23 
REMARK    6  A    between atoms: C16_23  and  C17_24 
REMARK    7  A    between atoms: C17_24  and  N3_25 
ROOT
HETATM    1  C2  UNL     1      -0.449  -0.652  -1.878  1.00  0.00     0.103 A 
HETATM    2  C3  UNL     1      -1.446  -1.454  -2.311  1.00  0.00     0.067 A 
HETATM    3  C4  UNL     1      -2.553  -1.709  -1.362  1.00  0.00     0.042 A 
HETATM    4  N1  UNL     1      -3.477  -2.511  -1.824  1.00  0.00    -0.303 NA
HETATM    5  C5  UNL     1      -4.646  -2.906  -1.082  1.00  0.00     0.094 C 
HETATM    6  B1  UNL     1      -5.390  -1.391  -0.394  1.00  0.00     0.227 B 
HETATM    7  C6  UNL     1      -3.886  -0.388   0.260  1.00  0.00    -0.049 C 
HETATM    8  C13 UNL     1      -2.664  -1.136   0.007  1.00  0.00     0.095 A 
HETATM    9  C14 UNL     1      -1.496  -0.313   0.272  1.00  0.00     0.028 A 
HETATM   10  C15 UNL     1      -0.448  -0.039  -0.521  1.00  0.00     0.099 A 
ENDROOT
BRANCH   7  11
HETATM   11  N2  UNL     1      -4.347   0.803   0.815  1.00  0.00    -0.374 N 
HETATM   12  H7  UNL     1      -3.581   1.267   1.330  1.00  0.00     0.164 HD
BRANCH  11  13
HETATM   13  C7  UNL     1      -5.625   1.398   0.747  1.00  0.00     0.033 A 
HETATM   14  C8  UNL     1      -6.069   2.467   0.004  1.00  0.00     0.032 A 
HETATM   15  C9  UNL     1      -7.372   2.909   0.068  1.00  0.00     0.046 A 
HETATM   16  C10 UNL     1      -8.320   2.298   0.894  1.00  0.00     0.138 A 
HETATM   17  F1  UNL     1      -9.584   2.759   0.938  1.00  0.00    -0.204 F 
HETATM   18  C11 UNL     1      -7.863   1.229   1.633  1.00  0.00     0.074 A 
HETATM   19 CL1  UNL     1      -9.074   0.458   2.669  1.00  0.00    -0.081 Cl
HETATM   20  C12 UNL     1      -6.549   0.765   1.582  1.00  0.00     0.056 A 
ENDBRANCH  11  13
ENDBRANCH   7  11
BRANCH  10  21
HETATM   21  O2  UNL     1       0.705   0.680  -0.465  1.00  0.00    -0.347 OA
BRANCH  21  22
HETATM   22  C16 UNL     1       1.769   0.617   0.430  1.00  0.00     0.195 C 
BRANCH  22  23
HETATM   23  C17 UNL     1       3.029   0.580  -0.398  1.00  0.00     0.143 C 
BRANCH  23  24
HETATM   24  N3  UNL     1       4.260   0.536   0.270  1.00  0.00    -0.407 N 
HETATM   25  C18 UNL     1       5.330   0.373  -0.698  1.00  0.00     0.147 C 
HETATM   26  C19 UNL     1       6.365  -0.622  -0.195  1.00  0.00     0.291 C 
HETATM   27  N4  UNL     1       6.847  -0.100   1.068  1.00  0.00     0.087 N 
HETATM   28  C20 UNL     1       7.675   1.052   0.796  1.00  0.00     0.310 C 
HETATM   29  C21 UNL     1       5.806   0.136   2.024  1.00  0.00     0.291 C 
HETATM   30  C22 UNL     1       4.404  -0.189   1.472  1.00  0.00     0.147 C 
ENDBRANCH  23  24
ENDBRANCH  22  23
ENDBRANCH  21  22
ENDBRANCH  10  21
BRANCH   1  31
HETATM   31  O1  UNL     1       0.528  -0.501  -2.873  1.00  0.00    -0.353 OA
HETATM   32  C1  UNL     1       1.257  -1.613  -3.317  1.00  0.00     0.210 C 
ENDBRANCH   1  31
TORSDOF 7
