REMARK  4 active torsions:
REMARK  status: ('A' for Active; 'I' for Inactive)
REMARK    1  A    between atoms: C2_2  and  O1_3 
REMARK    2  A    between atoms: C2_2  and  C4_5 
REMARK    3  A    between atoms: C6_7  and  C7_8 
REMARK    4  A    between atoms: N3_12  and  C9_13 
ROOT
HETATM    1  C7  UNL     1      -0.682   0.073  -0.420  1.00  0.00     0.060 C 
HETATM    2  N1  UNL     1      -0.298  -1.121  -0.685  1.00  0.00    -0.240 NA
HETATM    3  C8  UNL     1       0.937  -1.653  -1.149  1.00  0.00     0.256 C 
HETATM    4  N2  UNL     1       2.099  -1.087  -1.147  1.00  0.00    -0.161 NA
HETATM    5  N3  UNL     1       2.444   0.203  -0.684  1.00  0.00    -0.244 N 
HETATM    6  C15 UNL     1       1.523   1.288  -0.683  1.00  0.00     0.121 C 
HETATM    7  C16 UNL     1       0.198   1.225  -0.570  1.00  0.00     0.051 C 
ENDROOT
BRANCH   1   8
HETATM    8  C6  UNL     1      -2.040   0.320   0.050  1.00  0.00     0.041 C 
HETATM    9  C4  UNL     1      -2.931  -0.621   0.228  1.00  0.00    -0.027 C 
HETATM   10  C5  UNL     1      -2.633  -2.044  -0.037  1.00  0.00     0.051 C 
BRANCH   9  11
HETATM   11  C2  UNL     1      -4.276  -0.250   0.709  1.00  0.00     0.064 C 
HETATM   12  C1  UNL     1      -5.195  -1.183   0.897  1.00  0.00     0.051 C 
BRANCH  11  13
HETATM   13  O1  UNL     1      -4.600   1.073   0.970  1.00  0.00    -0.356 OA
HETATM   14  C3  UNL     1      -5.854   1.655   0.707  1.00  0.00     0.210 C 
ENDBRANCH  11  13
ENDBRANCH   9  11
ENDBRANCH   1   8
BRANCH   5  15
HETATM   15  C9  UNL     1       3.749   0.443  -0.202  1.00  0.00     0.059 A 
HETATM   16  C10 UNL     1       4.297   1.594   0.319  1.00  0.00     0.031 A 
HETATM   17  C11 UNL     1       5.599   1.634   0.737  1.00  0.00     0.004 A 
HETATM   18  C12 UNL     1       6.452   0.557   0.676  1.00  0.00     0.019 A 
HETATM   19  C13 UNL     1       5.933  -0.610   0.159  1.00  0.00     0.013 A 
HETATM   20 BR1  UNL     1       7.066  -2.142   0.046  1.00  0.00    -0.051 Br
HETATM   21  C14 UNL     1       4.623  -0.650  -0.262  1.00  0.00     0.050 A 
ENDBRANCH   5  15
TORSDOF 4
