REMARK  5 active torsions:
REMARK  status: ('A' for Active; 'I' for Inactive)
REMARK    1  A    between atoms: C2_3  and  C14_19 
REMARK    2  A    between atoms: C7_10  and  N3_11 
REMARK    3  A    between atoms: N3_11  and  C8_12 
REMARK    4  A    between atoms: C14_19  and  S1_20 
REMARK    5  A    between atoms: S1_20  and  O2_21 
ROOT
HETATM    1  C1  UNL     1       2.804   2.319   0.329  1.00  0.00     0.000 C 
HETATM    2  O1  UNL     1       2.558   0.952  -0.080  1.00  0.00     0.000 OA
HETATM    3  C2  UNL     1       2.863  -0.125   1.006  1.00  0.00     0.042 A 
HETATM    4  C3  UNL     1       1.485   0.278   0.086  1.00  0.00     0.095 A 
HETATM    5  C4  UNL     1       0.382  -0.723   0.540  1.00  0.00     0.099 A 
HETATM    6  C5  UNL     1       1.042  -1.535   1.551  1.00  0.00     0.053 A 
HETATM    7  N1  UNL     1       0.467  -2.494   2.165  1.00  0.00    -0.248 NA
HETATM    8  C6  UNL     1      -0.859  -2.693   1.777  1.00  0.00     0.235 A 
HETATM    9  N2  UNL     1      -1.495  -1.969   0.857  1.00  0.00    -0.227 NA
HETATM   10  C7  UNL     1      -0.996  -0.972   0.176  1.00  0.00     0.123 A 
HETATM   11  C14 UNL     1       1.904  -0.881   1.302  1.00  0.00     0.075 A 
HETATM   12  S1  UNL     1       2.750  -0.217   1.043  1.00  0.00    -0.159 SA
HETATM   13  H11 UNL     1       3.855   0.652   0.737  1.00  0.00     0.130 HD
ENDROOT
BRANCH  10  14
HETATM   14  N3  UNL     1      -1.397  -0.093  -0.832  1.00  0.00    -0.343 N 
HETATM   15  H6  UNL     1      -0.917   0.497  -1.494  1.00  0.00     0.167 HD
BRANCH  14  16
HETATM   16  C8  UNL     1      -2.781  -0.104  -0.898  1.00  0.00     0.034 A 
HETATM   17  C9  UNL     1      -3.556  -1.222  -0.710  1.00  0.00     0.029 A 
HETATM   18  C10 UNL     1      -4.924  -1.066  -0.760  1.00  0.00     0.004 A 
HETATM   19  C11 UNL     1      -5.440   0.187  -0.994  1.00  0.00     0.019 A 
HETATM   20  C12 UNL     1      -4.709   1.337  -1.190  1.00  0.00     0.013 A 
HETATM   21 BR1  UNL     1      -5.558   2.994  -1.510  1.00  0.00    -0.051 Br
HETATM   22  C13 UNL     1      -3.357   1.150  -1.134  1.00  0.00     0.048 A 
ENDBRANCH  14  16
ENDBRANCH  10  14
BRANCH  12  23
HETATM   23  O2  UNL     1       4.869   1.372   0.383  1.00  0.00    -0.355 OA
HETATM   24  C15 UNL     1       5.219  -0.040   0.335  1.00  0.00     0.217 C 
ENDBRANCH  12  23
TORSDOF 5
