REMARK  0 active torsions:
REMARK  status: ('A' for Active; 'I' for Inactive)
ROOT
HETATM    1  C1  UNL     1       2.378  -1.937  -0.827  1.00  0.00     0.000 C 
HETATM    2  O1  UNL     1       1.259  -1.666  -0.100  1.00  0.00     0.000 OA
HETATM    3  C2  UNL     1       0.870  -0.628   0.787  1.00  0.00     0.024 A 
HETATM    4  C3  UNL     1       0.182  -0.970  -0.454  1.00  0.00     0.046 A 
HETATM    5  C4  UNL     1       0.481   0.511  -0.812  1.00  0.00     0.009 C 
HETATM    6  C5  UNL     1       0.449   0.640  -2.146  1.00  0.00     0.117 C 
HETATM    7  N1  UNL     1      -0.812   0.679  -2.277  1.00  0.00    -0.172 NA
HETATM    8  N2  UNL     1      -1.546   0.560  -1.107  1.00  0.00    -0.281 N 
HETATM    9  C6  UNL     1      -2.404   1.646  -1.715  1.00  0.00     0.176 C 
HETATM   10  C7  UNL     1      -2.065   0.202   0.134  1.00  0.00     0.249 C 
HETATM   11  C8  UNL     1      -1.708  -0.716   1.146  1.00  0.00     0.020 C 
HETATM   12  C9  UNL     1      -0.697  -1.330   1.834  1.00  0.00    -0.004 C 
HETATM   13  C10 UNL     1       0.782  -1.422   1.949  1.00  0.00     0.059 A 
HETATM   14 BR1  UNL     1       1.822  -2.367   3.196  1.00  0.00    -0.134 Br
HETATM   15  C11 UNL     1       2.047  -1.096   1.516  1.00  0.00     0.059 A 
HETATM   16  C12 UNL     1       2.699   0.071   0.666  1.00  0.00    -0.001 C 
HETATM   17  C13 UNL     1       2.208   1.303   0.090  1.00  0.00     0.030 C 
HETATM   18  C14 UNL     1       0.713   1.532   0.204  1.00  0.00     0.067 C 
HETATM   19  N3  UNL     1      -0.469   1.623   0.210  1.00  0.00    -0.242 NA
HETATM   20  C15 UNL     1      -1.382   2.368   0.888  1.00  0.00     0.230 C 
HETATM   21  N4  UNL     1      -2.307   1.475   0.816  1.00  0.00    -0.252 NA
ENDROOT
TORSDOF 0
