REMARK  3 active torsions:
REMARK  status: ('A' for Active; 'I' for Inactive)
REMARK    1  A    between atoms: C2_2  and  N1_3 
REMARK    2  A    between atoms: C7_11  and  N3_12 
REMARK    3  A    between atoms: N3_12  and  C8_13 
ROOT
HETATM    1  N1  UNL     1      -3.493   0.237   0.112  1.00  0.00     0.091 N 
HETATM    2  C3  UNL     1      -2.987  -0.172   1.341  1.00  0.00     0.298 C 
HETATM    3  C4  UNL     1      -2.007   0.750   2.002  1.00  0.00     0.200 C 
HETATM    4  O1  UNL     1      -0.934   1.036   1.152  1.00  0.00    -0.365 OA
HETATM    5  C5  UNL     1       0.203   1.424   1.913  1.00  0.00     0.346 C 
HETATM    6  O2  UNL     1       0.410   0.198   2.696  1.00  0.00    -0.312 OA
HETATM    7  C6  UNL     1       1.012  -0.843   1.900  1.00  0.00     0.144 C 
HETATM    8  N2  UNL     1       2.050  -0.282   1.297  1.00  0.00    -0.211 NA
HETATM    9  C7  UNL     1       2.361  -0.313  -0.136  1.00  0.00     0.130 C 
HETATM   10  C14 UNL     1       1.669  -0.551  -1.291  1.00  0.00     0.052 C 
HETATM   11  C15 UNL     1       0.256  -1.039  -1.296  1.00  0.00     0.028 C 
HETATM   12  C16 UNL     1      -0.442  -1.935  -0.548  1.00  0.00     0.007 C 
HETATM   13  C17 UNL     1      -0.045  -2.771   0.585  1.00  0.00     0.065 C 
HETATM   14  C18 UNL     1       0.531  -2.261   1.805  1.00  0.00     0.092 C 
HETATM   15  N4  UNL     1      -1.750  -1.872  -1.219  1.00  0.00    -0.387 N 
HETATM   16  C19 UNL     1      -1.647  -1.605  -2.640  1.00  0.00     0.149 C 
HETATM   17  C20 UNL     1      -3.112  -2.024  -0.760  1.00  0.00     0.152 C 
HETATM   18  C21 UNL     1      -3.953  -0.792  -0.746  1.00  0.00     0.292 C 
ENDROOT
BRANCH   9  19
HETATM   19  N3  UNL     1       3.706  -0.009  -0.443  1.00  0.00    -0.341 N 
HETATM   20  H12 UNL     1       4.148  -0.882  -0.845  1.00  0.00     0.167 HD
BRANCH  19  21
HETATM   21  C8  UNL     1       4.718   0.960  -0.443  1.00  0.00     0.035 A 
HETATM   22  C9  UNL     1       5.001   1.836  -1.470  1.00  0.00     0.032 A 
HETATM   23  C10 UNL     1       6.039   2.732  -1.311  1.00  0.00     0.046 A 
HETATM   24  C11 UNL     1       6.750   2.714  -0.130  1.00  0.00     0.138 A 
HETATM   25  F1  UNL     1       7.774   3.598   0.025  1.00  0.00    -0.204 F 
HETATM   26  C12 UNL     1       6.503   1.857   0.920  1.00  0.00     0.074 A 
HETATM   27 CL1  UNL     1       7.441   1.876   2.406  1.00  0.00    -0.081 Cl
HETATM   28  C13 UNL     1       5.449   0.958   0.741  1.00  0.00     0.056 A 
ENDBRANCH  19  21
ENDBRANCH   9  19
BRANCH   1  29
HETATM   29  C2  UNL     1      -4.361   1.346   0.168  1.00  0.00     0.268 C 
HETATM   30  C1  UNL     1      -4.915   1.810  -1.163  1.00  0.00     0.037 C 
ENDBRANCH   1  29
TORSDOF 3
