REMARK  1 active torsions:
REMARK  status: ('A' for Active; 'I' for Inactive)
REMARK    1  A    between atoms: O1_2  and  C2_3 
ROOT
HETATM    1  C2  UNL     1       3.425  -0.123   0.496  1.00  0.00     0.116 C 
HETATM    2  C3  UNL     1       3.379  -1.343   1.371  1.00  0.00    -0.014 C 
HETATM    3  B1  UNL     1       2.183  -2.313   0.911  1.00  0.00     0.221 B 
HETATM    4  C4  UNL     1       0.787  -1.712   0.472  1.00  0.00    -0.013 C 
HETATM    5  N1  UNL     1      -0.233  -2.474   0.757  1.00  0.00    -0.259 NA
HETATM    6  C5  UNL     1      -1.569  -2.052   0.414  1.00  0.00     0.232 C 
HETATM    7  N2  UNL     1      -1.743  -0.759   0.536  1.00  0.00    -0.240 NA
HETATM    8  C6  UNL     1      -3.010  -0.192   0.234  1.00  0.00     0.086 A 
HETATM    9  C7  UNL     1      -4.196  -0.873   0.389  1.00  0.00     0.035 A 
HETATM   10  C8  UNL     1      -5.366  -0.223   0.061  1.00  0.00     0.021 A 
HETATM   11  C9  UNL     1      -5.467   1.066  -0.416  1.00  0.00     0.013 A 
HETATM   12 BR1  UNL     1      -7.130   1.881  -0.842  1.00  0.00    -0.051 Br
HETATM   13  C10 UNL     1      -4.249   1.726  -0.561  1.00  0.00     0.052 A 
HETATM   14  C11 UNL     1      -3.049   1.101  -0.240  1.00  0.00     0.080 A 
HETATM   15  N3  UNL     1      -1.897   1.912  -0.442  1.00  0.00    -0.276 N 
HETATM   16  N4  UNL     1      -0.794   2.464   0.212  1.00  0.00    -0.186 NA
HETATM   17  C12 UNL     1       0.312   1.909   0.456  1.00  0.00     0.145 C 
HETATM   18  C13 UNL     1       1.071   0.675   0.307  1.00  0.00    -0.036 C 
HETATM   19  C14 UNL     1       0.525  -0.419  -0.203  1.00  0.00     0.022 C 
HETATM   20  C15 UNL     1       2.442   0.940   0.813  1.00  0.00     0.071 C 
HETATM   21  H7  UNL     1       2.124  -3.365   1.416  1.00  0.00    -0.019 HD
HETATM   22  H12 UNL     1      -1.858   2.210  -1.462  1.00  0.00     0.189 HD
ENDROOT
BRANCH   1  23
HETATM   23  O1  UNL     1       3.481  -0.430  -0.858  1.00  0.00    -0.391 OA
HETATM   24  C1  UNL     1       4.745  -0.056  -1.362  1.00  0.00     0.202 C 
ENDBRANCH   1  23
TORSDOF 1
