REMARK  4 active torsions:
REMARK  status: ('A' for Active; 'I' for Inactive)
REMARK    1  A    between atoms: O1_2  and  C2_3 
REMARK    2  A    between atoms: C6_9  and  N3_10 
REMARK    3  A    between atoms: N3_10  and  C7_11 
REMARK    4  A    between atoms: C15_20  and  O2_21 
ROOT
HETATM    1  C2  UNL     1      -3.234   0.237   0.435  1.00  0.00     0.103 A 
HETATM    2  C3  UNL     1      -2.676   0.063   1.679  1.00  0.00     0.072 A 
HETATM    3  C4  UNL     1      -1.329  -0.192   1.976  1.00  0.00     0.075 A 
HETATM    4  N1  UNL     1      -0.879  -0.361   3.233  1.00  0.00    -0.241 NA
HETATM    5  C5  UNL     1       0.395  -0.614   3.477  1.00  0.00     0.236 A 
HETATM    6  N2  UNL     1       1.235  -0.695   2.427  1.00  0.00    -0.224 NA
HETATM    7  C6  UNL     1       0.818  -0.531   1.163  1.00  0.00     0.141 A 
HETATM    8  C13 UNL     1      -0.505  -0.267   0.841  1.00  0.00     0.042 A 
HETATM    9  C14 UNL     1      -0.997  -0.103  -0.418  1.00  0.00     0.057 A 
HETATM   10  C15 UNL     1      -2.331   0.140  -0.596  1.00  0.00     0.102 A 
ENDROOT
BRANCH   7  11
HETATM   11  N3  UNL     1       1.763  -0.618   0.180  1.00  0.00    -0.343 N 
HETATM   12  H6  UNL     1       2.189   0.366   0.282  1.00  0.00     0.167 HD
BRANCH  11  13
HETATM   13  C7  UNL     1       2.729  -0.708  -0.825  1.00  0.00     0.026 C 
HETATM   14  C8  UNL     1       2.701  -0.167  -2.063  1.00  0.00     0.018 C 
HETATM   15  C9  UNL     1       3.543   0.892  -2.061  1.00  0.00     0.023 C 
HETATM   16 BR1  UNL     1       3.206   2.281  -3.286  1.00  0.00    -0.050 Br
HETATM   17  C10 UNL     1       4.668   0.884  -1.088  1.00  0.00     0.016 C 
HETATM   18  C11 UNL     1       4.988  -0.214  -0.362  1.00  0.00    -0.019 C 
HETATM   19  C12 UNL     1       4.048  -1.385  -0.698  1.00  0.00     0.085 C 
ENDBRANCH  11  13
ENDBRANCH   7  11
BRANCH  10  20
HETATM   20  O2  UNL     1      -2.856   0.305  -1.865  1.00  0.00    -0.353 OA
HETATM   21  C16 UNL     1      -2.076   0.232  -3.021  1.00  0.00     0.210 C 
ENDBRANCH  10  20
BRANCH   1  22
HETATM   22  O1  UNL     1      -4.590   0.484   0.302  1.00  0.00    -0.353 OA
HETATM   23  C1  UNL     1      -5.370   0.561   1.484  1.00  0.00     0.210 C 
ENDBRANCH   1  22
TORSDOF 4
