REMARK  7 active torsions:
REMARK  status: ('A' for Active; 'I' for Inactive)
REMARK    1  A    between atoms: O1_2  and  C2_3 
REMARK    2  A    between atoms: C4_5  and  C5_6 
REMARK    3  A    between atoms: C5_6  and  N1_7 
REMARK    4  A    between atoms: C9_11  and  C10_12 
REMARK    5  A    between atoms: C15_19  and  N3_20 
REMARK    6  A    between atoms: C18_24  and  O2_25 
REMARK    7  A    between atoms: C20_27  and  O3_28 
ROOT
HETATM    1  N1  UNL     1      -0.851  -0.926   1.438  1.00  0.00    -0.337 N 
HETATM    2  C6  UNL     1      -1.324   0.045   2.272  1.00  0.00     0.094 A 
HETATM    3  C7  UNL     1      -2.507   0.494   1.729  1.00  0.00     0.034 A 
HETATM    4  C8  UNL     1      -2.752  -0.203   0.566  1.00  0.00     0.037 A 
HETATM    5  C9  UNL     1      -3.812  -0.090  -0.308  1.00  0.00     0.063 A 
HETATM    6  N2  UNL     1      -3.723  -0.950  -1.368  1.00  0.00    -0.221 NA
HETATM    7  C15 UNL     1      -2.702  -1.810  -1.526  1.00  0.00     0.201 A 
HETATM    8  N4  UNL     1      -1.663  -1.928  -0.677  1.00  0.00    -0.200 NA
HETATM    9  C16 UNL     1      -1.694  -1.095   0.402  1.00  0.00     0.145 A 
ENDROOT
BRANCH   1  10
HETATM   10  C5  UNL     1       0.373  -1.599   1.736  1.00  0.00     0.168 C 
BRANCH  10  11
HETATM   11  C4  UNL     1       1.579  -0.965   1.127  1.00  0.00    -0.034 A 
HETATM   12  C3  UNL     1       2.122   0.078   1.821  1.00  0.00     0.048 A 
HETATM   13  C2  UNL     1       3.261   0.724   1.324  1.00  0.00     0.104 A 
HETATM   14  C20 UNL     1       3.776   0.243   0.119  1.00  0.00     0.135 A 
HETATM   15  C18 UNL     1       3.216  -0.817  -0.577  1.00  0.00     0.104 A 
HETATM   16  C17 UNL     1       2.096  -1.438  -0.071  1.00  0.00     0.048 A 
BRANCH  13  17
HETATM   17  O1  UNL     1       4.021   1.757   1.754  1.00  0.00    -0.353 OA
HETATM   18  C1  UNL     1       3.964   2.584   2.844  1.00  0.00     0.210 C 
ENDBRANCH  13  17
BRANCH  14  19
HETATM   19  O3  UNL     1       4.909   0.736  -0.561  1.00  0.00    -0.351 OA
HETATM   20  C21 UNL     1       6.206   0.240  -0.329  1.00  0.00     0.210 C 
ENDBRANCH  14  19
BRANCH  15  21
HETATM   21  O2  UNL     1       3.687  -1.329  -1.769  1.00  0.00    -0.353 OA
HETATM   22  C19 UNL     1       3.121  -2.391  -2.461  1.00  0.00     0.210 C 
ENDBRANCH  15  21
ENDBRANCH  10  11
ENDBRANCH   1  10
BRANCH   5  23
HETATM   23  C10 UNL     1      -4.954   0.821  -0.210  1.00  0.00     0.085 A 
HETATM   24  C11 UNL     1      -4.650   2.215   0.120  1.00  0.00    -0.011 A 
HETATM   25  C12 UNL     1      -5.003   3.007  -0.878  1.00  0.00     0.016 A 
HETATM   26  C13 UNL     1      -5.586   2.252  -1.994  1.00  0.00     0.007 A 
HETATM   27 BR1  UNL     1      -6.299   2.650  -3.715  1.00  0.00    -0.051 Br
HETATM   28  C14 UNL     1      -5.553   0.962  -1.588  1.00  0.00     0.007 A 
ENDBRANCH   5  23
BRANCH   7  29
HETATM   29  N3  UNL     1      -2.754  -2.637  -2.686  1.00  0.00    -0.271 NA
HETATM   30  H13 UNL     1      -3.129  -2.233  -3.576  1.00  0.00     0.127 HD
HETATM   31  H14 UNL     1      -3.088  -2.426  -3.650  1.00  0.00     0.127 HD
ENDBRANCH   7  29
TORSDOF 7
