REMARK  4 active torsions:
REMARK  status: ('A' for Active; 'I' for Inactive)
REMARK    1  A    between atoms: O1_2  and  C2_3 
REMARK    2  A    between atoms: C10_12  and  O2_13 
REMARK    3  A    between atoms: C13_17  and  N3_18 
REMARK    4  A    between atoms: N5_21  and  C15_22 
ROOT
HETATM    1  C2  UNL     1       3.085   0.626   1.414  1.00  0.00     0.100 C 
HETATM    2  C3  UNL     1       2.299   1.602   1.937  1.00  0.00     0.032 C 
HETATM    3  C4  UNL     1       0.959   2.119   1.525  1.00  0.00     0.155 C 
HETATM    4  N1  UNL     1       0.192   1.289   0.691  1.00  0.00    -0.356 N 
HETATM    5  C5  UNL     1      -1.083   0.592   1.007  1.00  0.00     0.181 C 
HETATM    6  C6  UNL     1      -1.270  -0.400  -0.123  1.00  0.00     0.025 C 
HETATM    7  C7  UNL     1      -0.558  -1.492  -0.545  1.00  0.00     0.005 C 
HETATM    8  C8  UNL     1       0.953  -1.530  -0.619  1.00  0.00     0.074 C 
HETATM    9  C9  UNL     1       1.547  -0.150  -0.313  1.00  0.00     0.028 C 
HETATM   10  C10 UNL     1       2.713  -0.323   0.314  1.00  0.00     0.111 C 
HETATM   11  C12 UNL     1       0.780   1.068  -0.662  1.00  0.00     0.140 C 
HETATM   12  N2  UNL     1       0.388   1.879  -1.575  1.00  0.00    -0.185 NA
HETATM   13  C13 UNL     1      -0.558   2.799  -1.041  1.00  0.00     0.273 C 
HETATM   14  N4  UNL     1      -1.549   2.110  -1.304  1.00  0.00    -0.394 NA
HETATM   15  C14 UNL     1      -2.295   1.094  -1.751  1.00  0.00     0.348 C 
HETATM   16  N5  UNL     1      -2.378  -0.202  -1.036  1.00  0.00    -0.344 N 
ENDROOT
BRANCH  16  17
HETATM   17  C15 UNL     1      -3.139  -1.433  -0.978  1.00  0.00     0.134 A 
HETATM   18  C16 UNL     1      -3.119  -2.143   0.301  1.00  0.00     0.004 A 
HETATM   19  C17 UNL     1      -4.349  -2.154   0.845  1.00  0.00     0.017 A 
HETATM   20  C18 UNL     1      -5.267  -1.438  -0.060  1.00  0.00     0.009 A 
HETATM   21 BR1  UNL     1      -7.129  -1.025  -0.015  1.00  0.00    -0.051 Br
HETATM   22  C19 UNL     1      -4.561  -1.032  -1.097  1.00  0.00     0.021 A 
ENDBRANCH  16  17
BRANCH  13  23
HETATM   23  N3  UNL     1      -0.934   4.020  -0.408  1.00  0.00    -0.358 N 
HETATM   24  H15 UNL     1      -1.436   3.934   0.496  1.00  0.00     0.160 HD
HETATM   25  H16 UNL     1      -0.466   4.444  -1.255  1.00  0.00     0.160 HD
ENDBRANCH  13  23
BRANCH  10  26
HETATM   26  O2  UNL     1       3.336  -1.418  -0.244  1.00  0.00    -0.352 OA
HETATM   27  C11 UNL     1       4.144  -1.357  -1.403  1.00  0.00     0.210 C 
ENDBRANCH  10  26
BRANCH   1  28
HETATM   28  O1  UNL     1       4.358   0.316   1.782  1.00  0.00    -0.353 OA
HETATM   29  C1  UNL     1       4.892  -0.878   2.237  1.00  0.00     0.210 C 
ENDBRANCH   1  28
TORSDOF 4
