REMARK  4 active torsions:
REMARK  status: ('A' for Active; 'I' for Inactive)
REMARK    1  A    between atoms: O1_2  and  N1_3 
REMARK    2  A    between atoms: N1_3  and  C2_4 
REMARK    3  A    between atoms: C3_5  and  O2_6 
REMARK    4  A    between atoms: C12_18  and  N3_19 
ROOT
HETATM    1  C2  UNL     1      -1.688   0.222   0.095  1.00  0.00     0.057 C 
HETATM    2  C3  UNL     1      -1.885  -1.015   0.650  1.00  0.00     0.170 A 
HETATM    3  C5  UNL     1      -1.991  -1.849   1.845  1.00  0.00     0.009 A 
HETATM    4  O3  UNL     1      -1.880  -0.528   2.209  1.00  0.00     0.000 OA
HETATM    5  C6  UNL     1      -2.692  -0.143   3.324  1.00  0.00     0.000 C 
HETATM    6  C7  UNL     1      -2.093  -3.112   1.386  1.00  0.00    -0.002 C 
HETATM    7  P1  UNL     1      -0.554  -3.732   0.964  1.00  0.00    -0.028 P 
HETATM    8  C8  UNL     1       0.473  -2.648   0.086  1.00  0.00     0.166 C 
HETATM    9  N2  UNL     1       1.918  -2.503   0.001  1.00  0.00    -0.381 N 
HETATM   10  C9  UNL     1       3.214  -2.925   0.391  1.00  0.00     0.087 C 
HETATM   11  C10 UNL     1       4.071  -1.892   0.353  1.00  0.00     0.028 C 
HETATM   12  C11 UNL     1       3.228  -0.707   0.020  1.00  0.00    -0.012 C 
HETATM   13  C12 UNL     1       3.299   0.543   0.347  1.00  0.00     0.044 C 
HETATM   14  C13 UNL     1       2.367   1.530  -0.007  1.00  0.00    -0.009 A 
HETATM   15  C14 UNL     1       2.661   2.705  -0.665  1.00  0.00     0.014 A 
HETATM   16  C15 UNL     1       1.619   3.558  -0.962  1.00  0.00     0.001 A 
HETATM   17  C16 UNL     1       0.301   3.316  -0.644  1.00  0.00     0.007 A 
HETATM   18  C17 UNL     1      -0.101   2.177   0.012  1.00  0.00    -0.052 A 
HETATM   19  C18 UNL     1       1.008   1.317   0.304  1.00  0.00     0.021 A 
HETATM   20  C19 UNL     1      -1.365   1.590   0.477  1.00  0.00     0.096 C 
HETATM   21  C20 UNL     1       2.230  -1.351  -0.896  1.00  0.00     0.163 C 
ENDROOT
BRANCH   1  22
HETATM   22  N1  UNL     1      -1.759   0.238  -1.326  1.00  0.00    -0.272 N 
HETATM   23  H4  UNL     1      -1.441   0.097  -2.343  1.00  0.00     0.193 HD
BRANCH  22  24
HETATM   24  O1  UNL     1      -2.964   0.721  -1.696  1.00  0.00    -0.285 OA
HETATM   25  C1  UNL     1      -2.873   1.960  -2.307  1.00  0.00     0.237 C 
ENDBRANCH  22  24
ENDBRANCH   1  22
BRANCH   2  26
HETATM   26  O2  UNL     1      -1.999  -1.288  -0.704  1.00  0.00    -0.370 OA
HETATM   27  C4  UNL     1      -2.985  -2.103  -1.280  1.00  0.00     0.203 C 
ENDBRANCH   2  26
BRANCH  13  28
HETATM   28  N3  UNL     1       4.312   1.077   1.168  1.00  0.00    -0.398 N 
HETATM   29  H15 UNL     1       4.229   1.000   2.211  1.00  0.00     0.156 HD
HETATM   30  H16 UNL     1       5.060   1.508   0.548  1.00  0.00     0.156 HD
ENDBRANCH  13  28
TORSDOF 4
