REMARK  4 active torsions:
REMARK  status: ('A' for Active; 'I' for Inactive)
REMARK    1  A    between atoms: N1_1  and  C1_2 
REMARK    2  A    between atoms: C1_2  and  O1_3 
REMARK    3  A    between atoms: O1_3  and  C2_4 
REMARK    4  A    between atoms: C4_6  and  C5_7 
ROOT
HETATM    1  C2  UNL     1       1.693  -0.060  -0.057  1.00  0.00     0.072 C 
HETATM    2  C3  UNL     1       0.836  -0.041   0.981  1.00  0.00     0.051 C 
HETATM    3  C4  UNL     1      -0.448  -0.702   0.804  1.00  0.00     0.132 A 
HETATM    4  N2  UNL     1      -0.978  -0.933   2.166  1.00  0.00    -0.258 NA
HETATM    5  C11 UNL     1      -1.384  -2.041   2.609  1.00  0.00     0.228 A 
HETATM    6  N3  UNL     1      -1.418  -3.293   1.930  1.00  0.00    -0.254 NA
HETATM    7  C12 UNL     1      -0.956  -3.266   0.717  1.00  0.00     0.130 A 
HETATM    8  C13 UNL     1      -0.431  -2.006   0.134  1.00  0.00     0.020 A 
HETATM    9  C14 UNL     1       0.083  -2.391  -1.051  1.00  0.00     0.147 C 
HETATM   10  O2  UNL     1       0.725  -1.397  -1.800  1.00  0.00    -0.356 OA
HETATM   11  C15 UNL     1       1.816  -0.563  -1.456  1.00  0.00     0.238 C 
ENDROOT
BRANCH   3  12
HETATM   12  C5  UNL     1      -1.475   0.239   0.216  1.00  0.00    -0.018 A 
HETATM   13  C6  UNL     1      -2.788   0.251   0.712  1.00  0.00     0.010 A 
HETATM   14  C7  UNL     1      -3.835   1.043   0.297  1.00  0.00     0.002 A 
HETATM   15  C8  UNL     1      -3.538   1.920  -0.724  1.00  0.00     0.019 A 
HETATM   16  C9  UNL     1      -2.284   1.981  -1.272  1.00  0.00     0.011 A 
HETATM   17 BR1  UNL     1      -1.889   3.196  -2.680  1.00  0.00    -0.051 Br
HETATM   18  C10 UNL     1      -1.306   1.152  -0.793  1.00  0.00     0.029 A 
ENDBRANCH   3  12
BRANCH   1  19
HETATM   19  O1  UNL     1       2.893   0.603   0.218  1.00  0.00    -0.324 OA
BRANCH  19  20
HETATM   20  C1  UNL     1       3.396   1.681  -0.523  1.00  0.00     0.441 C 
BRANCH  20  21
HETATM   21  N1  UNL     1       4.675   2.177  -0.002  1.00  0.00     0.101 N 
HETATM   22  H1  UNL     1       5.185   1.463   0.541  1.00  0.00     0.315 HD
HETATM   23  H2  UNL     1       4.518   3.068   0.547  1.00  0.00     0.315 HD
ENDBRANCH  20  21
ENDBRANCH  19  20
ENDBRANCH   1  19
TORSDOF 4
