REMARK  4 active torsions:
REMARK  status: ('A' for Active; 'I' for Inactive)
REMARK    1  A    between atoms: N1_1  and  C1_2 
REMARK    2  A    between atoms: C1_2  and  C2_3 
REMARK    3  A    between atoms: C2_3  and  C3_4 
REMARK    4  A    between atoms: C3_4  and  N2_5 
ROOT
HETATM    1  C3  UNL     1       0.858   0.489  -0.081  1.00  0.00     0.178 C 
HETATM    2  N3  UNL     1       1.341  -0.046   1.192  1.00  0.00    -0.230 NA
HETATM    3  C9  UNL     1       0.672  -0.937   1.858  1.00  0.00     0.148 C 
HETATM    4  C10 UNL     1      -0.551  -1.762   1.892  1.00  0.00     0.052 C 
HETATM    5  C11 UNL     1      -1.754  -2.171   1.509  1.00  0.00     0.000 C 
HETATM    6  C12 UNL     1      -2.945  -2.088   0.659  1.00  0.00    -0.021 C 
HETATM    7  C13 UNL     1      -3.029  -1.103  -0.223  1.00  0.00     0.051 C 
HETATM    8  C14 UNL     1      -4.024  -0.683  -1.255  1.00  0.00     0.004 C 
HETATM    9  C15 UNL     1      -3.692   0.468  -1.890  1.00  0.00    -0.014 C 
HETATM   10  C16 UNL     1      -2.440   0.677  -1.117  1.00  0.00    -0.039 A 
HETATM   11  C17 UNL     1      -2.949   1.535  -0.105  1.00  0.00     0.012 A 
HETATM   12  C18 UNL     1      -2.088   1.941   0.903  1.00  0.00     0.010 A 
HETATM   13  C19 UNL     1      -0.833   1.733   1.207  1.00  0.00    -0.029 A 
HETATM   14  C20 UNL     1      -0.548   0.889   0.093  1.00  0.00     0.005 A 
HETATM   15  C21 UNL     1      -1.115   0.343  -0.983  1.00  0.00     0.023 A 
HETATM   16  C22 UNL     1       0.332   1.946   2.075  1.00  0.00     0.159 C 
HETATM   17  N4  UNL     1       0.493   0.775   2.990  1.00  0.00    -0.380 N 
HETATM   18  C23 UNL     1       1.636   0.226   3.724  1.00  0.00     0.205 C 
HETATM   19  N5  UNL     1       1.620  -0.835   2.888  1.00  0.00    -0.225 NA
HETATM   20  H21 UNL     1      -0.479   0.358   3.078  1.00  0.00     0.160 HD
ENDROOT
BRANCH   1  21
HETATM   21  C2  UNL     1       1.659   1.665  -0.476  1.00  0.00     0.050 C 
BRANCH  21  22
HETATM   22  C1  UNL     1       2.606   2.553  -0.681  1.00  0.00     0.081 C 
BRANCH  22  23
HETATM   23  N1  UNL     1       3.807   2.024  -0.078  1.00  0.00    -0.408 N 
HETATM   24  H1  UNL     1       4.708   1.576   0.163  1.00  0.00     0.155 HD
HETATM   25  H2  UNL     1       4.436   1.868   0.747  1.00  0.00     0.155 HD
ENDBRANCH  22  23
ENDBRANCH  21  22
ENDBRANCH   1  21
BRANCH   1  26
HETATM   26  N2  UNL     1       1.198  -0.511  -1.046  1.00  0.00    -0.354 N 
HETATM   27  C4  UNL     1       1.063  -0.108  -2.378  1.00  0.00     0.103 C 
HETATM   28  C5  UNL     1       1.604  -0.889  -3.252  1.00  0.00     0.009 C 
HETATM   29 BR1  UNL     1       1.589  -0.581  -5.177  1.00  0.00    -0.054 Br
HETATM   30  C6  UNL     1       2.300  -2.171  -3.457  1.00  0.00     0.043 C 
HETATM   31  C7  UNL     1       2.238  -2.491  -2.045  1.00  0.00     0.020 C 
HETATM   32  C8  UNL     1       1.701  -1.856  -0.764  1.00  0.00     0.131 C 
ENDBRANCH   1  26
TORSDOF 4
