REMARK  6 active torsions:
REMARK  status: ('A' for Active; 'I' for Inactive)
REMARK    1  A    between atoms: N1_1  and  C1_2 
REMARK    2  A    between atoms: N3_5  and  C3_6 
REMARK    3  A    between atoms: C3_6  and  C4_7 
REMARK    4  A    between atoms: C7_10  and  C8_11 
REMARK    5  A    between atoms: C19_22  and  N4_23 
REMARK    6  A    between atoms: N4_23  and  C20_24 
ROOT
HETATM    1  C1  UNL     1       2.874   1.583  -0.518  1.00  0.00     0.723 C 
HETATM    2  N2  UNL     1       1.685   1.943  -1.072  1.00  0.00    -0.058 NA
HETATM    3  C2  UNL     1       0.541   1.985  -0.366  1.00  0.00     0.229 C 
HETATM    4  N3  UNL     1       0.253   1.392   0.800  1.00  0.00    -0.347 N 
HETATM    5  C16 UNL     1       0.873   0.351   1.335  1.00  0.00     0.092 C 
HETATM    6  C17 UNL     1       1.229  -0.906   0.958  1.00  0.00     0.021 C 
HETATM    7  C18 UNL     1       2.245  -0.989   0.028  1.00  0.00     0.052 C 
HETATM    8  C19 UNL     1       3.552  -0.541   0.038  1.00  0.00     0.147 C 
HETATM    9  N5  UNL     1       3.358   0.719   0.391  1.00  0.00    -0.045 NA
ENDROOT
BRANCH   4  10
HETATM   10  C3  UNL     1      -0.835   1.908   1.585  1.00  0.00     0.167 C 
BRANCH  10  11
HETATM   11  C4  UNL     1      -2.070   1.200   1.171  1.00  0.00    -0.040 A 
HETATM   12  C5  UNL     1      -2.835   1.725   0.154  1.00  0.00     0.010 A 
HETATM   13  C6  UNL     1      -3.968   1.031  -0.192  1.00  0.00     0.012 A 
HETATM   14  C7  UNL     1      -4.433  -0.154   0.376  1.00  0.00    -0.030 A 
HETATM   15  C14 UNL     1      -3.598  -0.594   1.382  1.00  0.00     0.012 A 
HETATM   16  C15 UNL     1      -2.448   0.032   1.795  1.00  0.00     0.010 A 
BRANCH  14  17
HETATM   17  C8  UNL     1      -5.657  -0.851  -0.039  1.00  0.00    -0.048 A 
HETATM   18  C9  UNL     1      -5.987  -1.964   0.579  1.00  0.00     0.007 A 
HETATM   19  C10 UNL     1      -7.192  -2.684   0.197  1.00  0.00    -0.003 A 
HETATM   20  C11 UNL     1      -7.861  -2.107  -0.786  1.00  0.00    -0.026 A 
HETATM   21  C12 UNL     1      -7.592  -0.878  -1.542  1.00  0.00     0.032 A 
HETATM   22  C13 UNL     1      -6.348  -0.144  -1.144  1.00  0.00     0.043 A 
ENDBRANCH  14  17
ENDBRANCH  10  11
ENDBRANCH   4  10
BRANCH   1  23
HETATM   23  N1  UNL     1       3.745   2.489  -1.226  1.00  0.00    -0.231 N 
HETATM   24  H1  UNL     1       4.390   2.863  -1.940  1.00  0.00     0.174 HD
HETATM   25  H2  UNL     1       3.878   3.448  -0.809  1.00  0.00     0.174 HD
ENDBRANCH   1  23
BRANCH   8  26
HETATM   26  N4  UNL     1       4.681  -1.346  -0.271  1.00  0.00    -0.341 N 
HETATM   27  H20 UNL     1       4.456  -2.313  -0.512  1.00  0.00     0.167 HD
BRANCH  26  28
HETATM   28  C20 UNL     1       6.015  -0.921  -0.268  1.00  0.00     0.033 A 
HETATM   29  C21 UNL     1       7.043  -1.795  -0.581  1.00  0.00     0.029 A 
HETATM   30  C22 UNL     1       8.363  -1.396  -0.583  1.00  0.00     0.002 A 
HETATM   31  C23 UNL     1       8.721  -0.103  -0.273  1.00  0.00     0.000 A 
HETATM   32  C24 UNL     1       7.738   0.807   0.047  1.00  0.00     0.002 A 
HETATM   33  C25 UNL     1       6.434   0.358   0.034  1.00  0.00     0.029 A 
ENDBRANCH  26  28
ENDBRANCH   8  26
TORSDOF 6
