REMARK  1 active torsions:
REMARK  status: ('A' for Active; 'I' for Inactive)
REMARK       I    between atoms: N1_1  and  C1_2 
REMARK    1  A    between atoms: C8_12  and  C9_13 
ROOT
HETATM    1  N1  UNL     1      -4.121  -1.565   1.459  1.00  0.00    -0.231 N 
HETATM    2  C1  UNL     1      -3.234  -0.991   0.507  1.00  0.00     0.718 C 
HETATM    3  N2  UNL     1      -3.015  -1.330  -0.656  1.00  0.00    -0.076 NA
HETATM    4  C2  UNL     1      -3.325  -2.213  -1.641  1.00  0.00     0.134 C 
HETATM    5  C3  UNL     1      -2.535  -1.566  -2.553  1.00  0.00     0.018 C 
HETATM    6  C4  UNL     1      -1.962  -0.442  -1.812  1.00  0.00     0.110 C 
HETATM    7  C5  UNL     1      -0.816   0.313  -2.531  1.00  0.00     0.080 C 
HETATM    8  P1  UNL     1      -0.238   1.522  -1.279  1.00  0.00    -0.006 P 
HETATM    9 BR1  UNL     1       0.304   3.533  -1.939  1.00  0.00    -0.055 Br
HETATM   10  C6  UNL     1       0.622   0.811   0.139  1.00  0.00    -0.011 A 
HETATM   11  C7  UNL     1       1.865   0.376  -0.277  1.00  0.00     0.026 A 
HETATM   12  C8  UNL     1       2.885  -0.240   0.469  1.00  0.00    -0.025 A 
HETATM   13  C15 UNL     1       2.602  -0.442   1.827  1.00  0.00     0.013 A 
HETATM   14  C16 UNL     1       1.354  -0.008   2.252  1.00  0.00     0.011 A 
HETATM   15  C17 UNL     1       0.361   0.597   1.508  1.00  0.00    -0.028 A 
HETATM   16  C18 UNL     1      -0.782   0.866   2.465  1.00  0.00     0.164 C 
HETATM   17  N3  UNL     1      -1.914   1.403   1.827  1.00  0.00    -0.356 N 
HETATM   18  C19 UNL     1      -2.517   2.573   2.253  1.00  0.00     0.075 A 
HETATM   19  C20 UNL     1      -3.540   2.824   1.374  1.00  0.00     0.115 A 
HETATM   20  C21 UNL     1      -3.876   2.048   0.287  1.00  0.00     0.001 A 
HETATM   21  C22 UNL     1      -2.806   1.393   0.859  1.00  0.00     0.184 A 
HETATM   22  N4  UNL     1      -2.516   0.138   0.959  1.00  0.00    -0.067 NA
HETATM   23  C23 UNL     1      -4.022   1.244  -0.778  1.00  0.00     0.091 C 
HETATM   24  N5  UNL     1      -2.921   0.520  -1.396  1.00  0.00    -0.390 N 
HETATM   25  H1  UNL     1      -4.355  -2.286   2.173  1.00  0.00     0.174 HD
HETATM   26  H2  UNL     1      -4.957  -0.943   1.410  1.00  0.00     0.174 HD
HETATM   27  H21 UNL     1      -2.785   1.462  -1.891  1.00  0.00     0.159 HD
ENDROOT
BRANCH  12  28
HETATM   28  C9  UNL     1       4.184  -0.685  -0.009  1.00  0.00    -0.026 A 
HETATM   29  C10 UNL     1       4.781  -1.770   0.580  1.00  0.00     0.012 A 
HETATM   30  C11 UNL     1       6.013  -2.161   0.099  1.00  0.00     0.001 A 
HETATM   31  C12 UNL     1       6.646  -1.503  -0.935  1.00  0.00     0.000 A 
HETATM   32  C13 UNL     1       6.039  -0.399  -1.535  1.00  0.00     0.001 A 
HETATM   33  C14 UNL     1       4.815  -0.028  -1.041  1.00  0.00     0.012 A 
ENDBRANCH  12  28
TORSDOF 1
