REMARK  6 active torsions:
REMARK  status: ('A' for Active; 'I' for Inactive)
REMARK    1  A    between atoms: C3_3  and  N1_4 
REMARK    2  A    between atoms: C7_8  and  C8_9 
REMARK    3  A    between atoms: C9_10  and  C10_11 
REMARK    4  A    between atoms: C10_11  and  N2_12 
REMARK    5  A    between atoms: C13_17  and  N5_18 
REMARK    6  A    between atoms: N5_18  and  C14_19 
ROOT
HETATM    1  N2  UNL     1      -0.853  -1.249   0.201  1.00  0.00    -0.353 N 
HETATM    2  C11 UNL     1      -1.162  -0.001  -0.409  1.00  0.00     0.140 A 
HETATM    3  N3  UNL     1      -0.689   1.221  -0.718  1.00  0.00    -0.224 NA
HETATM    4  C12 UNL     1      -1.485   2.116  -1.368  1.00  0.00     0.237 A 
HETATM    5  N4  UNL     1      -2.729   1.767  -1.691  1.00  0.00    -0.224 NA
HETATM    6  C13 UNL     1      -3.254   0.544  -1.400  1.00  0.00     0.141 A 
HETATM    7  C20 UNL     1      -2.451  -0.356  -0.746  1.00  0.00     0.056 A 
HETATM    8  C21 UNL     1      -2.184  -1.664  -0.128  1.00  0.00     0.123 A 
HETATM    9  C22 UNL     1      -3.073  -1.974   1.057  1.00  0.00     0.038 C 
ENDROOT
BRANCH   1  10
HETATM   10  C10 UNL     1       0.221  -1.967   0.885  1.00  0.00     0.152 C 
BRANCH  10  11
HETATM   11  C9  UNL     1       1.382  -1.047   0.950  1.00  0.00    -0.007 C 
HETATM   12  C8  UNL     1       2.606  -1.174   0.463  1.00  0.00     0.005 C 
BRANCH  12  13
HETATM   13  C7  UNL     1       3.755  -0.248   0.535  1.00  0.00    -0.054 C 
HETATM   14  C6  UNL     1       3.490   1.006   1.261  1.00  0.00     0.065 C 
HETATM   15  C5  UNL     1       4.382   2.086   0.772  1.00  0.00    -0.020 C 
HETATM   16  C4  UNL     1       5.557   2.216   0.209  1.00  0.00     0.026 C 
HETATM   17  C3  UNL     1       6.412   1.086  -0.122  1.00  0.00     0.031 C 
HETATM   18  C2  UNL     1       6.129  -0.195  -0.257  1.00  0.00    -0.035 C 
HETATM   19  C1  UNL     1       7.211  -1.171  -0.609  1.00  0.00     0.050 C 
HETATM   20  C23 UNL     1       4.803  -0.758  -0.085  1.00  0.00     0.016 C 
BRANCH  17  21
HETATM   21  N1  UNL     1       7.788   1.397  -0.341  1.00  0.00    -0.399 N 
HETATM   22  H4  UNL     1       8.443   1.416   0.487  1.00  0.00     0.156 HD
HETATM   23  H5  UNL     1       7.880   1.556  -1.355  1.00  0.00     0.156 HD
ENDBRANCH  17  21
ENDBRANCH  12  13
ENDBRANCH  10  11
ENDBRANCH   1  10
BRANCH   6  24
HETATM   24  N5  UNL     1      -4.579   0.143  -1.733  1.00  0.00    -0.340 N 
HETATM   25  H15 UNL     1      -4.720  -0.309  -2.652  1.00  0.00     0.167 HD
BRANCH  24  26
HETATM   26  C14 UNL     1      -5.663   0.358  -0.835  1.00  0.00     0.035 A 
HETATM   27  C15 UNL     1      -5.420   0.970   0.383  1.00  0.00     0.029 A 
HETATM   28  C16 UNL     1      -6.544   1.127   1.173  1.00  0.00     0.004 A 
HETATM   29  C17 UNL     1      -7.823   0.728   0.828  1.00  0.00     0.019 A 
HETATM   30  C18 UNL     1      -8.022   0.124  -0.393  1.00  0.00     0.013 A 
HETATM   31 BR1  UNL     1      -9.756  -0.435  -0.900  1.00  0.00    -0.051 Br
HETATM   32  C19 UNL     1      -6.925  -0.049  -1.205  1.00  0.00     0.048 A 
ENDBRANCH  24  26
ENDBRANCH   6  24
TORSDOF 6
