REMARK  4 active torsions:
REMARK  status: ('A' for Active; 'I' for Inactive)
REMARK    1  A    between atoms: C2_2  and  C3_3 
REMARK    2  A    between atoms: C9_9  and  C10_10 
REMARK    3  A    between atoms: C10_10  and  N1_11 
REMARK    4  A    between atoms: C15_17  and  N3_18 
ROOT
HETATM    1  C3  UNL     1      -3.147   1.461  -0.686  1.00  0.00    -0.018 C 
HETATM    2  C4  UNL     1      -3.152   2.632  -0.042  1.00  0.00    -0.018 C 
HETATM    3  C5  UNL     1      -2.188   3.282  -0.731  1.00  0.00    -0.010 C 
HETATM    4  C6  UNL     1      -1.078   2.649  -0.097  1.00  0.00     0.056 C 
HETATM    5  C7  UNL     1       0.255   2.726  -0.807  1.00  0.00    -0.010 C 
HETATM    6  C8  UNL     1       1.020   1.737  -0.366  1.00  0.00    -0.025 C 
HETATM    7  C9  UNL     1       0.247   0.737   0.092  1.00  0.00    -0.042 C 
HETATM    8  C17 UNL     1      -0.707   0.385  -1.056  1.00  0.00     0.056 C 
HETATM    9  C18 UNL     1      -0.139  -0.993  -1.287  1.00  0.00     0.041 C 
HETATM   10  C19 UNL     1      -0.992  -2.094  -0.821  1.00  0.00    -0.024 C 
HETATM   11  C20 UNL     1      -2.259  -1.956  -0.426  1.00  0.00     0.015 C 
HETATM   12  C21 UNL     1      -2.829  -0.607  -0.444  1.00  0.00     0.018 C 
HETATM   13 BR1  UNL     1      -4.669  -0.765   0.152  1.00  0.00    -0.051 Br
HETATM   14  C22 UNL     1      -2.098   0.460  -0.806  1.00  0.00    -0.021 C 
ENDROOT
BRANCH   7  15
HETATM   15  C10 UNL     1       0.650   0.415   1.426  1.00  0.00     0.165 C 
BRANCH  15  16
HETATM   16  N1  UNL     1       1.397  -0.850   1.530  1.00  0.00    -0.337 N 
HETATM   17  C11 UNL     1       0.957  -2.087   1.824  1.00  0.00     0.094 A 
HETATM   18  C12 UNL     1       1.993  -2.993   1.852  1.00  0.00     0.034 A 
HETATM   19  C13 UNL     1       3.098  -2.231   1.555  1.00  0.00     0.030 A 
HETATM   20  C14 UNL     1       4.384  -2.726   1.466  1.00  0.00     0.151 A 
HETATM   21  C16 UNL     1       2.753  -0.912   1.353  1.00  0.00     0.161 A 
HETATM   22  N2  UNL     1       5.338  -1.823   1.158  1.00  0.00    -0.074 NA
HETATM   23  C15 UNL     1       5.039  -0.533   0.958  1.00  0.00     0.721 A 
HETATM   24  N4  UNL     1       3.765  -0.052   1.048  1.00  0.00    -0.044 NA
BRANCH  23  25
HETATM   25  N3  UNL     1       6.054   0.428   0.626  1.00  0.00    -0.231 N 
HETATM   26  H13 UNL     1       6.508   0.528   1.593  1.00  0.00     0.174 HD
HETATM   27  H14 UNL     1       5.903   0.600  -0.403  1.00  0.00     0.174 HD
ENDBRANCH  23  25
ENDBRANCH  15  16
ENDBRANCH   7  15
BRANCH   1  28
HETATM   28  C2  UNL     1      -4.435   1.431  -1.327  1.00  0.00     0.002 C 
HETATM   29  C1  UNL     1      -5.447   0.968  -2.073  1.00  0.00     0.012 C 
ENDBRANCH   1  28
TORSDOF 4
