REMARK  4 active torsions:
REMARK  status: ('A' for Active; 'I' for Inactive)
REMARK    1  A    between atoms: N1_1  and  C1_2 
REMARK    2  A    between atoms: C10_11  and  N2_12 
REMARK    3  A    between atoms: C14_16  and  N3_17 
REMARK    4  A    between atoms: N3_17  and  C15_18 
ROOT
HETATM    1  N2  UNL     1      -0.868   1.708   0.154  1.00  0.00    -0.330 N 
HETATM    2  C11 UNL     1      -0.175   2.482   1.020  1.00  0.00     0.095 A 
HETATM    3  C12 UNL     1       1.087   1.939   0.976  1.00  0.00     0.036 A 
HETATM    4  C13 UNL     1       1.160   0.866   0.107  1.00  0.00     0.057 A 
HETATM    5  C14 UNL     1       2.195   0.028  -0.255  1.00  0.00     0.143 A 
HETATM    6  N4  UNL     1       1.872  -0.919  -1.147  1.00  0.00    -0.223 NA
HETATM    7  C21 UNL     1       0.642  -1.060  -1.661  1.00  0.00     0.237 A 
HETATM    8  N5  UNL     1      -0.336  -0.228  -1.285  1.00  0.00    -0.223 NA
HETATM    9  C22 UNL     1      -0.113   0.754  -0.396  1.00  0.00     0.145 A 
ENDROOT
BRANCH   1  10
HETATM   10  C10 UNL     1      -2.287   1.907  -0.139  1.00  0.00     0.144 A 
HETATM   11  C1  UNL     1      -3.080   0.917   0.673  1.00  0.00     0.037 A 
HETATM   12  C2  UNL     1      -3.954   0.017   0.248  1.00  0.00    -0.002 A 
HETATM   13  C3  UNL     1      -4.563  -0.788   1.189  1.00  0.00     0.014 A 
HETATM   14  C7  UNL     1      -4.214  -0.076  -1.084  1.00  0.00    -0.028 A 
HETATM   15  C4  UNL     1      -5.472  -1.716   0.689  1.00  0.00     0.001 A 
HETATM   16  C5  UNL     1      -5.738  -1.814  -0.662  1.00  0.00     0.001 A 
HETATM   17  C6  UNL     1      -5.116  -0.997  -1.576  1.00  0.00     0.012 A 
HETATM   18  C8  UNL     1      -3.585   0.733  -1.901  1.00  0.00    -0.012 A 
HETATM   19  C9  UNL     1      -2.581   1.792  -1.595  1.00  0.00     0.060 A 
BRANCH  11  20
HETATM   20  N1  UNL     1      -2.727   1.104   2.060  1.00  0.00    -0.400 N 
HETATM   21  H1  UNL     1      -2.286   0.611   2.868  1.00  0.00     0.156 HD
HETATM   22  H2  UNL     1      -2.833   1.898   2.726  1.00  0.00     0.156 HD
ENDBRANCH  11  20
ENDBRANCH   1  10
BRANCH   5  23
HETATM   23  N3  UNL     1       3.477   0.227   0.323  1.00  0.00    -0.340 N 
HETATM   24  H13 UNL     1       3.569   1.025   1.017  1.00  0.00     0.167 HD
BRANCH  23  25
HETATM   25  C15 UNL     1       4.676  -0.498   0.108  1.00  0.00     0.035 A 
HETATM   26  C16 UNL     1       5.859  -0.156   0.773  1.00  0.00     0.029 A 
HETATM   27  C17 UNL     1       7.024  -0.852   0.570  1.00  0.00     0.004 A 
HETATM   28  C18 UNL     1       7.092  -1.913  -0.289  1.00  0.00     0.019 A 
HETATM   29  C19 UNL     1       5.961  -2.286  -0.963  1.00  0.00     0.013 A 
HETATM   30 BR1  UNL     1       6.031  -3.764  -2.169  1.00  0.00    -0.051 Br
HETATM   31  C20 UNL     1       4.811  -1.572  -0.741  1.00  0.00     0.048 A 
ENDBRANCH  23  25
ENDBRANCH   5  23
TORSDOF 4
