REMARK  4 active torsions:
REMARK  status: ('A' for Active; 'I' for Inactive)
REMARK    1  A    between atoms: C1_2  and  C2_3 
REMARK    2  A    between atoms: C3_4  and  C4_5 
REMARK    3  A    between atoms: C5_6  and  N1_7 
REMARK    4  A    between atoms: N1_7  and  C6_8 
ROOT
HETATM    1  C6  UNL     1      -0.289   1.035   1.277  1.00  0.00     0.112 C 
HETATM    2  C7  UNL     1      -0.375   2.510   1.446  1.00  0.00     0.051 C 
HETATM    3  C8  UNL     1       0.152   3.280   0.271  1.00  0.00     0.152 C 
HETATM    4  N2  UNL     1      -0.471   3.085  -0.982  1.00  0.00    -0.285 NA
HETATM    5  C9  UNL     1      -1.773   3.054  -1.149  1.00  0.00     0.196 C 
HETATM    6  N3  UNL     1      -2.611   3.213  -0.054  1.00  0.00    -0.381 N 
HETATM    7  C10 UNL     1      -3.335   2.014   0.092  1.00  0.00     0.159 C 
HETATM    8  C11 UNL     1      -2.601   0.740   0.083  1.00  0.00    -0.031 A 
HETATM    9  C12 UNL     1      -3.341  -0.275  -0.554  1.00  0.00     0.021 A 
HETATM   10  C13 UNL     1      -2.939  -1.577  -0.733  1.00  0.00    -0.025 A 
HETATM   11  C14 UNL     1      -3.745  -2.500  -1.375  1.00  0.00     0.012 A 
HETATM   12  C15 UNL     1      -3.349  -3.806  -1.559  1.00  0.00     0.001 A 
HETATM   13  C16 UNL     1      -2.117  -4.168  -1.081  1.00  0.00     0.001 A 
HETATM   14  C17 UNL     1      -1.315  -3.260  -0.445  1.00  0.00     0.012 A 
HETATM   15  C18 UNL     1      -1.724  -1.955  -0.268  1.00  0.00    -0.025 A 
HETATM   16  C19 UNL     1      -0.984  -0.984   0.356  1.00  0.00     0.022 A 
HETATM   17  C20 UNL     1      -1.374   0.354   0.552  1.00  0.00    -0.027 A 
HETATM   18  H14 UNL     1      -2.367   4.177   0.217  1.00  0.00     0.160 HD
ENDROOT
BRANCH   1  19
HETATM   19  N1  UNL     1       1.031   0.543   1.004  1.00  0.00    -0.404 N 
HETATM   20  H7  UNL     1       1.020   1.055   0.051  1.00  0.00     0.154 HD
BRANCH  19  21
HETATM   21  C5  UNL     1       2.316   0.064   0.738  1.00  0.00     0.126 C 
HETATM   22  C4  UNL     1       3.159  -0.699   1.390  1.00  0.00    -0.000 C 
BRANCH  22  23
HETATM   23  C3  UNL     1       4.130  -0.568   0.282  1.00  0.00    -0.004 C 
HETATM   24  C2  UNL     1       5.368  -1.013  -0.004  1.00  0.00     0.004 C 
BRANCH  24  25
HETATM   25  C1  UNL     1       6.634  -1.224  -0.745  1.00  0.00     0.249 C 
HETATM   26  F1  UNL     1       7.687  -0.763  -0.011  1.00  0.00    -0.251 F 
ENDBRANCH  24  25
ENDBRANCH  22  23
ENDBRANCH  19  21
ENDBRANCH   1  19
TORSDOF 4
