REMARK  0 active torsions:
REMARK  status: ('A' for Active; 'I' for Inactive)
ROOT
HETATM    1  N1  UNL     1       0.610  -2.381   0.086  1.00  0.00     0.008 N 
HETATM    2  C1  UNL     1       0.242  -0.985  -0.142  1.00  0.00     0.167 C 
HETATM    3  C2  UNL     1       0.746   0.009   0.510  1.00  0.00     0.007 C 
HETATM    4  C3  UNL     1       1.721  -0.682   1.427  1.00  0.00     0.010 C 
HETATM    5  C4  UNL     1       2.666  -0.619   2.380  1.00  0.00    -0.025 C 
HETATM    6  C5  UNL     1       2.935   0.839   2.731  1.00  0.00     0.032 C 
HETATM    7  C6  UNL     1       2.493   1.694   1.526  1.00  0.00     0.044 C 
HETATM    8  C7  UNL     1       1.194   1.216   1.127  1.00  0.00    -0.030 C 
HETATM    9  C8  UNL     1       0.384   2.243   1.643  1.00  0.00     0.101 C 
HETATM   10  N2  UNL     1      -0.812   1.496   1.243  1.00  0.00    -0.331 N 
HETATM   11  C9  UNL     1      -1.557   0.690   1.979  1.00  0.00     0.094 A 
HETATM   12  C10 UNL     1      -2.302   0.112   0.929  1.00  0.00     0.028 A 
HETATM   13  C11 UNL     1      -1.926   0.619  -0.223  1.00  0.00     0.015 A 
HETATM   14  C12 UNL     1      -1.541   1.132  -1.343  1.00  0.00     0.161 A 
HETATM   15  N3  UNL     1      -1.003   1.789  -2.377  1.00  0.00    -0.258 NA
HETATM   16  C13 UNL     1      -0.031   2.721  -2.037  1.00  0.00     0.226 A 
HETATM   17  N4  UNL     1      -0.224   2.367  -0.836  1.00  0.00    -0.243 NA
HETATM   18  C14 UNL     1      -0.940   1.565  -0.122  1.00  0.00     0.196 A 
HETATM   19  C15 UNL     1      -1.666  -0.297  -1.904  1.00  0.00    -0.005 A 
HETATM   20  C16 UNL     1      -2.520  -0.478  -2.919  1.00  0.00     0.011 A 
HETATM   21  C17 UNL     1      -2.405  -1.741  -3.439  1.00  0.00     0.002 A 
HETATM   22  C18 UNL     1      -1.548  -2.682  -2.994  1.00  0.00     0.021 A 
HETATM   23  C19 UNL     1      -0.707  -2.346  -1.912  1.00  0.00     0.041 A 
HETATM   24 BR1  UNL     1       0.458  -3.821  -1.471  1.00  0.00     0.105 Br
HETATM   25  C20 UNL     1      -0.687  -1.130  -1.265  1.00  0.00     0.028 A 
HETATM   26  H1  UNL     1       0.440  -2.915   1.001  1.00  0.00     0.298 HD
HETATM   27  H2  UNL     1       0.418  -2.857   1.008  1.00  0.00     0.298 HD
ENDROOT
TORSDOF 0
