REMARK  6 active torsions:
REMARK  status: ('A' for Active; 'I' for Inactive)
REMARK    1  A    between atoms: C2_2  and  C3_3 
REMARK    2  A    between atoms: N1_9  and  C9_10 
REMARK    3  A    between atoms: C11_12  and  N2_13 
REMARK    4  A    between atoms: N2_13  and  P1_14 
REMARK    5  A    between atoms: P1_14  and  C12_15 
REMARK    6  A    between atoms: C18_23  and  N4_24 
ROOT
HETATM    1  C9  UNL     1      -0.029  -0.628   0.414  1.00  0.00     0.152 A 
HETATM    2  C10 UNL     1       0.382   0.556  -0.158  1.00  0.00     0.102 A 
HETATM    3  C11 UNL     1       1.654   1.057   0.154  1.00  0.00     0.149 A 
HETATM    4  N3  UNL     1       2.412   0.348   1.004  1.00  0.00    -0.045 NA
HETATM    5  C18 UNL     1       2.006  -0.808   1.560  1.00  0.00     0.724 A 
HETATM    6  N5  UNL     1       0.786  -1.284   1.257  1.00  0.00    -0.045 NA
ENDROOT
BRANCH   1   7
HETATM    7  N1  UNL     1      -1.337  -0.927  -0.040  1.00  0.00    -0.338 N 
HETATM    8  C8  UNL     1      -2.140  -1.825  -0.823  1.00  0.00     0.157 C 
HETATM    9  C7  UNL     1      -2.641  -1.270  -2.082  1.00  0.00    -0.007 C 
HETATM   10  C6  UNL     1      -3.746  -0.806  -2.700  1.00  0.00    -0.003 C 
HETATM   11  C5  UNL     1      -5.171  -0.577  -2.369  1.00  0.00    -0.004 C 
HETATM   12  C4  UNL     1      -5.951  -0.682  -1.300  1.00  0.00    -0.018 C 
HETATM   13  C3  UNL     1      -6.156  -0.992   0.117  1.00  0.00     0.033 C 
HETATM   14  C21 UNL     1      -4.884  -1.362   0.869  1.00  0.00     0.041 C 
HETATM   15  C20 UNL     1      -3.781  -0.428   0.680  1.00  0.00    -0.008 C 
HETATM   16  C19 UNL     1      -2.493  -0.121   0.366  1.00  0.00     0.089 C 
BRANCH  13  17
HETATM   17  C2  UNL     1      -6.698   0.291   0.746  1.00  0.00    -0.028 C 
HETATM   18  C1  UNL     1      -6.872   1.444   0.083  1.00  0.00     0.007 C 
ENDBRANCH  13  17
ENDBRANCH   1   7
BRANCH   3  19
HETATM   19  N2  UNL     1       2.188   2.261  -0.377  1.00  0.00    -0.347 N 
HETATM   20  H12 UNL     1       1.603   2.830  -1.049  1.00  0.00     0.166 HD
BRANCH  19  21
HETATM   21  P1  UNL     1       3.767   2.995  -0.073  1.00  0.00     0.006 P 
HETATM   22  H13 UNL     1       3.750   3.602   1.229  1.00  0.00     0.085 HD
BRANCH  21  23
HETATM   23  C12 UNL     1       5.095   1.749  -0.105  1.00  0.00    -0.016 C 
HETATM   24  C13 UNL     1       6.187   2.206   0.530  1.00  0.00     0.013 C 
HETATM   25  C14 UNL     1       7.488   1.476   0.718  1.00  0.00     0.196 C 
HETATM   26  O1  UNL     1       7.175   0.175   1.128  1.00  0.00    -0.384 OA
HETATM   27  C15 UNL     1       7.108  -0.677   0.030  1.00  0.00     0.195 C 
HETATM   28  C16 UNL     1       5.808  -0.566  -0.678  1.00  0.00     0.000 C 
HETATM   29  C17 UNL     1       4.955   0.443  -0.744  1.00  0.00     0.011 C 
ENDBRANCH  21  23
ENDBRANCH  19  21
ENDBRANCH   3  19
BRANCH   5  30
HETATM   30  N4  UNL     1       2.788  -1.583   2.465  1.00  0.00    -0.231 N 
HETATM   31  H21 UNL     1       3.374  -1.310   3.277  1.00  0.00     0.174 HD
HETATM   32  H22 UNL     1       2.789  -2.623   2.300  1.00  0.00     0.174 HD
ENDBRANCH   5  30
TORSDOF 6
