REMARK  10 active torsions:
REMARK  status: ('A' for Active; 'I' for Inactive)
REMARK    1  A    between atoms: C2_2  and  C3_3 
REMARK    2  A    between atoms: C3_3  and  C4_4 
REMARK    3  A    between atoms: C4_4  and  C5_5 
REMARK    4  A    between atoms: C5_5  and  C6_6 
REMARK    5  A    between atoms: C6_6  and  C7_7 
REMARK    6  A    between atoms: C7_7  and  N1_8 
REMARK    7  A    between atoms: C11_12  and  N2_13 
REMARK    8  A    between atoms: N2_13  and  C12_14 
REMARK    9  A    between atoms: C12_14  and  C13_15 
REMARK   10  A    between atoms: C13_15  and  C14_16 
ROOT
HETATM    1  N1  UNL     1       0.053   0.804   0.445  1.00  0.00    -0.341 N 
HETATM    2  C8  UNL     1      -0.799  -0.156   0.504  1.00  0.00     0.093 A 
HETATM    3  C9  UNL     1      -1.503  -0.919  -0.296  1.00  0.00     0.036 A 
HETATM    4  C10 UNL     1      -0.907  -0.213  -1.429  1.00  0.00     0.057 A 
HETATM    5  C11 UNL     1      -0.904  -0.023  -2.972  1.00  0.00     0.139 A 
HETATM    6  N3  UNL     1      -0.216   0.873  -3.592  1.00  0.00    -0.224 NA
HETATM    7  C16 UNL     1       0.605   1.776  -2.960  1.00  0.00     0.237 A 
HETATM    8  N4  UNL     1       0.693   1.716  -1.724  1.00  0.00    -0.223 NA
HETATM    9  C17 UNL     1       0.000   0.790  -0.942  1.00  0.00     0.145 A 
ENDROOT
BRANCH   1  10
HETATM   10  C7  UNL     1       0.658   1.236   1.664  1.00  0.00     0.131 C 
BRANCH  10  11
HETATM   11  C6  UNL     1       1.271  -0.093   2.220  1.00  0.00    -0.005 C 
BRANCH  11  12
HETATM   12  C5  UNL     1       1.916  -1.128   2.642  1.00  0.00     0.026 C 
BRANCH  12  13
HETATM   13  C4  UNL     1       2.463  -2.503   3.227  1.00  0.00     0.000 C 
BRANCH  13  14
HETATM   14  C3  UNL     1       3.760  -1.979   3.033  1.00  0.00    -0.000 C 
BRANCH  14  15
HETATM   15  C2  UNL     1       3.952  -0.672   2.488  1.00  0.00     0.013 C 
HETATM   16  C1  UNL     1       5.290  -0.406   2.387  1.00  0.00    -0.012 C 
ENDBRANCH  14  15
ENDBRANCH  13  14
ENDBRANCH  12  13
ENDBRANCH  11  12
ENDBRANCH  10  11
ENDBRANCH   1  10
BRANCH   5  17
HETATM   17  N2  UNL     1      -1.956  -0.871  -3.501  1.00  0.00    -0.374 N 
HETATM   18  H12 UNL     1      -2.154  -1.601  -4.211  1.00  0.00     0.161 HD
BRANCH  17  19
HETATM   19  C12 UNL     1      -3.014  -0.432  -2.681  1.00  0.00     0.064 C 
BRANCH  19  20
HETATM   20  C13 UNL     1      -4.235  -0.208  -1.893  1.00  0.00     0.051 C 
BRANCH  20  21
HETATM   21  C14 UNL     1      -4.004   1.193  -1.246  1.00  0.00     0.038 C 
HETATM   22  C15 UNL     1      -4.511   2.060  -0.340  1.00  0.00     0.057 C 
HETATM   23 BR1  UNL     1      -5.958   2.044   0.818  1.00  0.00    -0.068 Br
ENDBRANCH  20  21
ENDBRANCH  19  20
ENDBRANCH  17  19
ENDBRANCH   5  17
TORSDOF 10
