REMARK  4 active torsions:
REMARK  status: ('A' for Active; 'I' for Inactive)
REMARK    1  A    between atoms: C13_14  and  C14_15 
REMARK    2  A    between atoms: C13_14  and  N4_18 
REMARK    3  A    between atoms: C14_15  and  N2_16 
REMARK    4  A    between atoms: N2_16  and  N3_17 
ROOT
HETATM    1  C1  UNL     1       1.203  -2.309   1.355  1.00  0.00     0.031 C 
HETATM    2  C2  UNL     1       1.166  -1.152   0.390  1.00  0.00     0.045 A 
HETATM    3  C3  UNL     1       1.770  -1.440  -0.896  1.00  0.00     0.006 A 
HETATM    4  C4  UNL     1       2.878  -0.692  -1.034  1.00  0.00    -0.026 A 
HETATM    5  C5  UNL     1       3.847  -0.544  -2.032  1.00  0.00     0.012 A 
HETATM    6  C6  UNL     1       4.890   0.342  -1.903  1.00  0.00     0.001 A 
HETATM    7  C7  UNL     1       5.024   1.122  -0.782  1.00  0.00     0.001 A 
HETATM    8  C8  UNL     1       4.095   1.014   0.233  1.00  0.00     0.014 A 
HETATM    9  C9  UNL     1       3.062   0.117   0.072  1.00  0.00    -0.003 A 
HETATM   10  C10 UNL     1       2.091  -0.086   0.940  1.00  0.00     0.033 A 
HETATM   11  N1  UNL     1       1.379   0.150   2.154  1.00  0.00    -0.387 N 
HETATM   12  C11 UNL     1      -0.013  -0.247   1.891  1.00  0.00     0.157 C 
HETATM   13  C12 UNL     1      -0.089  -0.413   0.415  1.00  0.00    -0.020 C 
HETATM   14  C13 UNL     1      -1.065   0.051  -0.340  1.00  0.00     0.031 C 
HETATM   15  H9  UNL     1       1.860   0.537   3.003  1.00  0.00     0.159 HD
ENDROOT
BRANCH  14  16
HETATM   16  C14 UNL     1      -1.164  -0.100  -1.812  1.00  0.00     0.162 C 
BRANCH  16  17
HETATM   17  N2  UNL     1      -2.373  -0.816  -2.178  1.00  0.00    -0.258 NA
HETATM   18  H14 UNL     1      -3.229  -0.325  -1.863  1.00  0.00     0.140 HD
BRANCH  17  19
HETATM   19  N3  UNL     1      -2.378  -2.091  -1.606  1.00  0.00    -0.270 NA
HETATM   20  H15 UNL     1      -1.897  -2.800  -2.175  1.00  0.00     0.137 HD
HETATM   21  H16 UNL     1      -3.322  -2.409  -1.346  1.00  0.00     0.137 HD
ENDBRANCH  17  19
ENDBRANCH  16  17
ENDBRANCH  14  16
BRANCH  14  22
HETATM   22  N4  UNL     1      -2.145   0.764   0.223  1.00  0.00    -0.355 N 
HETATM   23  C15 UNL     1      -2.971   0.083   1.160  1.00  0.00     0.092 A 
HETATM   24  C16 UNL     1      -3.982   0.733   1.696  1.00  0.00     0.036 A 
HETATM   25  C17 UNL     1      -4.311   2.115   1.387  1.00  0.00     0.010 A 
HETATM   26 BR1  UNL     1      -5.771   3.070   2.153  1.00  0.00    -0.051 Br
HETATM   27  C18 UNL     1      -3.511   2.709   0.506  1.00  0.00     0.012 A 
HETATM   28  C19 UNL     1      -2.331   2.140  -0.197  1.00  0.00     0.157 A 
ENDBRANCH  14  22
TORSDOF 4
