REMARK  3 active torsions:
REMARK  status: ('A' for Active; 'I' for Inactive)
REMARK    1  A    between atoms: N1_1  and  C1_2 
REMARK    2  A    between atoms: C2_3  and  C3_4 
REMARK    3  A    between atoms: C11_12  and  C12_13 
ROOT
HETATM    1  C3  UNL     1       2.237   1.204   0.092  1.00  0.00    -0.033 C 
HETATM    2  C4  UNL     1       2.656  -0.033   0.431  1.00  0.00     0.040 C 
HETATM    3  C5  UNL     1       2.058  -1.227   1.083  1.00  0.00     0.028 C 
HETATM    4  C6  UNL     1       1.159  -1.135   2.110  1.00  0.00     0.030 C 
HETATM    5  C7  UNL     1      -0.089  -0.337   2.352  1.00  0.00     0.012 C 
HETATM    6  C8  UNL     1      -0.686   0.147   1.239  1.00  0.00    -0.029 C 
HETATM    7  C9  UNL     1      -0.325   1.262   0.334  1.00  0.00     0.010 C 
HETATM    8  C10 UNL     1       0.876   1.807   0.045  1.00  0.00     0.012 C 
HETATM    9  C11 UNL     1      -1.913  -0.491   0.626  1.00  0.00     0.175 C 
HETATM   10  N2  UNL     1      -1.464  -1.311  -0.440  1.00  0.00    -0.268 NA
HETATM   11  C18 UNL     1      -2.037  -2.242  -1.021  1.00  0.00     0.227 C 
HETATM   12  N3  UNL     1      -0.752  -2.179  -1.692  1.00  0.00    -0.259 NA
HETATM   13  C19 UNL     1       0.154  -3.050  -1.303  1.00  0.00     0.092 C 
HETATM   14  C20 UNL     1       1.535  -3.553  -1.487  1.00  0.00     0.066 C 
HETATM   15  C21 UNL     1       2.332  -3.622  -0.216  1.00  0.00     0.125 C 
HETATM   16  N4  UNL     1       2.593  -2.351   0.410  1.00  0.00    -0.390 N 
HETATM   17  H21 UNL     1       3.607  -2.062   0.420  1.00  0.00     0.159 HD
ENDROOT
BRANCH   9  18
HETATM   18  C12 UNL     1      -2.993   0.415   0.338  1.00  0.00    -0.028 A 
HETATM   19  C13 UNL     1      -3.972   0.118  -0.583  1.00  0.00     0.010 A 
HETATM   20  C14 UNL     1      -5.046   0.927  -0.883  1.00  0.00     0.002 A 
HETATM   21  C15 UNL     1      -5.195   2.134  -0.241  1.00  0.00     0.019 A 
HETATM   22  C16 UNL     1      -4.263   2.519   0.699  1.00  0.00     0.011 A 
HETATM   23 BR1  UNL     1      -4.427   4.170   1.606  1.00  0.00    -0.051 Br
HETATM   24  C17 UNL     1      -3.224   1.651   0.937  1.00  0.00     0.028 A 
ENDBRANCH   9  18
BRANCH   1  25
HETATM   25  C2  UNL     1       3.292   2.114  -0.306  1.00  0.00     0.028 C 
HETATM   26  C1  UNL     1       3.284   3.354  -0.691  1.00  0.00     0.081 C 
BRANCH  26  27
HETATM   27  N1  UNL     1       4.436   4.141  -1.062  1.00  0.00    -0.408 N 
HETATM   28  H1  UNL     1       4.517   4.651  -1.988  1.00  0.00     0.155 HD
HETATM   29  H2  UNL     1       5.242   4.210  -0.369  1.00  0.00     0.155 HD
ENDBRANCH  26  27
ENDBRANCH   1  25
TORSDOF 3
