REMARK  3 active torsions:
REMARK  status: ('A' for Active; 'I' for Inactive)
REMARK    1  A    between atoms: O1_2  and  C2_3 
REMARK    2  A    between atoms: C12_16  and  N3_17 
REMARK    3  A    between atoms: C15_20  and  N4_21 
ROOT
HETATM    1  C2  UNL     1       0.447   0.606   0.011  1.00  0.00     0.163 C 
HETATM    2  C3  UNL     1       1.394   0.587  -1.156  1.00  0.00     0.172 C 
HETATM    3  N1  UNL     1       1.775  -0.770  -1.461  1.00  0.00    -0.369 N 
HETATM    4  C4  UNL     1       2.923  -0.987  -2.316  1.00  0.00     0.204 C 
HETATM    5  N2  UNL     1       3.726  -1.176  -1.331  1.00  0.00    -0.257 NA
HETATM    6  C5  UNL     1       5.103  -1.456  -1.486  1.00  0.00     0.116 C 
HETATM    7  C6  UNL     1       5.567  -0.843  -0.399  1.00  0.00     0.019 C 
HETATM    8  C7  UNL     1       4.918  -0.086   0.679  1.00  0.00     0.204 C 
HETATM    9  O2  UNL     1       3.541  -0.033   0.469  1.00  0.00    -0.349 OA
HETATM   10  C8  UNL     1       2.605   0.561   1.296  1.00  0.00     0.092 A 
HETATM   11  C9  UNL     1       2.899   1.490   2.223  1.00  0.00     0.035 A 
HETATM   12  C10 UNL     1       1.683   1.907   2.921  1.00  0.00     0.002 A 
HETATM   13  C11 UNL     1       0.695   1.221   2.398  1.00  0.00     0.025 A 
HETATM   14  C12 UNL     1       1.171   0.294   1.310  1.00  0.00     0.259 A 
HETATM   15  C13 UNL     1       1.144  -1.994  -1.021  1.00  0.00     0.153 C 
HETATM   16  C14 UNL     1      -0.215  -1.703  -0.444  1.00  0.00     0.021 C 
HETATM   17  C15 UNL     1      -0.579  -0.449  -0.197  1.00  0.00     0.045 C 
ENDROOT
BRANCH  17  18
HETATM   18  N4  UNL     1      -2.025  -0.391  -0.176  1.00  0.00    -0.378 N 
HETATM   19  C16 UNL     1      -2.904  -0.868  -1.238  1.00  0.00     0.153 C 
HETATM   20  C17 UNL     1      -4.218  -0.133  -1.123  1.00  0.00     0.291 C 
HETATM   21  N5  UNL     1      -4.931  -0.512   0.082  1.00  0.00     0.087 N 
HETATM   22  C18 UNL     1      -5.872   0.534   0.428  1.00  0.00     0.310 C 
HETATM   23  C19 UNL     1      -4.021  -0.701   1.195  1.00  0.00     0.291 C 
HETATM   24  C20 UNL     1      -2.780   0.167   0.956  1.00  0.00     0.153 C 
ENDBRANCH  17  18
BRANCH   1  25
HETATM   25  O1  UNL     1      -0.138   1.862   0.157  1.00  0.00    -0.373 OA
HETATM   26  C1  UNL     1      -0.856   2.325  -0.902  1.00  0.00     0.203 C 
ENDBRANCH   1  25
BRANCH  14  27
HETATM   27  N3  UNL     1       0.918  -1.057   1.761  1.00  0.00     0.102 N 
HETATM   28  H14 UNL     1       0.223  -1.073   2.542  1.00  0.00     0.314 HD
HETATM   29  H15 UNL     1       1.775  -1.522   2.132  1.00  0.00     0.314 HD
ENDBRANCH  14  27
TORSDOF 3
