REMARK  8 active torsions:
REMARK  status: ('A' for Active; 'I' for Inactive)
REMARK    1  A    between atoms: C8_8  and  C9_9 
REMARK    2  A    between atoms: C9_9  and  N1_10 
REMARK    3  A    between atoms: C13_14  and  C14_15 
REMARK    4  A    between atoms: C15_16  and  C16_17 
REMARK    5  A    between atoms: C16_17  and  C17_18 
REMARK    6  A    between atoms: C17_18  and  C18_19 
REMARK    7  A    between atoms: C18_19  and  N2_21 
REMARK    8  A    between atoms: C20_23  and  N4_24 
ROOT
HETATM    1  C1  UNL     1      -5.913  -2.723  -0.903  1.00  0.00     0.018 C 
HETATM    2  C2  UNL     1      -5.639  -1.841  -0.137  1.00  0.00    -0.077 C 
HETATM    3  C3  UNL     1      -5.284  -0.760   0.782  1.00  0.00     0.024 A 
HETATM    4  C4  UNL     1      -5.875  -0.846   1.989  1.00  0.00     0.021 A 
HETATM    5  C5  UNL     1      -5.619   0.162   2.894  1.00  0.00     0.002 A 
HETATM    6  C6  UNL     1      -4.775   1.181   2.481  1.00  0.00     0.001 A 
HETATM    7  C7  UNL     1      -4.208   1.208   1.241  1.00  0.00     0.010 A 
HETATM    8  C8  UNL     1      -4.415   0.223   0.265  1.00  0.00    -0.021 A 
ENDROOT
BRANCH   8   9
HETATM    9  C9  UNL     1      -3.834   0.041  -1.074  1.00  0.00     0.170 C 
BRANCH   9  10
HETATM   10  N1  UNL     1      -2.465   0.429  -1.032  1.00  0.00    -0.336 N 
HETATM   11  C10 UNL     1      -2.045   1.624  -1.548  1.00  0.00     0.094 A 
HETATM   12  C11 UNL     1      -0.671   1.721  -1.443  1.00  0.00     0.035 A 
HETATM   13  C12 UNL     1      -0.288   0.549  -0.849  1.00  0.00     0.041 A 
HETATM   14  C13 UNL     1       1.002   0.144  -0.476  1.00  0.00     0.090 A 
HETATM   15  C21 UNL     1      -1.378  -0.243  -0.597  1.00  0.00     0.162 A 
HETATM   16  N3  UNL     1       1.122  -1.072   0.139  1.00  0.00    -0.062 NA
HETATM   17  C20 UNL     1       0.041  -1.842   0.377  1.00  0.00     0.722 A 
HETATM   18  N5  UNL     1      -1.200  -1.441   0.017  1.00  0.00    -0.044 NA
BRANCH  14  19
HETATM   19  C14 UNL     1       2.202   1.006  -0.592  1.00  0.00     0.033 C 
HETATM   20  C15 UNL     1       3.360   0.449  -0.409  1.00  0.00     0.002 C 
BRANCH  20  21
HETATM   21  C16 UNL     1       4.552   1.291  -0.513  1.00  0.00     0.002 C 
BRANCH  21  22
HETATM   22  C17 UNL     1       5.718   0.699  -0.360  1.00  0.00     0.022 C 
BRANCH  22  23
HETATM   23  C18 UNL     1       7.098   0.300  -0.233  1.00  0.00    -0.004 C 
HETATM   24  C19 UNL     1       8.048  -0.569  -0.043  1.00  0.00     0.036 C 
BRANCH  23  25
HETATM   25  N2  UNL     1       7.822   1.539  -0.417  1.00  0.00    -0.303 NA
HETATM   26  H16 UNL     1       8.406   2.352  -0.786  1.00  0.00     0.124 HD
HETATM   27  H17 UNL     1       8.403   1.996  -1.172  1.00  0.00     0.124 HD
ENDBRANCH  23  25
ENDBRANCH  22  23
ENDBRANCH  21  22
ENDBRANCH  20  21
ENDBRANCH  14  19
BRANCH  17  28
HETATM   28  N4  UNL     1       0.212  -3.091   1.024  1.00  0.00    -0.231 N 
HETATM   29  H18 UNL     1       1.110  -3.610   0.965  1.00  0.00     0.174 HD
HETATM   30  H19 UNL     1      -0.610  -3.479   1.569  1.00  0.00     0.174 HD
ENDBRANCH  17  28
ENDBRANCH   9  10
ENDBRANCH   8   9
TORSDOF 8
