REMARK  4 active torsions:
REMARK  status: ('A' for Active; 'I' for Inactive)
REMARK    1  A    between atoms: N1_1  and  C1_2 
REMARK    2  A    between atoms: C2_4  and  N3_5 
REMARK    3  A    between atoms: N3_5  and  C3_6 
REMARK    4  A    between atoms: N4_14  and  C10_15 
ROOT
HETATM    1  C1  UNL     1       0.955  -1.383  -1.918  1.00  0.00     0.724 A 
HETATM    2  N2  UNL     1       2.041  -1.516  -1.116  1.00  0.00    -0.044 NA
HETATM    3  C2  UNL     1       1.940  -1.184   0.198  1.00  0.00     0.161 A 
HETATM    4  C7  UNL     1       0.792  -0.710   0.797  1.00  0.00     0.059 A 
HETATM    5  C8  UNL     1       0.435  -0.318   2.047  1.00  0.00     0.037 A 
HETATM    6  C9  UNL     1      -0.903   0.050   1.950  1.00  0.00     0.100 A 
HETATM    7  N4  UNL     1      -1.310  -0.128   0.660  1.00  0.00    -0.306 N 
HETATM    8  C16 UNL     1      -0.282  -0.600  -0.083  1.00  0.00     0.167 A 
HETATM    9  N5  UNL     1      -0.215  -0.924  -1.406  1.00  0.00    -0.044 NA
ENDROOT
BRANCH   7  10
HETATM   10  C10 UNL     1      -2.635   0.158   0.214  1.00  0.00     0.042 A 
HETATM   11  C11 UNL     1      -2.742   1.462  -0.284  1.00  0.00     0.032 A 
HETATM   12  C12 UNL     1      -3.962   1.916  -0.769  1.00  0.00     0.028 A 
HETATM   13  C13 UNL     1      -5.101   1.106  -0.775  1.00  0.00     0.055 A 
HETATM   14 CL1  UNL     1      -6.644   1.622  -1.366  1.00  0.00    -0.083 Cl
HETATM   15  C14 UNL     1      -4.948  -0.184  -0.270  1.00  0.00     0.058 A 
HETATM   16 CL2  UNL     1      -6.300  -1.299  -0.222  1.00  0.00    -0.082 Cl
HETATM   17  C15 UNL     1      -3.747  -0.660   0.217  1.00  0.00     0.055 A 
ENDBRANCH   7  10
BRANCH   3  18
HETATM   18  N3  UNL     1       3.097  -1.312   1.051  1.00  0.00    -0.340 N 
HETATM   19  H3  UNL     1       3.476  -2.053   1.679  1.00  0.00     0.167 HD
BRANCH  18  20
HETATM   20  C3  UNL     1       3.816  -0.065   0.920  1.00  0.00     0.036 A 
HETATM   21  C4  UNL     1       5.137   0.177   0.968  1.00  0.00     0.048 A 
HETATM   22  C5  UNL     1       4.983   1.607   0.759  1.00  0.00     0.015 A 
HETATM   23 BR1  UNL     1       5.804   3.307   0.570  1.00  0.00    -0.051 Br
HETATM   24  C6  UNL     1       3.682   1.384   0.710  1.00  0.00     0.048 A 
ENDBRANCH  18  20
ENDBRANCH   3  18
BRANCH   1  25
HETATM   25  N1  UNL     1       1.211  -1.764  -3.261  1.00  0.00    -0.231 N 
HETATM   26  H1  UNL     1       1.483  -2.674  -3.688  1.00  0.00     0.174 HD
HETATM   27  H2  UNL     1       1.167  -1.167  -4.091  1.00  0.00     0.174 HD
ENDBRANCH   1  25
TORSDOF 4
