REMARK  4 active torsions:
REMARK  status: ('A' for Active; 'I' for Inactive)
REMARK    1  A    between atoms: C3_3  and  C4_4 
REMARK    2  A    between atoms: C14_15  and  N2_16 
REMARK    3  A    between atoms: N2_16  and  C15_17 
REMARK    4  A    between atoms: C21_25  and  N4_26 
ROOT
HETATM    1  C1  UNL     1       0.535   0.460  -1.820  1.00  0.00     0.018 C 
HETATM    2  C2  UNL     1       0.150   0.028  -0.642  1.00  0.00     0.039 C 
HETATM    3  C3  UNL     1       0.366  -0.919   0.440  1.00  0.00     0.102 C 
HETATM    4  N1  UNL     1       0.022  -0.104   1.591  1.00  0.00    -0.206 NA
HETATM    5  C13 UNL     1      -1.337   0.289   1.175  1.00  0.00     0.171 C 
HETATM    6  C14 UNL     1      -1.032   0.862  -0.193  1.00  0.00     0.168 C 
HETATM    7  N3  UNL     1      -0.565   2.217   0.016  1.00  0.00    -0.072 NA
HETATM    8  C21 UNL     1       0.362   2.304   0.940  1.00  0.00     0.706 C 
HETATM    9  N5  UNL     1       0.747   1.102   1.595  1.00  0.00    -0.150 N 
HETATM   10  H22 UNL     1       1.660   1.155   2.121  1.00  0.00     0.199 HD
ENDROOT
BRANCH   3  11
HETATM   11  C4  UNL     1       1.903  -1.283   0.542  1.00  0.00     0.040 C 
HETATM   12  C5  UNL     1       2.057  -1.906  -0.941  1.00  0.00    -0.016 C 
HETATM   13  C6  UNL     1       3.360  -2.340  -0.645  1.00  0.00    -0.070 C 
HETATM   14  C7  UNL     1       4.666  -2.151  -1.370  1.00  0.00     0.044 C 
HETATM   15  C8  UNL     1       2.802  -3.194   0.535  1.00  0.00     0.025 A 
HETATM   16  C9  UNL     1       1.581  -3.484   1.038  1.00  0.00    -0.025 A 
HETATM   17  C12 UNL     1       3.994  -2.727   1.473  1.00  0.00    -0.011 C 
HETATM   18  C10 UNL     1       1.933  -2.196   1.636  1.00  0.00     0.046 A 
HETATM   19  C11 UNL     1       3.064  -2.790   2.489  1.00  0.00    -0.020 C 
ENDBRANCH   3  11
BRANCH   6  20
HETATM   20  N2  UNL     1      -2.123   0.752  -1.124  1.00  0.00    -0.360 N 
HETATM   21  H15 UNL     1      -1.973   0.098  -1.927  1.00  0.00     0.162 HD
BRANCH  20  22
HETATM   22  C15 UNL     1      -3.411   1.372  -1.181  1.00  0.00     0.031 A 
HETATM   23  C16 UNL     1      -4.363   1.126  -2.173  1.00  0.00     0.029 A 
HETATM   24  C17 UNL     1      -5.551   1.812  -2.083  1.00  0.00     0.004 A 
HETATM   25  C18 UNL     1      -5.846   2.713  -1.083  1.00  0.00     0.019 A 
HETATM   26  C19 UNL     1      -4.910   2.953  -0.110  1.00  0.00     0.013 A 
HETATM   27 BR1  UNL     1      -5.385   4.207   1.235  1.00  0.00    -0.051 Br
HETATM   28  C20 UNL     1      -3.711   2.282  -0.173  1.00  0.00     0.048 A 
ENDBRANCH  20  22
ENDBRANCH   6  20
BRANCH   8  29
HETATM   29  N4  UNL     1       0.940   3.567   1.250  1.00  0.00    -0.232 N 
HETATM   30  H20 UNL     1       1.220   3.862   2.220  1.00  0.00     0.174 HD
HETATM   31  H21 UNL     1       1.122   4.285   0.516  1.00  0.00     0.174 HD
ENDBRANCH   8  29
TORSDOF 4
