REMARK  5 active torsions:
REMARK  status: ('A' for Active; 'I' for Inactive)
REMARK    1  A    between atoms: N1_1  and  C1_2 
REMARK    2  A    between atoms: N4_10  and  C7_11 
REMARK    3  A    between atoms: C7_11  and  C8_12 
REMARK    4  A    between atoms: C8_12  and  C9_13 
REMARK    5  A    between atoms: C10_14  and  C11_16 
ROOT
HETATM    1  C1  UNL     1      -2.101   2.482  -0.504  1.00  0.00     0.718 C 
HETATM    2  N2  UNL     1      -2.960   2.590   0.435  1.00  0.00    -0.086 NA
HETATM    3  C2  UNL     1      -3.055   1.843   1.639  1.00  0.00     0.290 C 
HETATM    4  N3  UNL     1      -3.617   0.513   1.502  1.00  0.00    -0.371 N 
HETATM    5  C3  UNL     1      -3.082  -0.555   0.731  1.00  0.00     0.030 C 
HETATM    6  C4  UNL     1      -2.561  -0.823  -0.449  1.00  0.00     0.038 C 
HETATM    7  C5  UNL     1      -1.259  -1.481  -0.409  1.00  0.00    -0.036 C 
HETATM    8  C6  UNL     1      -0.001  -1.097  -0.534  1.00  0.00     0.099 C 
HETATM    9  N4  UNL     1       0.381   0.234  -0.767  1.00  0.00    -0.350 N 
HETATM   10  C12 UNL     1      -0.469   1.087  -1.531  1.00  0.00     0.229 C 
HETATM   11  N5  UNL     1      -1.063   1.526  -0.448  1.00  0.00    -0.059 NA
HETATM   12  C13 UNL     1      -1.634  -2.896  -0.161  1.00  0.00     0.086 C 
HETATM   13  C14 UNL     1      -2.641  -2.979   0.958  1.00  0.00    -0.005 C 
HETATM   14 BR1  UNL     1      -3.183  -4.713   1.537  1.00  0.00    -0.055 Br
HETATM   15  C15 UNL     1      -3.095  -1.836   1.477  1.00  0.00     0.044 C 
HETATM   16  H5  UNL     1      -4.505   0.311   2.014  1.00  0.00     0.161 HD
ENDROOT
BRANCH   9  17
HETATM   17  C7  UNL     1       1.619   0.719  -0.234  1.00  0.00     0.133 C 
BRANCH  17  18
HETATM   18  C8  UNL     1       2.754   0.019  -0.966  1.00  0.00     0.049 C 
BRANCH  18  19
HETATM   19  C9  UNL     1       4.063   0.459  -0.477  1.00  0.00    -0.005 C 
HETATM   20  C10 UNL     1       5.273   0.340   0.062  1.00  0.00     0.021 C 
HETATM   21 CL1  UNL     1       6.585   1.475   0.438  1.00  0.00    -0.088 Cl
BRANCH  20  22
HETATM   22  C11 UNL     1       5.828  -0.977   0.517  1.00  0.00     0.165 C 
HETATM   23 CL2  UNL     1       4.605  -2.246   0.205  1.00  0.00    -0.125 Cl
ENDBRANCH  20  22
ENDBRANCH  18  19
ENDBRANCH  17  18
ENDBRANCH   9  17
BRANCH   1  24
HETATM   24  N1  UNL     1      -2.286   3.391  -1.586  1.00  0.00    -0.231 N 
HETATM   25  H1  UNL     1      -2.077   4.380  -1.327  1.00  0.00     0.174 HD
HETATM   26  H2  UNL     1      -2.522   3.670  -2.548  1.00  0.00     0.174 HD
ENDBRANCH   1  24
TORSDOF 5
