REMARK  4 active torsions:
REMARK  status: ('A' for Active; 'I' for Inactive)
REMARK    1  A    between atoms: N1_1  and  C1_2 
REMARK    2  A    between atoms: C2_4  and  N3_5 
REMARK    3  A    between atoms: N5_16  and  C11_17 
REMARK    4  A    between atoms: C11_17  and  C12_18 
ROOT
HETATM    1  C1  UNL     1      -1.114  -1.880   2.029  1.00  0.00     0.721 C 
HETATM    2  N2  UNL     1      -2.243  -2.019   1.464  1.00  0.00    -0.038 NA
HETATM    3  C2  UNL     1      -2.953  -1.509   0.326  1.00  0.00     0.591 C 
HETATM    4  N4  UNL     1      -2.953  -0.096   0.160  1.00  0.00     0.152 N 
HETATM    5  C3  UNL     1      -4.130   0.228  -0.663  1.00  0.00     0.306 C 
HETATM    6  C4  UNL     1      -4.334   1.703  -0.724  1.00  0.00     0.018 C 
HETATM    7  C5  UNL     1      -3.238   2.282  -1.205  1.00  0.00    -0.011 C 
HETATM    8 BR1  UNL     1      -3.308   4.178  -1.357  1.00  0.00    -0.056 Br
HETATM    9  C6  UNL     1      -2.083   1.414  -1.571  1.00  0.00     0.083 C 
HETATM   10  C7  UNL     1      -1.750   0.449  -0.434  1.00  0.00     0.248 C 
HETATM   11  C8  UNL     1      -0.910   1.123   0.607  1.00  0.00     0.114 A 
HETATM   12  C9  UNL     1      -0.065   2.215   0.103  1.00  0.00     0.005 A 
HETATM   13  C10 UNL     1       1.231   1.909   0.277  1.00  0.00     0.089 A 
HETATM   14  N5  UNL     1       1.399   0.624   0.894  1.00  0.00    -0.340 N 
HETATM   15  C18 UNL     1       0.079   0.130   1.100  1.00  0.00     0.135 A 
HETATM   16  N6  UNL     1      -0.013  -1.036   1.652  1.00  0.00    -0.049 NA
ENDROOT
BRANCH  14  17
HETATM   17  C11 UNL     1       2.673   0.016   1.212  1.00  0.00     0.168 C 
BRANCH  17  18
HETATM   18  C12 UNL     1       3.515  -0.183   0.005  1.00  0.00    -0.038 A 
HETATM   19  C13 UNL     1       3.501  -1.321  -0.777  1.00  0.00     0.010 A 
HETATM   20  C14 UNL     1       4.348  -1.345  -1.867  1.00  0.00     0.026 A 
HETATM   21  C15 UNL     1       5.168  -0.299  -2.172  1.00  0.00     0.055 A 
HETATM   22 CL1  UNL     1       6.231  -0.373  -3.572  1.00  0.00    -0.083 Cl
HETATM   23  C16 UNL     1       5.203   0.855  -1.405  1.00  0.00     0.056 A 
HETATM   24 CL2  UNL     1       6.243   2.206  -1.774  1.00  0.00    -0.083 Cl
HETATM   25  C17 UNL     1       4.356   0.869  -0.321  1.00  0.00     0.034 A 
ENDBRANCH  17  18
ENDBRANCH  14  17
BRANCH   1  26
HETATM   26  N1  UNL     1      -0.972  -2.692   3.187  1.00  0.00    -0.231 N 
HETATM   27  H1  UNL     1      -0.812  -3.667   2.806  1.00  0.00     0.174 HD
HETATM   28  H2  UNL     1      -0.951  -2.780   4.236  1.00  0.00     0.174 HD
ENDBRANCH   1  26
BRANCH   3  29
HETATM   29  N3  UNL     1      -2.367  -2.132  -0.851  1.00  0.00     0.134 N 
HETATM   30  H4  UNL     1      -1.357  -2.410  -0.671  1.00  0.00     0.318 HD
HETATM   31  H5  UNL     1      -2.928  -2.962  -1.140  1.00  0.00     0.318 HD
ENDBRANCH   3  29
TORSDOF 4
