REMARK  1 active torsions:
REMARK  status: ('A' for Active; 'I' for Inactive)
REMARK    1  A    between atoms: N3_21  and  C17_22 
ROOT
HETATM    1 CL1  UNL     1      -3.496   2.021   0.246  1.00  0.00    -0.083 Cl
HETATM    2  C1  UNL     1      -1.865   1.239   0.041  1.00  0.00     0.046 C 
HETATM    3  C2  UNL     1      -0.754   1.950   0.161  1.00  0.00     0.024 C 
HETATM    4  C3  UNL     1       0.377   2.852   0.325  1.00  0.00    -0.001 C 
HETATM    5  C4  UNL     1       1.727   3.000   0.267  1.00  0.00    -0.007 C 
HETATM    6  C5  UNL     1       2.846   1.994  -0.112  1.00  0.00     0.157 C 
HETATM    7  N1  UNL     1       2.091   0.880  -0.571  1.00  0.00    -0.338 N 
HETATM    8  C6  UNL     1       1.302   1.272  -1.722  1.00  0.00     0.094 A 
HETATM    9  C7  UNL     1       0.473   0.453  -2.327  1.00  0.00     0.034 A 
HETATM   10  C8  UNL     1       0.575  -0.737  -1.614  1.00  0.00     0.026 A 
HETATM   11  C9  UNL     1      -0.150  -1.768  -1.474  1.00  0.00     0.103 C 
HETATM   12  N2  UNL     1      -1.400  -1.951  -2.064  1.00  0.00    -0.364 N 
HETATM   13  C10 UNL     1      -1.928  -1.421  -0.828  1.00  0.00     0.045 A 
HETATM   14  C11 UNL     1      -2.397  -2.614  -0.251  1.00  0.00     0.049 A 
HETATM   15  C12 UNL     1      -2.996  -2.827   1.009  1.00  0.00     0.013 A 
HETATM   16 BR1  UNL     1      -3.599  -4.481   1.702  1.00  0.00    -0.051 Br
HETATM   17  C13 UNL     1      -3.143  -1.702   1.786  1.00  0.00     0.020 A 
HETATM   18  C14 UNL     1      -2.654  -0.527   1.150  1.00  0.00     0.017 A 
HETATM   19  C15 UNL     1      -2.040  -0.222  -0.111  1.00  0.00     0.012 A 
HETATM   20  C16 UNL     1       1.547  -0.408  -0.610  1.00  0.00     0.141 A 
HETATM   21  N3  UNL     1       2.197  -0.761   0.327  1.00  0.00    -0.209 NA
HETATM   22  H9  UNL     1      -1.774  -2.299  -2.913  1.00  0.00     0.165 HD
ENDROOT
BRANCH  21  23
HETATM   23  C17 UNL     1       3.116  -0.426   1.259  1.00  0.00     0.328 A 
HETATM   24  N4  UNL     1       3.129  -1.679   1.802  1.00  0.00    -0.152 NA
HETATM   25  N5  UNL     1       3.933  -0.696   2.328  1.00  0.00    -0.257 N 
HETATM   26  H13 UNL     1       4.514  -0.993   3.128  1.00  0.00     0.187 HD
ENDBRANCH  21  23
TORSDOF 1
