REMARK  6 active torsions:
REMARK  status: ('A' for Active; 'I' for Inactive)
REMARK    1  A    between atoms: C3_3  and  C4_4 
REMARK    2  A    between atoms: C4_4  and  N1_5 
REMARK    3  A    between atoms: C5_6  and  N2_7 
REMARK    4  A    between atoms: C5_6  and  C6_8 
REMARK    5  A    between atoms: N3_12  and  C10_13 
REMARK    6  A    between atoms: C10_13  and  C11_14 
ROOT
HETATM    1  C6  UNL     1       0.283  -1.483  -0.317  1.00  0.00     0.156 C 
HETATM    2  C7  UNL     1      -0.465  -1.197  -1.631  1.00  0.00     0.053 A 
HETATM    3  C8  UNL     1      -1.112  -2.224  -2.314  1.00  0.00     0.033 A 
HETATM    4  C9  UNL     1      -1.422  -2.163  -0.942  1.00  0.00     0.066 A 
HETATM    5  N3  UNL     1      -1.095  -1.377   0.235  1.00  0.00    -0.385 N 
ENDROOT
BRANCH   1   6
HETATM    6  C5  UNL     1       1.191  -0.414   0.109  1.00  0.00     0.115 C 
HETATM    7  N1  UNL     1       2.442  -0.710   0.231  1.00  0.00    -0.271 NA
BRANCH   7   8
HETATM    8  C4  UNL     1       3.426   0.283   0.649  1.00  0.00     0.177 C 
BRANCH   8   9
HETATM    9  C3  UNL     1       4.745  -0.358   0.710  1.00  0.00    -0.010 C 
HETATM   10  C2  UNL     1       5.835  -0.033   0.022  1.00  0.00    -0.033 C 
HETATM   11  C1  UNL     1       5.762   1.094  -0.925  1.00  0.00     0.036 C 
ENDBRANCH   8   9
ENDBRANCH   7   8
BRANCH   6  12
HETATM   12  N2  UNL     1       0.599   0.862   0.348  1.00  0.00    -0.386 N 
HETATM   13  H8  UNL     1       0.563   1.199  -0.640  1.00  0.00     0.157 HD
HETATM   14  H9  UNL     1       0.255   1.435   1.133  1.00  0.00     0.157 HD
ENDBRANCH   6  12
ENDBRANCH   1   6
BRANCH   5  15
HETATM   15  C10 UNL     1      -2.033  -0.908   1.252  1.00  0.00     0.157 C 
BRANCH  15  16
HETATM   16  C11 UNL     1      -3.077  -0.034   0.705  1.00  0.00    -0.039 A 
HETATM   17  C12 UNL     1      -3.008   1.340   0.588  1.00  0.00     0.010 A 
HETATM   18  C13 UNL     1      -4.041   2.097   0.059  1.00  0.00     0.026 A 
HETATM   19  C14 UNL     1      -5.202   1.485  -0.380  1.00  0.00     0.055 A 
HETATM   20 CL1  UNL     1      -6.511   2.429  -1.050  1.00  0.00    -0.083 Cl
HETATM   21  C15 UNL     1      -5.333   0.117  -0.291  1.00  0.00     0.056 A 
HETATM   22 CL2  UNL     1      -6.773  -0.694  -0.830  1.00  0.00    -0.083 Cl
HETATM   23  C16 UNL     1      -4.268  -0.597   0.248  1.00  0.00     0.034 A 
ENDBRANCH  15  16
ENDBRANCH   5  15
TORSDOF 6
