REMARK  8 active torsions:
REMARK  status: ('A' for Active; 'I' for Inactive)
REMARK    1  A    between atoms: C1_2  and  C2_3 
REMARK    2  A    between atoms: C2_3  and  C3_4 
REMARK    3  A    between atoms: C3_4  and  S1_5 
REMARK    4  A    between atoms: S1_5  and  C4_6 
REMARK    5  A    between atoms: C4_6  and  N1_7 
REMARK    6  A    between atoms: C8_11  and  N2_12 
REMARK    7  A    between atoms: N2_12  and  C9_13 
REMARK    8  A    between atoms: C9_13  and  C10_14 
ROOT
HETATM    1  N1  UNL     1      -1.479   0.777   1.538  1.00  0.00    -0.309 N 
HETATM    2  C5  UNL     1      -1.171  -0.064   2.537  1.00  0.00     0.099 A 
HETATM    3  C6  UNL     1       0.007  -0.587   2.113  1.00  0.00     0.037 A 
HETATM    4  C7  UNL     1       0.362  -0.060   0.907  1.00  0.00     0.057 A 
HETATM    5  C8  UNL     1       1.457  -0.267   0.075  1.00  0.00     0.139 A 
HETATM    6  N3  UNL     1       1.549   0.408  -1.085  1.00  0.00    -0.224 NA
HETATM    7  C12 UNL     1       0.559   1.287  -1.423  1.00  0.00     0.237 A 
HETATM    8  N4  UNL     1      -0.527   1.513  -0.629  1.00  0.00    -0.223 NA
HETATM    9  C13 UNL     1      -0.611   0.837   0.525  1.00  0.00     0.149 A 
ENDROOT
BRANCH   1  10
HETATM   10  C4  UNL     1      -2.648   1.578   1.520  1.00  0.00     0.266 C 
BRANCH  10  11
HETATM   11  S1  UNL     1      -4.067   0.719   1.496  1.00  0.00    -0.136 SA
BRANCH  11  12
HETATM   12  C3  UNL     1      -4.173  -0.309   0.227  1.00  0.00    -0.118 C 
BRANCH  12  13
HETATM   13  C2  UNL     1      -4.288  -0.871  -0.968  1.00  0.00     0.093 C 
BRANCH  13  14
HETATM   14  C1  UNL     1      -4.802  -0.087  -2.149  1.00  0.00     0.133 C 
HETATM   15 CL1  UNL     1      -5.972   1.078  -1.486  1.00  0.00    -0.129 Cl
ENDBRANCH  13  14
ENDBRANCH  12  13
ENDBRANCH  11  12
ENDBRANCH  10  11
ENDBRANCH   1  10
BRANCH   5  16
HETATM   16  N2  UNL     1       2.461  -1.192   0.468  1.00  0.00    -0.370 N 
HETATM   17  H7  UNL     1       2.378  -1.709   1.370  1.00  0.00     0.161 HD
BRANCH  16  18
HETATM   18  C9  UNL     1       3.601  -1.403  -0.406  1.00  0.00     0.149 C 
BRANCH  18  19
HETATM   19  C10 UNL     1       4.312  -0.106  -0.575  1.00  0.00    -0.000 C 
HETATM   20  C11 UNL     1       5.577   0.100  -0.231  1.00  0.00     0.053 C 
HETATM   21 BR1  UNL     1       6.852   1.527  -0.258  1.00  0.00    -0.064 Br
ENDBRANCH  18  19
ENDBRANCH  16  18
ENDBRANCH   5  16
TORSDOF 8
