REMARK  1 active torsions:
REMARK  status: ('A' for Active; 'I' for Inactive)
REMARK    1  A    between atoms: N1_1  and  C1_2 
ROOT
HETATM    1  C1  UNL     1      -1.568   1.427   1.450  1.00  0.00     0.713 C 
HETATM    2  N2  UNL     1      -1.662   2.492   0.696  1.00  0.00    -0.079 NA
HETATM    3  C2  UNL     1      -1.340   2.336  -0.724  1.00  0.00     0.240 C 
HETATM    4  C3  UNL     1       0.256   2.186  -0.744  1.00  0.00     0.199 C 
HETATM    5  N3  UNL     1       0.440   0.946  -0.037  1.00  0.00    -0.270 N 
HETATM    6  C4  UNL     1       1.390  -0.074  -0.304  1.00  0.00     0.063 A 
HETATM    7  C5  UNL     1       2.207   0.315  -1.267  1.00  0.00     0.032 A 
HETATM    8  C6  UNL     1       3.344  -0.306  -1.937  1.00  0.00     0.002 A 
HETATM    9  C7  UNL     1       3.836  -1.524  -1.654  1.00  0.00     0.002 A 
HETATM   10  C8  UNL     1       3.437  -2.531  -0.680  1.00  0.00     0.025 A 
HETATM   11  C9  UNL     1       2.430  -2.443   0.193  1.00  0.00     0.046 A 
HETATM   12 CL1  UNL     1       2.138  -3.792   1.275  1.00  0.00    -0.083 Cl
HETATM   13  C10 UNL     1       1.489  -1.347   0.397  1.00  0.00     0.013 A 
HETATM   14  C11 UNL     1       0.599  -1.521   1.347  1.00  0.00     0.021 A 
HETATM   15  C12 UNL     1      -0.465  -0.655   1.740  1.00  0.00     0.187 A 
HETATM   16  C13 UNL     1      -1.869  -1.131   1.220  1.00  0.00     0.002 C 
HETATM   17 BR1  UNL     1      -2.855  -2.557   1.984  1.00  0.00    -0.057 Br
HETATM   18  C14 UNL     1      -2.571  -0.581   0.146  1.00  0.00     0.052 C 
HETATM   19  C15 UNL     1      -2.823   0.346  -1.006  1.00  0.00     0.126 C 
HETATM   20  N4  UNL     1      -1.862   1.246  -1.407  1.00  0.00    -0.398 N 
HETATM   21  N5  UNL     1      -0.433   0.636   1.006  1.00  0.00    -0.107 N 
HETATM   22  H15 UNL     1      -1.934   1.412  -2.448  1.00  0.00     0.155 HD
ENDROOT
BRANCH   1  23
HETATM   23  N1  UNL     1      -2.414   1.098   2.509  1.00  0.00    -0.232 N 
HETATM   24  H1  UNL     1      -2.240   1.119   3.550  1.00  0.00     0.174 HD
HETATM   25  H2  UNL     1      -3.126   0.829   3.182  1.00  0.00     0.174 HD
ENDBRANCH   1  23
TORSDOF 1
