REMARK  3 active torsions:
REMARK  status: ('A' for Active; 'I' for Inactive)
REMARK    1  A    between atoms: N1_1  and  C1_2 
REMARK    2  A    between atoms: N3_14  and  C11_15 
REMARK    3  A    between atoms: C11_15  and  C12_16 
ROOT
HETATM    1  C1  UNL     1      -1.285   2.736   0.984  1.00  0.00     0.721 C 
HETATM    2  N2  UNL     1      -1.930   1.813   0.327  1.00  0.00    -0.063 NA
HETATM    3  C2  UNL     1      -1.579   0.598  -0.315  1.00  0.00     0.084 C 
HETATM    4  C3  UNL     1      -2.562  -0.456  -0.182  1.00  0.00    -0.006 A 
HETATM    5  C4  UNL     1      -2.547  -1.736  -0.668  1.00  0.00     0.014 A 
HETATM    6  C5  UNL     1      -3.544  -2.666  -0.487  1.00  0.00     0.002 A 
HETATM    7  C6  UNL     1      -4.670  -2.335   0.235  1.00  0.00     0.019 A 
HETATM    8  C7  UNL     1      -4.726  -1.058   0.741  1.00  0.00     0.011 A 
HETATM    9 BR1  UNL     1      -6.263  -0.552   1.747  1.00  0.00    -0.051 Br
HETATM   10  C8  UNL     1      -3.704  -0.162   0.533  1.00  0.00     0.032 A 
HETATM   11  C9  UNL     1      -0.473   0.382  -0.993  1.00  0.00     0.026 C 
HETATM   12  C10 UNL     1       0.768   1.085  -1.402  1.00  0.00     0.153 C 
HETATM   13  N3  UNL     1       1.493   1.669  -0.289  1.00  0.00    -0.367 N 
HETATM   14  C18 UNL     1       1.204   2.503   0.828  1.00  0.00     0.225 C 
HETATM   15  N4  UNL     1       0.093   2.948   1.364  1.00  0.00    -0.059 NA
ENDROOT
BRANCH  13  16
HETATM   16  C11 UNL     1       2.884   1.319  -0.316  1.00  0.00     0.164 C 
BRANCH  16  17
HETATM   17  C12 UNL     1       3.168  -0.129  -0.244  1.00  0.00    -0.018 A 
HETATM   18  C13 UNL     1       3.541  -0.878  -1.339  1.00  0.00     0.012 A 
HETATM   19  C14 UNL     1       3.821  -2.229  -1.351  1.00  0.00     0.024 A 
HETATM   20  C15 UNL     1       3.708  -2.878  -0.117  1.00  0.00     0.035 A 
HETATM   21 CL1  UNL     1       4.022  -4.576   0.051  1.00  0.00    -0.084 Cl
HETATM   22  C16 UNL     1       3.334  -2.149   1.005  1.00  0.00     0.048 A 
HETATM   23  C17 UNL     1       3.058  -0.789   0.987  1.00  0.00     0.043 A 
HETATM   24 CL2  UNL     1       2.596   0.034   2.450  1.00  0.00    -0.084 Cl
ENDBRANCH  16  17
ENDBRANCH  13  16
BRANCH   1  25
HETATM   25  N1  UNL     1      -2.162   3.791   1.436  1.00  0.00    -0.231 N 
HETATM   26  H1  UNL     1      -2.777   4.588   1.701  1.00  0.00     0.174 HD
HETATM   27  H2  UNL     1      -2.186   4.605   0.763  1.00  0.00     0.174 HD
ENDBRANCH   1  25
TORSDOF 3
