REMARK  4 active torsions:
REMARK  status: ('A' for Active; 'I' for Inactive)
REMARK    1  A    between atoms: C6_7  and  C7_8 
REMARK    2  A    between atoms: C7_8  and  N1_9 
REMARK    3  A    between atoms: C11_14  and  N2_16 
REMARK    4  A    between atoms: N2_16  and  C12_17 
ROOT
HETATM    1  N1  UNL     1      -1.907   0.020   0.285  1.00  0.00    -0.381 N 
HETATM    2  C8  UNL     1      -2.214  -1.360   0.441  1.00  0.00     0.087 C 
HETATM    3  C9  UNL     1      -1.365  -2.368   0.229  1.00  0.00     0.025 C 
HETATM    4  P1  UNL     1       0.275  -1.682  -0.304  1.00  0.00    -0.070 P 
HETATM    5  C10 UNL     1       0.492  -0.228   0.792  1.00  0.00    -0.000 C 
HETATM    6  C11 UNL     1       1.552   0.216   1.447  1.00  0.00     0.088 C 
HETATM    7 BR1  UNL     1       1.808   1.716   2.589  1.00  0.00    -0.031 Br
HETATM    8  C18 UNL     1      -0.734   0.565   0.960  1.00  0.00     0.164 C 
HETATM    9  H9  UNL     1       0.025  -1.116  -1.641  1.00  0.00     0.066 HD
ENDROOT
BRANCH   6  10
HETATM   10  N2  UNL     1       2.645  -0.672   1.168  1.00  0.00    -0.359 N 
HETATM   11  H10 UNL     1       2.821  -1.407   1.908  1.00  0.00     0.166 HD
BRANCH  10  12
HETATM   12  C12 UNL     1       3.598  -0.846   0.123  1.00  0.00     0.097 C 
HETATM   13  C13 UNL     1       4.816  -0.383  -0.120  1.00  0.00    -0.023 A 
HETATM   14  C14 UNL     1       5.484  -0.809  -1.340  1.00  0.00     0.011 A 
HETATM   15  C17 UNL     1       5.369   0.549   0.924  1.00  0.00     0.188 A 
HETATM   16  C15 UNL     1       6.694  -0.305  -1.512  1.00  0.00     0.019 A 
HETATM   17  C16 UNL     1       7.303   0.617  -0.531  1.00  0.00     0.110 A 
HETATM   18  N3  UNL     1       6.702   0.984   0.540  1.00  0.00    -0.297 NA
ENDBRANCH  10  12
ENDBRANCH   6  10
BRANCH   1  19
HETATM   19  C7  UNL     1      -2.708   0.928  -0.532  1.00  0.00     0.162 C 
BRANCH  19  20
HETATM   20  C6  UNL     1      -4.143   0.882  -0.255  1.00  0.00    -0.019 A 
HETATM   21  C1  UNL     1      -4.796  -0.177  -0.895  1.00  0.00     0.042 A 
HETATM   22 CL1  UNL     1      -4.139  -1.386  -2.003  1.00  0.00    -0.084 Cl
HETATM   23  C2  UNL     1      -6.165  -0.358  -0.706  1.00  0.00     0.024 A 
HETATM   24  C3  UNL     1      -6.905   0.496   0.110  1.00  0.00     0.002 A 
HETATM   25  C4  UNL     1      -6.253   1.543   0.740  1.00  0.00     0.001 A 
HETATM   26  C5  UNL     1      -4.906   1.705   0.543  1.00  0.00     0.010 A 
ENDBRANCH  19  20
ENDBRANCH   1  19
TORSDOF 4
