REMARK  5 active torsions:
REMARK  status: ('A' for Active; 'I' for Inactive)
REMARK    1  A    between atoms: C6_7  and  C7_8 
REMARK    2  A    between atoms: C7_8  and  N1_9 
REMARK    3  A    between atoms: N1_9  and  N2_10 
REMARK    4  A    between atoms: C11_14  and  N3_15 
REMARK    5  A    between atoms: N3_15  and  C12_16 
ROOT
HETATM    1  N2  UNL     1      -0.749  -0.377   0.873  1.00  0.00    -0.253 N 
HETATM    2  C8  UNL     1      -0.030   0.224   1.838  1.00  0.00     0.119 A 
HETATM    3  C9  UNL     1       1.231   0.585   1.333  1.00  0.00     0.038 A 
HETATM    4  C10 UNL     1       1.303   0.189  -0.005  1.00  0.00     0.053 A 
HETATM    5  C11 UNL     1       2.214   0.219  -1.067  1.00  0.00     0.118 A 
HETATM    6  N4  UNL     1       1.797  -0.318  -2.200  1.00  0.00    -0.229 NA
HETATM    7  C17 UNL     1       0.638  -0.883  -2.467  1.00  0.00     0.237 A 
HETATM    8  N5  UNL     1      -0.176  -0.877  -1.418  1.00  0.00    -0.222 NA
HETATM    9  C18 UNL     1       0.068  -0.386  -0.218  1.00  0.00     0.163 A 
ENDROOT
BRANCH   1  10
HETATM   10  N1  UNL     1      -2.049  -0.904   0.890  1.00  0.00    -0.324 N 
HETATM   11  H7  UNL     1      -2.274  -1.913   1.084  1.00  0.00     0.181 HD
BRANCH  10  12
HETATM   12  C7  UNL     1      -2.974   0.181   0.587  1.00  0.00     0.180 C 
BRANCH  12  13
HETATM   13  C6  UNL     1      -4.386  -0.233   0.553  1.00  0.00    -0.017 A 
HETATM   14  C1  UNL     1      -5.178   0.668  -0.154  1.00  0.00     0.042 A 
HETATM   15 CL1  UNL     1      -4.568   2.137  -0.910  1.00  0.00    -0.084 Cl
HETATM   16  C2  UNL     1      -6.555   0.424  -0.285  1.00  0.00     0.024 A 
HETATM   17  C3  UNL     1      -7.039  -0.746   0.326  1.00  0.00     0.002 A 
HETATM   18  C4  UNL     1      -6.202  -1.616   1.020  1.00  0.00     0.001 A 
HETATM   19  C5  UNL     1      -4.865  -1.362   1.138  1.00  0.00     0.010 A 
ENDBRANCH  12  13
ENDBRANCH  10  12
ENDBRANCH   1  10
BRANCH   5  20
HETATM   20  N3  UNL     1       3.421   0.841  -0.570  1.00  0.00    -0.278 NA
HETATM   21  H10 UNL     1       3.783   0.770  -1.537  1.00  0.00     0.129 HD
BRANCH  20  22
HETATM   22  C12 UNL     1       4.709   1.397  -0.419  1.00  0.00     0.040 C 
HETATM   23  B1  UNL     1       4.924   1.518   1.380  1.00  0.00     0.210 B 
HETATM   24  C13 UNL     1       6.373   0.290   1.818  1.00  0.00    -0.108 C 
HETATM   25  C14 UNL     1       6.978  -0.030   0.720  1.00  0.00     0.012 C 
HETATM   26  C15 UNL     1       6.928  -0.002  -0.789  1.00  0.00     0.007 C 
HETATM   27 BR1  UNL     1       8.228  -0.817  -1.871  1.00  0.00    -0.051 Br
HETATM   28  C16 UNL     1       5.872   0.665  -0.902  1.00  0.00     0.002 C 
ENDBRANCH  20  22
ENDBRANCH   5  20
TORSDOF 5
