REMARK  1 active torsions:
REMARK  status: ('A' for Active; 'I' for Inactive)
REMARK    1  A    between atoms: N1_1  and  C1_2 
ROOT
HETATM    1  C1  UNL     1      -1.550  -0.738  -0.594  1.00  0.00     0.135 C 
HETATM    2  N2  UNL     1      -2.698  -0.468   0.245  1.00  0.00    -0.368 N 
HETATM    3  C2  UNL     1      -2.739   0.333   1.494  1.00  0.00     0.103 C 
HETATM    4  C3  UNL     1      -1.573   0.425   2.274  1.00  0.00     0.113 C 
HETATM    5  N3  UNL     1      -0.295   0.217   1.440  1.00  0.00    -0.331 N 
HETATM    6  C4  UNL     1      -0.004  -1.069   2.125  1.00  0.00     0.093 C 
HETATM    7  C5  UNL     1      -0.107  -2.024   1.135  1.00  0.00     0.000 C 
HETATM    8  C6  UNL     1      -0.596  -1.793  -0.272  1.00  0.00     0.063 C 
HETATM    9  C7  UNL     1       0.674  -1.792  -1.045  1.00  0.00     0.018 C 
HETATM   10  C8  UNL     1       1.706  -0.777  -0.930  1.00  0.00     0.051 C 
HETATM   11  C9  UNL     1       2.302  -0.438   0.390  1.00  0.00     0.008 C 
HETATM   12 CL1  UNL     1       3.211  -1.819   1.108  1.00  0.00    -0.089 Cl
HETATM   13  C10 UNL     1       2.389   0.631   1.280  1.00  0.00    -0.003 C 
HETATM   14  C11 UNL     1       1.808   2.043   1.199  1.00  0.00     0.069 C 
HETATM   15  C12 UNL     1       0.915   2.100   0.024  1.00  0.00    -0.027 A 
HETATM   16  C13 UNL     1       0.850   2.719  -1.183  1.00  0.00     0.010 A 
HETATM   17  C14 UNL     1      -0.033   2.275  -2.144  1.00  0.00     0.001 A 
HETATM   18  C15 UNL     1      -0.868   1.201  -1.927  1.00  0.00     0.014 A 
HETATM   19  C16 UNL     1      -0.772   0.602  -0.688  1.00  0.00     0.018 A 
HETATM   20  C17 UNL     1       0.130   1.057   0.331  1.00  0.00     0.055 A 
HETATM   21  H3  UNL     1      -3.739  -0.761   0.155  1.00  0.00     0.161 HD
ENDROOT
BRANCH   1  22
HETATM   22  N1  UNL     1      -2.032  -0.951  -1.931  1.00  0.00    -0.401 N 
HETATM   23  H1  UNL     1      -2.965  -1.377  -1.994  1.00  0.00     0.152 HD
HETATM   24  H2  UNL     1      -1.336  -1.176  -2.623  1.00  0.00     0.152 HD
ENDBRANCH   1  22
TORSDOF 1
