REMARK  4 active torsions:
REMARK  status: ('A' for Active; 'I' for Inactive)
REMARK    1  A    between atoms: N1_5  and  C5_6 
REMARK    2  A    between atoms: N4_15  and  C11_16 
REMARK    3  A    between atoms: C11_16  and  C12_17 
REMARK    4  A    between atoms: C18_23  and  N5_24 
ROOT
HETATM    1  C5  UNL     1      -0.872  -1.139  -0.125  1.00  0.00     0.145 A 
HETATM    2  N2  UNL     1      -0.521  -2.444  -0.311  1.00  0.00    -0.200 NA
HETATM    3  C6  UNL     1       0.700  -2.888   0.105  1.00  0.00     0.227 A 
HETATM    4 CL1  UNL     1       1.090  -4.593  -0.168  1.00  0.00    -0.041 Cl
HETATM    5  N3  UNL     1       1.615  -2.081   0.714  1.00  0.00    -0.199 NA
HETATM    6  C7  UNL     1       1.278  -0.782   0.904  1.00  0.00     0.147 A 
HETATM    7  C8  UNL     1       0.046  -0.311   0.490  1.00  0.00     0.057 A 
HETATM    8  C9  UNL     1      -0.050   1.020   0.794  1.00  0.00     0.036 A 
HETATM    9  C10 UNL     1       1.149   1.349   1.401  1.00  0.00     0.094 A 
HETATM   10  N4  UNL     1       1.933   0.257   1.459  1.00  0.00    -0.337 N 
ENDROOT
BRANCH   1  11
HETATM   11  N1  UNL     1      -2.164  -0.726  -0.580  1.00  0.00    -0.331 N 
HETATM   12  C4  UNL     1      -2.515   0.291  -1.564  1.00  0.00     0.154 C 
HETATM   13  C3  UNL     1      -3.750   0.987  -1.105  1.00  0.00    -0.005 C 
HETATM   14  C2  UNL     1      -4.436   0.693   0.002  1.00  0.00    -0.082 C 
HETATM   15  C1  UNL     1      -5.639   1.564   0.206  1.00  0.00     0.043 C 
HETATM   16  C19 UNL     1      -3.989  -0.411   0.902  1.00  0.00     0.090 C 
HETATM   17  C18 UNL     1      -3.300  -1.423   0.028  1.00  0.00     0.324 C 
BRANCH  17  18
HETATM   18  N5  UNL     1      -4.200  -1.716  -1.089  1.00  0.00     0.101 N 
HETATM   19  H17 UNL     1      -3.740  -2.343  -1.784  1.00  0.00     0.315 HD
HETATM   20  H18 UNL     1      -5.142  -2.000  -0.801  1.00  0.00     0.315 HD
ENDBRANCH  17  18
ENDBRANCH   1  11
BRANCH  10  21
HETATM   21  C11 UNL     1       3.281   0.219   2.036  1.00  0.00     0.168 C 
BRANCH  21  22
HETATM   22  C12 UNL     1       4.284   0.530   0.984  1.00  0.00    -0.040 A 
HETATM   23  C13 UNL     1       4.763  -0.563   0.292  1.00  0.00     0.009 A 
HETATM   24  C14 UNL     1       5.699  -0.460  -0.718  1.00  0.00     0.001 A 
HETATM   25  C15 UNL     1       6.185   0.802  -1.057  1.00  0.00     0.000 A 
HETATM   26  C16 UNL     1       5.709   1.908  -0.366  1.00  0.00     0.001 A 
HETATM   27  C17 UNL     1       4.776   1.782   0.636  1.00  0.00     0.009 A 
ENDBRANCH  21  22
ENDBRANCH  10  21
TORSDOF 4
