REMARK  7 active torsions:
REMARK  status: ('A' for Active; 'I' for Inactive)
REMARK    1  A    between atoms: N1_1  and  C1_2 
REMARK    2  A    between atoms: C6_8  and  C7_9 
REMARK    3  A    between atoms: C7_9  and  N2_10 
REMARK    4  A    between atoms: N2_10  and  C8_11 
REMARK    5  A    between atoms: C8_11  and  C9_12 
REMARK    6  A    between atoms: C12_17  and  N5_18 
REMARK    7  A    between atoms: N5_18  and  C13_19 
ROOT
HETATM    1  C9  UNL     1      -0.734  -1.123  -1.147  1.00  0.00     0.033 A 
HETATM    2  C10 UNL     1      -0.469  -2.134  -2.051  1.00  0.00     0.130 A 
HETATM    3  N3  UNL     1      -0.836  -3.382  -1.715  1.00  0.00    -0.253 NA
HETATM    4  C11 UNL     1      -1.450  -3.674  -0.531  1.00  0.00     0.234 A 
HETATM    5  N4  UNL     1      -1.704  -2.672   0.347  1.00  0.00    -0.224 NA
HETATM    6  C12 UNL     1      -1.353  -1.396   0.054  1.00  0.00     0.139 A 
ENDROOT
BRANCH   1   7
HETATM    7  C8  UNL     1      -0.331   0.247  -1.513  1.00  0.00     0.314 C 
BRANCH   7   8
HETATM    8  N2  UNL     1       0.868   0.689  -0.826  1.00  0.00     0.092 N 
HETATM    9  H8  UNL     1       0.666   0.643   0.196  1.00  0.00     0.316 HD
BRANCH   8  10
HETATM   10  C7  UNL     1       2.008  -0.146  -1.104  1.00  0.00     0.312 C 
BRANCH  10  11
HETATM   11  C6  UNL     1       3.184   0.387  -0.366  1.00  0.00     0.018 A 
HETATM   12  C1  UNL     1       3.375   0.221   0.997  1.00  0.00     0.035 A 
HETATM   13  C2  UNL     1       4.468   0.717   1.675  1.00  0.00     0.029 A 
HETATM   14  C3  UNL     1       5.439   1.422   0.979  1.00  0.00     0.004 A 
HETATM   15  C4  UNL     1       5.284   1.607  -0.376  1.00  0.00     0.024 A 
HETATM   16  C5  UNL     1       4.173   1.100  -1.053  1.00  0.00     0.044 A 
HETATM   17 CL1  UNL     1       3.932   1.313  -2.793  1.00  0.00    -0.084 Cl
BRANCH  12  18
HETATM   18  N1  UNL     1       2.406  -0.493   1.744  1.00  0.00    -0.399 N 
HETATM   19  H1  UNL     1       2.667  -1.491   1.890  1.00  0.00     0.156 HD
HETATM   20  H2  UNL     1       1.487  -0.360   2.215  1.00  0.00     0.156 HD
ENDBRANCH  12  18
ENDBRANCH  10  11
ENDBRANCH   8  10
ENDBRANCH   7   8
ENDBRANCH   1   7
BRANCH   6  21
HETATM   21  N5  UNL     1      -1.640  -0.375   1.003  1.00  0.00    -0.340 N 
HETATM   22  H13 UNL     1      -1.017  -0.065   1.757  1.00  0.00     0.167 HD
BRANCH  21  23
HETATM   23  C13 UNL     1      -2.914   0.256   0.874  1.00  0.00     0.035 A 
HETATM   24  C14 UNL     1      -3.806  -0.102  -0.121  1.00  0.00     0.029 A 
HETATM   25  C15 UNL     1      -5.054   0.458  -0.312  1.00  0.00     0.004 A 
HETATM   26  C16 UNL     1      -5.405   1.445   0.574  1.00  0.00     0.019 A 
HETATM   27  C17 UNL     1      -4.565   1.861   1.600  1.00  0.00     0.013 A 
HETATM   28 BR1  UNL     1      -5.079   3.228   2.806  1.00  0.00    -0.051 Br
HETATM   29  C18 UNL     1      -3.328   1.253   1.728  1.00  0.00     0.048 A 
ENDBRANCH  21  23
ENDBRANCH   6  21
TORSDOF 7
