REMARK  4 active torsions:
REMARK  status: ('A' for Active; 'I' for Inactive)
REMARK    1  A    between atoms: N1_1  and  C1_2 
REMARK    2  A    between atoms: C2_4  and  N3_5 
REMARK    3  A    between atoms: N3_5  and  C3_6 
REMARK    4  A    between atoms: C11_16  and  C12_17 
ROOT
HETATM    1  C1  UNL     1       0.088   0.177   2.340  1.00  0.00     0.201 A 
HETATM    2  N2  UNL     1      -0.953  -0.510   1.830  1.00  0.00    -0.200 NA
HETATM    3  C2  UNL     1      -1.085  -0.702   0.485  1.00  0.00     0.143 A 
HETATM    4  C9  UNL     1      -0.123  -0.175  -0.346  1.00  0.00     0.035 A 
HETATM    5  C10 UNL     1       0.940   0.527   0.176  1.00  0.00     0.064 A 
HETATM    6  N4  UNL     1       1.055   0.711   1.527  1.00  0.00    -0.221 NA
HETATM    7  C11 UNL     1       1.800   0.966  -0.970  1.00  0.00     0.096 A 
HETATM    8  C18 UNL     1       1.058   0.407  -2.128  1.00  0.00    -0.010 A 
HETATM    9  C19 UNL     1      -0.058  -0.257  -1.796  1.00  0.00     0.014 A 
ENDROOT
BRANCH   3  10
HETATM   10  N3  UNL     1      -2.237  -1.443   0.132  1.00  0.00    -0.340 N 
HETATM   11  H3  UNL     1      -2.347  -2.454  -0.034  1.00  0.00     0.167 HD
BRANCH  10  12
HETATM   12  C3  UNL     1      -3.391  -0.613  -0.002  1.00  0.00     0.035 A 
HETATM   13  C4  UNL     1      -3.349   0.752   0.123  1.00  0.00     0.029 A 
HETATM   14  C5  UNL     1      -4.450   1.599   0.009  1.00  0.00     0.004 A 
HETATM   15  C6  UNL     1      -5.669   0.981  -0.251  1.00  0.00     0.019 A 
HETATM   16  C7  UNL     1      -5.777  -0.385  -0.386  1.00  0.00     0.013 A 
HETATM   17 BR1  UNL     1      -7.506  -1.154  -0.742  1.00  0.00    -0.051 Br
HETATM   18  C8  UNL     1      -4.649  -1.162  -0.262  1.00  0.00     0.048 A 
ENDBRANCH  10  12
ENDBRANCH   3  10
BRANCH   1  19
HETATM   19  N1  UNL     1       0.143   0.329   3.776  1.00  0.00    -0.271 NA
HETATM   20  H1  UNL     1       0.593  -0.572   3.986  1.00  0.00     0.127 HD
HETATM   21  H2  UNL     1       0.607  -0.591   4.043  1.00  0.00     0.127 HD
ENDBRANCH   1  19
BRANCH   7  22
HETATM   22  C12 UNL     1       3.178   0.440  -0.835  1.00  0.00    -0.023 A 
HETATM   23  C13 UNL     1       3.298  -0.932  -0.732  1.00  0.00     0.010 A 
HETATM   24  C14 UNL     1       4.585  -1.442  -0.602  1.00  0.00     0.001 A 
HETATM   25  C15 UNL     1       5.730  -0.648  -0.572  1.00  0.00     0.002 A 
HETATM   26  C16 UNL     1       5.535   0.732  -0.681  1.00  0.00     0.024 A 
HETATM   27  C17 UNL     1       4.275   1.277  -0.811  1.00  0.00     0.041 A 
HETATM   28 CL1  UNL     1       4.088   3.015  -0.945  1.00  0.00    -0.084 Cl
ENDBRANCH   7  22
TORSDOF 4
