REMARK  0 active torsions:
REMARK  status: ('A' for Active; 'I' for Inactive)
ROOT
HETATM    1  C1  UNL     1       3.198   1.810   0.025  1.00  0.00     0.150 C 
HETATM    2  N1  UNL     1       2.070   0.910  -0.193  1.00  0.00    -0.373 N 
HETATM    3  C2  UNL     1       0.677   1.201  -0.280  1.00  0.00     0.030 A 
HETATM    4  C3  UNL     1      -0.038   1.573   0.838  1.00  0.00     0.030 A 
HETATM    5  C4  UNL     1      -1.400   1.761   0.735  1.00  0.00     0.013 A 
HETATM    6  C5  UNL     1      -1.978   1.563  -0.500  1.00  0.00    -0.035 A 
HETATM    7  C6  UNL     1      -1.276   1.191  -1.654  1.00  0.00     0.013 A 
HETATM    8  C7  UNL     1       0.083   1.008  -1.534  1.00  0.00     0.030 A 
HETATM    9  C8  UNL     1      -3.447   1.642  -0.689  1.00  0.00     0.038 C 
HETATM   10  C9  UNL     1      -4.124   0.475  -0.532  1.00  0.00     0.109 C 
HETATM   11  C10 UNL     1      -5.549   0.349  -0.676  1.00  0.00     0.104 C 
HETATM   12  N2  UNL     1      -6.696   0.266  -0.803  1.00  0.00    -0.191 NA
HETATM   13  C11 UNL     1      -3.423  -0.736  -0.186  1.00  0.00     0.327 A 
HETATM   14  O1  UNL     1      -2.216  -0.658  -0.036  1.00  0.00    -0.123 OA
HETATM   15  N3  UNL     1      -2.727  -1.938   0.157  1.00  0.00     0.114 N 
HETATM   16  C12 UNL     1      -1.310  -2.131   0.393  1.00  0.00     0.274 C 
HETATM   17  C13 UNL     1      -0.006  -2.152   0.577  1.00  0.00     0.065 C 
HETATM   18  C14 UNL     1       1.190  -1.266   0.556  1.00  0.00    -0.035 C 
HETATM   19  C15 UNL     1       1.789  -0.966   1.713  1.00  0.00    -0.020 C 
HETATM   20  C16 UNL     1       2.852  -1.721   1.934  1.00  0.00     0.012 C 
HETATM   21  C17 UNL     1       3.845  -1.599   0.846  1.00  0.00    -0.001 C 
HETATM   22  C18 UNL     1       3.463  -1.009  -0.278  1.00  0.00     0.003 C 
HETATM   23  C19 UNL     1       2.075  -0.512  -0.377  1.00  0.00     0.137 C 
HETATM   24  H9  UNL     1      -3.340  -2.801   0.249  1.00  0.00     0.328 HD
ENDROOT
TORSDOF 0
