REMARK  3 active torsions:
REMARK  status: ('A' for Active; 'I' for Inactive)
REMARK    1  A    between atoms: N1_1  and  C1_2 
REMARK    2  A    between atoms: C2_4  and  C3_5 
REMARK    3  A    between atoms: N3_15  and  C12_16 
ROOT
HETATM    1  C1  UNL     1      -0.323   1.464   1.887  1.00  0.00     0.722 A 
HETATM    2  N2  UNL     1      -1.539   1.017   1.516  1.00  0.00    -0.062 NA
HETATM    3  C2  UNL     1      -1.683   0.146   0.475  1.00  0.00     0.100 A 
HETATM    4  C9  UNL     1      -0.528  -0.223  -0.140  1.00  0.00     0.043 A 
HETATM    5  C10 UNL     1      -0.301  -1.070  -1.204  1.00  0.00     0.035 A 
HETATM    6  C11 UNL     1       1.056  -1.138  -1.481  1.00  0.00     0.100 A 
HETATM    7  N3  UNL     1       1.672  -0.329  -0.583  1.00  0.00    -0.306 N 
HETATM    8  C18 UNL     1       0.731   0.215   0.215  1.00  0.00     0.166 A 
HETATM    9  N4  UNL     1       0.818   1.074   1.249  1.00  0.00    -0.044 NA
ENDROOT
BRANCH   3  10
HETATM   10  C3  UNL     1      -3.013  -0.319   0.098  1.00  0.00    -0.004 A 
HETATM   11  C4  UNL     1      -3.447  -1.593  -0.204  1.00  0.00     0.014 A 
HETATM   12  C5  UNL     1      -4.769  -1.796  -0.537  1.00  0.00     0.002 A 
HETATM   13  C6  UNL     1      -5.683  -0.766  -0.583  1.00  0.00     0.019 A 
HETATM   14  C7  UNL     1      -5.256   0.513  -0.282  1.00  0.00     0.011 A 
HETATM   15 BR1  UNL     1      -6.544   1.930  -0.352  1.00  0.00    -0.051 Br
HETATM   16  C8  UNL     1      -3.934   0.731   0.054  1.00  0.00     0.032 A 
ENDBRANCH   3  10
BRANCH   1  17
HETATM   17  N1  UNL     1      -0.305   2.368   2.986  1.00  0.00    -0.231 N 
HETATM   18  H1  UNL     1      -0.255   2.430   4.029  1.00  0.00     0.174 HD
HETATM   19  H2  UNL     1      -0.371   3.264   2.422  1.00  0.00     0.174 HD
ENDBRANCH   1  17
BRANCH   7  20
HETATM   20  C12 UNL     1       3.085  -0.142  -0.556  1.00  0.00     0.040 A 
HETATM   21  C13 UNL     1       3.664   1.097  -0.737  1.00  0.00     0.030 A 
HETATM   22  C14 UNL     1       5.043   1.216  -0.700  1.00  0.00     0.002 A 
HETATM   23  C15 UNL     1       5.753   0.058  -0.481  1.00  0.00     0.000 A 
HETATM   24  C16 UNL     1       5.204  -1.195  -0.297  1.00  0.00     0.002 A 
HETATM   25  C17 UNL     1       3.810  -1.300  -0.336  1.00  0.00     0.030 A 
ENDBRANCH   7  20
TORSDOF 3
