REMARK  3 active torsions:
REMARK  status: ('A' for Active; 'I' for Inactive)
REMARK    1  A    between atoms: N1_1  and  N2_2 
REMARK    2  A    between atoms: C4_8  and  C5_9 
REMARK    3  A    between atoms: C12_16  and  C13_17 
ROOT
HETATM    1  N2  UNL     1       0.986  -0.732   0.967  1.00  0.00    -0.198 N 
HETATM    2  N3  UNL     1      -0.375  -1.006   0.798  1.00  0.00    -0.158 NA
HETATM    3  C1  UNL     1      -0.982  -0.882  -0.316  1.00  0.00     0.095 A 
HETATM    4  C2  UNL     1      -0.131  -0.425  -1.417  1.00  0.00     0.010 A 
HETATM    5  C3  UNL     1      -0.910  -0.348  -2.499  1.00  0.00     0.097 A 
HETATM    6  N4  UNL     1      -2.241  -0.729  -2.186  1.00  0.00    -0.384 N 
HETATM    7  C4  UNL     1      -2.369  -1.085  -0.808  1.00  0.00     0.169 A 
HETATM    8  C11 UNL     1       1.284  -0.151  -1.197  1.00  0.00     0.048 A 
HETATM    9  C12 UNL     1       1.885  -0.288  -0.033  1.00  0.00     0.082 A 
HETATM   10  H4  UNL     1      -3.038  -0.753  -2.862  1.00  0.00     0.160 HD
ENDROOT
BRANCH   9  11
HETATM   11  C13 UNL     1       3.272  -0.013   0.153  1.00  0.00    -0.005 A 
HETATM   12  C14 UNL     1       4.005  -0.116   1.301  1.00  0.00     0.014 A 
HETATM   13  C15 UNL     1       5.345   0.157   1.456  1.00  0.00     0.002 A 
HETATM   14  C16 UNL     1       6.058   0.582   0.354  1.00  0.00     0.019 A 
HETATM   15  C17 UNL     1       5.361   0.707  -0.852  1.00  0.00     0.011 A 
HETATM   16 BR1  UNL     1       6.427   1.298  -2.309  1.00  0.00    -0.051 Br
HETATM   17  C18 UNL     1       4.016   0.411  -0.911  1.00  0.00     0.032 A 
ENDBRANCH   9  11
BRANCH   1  18
HETATM   18  N1  UNL     1       1.391  -0.950   2.281  1.00  0.00    -0.226 NA
HETATM   19  H1  UNL     1       1.271  -1.976   2.457  1.00  0.00     0.145 HD
HETATM   20  H2  UNL     1       0.743  -0.451   2.925  1.00  0.00     0.145 HD
ENDBRANCH   1  18
BRANCH   7  21
HETATM   21  C5  UNL     1      -3.365  -0.288  -0.066  1.00  0.00    -0.030 A 
HETATM   22  C6  UNL     1      -3.263   0.296   1.182  1.00  0.00     0.009 A 
HETATM   23  C7  UNL     1      -4.321   1.008   1.700  1.00  0.00     0.001 A 
HETATM   24  C8  UNL     1      -5.492   1.139   0.967  1.00  0.00     0.000 A 
HETATM   25  C9  UNL     1      -5.632   0.569  -0.286  1.00  0.00     0.001 A 
HETATM   26  C10 UNL     1      -4.555  -0.140  -0.783  1.00  0.00     0.009 A 
ENDBRANCH   7  21
TORSDOF 3
