REMARK  4 active torsions:
REMARK  status: ('A' for Active; 'I' for Inactive)
REMARK    1  A    between atoms: N1_7  and  N2_8 
REMARK    2  A    between atoms: N2_8  and  C6_9 
REMARK    3  A    between atoms: N4_14  and  C10_15 
REMARK    4  A    between atoms: C10_15  and  C11_16 
ROOT
HETATM    1  C6  UNL     1      -1.390  -0.353   0.472  1.00  0.00     0.735 C 
HETATM    2  N3  UNL     1      -1.161   0.965   0.414  1.00  0.00    -0.087 NA
HETATM    3  C7  UNL     1       0.197   1.111   0.170  1.00  0.00     0.222 C 
HETATM    4  C8  UNL     1       1.000   2.201  -0.171  1.00  0.00     0.026 C 
HETATM    5  C9  UNL     1       2.063   1.716  -0.789  1.00  0.00     0.091 C 
HETATM    6  N4  UNL     1       1.968   0.306  -0.928  1.00  0.00    -0.339 N 
HETATM    7  C17 UNL     1       0.700  -0.140  -0.395  1.00  0.00     0.155 C 
HETATM    8  N5  UNL     1      -0.195  -0.996  -0.041  1.00  0.00    -0.046 NA
ENDROOT
BRANCH   1   9
HETATM    9  N2  UNL     1      -2.519  -1.150   0.704  1.00  0.00    -0.147 N 
HETATM   10  H8  UNL     1      -2.544  -2.183   0.593  1.00  0.00     0.200 HD
BRANCH   9  11
HETATM   11  N1  UNL     1      -3.620  -0.359   1.108  1.00  0.00    -0.198 NA
HETATM   12  C1  UNL     1      -4.764  -1.239   1.031  1.00  0.00     0.155 C 
HETATM   13 BR1  UNL     1      -4.933  -2.027  -0.723  1.00  0.00    -0.072 Br
HETATM   14  C2  UNL     1      -6.050  -0.562   1.374  1.00  0.00     0.060 C 
HETATM   15  C3  UNL     1      -6.252   0.524   0.361  1.00  0.00    -0.027 C 
HETATM   16  C4  UNL     1      -5.162   1.094  -0.116  1.00  0.00    -0.015 C 
HETATM   17  C5  UNL     1      -3.746   0.788   0.233  1.00  0.00     0.142 C 
ENDBRANCH   9  11
ENDBRANCH   1   9
BRANCH   6  18
HETATM   18  C10 UNL     1       2.921  -0.617  -1.493  1.00  0.00     0.168 C 
BRANCH  18  19
HETATM   19  C11 UNL     1       4.166  -0.490  -0.681  1.00  0.00    -0.040 A 
HETATM   20  C12 UNL     1       4.306  -1.307   0.421  1.00  0.00     0.009 A 
HETATM   21  C13 UNL     1       5.382  -1.331   1.285  1.00  0.00     0.001 A 
HETATM   22  C14 UNL     1       6.407  -0.429   0.984  1.00  0.00     0.000 A 
HETATM   23  C15 UNL     1       6.289   0.397  -0.112  1.00  0.00     0.001 A 
HETATM   24  C16 UNL     1       5.204   0.395  -0.951  1.00  0.00     0.009 A 
ENDBRANCH  18  19
ENDBRANCH   6  18
TORSDOF 4
