REMARK  6 active torsions:
REMARK  status: ('A' for Active; 'I' for Inactive)
REMARK    1  A    between atoms: C1_2  and  C2_3 
REMARK    2  A    between atoms: C2_3  and  C3_4 
REMARK    3  A    between atoms: C4_5  and  N1_6 
REMARK    4  A    between atoms: N1_6  and  C5_7 
REMARK    5  A    between atoms: N2_11  and  C9_12 
REMARK    6  A    between atoms: C9_12  and  C10_13 
ROOT
HETATM    1  C5  UNL     1      -1.627  -0.025   0.236  1.00  0.00     0.163 A 
HETATM    2  C6  UNL     1      -0.410  -0.325  -0.176  1.00  0.00     0.059 A 
HETATM    3  C7  UNL     1       0.147  -1.521  -0.503  1.00  0.00     0.036 A 
HETATM    4  C8  UNL     1       1.441  -1.336  -0.874  1.00  0.00     0.094 A 
HETATM    5  N2  UNL     1       1.724  -0.012  -0.786  1.00  0.00    -0.337 N 
HETATM    6  C16 UNL     1       0.599   0.596  -0.362  1.00  0.00     0.140 A 
HETATM    7  N3  UNL     1       0.567   1.865  -0.185  1.00  0.00    -0.248 NA
HETATM    8  C17 UNL     1      -0.374   2.856   0.233  1.00  0.00     0.324 A 
HETATM    9  N4  UNL     1      -1.687   2.389   0.572  1.00  0.00    -0.169 NA
HETATM   10  N5  UNL     1      -2.152   1.229   0.562  1.00  0.00    -0.134 NA
ENDROOT
BRANCH   1  11
HETATM   11  N1  UNL     1      -2.506  -1.150   0.356  1.00  0.00    -0.349 N 
HETATM   12  H7  UNL     1      -2.663  -1.706   1.237  1.00  0.00     0.167 HD
BRANCH  11  13
HETATM   13  C4  UNL     1      -3.259  -1.612  -0.759  1.00  0.00     0.086 C 
HETATM   14  C3  UNL     1      -4.521  -1.311  -0.976  1.00  0.00    -0.009 C 
BRANCH  14  15
HETATM   15  C2  UNL     1      -5.246  -0.447  -0.041  1.00  0.00     0.039 C 
BRANCH  15  16
HETATM   16  C1  UNL     1      -6.429  -1.248   0.503  1.00  0.00     0.089 C 
HETATM   17 BR1  UNL     1      -7.445  -0.170   1.756  1.00  0.00    -0.096 Br
ENDBRANCH  15  16
ENDBRANCH  14  15
ENDBRANCH  11  13
ENDBRANCH   1  11
BRANCH   5  18
HETATM   18  C9  UNL     1       3.034   0.520  -1.116  1.00  0.00     0.168 C 
BRANCH  18  19
HETATM   19  C10 UNL     1       3.936   0.544   0.090  1.00  0.00    -0.040 A 
HETATM   20  C11 UNL     1       4.679  -0.619   0.264  1.00  0.00     0.009 A 
HETATM   21  C12 UNL     1       5.545  -0.725   1.333  1.00  0.00     0.001 A 
HETATM   22  C13 UNL     1       5.622   0.357   2.186  1.00  0.00     0.000 A 
HETATM   23  C14 UNL     1       4.896   1.522   2.035  1.00  0.00     0.001 A 
HETATM   24  C15 UNL     1       4.020   1.623   0.948  1.00  0.00     0.009 A 
ENDBRANCH  18  19
ENDBRANCH   5  18
TORSDOF 6
