REMARK  6 active torsions:
REMARK  status: ('A' for Active; 'I' for Inactive)
REMARK    1  A    between atoms: C3_3  and  C4_4 
REMARK    2  A    between atoms: C5_5  and  C6_6 
REMARK    3  A    between atoms: C6_6  and  C7_7 
REMARK    4  A    between atoms: C7_7  and  N1_8 
REMARK    5  A    between atoms: C11_12  and  N2_13 
REMARK    6  A    between atoms: N2_13  and  C12_14 
ROOT
HETATM    1  N1  UNL     1       1.032   1.101  -0.740  1.00  0.00    -0.341 N 
HETATM    2  C8  UNL     1       0.904  -0.024  -1.456  1.00  0.00     0.094 A 
HETATM    3  C9  UNL     1      -0.429  -0.351  -1.330  1.00  0.00     0.036 A 
HETATM    4  C10 UNL     1      -1.121   0.557  -0.547  1.00  0.00     0.057 A 
HETATM    5  C11 UNL     1      -2.456   0.618  -0.163  1.00  0.00     0.143 A 
HETATM    6  N3  UNL     1      -2.774   1.662   0.615  1.00  0.00    -0.223 NA
HETATM    7  C18 UNL     1      -1.854   2.560   0.975  1.00  0.00     0.237 A 
HETATM    8  N4  UNL     1      -0.544   2.497   0.596  1.00  0.00    -0.223 NA
HETATM    9  C19 UNL     1      -0.146   1.460  -0.198  1.00  0.00     0.145 A 
ENDROOT
BRANCH   5  10
HETATM   10  N2  UNL     1      -3.343  -0.382  -0.599  1.00  0.00    -0.340 N 
HETATM   11  H14 UNL     1      -2.941  -1.142  -1.209  1.00  0.00     0.167 HD
BRANCH  10  12
HETATM   12  C12 UNL     1      -4.709  -0.499  -0.326  1.00  0.00     0.035 A 
HETATM   13  C13 UNL     1      -5.484   0.346   0.436  1.00  0.00     0.029 A 
HETATM   14  C14 UNL     1      -6.816   0.210   0.689  1.00  0.00     0.004 A 
HETATM   15  C15 UNL     1      -7.487  -0.857   0.151  1.00  0.00     0.019 A 
HETATM   16  C16 UNL     1      -6.791  -1.742  -0.617  1.00  0.00     0.013 A 
HETATM   17 BR1  UNL     1      -7.713  -3.228  -1.368  1.00  0.00    -0.051 Br
HETATM   18  C17 UNL     1      -5.447  -1.559  -0.841  1.00  0.00     0.048 A 
ENDBRANCH  10  12
ENDBRANCH   5  10
BRANCH   1  19
HETATM   19  C7  UNL     1       2.226   1.892  -0.523  1.00  0.00     0.134 C 
BRANCH  19  20
HETATM   20  C6  UNL     1       2.973   1.428   0.710  1.00  0.00     0.047 C 
BRANCH  20  21
HETATM   21  C5  UNL     1       3.355   0.015   0.520  1.00  0.00    -0.025 C 
HETATM   22  C4  UNL     1       4.555  -0.535   0.505  1.00  0.00    -0.004 C 
BRANCH  22  23
HETATM   23  C3  UNL     1       5.771   0.242   0.689  1.00  0.00    -0.005 C 
HETATM   24  C2  UNL     1       6.954  -0.394   0.660  1.00  0.00    -0.031 C 
HETATM   25  C1  UNL     1       6.903  -1.878   0.435  1.00  0.00     0.036 C 
ENDBRANCH  22  23
ENDBRANCH  20  21
ENDBRANCH  19  20
ENDBRANCH   1  19
TORSDOF 6
