REMARK  3 active torsions:
REMARK  status: ('A' for Active; 'I' for Inactive)
REMARK    1  A    between atoms: N1_1  and  C1_2 
REMARK    2  A    between atoms: C4_6  and  N3_7 
REMARK    3  A    between atoms: N3_7  and  C5_8 
ROOT
HETATM    1  C1  UNL     1       0.387  -2.278  -0.308  1.00  0.00     0.722 A 
HETATM    2  N2  UNL     1      -0.759  -1.897   0.247  1.00  0.00    -0.067 NA
HETATM    3  C2  UNL     1      -0.964  -0.691   0.800  1.00  0.00     0.072 A 
HETATM    4  C3  UNL     1       0.044   0.244   0.818  1.00  0.00     0.038 A 
HETATM    5  C4  UNL     1       1.248  -0.126   0.247  1.00  0.00     0.159 A 
HETATM    6  N4  UNL     1       1.343  -1.346  -0.273  1.00  0.00    -0.044 NA
HETATM    7  C11 UNL     1      -0.093   1.573   1.398  1.00  0.00     0.041 C 
HETATM    8  C12 UNL     1      -1.011   2.511   1.226  1.00  0.00     0.136 C 
HETATM    9  O1  UNL     1      -1.697   1.702   0.330  1.00  0.00    -0.358 OA
HETATM   10  C13 UNL     1      -3.110   1.946   0.268  1.00  0.00     0.213 C 
HETATM   11  C14 UNL     1      -3.764   0.768  -0.348  1.00  0.00    -0.028 A 
HETATM   12  C15 UNL     1      -4.692   0.695  -1.360  1.00  0.00     0.010 A 
HETATM   13  C16 UNL     1      -5.191  -0.512  -1.802  1.00  0.00     0.001 A 
HETATM   14  C17 UNL     1      -4.783  -1.709  -1.248  1.00  0.00     0.001 A 
HETATM   15  C18 UNL     1      -3.850  -1.638  -0.231  1.00  0.00     0.008 A 
HETATM   16  C19 UNL     1      -3.341  -0.417   0.220  1.00  0.00    -0.044 A 
HETATM   17  C20 UNL     1      -2.336  -0.552   1.331  1.00  0.00     0.100 C 
ENDROOT
BRANCH   5  18
HETATM   18  N3  UNL     1       2.301   0.821   0.244  1.00  0.00    -0.340 N 
HETATM   19  H3  UNL     1       2.136   1.781   0.653  1.00  0.00     0.167 HD
BRANCH  18  20
HETATM   20  C5  UNL     1       3.627   0.699  -0.249  1.00  0.00     0.035 A 
HETATM   21  C6  UNL     1       4.560   1.724  -0.199  1.00  0.00     0.029 A 
HETATM   22  C7  UNL     1       5.837   1.625  -0.668  1.00  0.00     0.004 A 
HETATM   23  C8  UNL     1       6.276   0.458  -1.232  1.00  0.00     0.019 A 
HETATM   24  C9  UNL     1       5.401  -0.604  -1.314  1.00  0.00     0.013 A 
HETATM   25 BR1  UNL     1       6.050  -2.206  -2.106  1.00  0.00    -0.051 Br
HETATM   26  C10 UNL     1       4.130  -0.448  -0.828  1.00  0.00     0.048 A 
ENDBRANCH  18  20
ENDBRANCH   5  18
BRANCH   1  27
HETATM   27  N1  UNL     1       0.629  -3.548  -0.900  1.00  0.00    -0.231 N 
HETATM   28  H1  UNL     1       1.550  -3.959  -0.565  1.00  0.00     0.174 HD
HETATM   29  H2  UNL     1      -0.028  -4.012  -1.582  1.00  0.00     0.174 HD
ENDBRANCH   1  27
TORSDOF 3
