REMARK  4 active torsions:
REMARK  status: ('A' for Active; 'I' for Inactive)
REMARK    1  A    between atoms: C2_3  and  O1_4 
REMARK    2  A    between atoms: O1_4  and  C3_5 
REMARK    3  A    between atoms: C8_10  and  C9_11 
REMARK    4  A    between atoms: C11_14  and  C12_15 
ROOT
HETATM    1  B1  UNL     1       5.472   4.111   1.048  1.00  0.00     0.192 B 
HETATM    2  C1  UNL     1       4.743   2.811   0.194  1.00  0.00    -0.237 C 
HETATM    3  C2  UNL     1       4.094   1.703  -0.551  1.00  0.00     0.240 C 
ENDROOT
BRANCH   3   4
HETATM    4  O1  UNL     1       3.369   0.883   0.343  1.00  0.00    -0.326 OA
BRANCH   4   5
HETATM    5  C3  UNL     1       2.708  -0.218  -0.179  1.00  0.00     0.135 C 
HETATM    6  C4  UNL     1       3.413  -1.341  -0.089  1.00  0.00     0.033 C 
HETATM    7  C5  UNL     1       2.830  -2.622  -0.611  1.00  0.00     0.058 C 
HETATM    8  C6  UNL     1       1.479  -2.829  -0.005  1.00  0.00    -0.024 C 
HETATM    9  C7  UNL     1       0.389  -2.086  -0.175  1.00  0.00    -0.000 C 
HETATM   10  C8  UNL     1       0.309  -0.887  -1.021  1.00  0.00     0.150 C 
HETATM   11  N3  UNL     1       1.399   0.030  -0.719  1.00  0.00    -0.358 N 
HETATM   12  H14 UNL     1       1.158   1.043  -0.949  1.00  0.00     0.162 HD
BRANCH  10  13
HETATM   13  C9  UNL     1      -0.973  -0.159  -0.870  1.00  0.00     0.049 C 
HETATM   14  C10 UNL     1      -1.110   1.001  -1.733  1.00  0.00     0.097 C 
HETATM   15  N1  UNL     1      -1.230   1.934  -2.446  1.00  0.00    -0.192 NA
HETATM   16  C11 UNL     1      -1.987  -0.429  -0.034  1.00  0.00     0.032 C 
BRANCH  16  17
HETATM   17  C12 UNL     1      -3.261   0.302   0.105  1.00  0.00    -0.032 A 
HETATM   18  C13 UNL     1      -3.796   0.602   1.340  1.00  0.00     0.030 A 
HETATM   19  C14 UNL     1      -4.986   1.272   1.443  1.00  0.00     0.117 A 
HETATM   20  N2  UNL     1      -5.645   1.647   0.308  1.00  0.00    -0.273 NA
HETATM   21  C15 UNL     1      -5.127   1.358  -0.909  1.00  0.00     0.117 A 
HETATM   22  C16 UNL     1      -3.932   0.684  -1.046  1.00  0.00     0.030 A 
ENDBRANCH  16  17
ENDBRANCH  10  13
ENDBRANCH   4   5
ENDBRANCH   3   4
TORSDOF 4
