REMARK  2 active torsions:
REMARK  status: ('A' for Active; 'I' for Inactive)
REMARK    1  A    between atoms: C5_5  and  C6_6 
REMARK    2  A    between atoms: C14_18  and  N4_19 
ROOT
HETATM    1  C1  UNL     1      -2.158  -0.132  -1.500  1.00  0.00     0.050 C 
HETATM    2  C2  UNL     1      -2.016   0.790  -0.359  1.00  0.00    -0.033 C 
HETATM    3  C3  UNL     1      -0.946   0.866   0.424  1.00  0.00     0.065 A 
HETATM    4  C4  UNL     1       0.390   0.480   0.856  1.00  0.00     0.068 A 
HETATM    5  C5  UNL     1       1.425  -0.356   0.579  1.00  0.00     0.084 A 
HETATM    6  N1  UNL     1       2.512  -0.256   1.400  1.00  0.00    -0.240 NA
HETATM    7  C12 UNL     1       2.489   0.639   2.405  1.00  0.00     0.236 A 
HETATM    8  N2  UNL     1       1.456   1.461   2.668  1.00  0.00    -0.223 NA
HETATM    9  C13 UNL     1       0.361   1.388   1.871  1.00  0.00     0.152 A 
HETATM   10  N3  UNL     1      -0.949   1.807   1.494  1.00  0.00    -0.279 N 
HETATM   11  C14 UNL     1      -2.084   2.638   1.701  1.00  0.00     0.118 C 
HETATM   12  C15 UNL     1      -3.209   2.398   1.057  1.00  0.00     0.023 C 
HETATM   13  C16 UNL     1      -3.134   1.705  -0.045  1.00  0.00     0.025 C 
ENDROOT
BRANCH   5  14
HETATM   14  C6  UNL     1       1.545  -1.342  -0.466  1.00  0.00    -0.005 A 
HETATM   15  C7  UNL     1       2.762  -1.353  -1.153  1.00  0.00     0.014 A 
HETATM   16  C8  UNL     1       3.031  -2.235  -2.177  1.00  0.00     0.002 A 
HETATM   17  C9  UNL     1       2.007  -3.111  -2.476  1.00  0.00     0.019 A 
HETATM   18  C10 UNL     1       0.786  -3.176  -1.861  1.00  0.00     0.011 A 
HETATM   19 BR1  UNL     1      -0.569  -4.408  -2.327  1.00  0.00    -0.051 Br
HETATM   20  C11 UNL     1       0.589  -2.249  -0.831  1.00  0.00     0.032 A 
ENDBRANCH   5  14
BRANCH  11  21
HETATM   21  N4  UNL     1      -2.030   3.731   2.594  1.00  0.00    -0.384 N 
HETATM   22  H9  UNL     1      -1.838   4.652   3.030  1.00  0.00     0.157 HD
HETATM   23  H10 UNL     1      -2.520   3.581   3.516  1.00  0.00     0.157 HD
ENDBRANCH  11  21
TORSDOF 2
