REMARK  1 active torsions:
REMARK  status: ('A' for Active; 'I' for Inactive)
REMARK    1  A    between atoms: N3_6  and  C4_7 
ROOT
HETATM    1  C1  UNL     1      -3.093   3.382   0.357  1.00  0.00     0.070 C 
HETATM    2  C2  UNL     1      -2.569   2.104  -0.214  1.00  0.00     0.032 C 
HETATM    3  N1  UNL     1      -1.263   2.040  -0.308  1.00  0.00    -0.235 NA
HETATM    4  C3  UNL     1      -0.360   0.927  -0.150  1.00  0.00     0.164 C 
HETATM    5  N2  UNL     1       0.502   1.055   0.830  1.00  0.00    -0.150 NA
HETATM    6  N3  UNL     1       1.427   0.001   1.052  1.00  0.00    -0.243 N 
HETATM    7  C10 UNL     1       1.020  -1.033   1.935  1.00  0.00     0.119 C 
HETATM    8  C11 UNL     1       0.109  -1.958   2.113  1.00  0.00     0.021 C 
HETATM    9  C12 UNL     1      -1.068  -2.417   1.395  1.00  0.00     0.018 C 
HETATM   10  C13 UNL     1      -1.673  -2.074   0.283  1.00  0.00     0.086 C 
HETATM   11  N4  UNL     1      -1.512  -1.121  -0.758  1.00  0.00    -0.379 N 
HETATM   12  C14 UNL     1      -2.737  -1.091  -1.533  1.00  0.00     0.150 C 
HETATM   13  C15 UNL     1      -3.655  -0.103  -0.881  1.00  0.00    -0.005 C 
HETATM   14  C16 UNL     1      -3.680   1.186  -0.547  1.00  0.00     0.024 C 
HETATM   15  C17 UNL     1      -0.316  -0.332  -0.976  1.00  0.00     0.204 C 
ENDROOT
BRANCH   6  16
HETATM   16  C4  UNL     1       2.683   0.047   0.373  1.00  0.00     0.059 A 
HETATM   17  C5  UNL     1       2.904   1.109  -0.474  1.00  0.00     0.031 A 
HETATM   18  C6  UNL     1       4.129   1.114  -1.108  1.00  0.00     0.004 A 
HETATM   19  C7  UNL     1       5.069   0.140  -0.921  1.00  0.00     0.019 A 
HETATM   20  C8  UNL     1       4.819  -0.930  -0.054  1.00  0.00     0.013 A 
HETATM   21 BR1  UNL     1       6.063  -2.331   0.272  1.00  0.00    -0.051 Br
HETATM   22  C9  UNL     1       3.601  -0.954   0.590  1.00  0.00     0.050 A 
ENDBRANCH   6  16
TORSDOF 1
