REMARK  6 active torsions:
REMARK  status: ('A' for Active; 'I' for Inactive)
REMARK    1  A    between atoms: N1_1  and  C1_2 
REMARK    2  A    between atoms: C3_5  and  C4_6 
REMARK    3  A    between atoms: C4_6  and  N3_7 
REMARK    4  A    between atoms: N3_7  and  C5_8 
REMARK    5  A    between atoms: C11_14  and  N4_15 
REMARK    6  A    between atoms: N4_15  and  C12_16 
ROOT
HETATM    1  C1  UNL     1       1.251   4.123  -0.796  1.00  0.00     0.721 A 
HETATM    2  N2  UNL     1      -0.013   4.252  -1.233  1.00  0.00    -0.075 NA
HETATM    3  C2  UNL     1      -0.796   3.197  -1.464  1.00  0.00     0.149 A 
HETATM    4  C3  UNL     1      -0.343   1.911  -1.264  1.00  0.00     0.024 A 
HETATM    5  C11 UNL     1       0.954   1.778  -0.816  1.00  0.00     0.156 A 
HETATM    6  N5  UNL     1       1.728   2.868  -0.589  1.00  0.00    -0.045 NA
ENDROOT
BRANCH   4   7
HETATM    7  C4  UNL     1      -1.088   0.669  -1.465  1.00  0.00     0.164 C 
BRANCH   7   8
HETATM    8  N3  UNL     1      -1.561   0.079  -0.228  1.00  0.00    -0.385 N 
HETATM    9  H6  UNL     1      -1.316   0.606   0.653  1.00  0.00     0.160 HD
BRANCH   8  10
HETATM   10  C5  UNL     1      -2.308  -1.131  -0.175  1.00  0.00     0.028 A 
HETATM   11  C6  UNL     1      -2.598  -1.782  -1.354  1.00  0.00     0.029 A 
HETATM   12  C7  UNL     1      -3.328  -2.962  -1.315  1.00  0.00     0.002 A 
HETATM   13  C8  UNL     1      -3.748  -3.457  -0.083  1.00  0.00     0.000 A 
HETATM   14  C9  UNL     1      -3.437  -2.775   1.073  1.00  0.00     0.002 A 
HETATM   15  C10 UNL     1      -2.713  -1.600   1.058  1.00  0.00     0.029 A 
ENDBRANCH   8  10
ENDBRANCH   7   8
ENDBRANCH   4   7
BRANCH   5  16
HETATM   16  N4  UNL     1       1.703   0.606  -0.532  1.00  0.00    -0.340 N 
HETATM   17  H12 UNL     1       2.251   0.311  -1.379  1.00  0.00     0.167 HD
BRANCH  16  18
HETATM   18  C12 UNL     1       2.032  -0.365   0.452  1.00  0.00     0.035 A 
HETATM   19  C13 UNL     1       1.376  -1.534   0.769  1.00  0.00     0.029 A 
HETATM   20  C14 UNL     1       1.856  -2.347   1.770  1.00  0.00     0.004 A 
HETATM   21  C15 UNL     1       2.992  -1.941   2.420  1.00  0.00     0.019 A 
HETATM   22  C16 UNL     1       3.694  -0.787   2.154  1.00  0.00     0.013 A 
HETATM   23 BR1  UNL     1       5.243  -0.400   3.163  1.00  0.00    -0.051 Br
HETATM   24  C17 UNL     1       3.182   0.019   1.130  1.00  0.00     0.048 A 
ENDBRANCH  16  18
ENDBRANCH   5  16
BRANCH   1  25
HETATM   25  N1  UNL     1       1.954   5.331  -0.597  1.00  0.00    -0.231 N 
HETATM   26  H1  UNL     1       2.621   5.355  -1.391  1.00  0.00     0.174 HD
HETATM   27  H2  UNL     1       1.917   6.085   0.109  1.00  0.00     0.174 HD
ENDBRANCH   1  25
TORSDOF 6
