REMARK  4 active torsions:
REMARK  status: ('A' for Active; 'I' for Inactive)
REMARK    1  A    between atoms: N1_1  and  C1_2 
REMARK    2  A    between atoms: C1_2  and  N2_3 
REMARK    3  A    between atoms: C4_6  and  N3_7 
REMARK    4  A    between atoms: C4_6  and  C5_8 
ROOT
HETATM    1  N2  UNL     1      -0.752   1.558  -0.318  1.00  0.00    -0.259 NA
HETATM    2  C2  UNL     1      -0.864   0.393  -0.059  1.00  0.00     0.076 C 
HETATM    3  C3  UNL     1       0.366  -0.268   0.506  1.00  0.00     0.021 C 
HETATM    4  C4  UNL     1       1.459   0.274   0.066  1.00  0.00     0.049 C 
HETATM    5  C11 UNL     1       0.624  -1.373   1.461  1.00  0.00     0.028 C 
HETATM    6  C12 UNL     1      -0.165  -2.416   1.708  1.00  0.00    -0.029 C 
HETATM    7  C13 UNL     1      -1.409  -2.205   2.111  1.00  0.00    -0.010 C 
HETATM    8  C14 UNL     1      -2.822  -1.819   1.832  1.00  0.00     0.067 C 
HETATM    9  C15 UNL     1      -2.933  -1.150   0.497  1.00  0.00    -0.042 A 
HETATM   10  C16 UNL     1      -4.148  -1.545  -0.079  1.00  0.00     0.008 A 
HETATM   11  C17 UNL     1      -4.533  -1.102  -1.325  1.00  0.00     0.001 A 
HETATM   12  C18 UNL     1      -3.728  -0.238  -2.068  1.00  0.00     0.001 A 
HETATM   13  C19 UNL     1      -2.534   0.163  -1.527  1.00  0.00     0.014 A 
HETATM   14  C20 UNL     1      -2.164  -0.282  -0.291  1.00  0.00    -0.000 A 
ENDROOT
BRANCH   4  15
HETATM   15  N3  UNL     1       1.462   1.360  -0.835  1.00  0.00    -0.398 N 
HETATM   16  H5  UNL     1       1.464   1.748  -1.789  1.00  0.00     0.156 HD
HETATM   17  H6  UNL     1       1.476   2.338  -0.494  1.00  0.00     0.156 HD
ENDBRANCH   4  15
BRANCH   4  18
HETATM   18  C5  UNL     1       2.864  -0.030   0.271  1.00  0.00    -0.008 A 
HETATM   19  C6  UNL     1       3.251  -1.368   0.204  1.00  0.00     0.014 A 
HETATM   20  C7  UNL     1       4.528  -1.853   0.381  1.00  0.00     0.002 A 
HETATM   21  C8  UNL     1       5.489  -0.897   0.647  1.00  0.00     0.019 A 
HETATM   22  C9  UNL     1       5.182   0.438   0.728  1.00  0.00     0.011 A 
HETATM   23 BR1  UNL     1       6.507   1.786   1.099  1.00  0.00    -0.051 Br
HETATM   24  C10 UNL     1       3.878   0.893   0.543  1.00  0.00     0.032 A 
ENDBRANCH   4  18
BRANCH   1  25
HETATM   25  C1  UNL     1      -1.367   2.684  -0.796  1.00  0.00     0.415 C 
BRANCH  25  26
HETATM   26  N1  UNL     1      -0.850   3.272  -2.037  1.00  0.00     0.097 NA
HETATM   27  H1  UNL     1      -1.539   3.960  -2.370  1.00  0.00     0.315 HD
HETATM   28  H2  UNL     1       0.069   3.720  -1.925  1.00  0.00     0.315 HD
ENDBRANCH  25  26
ENDBRANCH   1  25
TORSDOF 4
