REMARK  6 active torsions:
REMARK  status: ('A' for Active; 'I' for Inactive)
REMARK    1  A    between atoms: C2_2  and  C3_3 
REMARK    2  A    between atoms: C4_4  and  C5_5 
REMARK    3  A    between atoms: C5_5  and  C6_6 
REMARK    4  A    between atoms: C11_14  and  N3_15 
REMARK    5  A    between atoms: C12_17  and  N5_18 
REMARK    6  A    between atoms: N5_18  and  C13_19 
ROOT
HETATM    1  C3  UNL     1       0.643  -0.737  -0.392  1.00  0.00     0.035 A 
HETATM    2  C4  UNL     1      -0.583  -0.116  -0.438  1.00  0.00     0.071 A 
HETATM    3  N2  UNL     1      -0.640   0.967  -1.250  1.00  0.00    -0.067 NA
HETATM    4  C11 UNL     1       0.423   1.397  -1.953  1.00  0.00     0.722 A 
HETATM    5  N4  UNL     1       1.597   0.746  -1.865  1.00  0.00    -0.044 NA
HETATM    6  C12 UNL     1       1.770  -0.353  -1.082  1.00  0.00     0.159 A 
ENDROOT
BRANCH   6   7
HETATM    7  N5  UNL     1       2.983  -1.041  -0.976  1.00  0.00    -0.340 N 
HETATM    8  H14 UNL     1       3.032  -1.830  -1.685  1.00  0.00     0.167 HD
BRANCH   7   9
HETATM    9  C13 UNL     1       4.024  -0.745  -0.055  1.00  0.00     0.035 A 
HETATM   10  C14 UNL     1       5.129  -1.539  -0.093  1.00  0.00     0.031 A 
HETATM   11  C15 UNL     1       6.243  -1.414   0.711  1.00  0.00     0.019 A 
HETATM   12  P1  UNL     1       6.178  -0.099   1.868  1.00  0.00    -0.015 P 
HETATM   13  C16 UNL     1       4.670   0.786   1.739  1.00  0.00     0.026 A 
HETATM   14 BR1  UNL     1       4.280   2.284   2.858  1.00  0.00    -0.050 Br
HETATM   15  C17 UNL     1       3.786   0.330   0.776  1.00  0.00     0.050 A 
ENDBRANCH   7   9
ENDBRANCH   6   7
BRANCH   1  16
HETATM   16  C2  UNL     1       0.847  -1.912   0.439  1.00  0.00     0.007 C 
HETATM   17  C1  UNL     1      -0.004  -2.537   1.218  1.00  0.00     0.012 C 
ENDBRANCH   1  16
BRANCH   2  18
HETATM   18  C5  UNL     1      -1.748  -0.571   0.319  1.00  0.00     0.096 C 
BRANCH  18  19
HETATM   19  C6  UNL     1      -2.951   0.252   0.131  1.00  0.00    -0.056 C 
HETATM   20  C7  UNL     1      -4.097  -0.217  -0.355  1.00  0.00     0.004 C 
HETATM   21  C8  UNL     1      -5.452   0.313  -0.664  1.00  0.00     0.204 C 
HETATM   22  O1  UNL     1      -5.778   1.421   0.165  1.00  0.00    -0.341 OA
HETATM   23  C9  UNL     1      -5.163   1.801   1.352  1.00  0.00     0.245 C 
HETATM   24  N1  UNL     1      -3.867   1.917   1.510  1.00  0.00    -0.274 NA
HETATM   25  C10 UNL     1      -2.798   1.689   0.533  1.00  0.00     0.184 C 
ENDBRANCH  18  19
ENDBRANCH   2  18
BRANCH   4  26
HETATM   26  N3  UNL     1       0.464   2.514  -2.823  1.00  0.00    -0.231 N 
HETATM   27  H12 UNL     1      -0.157   2.778  -3.641  1.00  0.00     0.174 HD
HETATM   28  H13 UNL     1       1.135   3.311  -2.822  1.00  0.00     0.174 HD
ENDBRANCH   4  26
TORSDOF 6
