REMARK  6 active torsions:
REMARK  status: ('A' for Active; 'I' for Inactive)
REMARK    1  A    between atoms: C4_4  and  C5_5 
REMARK    2  A    between atoms: C6_6  and  C7_7 
REMARK    3  A    between atoms: C7_7  and  N1_8 
REMARK    4  A    between atoms: C11_12  and  N2_13 
REMARK    5  A    between atoms: N2_13  and  C12_14 
REMARK    6  A    between atoms: C18_22  and  N4_23 
ROOT
HETATM    1  C1  UNL     1       7.109   3.377   0.385  1.00  0.00     0.017 C 
HETATM    2  C2  UNL     1       6.894   2.220   0.596  1.00  0.00    -0.089 C 
HETATM    3  C3  UNL     1       6.639   0.831   0.833  1.00  0.00     0.063 C 
HETATM    4  C4  UNL     1       5.512   0.263   0.441  1.00  0.00     0.009 C 
ENDROOT
BRANCH   4   5
HETATM    5  C5  UNL     1       4.658  -0.910   0.335  1.00  0.00    -0.002 C 
HETATM    6  C6  UNL     1       3.484  -1.280  -0.132  1.00  0.00    -0.007 C 
BRANCH   6   7
HETATM    7  C7  UNL     1       2.567  -0.356  -0.810  1.00  0.00     0.157 C 
BRANCH   7   8
HETATM    8  N1  UNL     1       1.287  -0.205  -0.172  1.00  0.00    -0.337 N 
HETATM    9  C8  UNL     1       0.943   0.716   0.778  1.00  0.00     0.094 A 
HETATM   10  C9  UNL     1      -0.379   0.466   1.076  1.00  0.00     0.036 A 
HETATM   11  C10 UNL     1      -0.802  -0.593   0.304  1.00  0.00     0.059 A 
HETATM   12  C11 UNL     1      -2.017  -1.239   0.206  1.00  0.00     0.161 A 
HETATM   13  C19 UNL     1       0.244  -1.003  -0.470  1.00  0.00     0.163 A 
HETATM   14  N3  UNL     1      -2.171  -2.268  -0.648  1.00  0.00    -0.044 NA
HETATM   15  C18 UNL     1      -1.140  -2.669  -1.408  1.00  0.00     0.724 A 
HETATM   16  N5  UNL     1       0.064  -2.034  -1.315  1.00  0.00    -0.044 NA
BRANCH  12  17
HETATM   17  N2  UNL     1      -3.154  -0.917   0.955  1.00  0.00    -0.340 N 
HETATM   18  H10 UNL     1      -3.295  -1.513   1.786  1.00  0.00     0.167 HD
BRANCH  17  19
HETATM   19  C12 UNL     1      -4.100   0.112   0.690  1.00  0.00     0.035 A 
HETATM   20  C13 UNL     1      -5.256   0.242   1.438  1.00  0.00     0.029 A 
HETATM   21  C14 UNL     1      -6.177   1.231   1.211  1.00  0.00     0.004 A 
HETATM   22  C15 UNL     1      -5.942   2.141   0.187  1.00  0.00     0.019 A 
HETATM   23  C16 UNL     1      -4.794   2.073  -0.614  1.00  0.00     0.013 A 
HETATM   24 BR1  UNL     1      -4.440   3.312  -2.024  1.00  0.00    -0.051 Br
HETATM   25  C17 UNL     1      -3.929   1.048  -0.311  1.00  0.00     0.048 A 
ENDBRANCH  17  19
ENDBRANCH  12  17
BRANCH  15  26
HETATM   26  N4  UNL     1      -1.205  -3.749  -2.339  1.00  0.00    -0.231 N 
HETATM   27  H15 UNL     1      -1.962  -3.578  -3.032  1.00  0.00     0.174 HD
HETATM   28  H16 UNL     1      -0.653  -4.645  -2.447  1.00  0.00     0.174 HD
ENDBRANCH  15  26
ENDBRANCH   7   8
ENDBRANCH   6   7
ENDBRANCH   4   5
TORSDOF 6
