REMARK  2 active torsions:
REMARK  status: ('A' for Active; 'I' for Inactive)
REMARK    1  A    between atoms: C8_13  and  N4_14 
REMARK    2  A    between atoms: N5_18  and  C12_19 
ROOT
HETATM    1  B1  UNL     1      -0.040   2.373  -0.079  1.00  0.00     0.508 B 
HETATM    2  C1  UNL     1      -0.734   1.563  -1.290  1.00  0.00     0.219 A 
HETATM    3  N1  UNL     1      -1.607   2.498  -1.272  1.00  0.00    -0.095 NA
HETATM    4  N2  UNL     1      -1.466   3.528  -0.308  1.00  0.00     0.052 N 
HETATM    5  N3  UNL     1      -1.901   2.573   0.741  1.00  0.00    -0.213 N 
HETATM    6  C2  UNL     1      -2.459   1.203   0.601  1.00  0.00     0.066 A 
HETATM    7  C3  UNL     1      -3.760   1.381   0.980  1.00  0.00     0.031 A 
HETATM    8  C4  UNL     1      -4.675   0.353   0.897  1.00  0.00     0.004 A 
HETATM    9  C5  UNL     1      -4.225  -0.854   0.414  1.00  0.00     0.020 A 
HETATM   10  C6  UNL     1      -2.869  -0.959   0.044  1.00  0.00     0.022 A 
HETATM   11 BR1  UNL     1      -2.875  -2.785  -0.649  1.00  0.00    -0.050 Br
HETATM   12  C7  UNL     1      -1.848   0.035   0.099  1.00  0.00     0.027 A 
HETATM   13  C8  UNL     1      -0.746  -0.728  -0.392  1.00  0.00     0.138 A 
HETATM   14  C10 UNL     1      -0.556  -2.049   0.297  1.00  0.00     0.034 A 
HETATM   15  C11 UNL     1       0.578  -2.529   0.734  1.00  0.00     0.098 A 
HETATM   16  N5  UNL     1       1.234  -1.349   0.281  1.00  0.00    -0.308 N 
HETATM   17  C18 UNL     1       0.685  -0.179  -0.370  1.00  0.00     0.144 A 
HETATM   18  N6  UNL     1       0.307   0.797  -0.917  1.00  0.00    -0.242 NA
HETATM   19  H1  UNL     1       0.177   1.964   0.997  1.00  0.00     0.020 HD
HETATM   20  H2  UNL     1       0.610   3.372  -0.327  1.00  0.00     0.020 HD
HETATM   21  H3  UNL     1      -1.301   4.465   0.164  1.00  0.00     0.316 HD
HETATM   22  H4  UNL     1      -1.833   2.866   1.771  1.00  0.00     0.194 HD
ENDROOT
BRANCH  16  23
HETATM   23  C12 UNL     1       2.636  -0.826   0.275  1.00  0.00     0.040 A 
HETATM   24  C13 UNL     1       3.521  -1.078  -0.775  1.00  0.00     0.031 A 
HETATM   25  C14 UNL     1       4.814  -0.589  -0.737  1.00  0.00     0.026 A 
HETATM   26  C15 UNL     1       5.206   0.146   0.359  1.00  0.00     0.034 A 
HETATM   27 CL1  UNL     1       6.848   0.790   0.434  1.00  0.00    -0.084 Cl
HETATM   28  C16 UNL     1       4.406   0.444   1.436  1.00  0.00     0.026 A 
HETATM   29  C17 UNL     1       3.113  -0.071   1.349  1.00  0.00     0.031 A 
ENDBRANCH  16  23
BRANCH  13  30
HETATM   30  N4  UNL     1      -1.018  -1.112  -1.787  1.00  0.00    -0.404 N 
HETATM   31  C9  UNL     1      -0.046  -1.851  -2.450  1.00  0.00     0.141 C 
HETATM   32  H8  UNL     1      -1.934  -0.983  -2.120  1.00  0.00     0.154 HD
ENDBRANCH  13  30
TORSDOF 2
