REMARK  5 active torsions:
REMARK  status: ('A' for Active; 'I' for Inactive)
REMARK    1  A    between atoms: C7_8  and  N1_9 
REMARK    2  A    between atoms: N1_9  and  C8_10 
REMARK    3  A    between atoms: C9_11  and  C10_12 
REMARK    4  A    between atoms: C10_12  and  N2_13 
REMARK    5  A    between atoms: N2_13  and  C11_14 
ROOT
HETATM    1  C8  UNL     1       0.852  -0.358  -0.126  1.00  0.00     0.081 C 
HETATM    2  C9  UNL     1      -0.279  -0.847  -0.601  1.00  0.00     0.009 C 
ENDROOT
BRANCH   1   3
HETATM    3  N1  UNL     1       2.212  -0.593   0.149  1.00  0.00    -0.388 N 
HETATM    4  H7  UNL     1       2.378  -1.120   1.035  1.00  0.00     0.159 HD
BRANCH   3   5
HETATM    5  C7  UNL     1       3.235  -0.107  -0.776  1.00  0.00     0.134 C 
HETATM    6  C2  UNL     1       4.550  -0.508  -0.212  1.00  0.00    -0.056 C 
HETATM    7  C1  UNL     1       4.874  -1.956  -0.174  1.00  0.00     0.046 C 
HETATM    8  C3  UNL     1       5.361   0.442   0.227  1.00  0.00     0.029 C 
HETATM    9  C4  UNL     1       4.998   1.852   0.169  1.00  0.00     0.045 C 
HETATM   10 CL1  UNL     1       6.169   3.136   0.323  1.00  0.00    -0.083 Cl
HETATM   11  C5  UNL     1       3.717   2.114  -0.009  1.00  0.00    -0.004 C 
HETATM   12  C6  UNL     1       3.114   1.363  -0.903  1.00  0.00     0.016 C 
ENDBRANCH   3   5
ENDBRANCH   1   3
BRANCH   2  13
HETATM   13  C10 UNL     1      -1.540  -0.029  -0.640  1.00  0.00     0.148 C 
BRANCH  13  14
HETATM   14  N2  UNL     1      -2.517  -0.751   0.174  1.00  0.00    -0.386 N 
HETATM   15  H12 UNL     1      -2.318  -1.654   0.661  1.00  0.00     0.160 HD
BRANCH  14  16
HETATM   16  C11 UNL     1      -3.854  -0.254   0.364  1.00  0.00     0.029 A 
HETATM   17  C12 UNL     1      -4.830  -0.898   1.129  1.00  0.00     0.029 A 
HETATM   18  C13 UNL     1      -6.084  -0.362   1.263  1.00  0.00     0.004 A 
HETATM   19  C14 UNL     1      -6.419   0.829   0.647  1.00  0.00     0.019 A 
HETATM   20  C15 UNL     1      -5.464   1.474  -0.110  1.00  0.00     0.013 A 
HETATM   21 BR1  UNL     1      -6.027   3.108  -0.916  1.00  0.00    -0.051 Br
HETATM   22  C16 UNL     1      -4.186   0.943  -0.257  1.00  0.00     0.048 A 
ENDBRANCH  14  16
ENDBRANCH  13  14
ENDBRANCH   2  13
TORSDOF 5
