REMARK  5 active torsions:
REMARK  status: ('A' for Active; 'I' for Inactive)
REMARK    1  A    between atoms: C5_7  and  O1_8 
REMARK    2  A    between atoms: O1_8  and  C6_9 
REMARK    3  A    between atoms: C10_13  and  N2_14 
REMARK       I    between atoms: N2_14  and  C11_15 
REMARK    4  A    between atoms: C11_15  and  C12_17 
REMARK    5  A    between atoms: C14_20  and  C15_21 
ROOT
HETATM    1  C12 UNL     1       3.644  -0.462   0.179  1.00  0.00     0.115 C 
HETATM    2  C13 UNL     1       4.061  -0.684  -1.200  1.00  0.00     0.105 C 
HETATM    3  N3  UNL     1       4.375  -0.860  -2.296  1.00  0.00    -0.191 NA
HETATM    4  C14 UNL     1       4.440  -0.764   1.165  1.00  0.00     0.065 C 
ENDROOT
BRANCH   1   5
HETATM    5  C11 UNL     1       2.346   0.076   0.473  1.00  0.00     0.266 C 
HETATM    6  N2  UNL     1       1.428   0.412  -0.557  1.00  0.00    -0.322 N 
HETATM    7  H8  UNL     1       1.760   0.226  -1.551  1.00  0.00     0.169 HD
HETATM    8  O2  UNL     1       1.972   0.275   1.656  1.00  0.00    -0.267 OA
BRANCH   6   9
HETATM    9  C10 UNL     1       0.163   0.959  -0.193  1.00  0.00     0.037 A 
HETATM   10  C9  UNL     1       0.141   2.360  -0.218  1.00  0.00     0.029 A 
HETATM   11  C8  UNL     1      -0.975   3.139   0.117  1.00  0.00     0.005 A 
HETATM   12  C7  UNL     1      -2.088   2.376   0.486  1.00  0.00     0.037 A 
HETATM   13  C6  UNL     1      -2.104   0.999   0.522  1.00  0.00     0.080 A 
HETATM   14  C19 UNL     1      -0.979   0.290   0.182  1.00  0.00     0.066 A 
BRANCH  13  15
HETATM   15  O1  UNL     1      -3.273   0.432   0.905  1.00  0.00    -0.290 OA
BRANCH  15  16
HETATM   16  C5  UNL     1      -4.289   0.114   0.064  1.00  0.00     0.195 A 
HETATM   17  C4  UNL     1      -4.474   0.225  -1.298  1.00  0.00     0.104 A 
HETATM   18  C3  UNL     1      -5.630  -0.182  -1.927  1.00  0.00     0.147 A 
HETATM   19 CL1  UNL     1      -3.088   0.931  -2.099  1.00  0.00    -0.078 Cl
HETATM   20  N1  UNL     1      -6.626  -0.714  -1.159  1.00  0.00    -0.244 NA
HETATM   21  C2  UNL     1      -6.460  -0.829   0.180  1.00  0.00     0.124 A 
HETATM   22  C1  UNL     1      -7.663  -1.432   0.816  1.00  0.00     0.093 C 
HETATM   23  N4  UNL     1      -5.312  -0.423   0.789  1.00  0.00    -0.208 NA
ENDBRANCH  15  16
ENDBRANCH  13  15
ENDBRANCH   6   9
ENDBRANCH   1   5
BRANCH   4  24
HETATM   24  C15 UNL     1       5.782  -1.313   1.111  1.00  0.00     0.076 A 
HETATM   25  C16 UNL     1       6.418  -0.571   0.101  1.00  0.00     0.039 A 
HETATM   26  C17 UNL     1       7.743  -1.005  -0.063  1.00  0.00     0.027 A 
HETATM   27  C18 UNL     1       7.838  -2.023   0.894  1.00  0.00     0.142 A 
HETATM   28  O3  UNL     1       6.694  -2.126   1.503  1.00  0.00    -0.323 OA
ENDBRANCH   4  24
TORSDOF 5
