REMARK  1 active torsions:
REMARK  status: ('A' for Active; 'I' for Inactive)
REMARK    1  A    between atoms: C8_10  and  N2_11 
ROOT
HETATM    1 CL1  UNL     1      -5.719   2.602  -0.220  1.00  0.00    -0.088 Cl
HETATM    2  C1  UNL     1      -4.313   1.560   0.053  1.00  0.00     0.023 C 
HETATM    3  C2  UNL     1      -3.123   1.189   0.444  1.00  0.00     0.085 C 
HETATM    4  C3  UNL     1      -1.973   1.765   1.110  1.00  0.00     0.259 C 
HETATM    5  N1  UNL     1      -0.882   1.267   1.461  1.00  0.00    -0.413 NA
HETATM    6  C4  UNL     1      -0.261   0.012   1.405  1.00  0.00     0.144 A 
HETATM    7  C5  UNL     1      -1.187  -1.029   0.719  1.00  0.00     0.078 A 
HETATM    8  C6  UNL     1      -0.800  -2.212   1.102  1.00  0.00     0.001 A 
HETATM    9  C7  UNL     1      -0.133  -0.963   0.754  1.00  0.00     0.070 A 
HETATM   10  C8  UNL     1       0.953  -0.149   0.590  1.00  0.00     0.034 A 
HETATM   11  C14 UNL     1      -1.009  -0.568  -0.485  1.00  0.00     0.162 A 
HETATM   12  N3  UNL     1      -2.319  -0.841  -0.042  1.00  0.00    -0.372 N 
HETATM   13  C15 UNL     1      -3.616  -0.751  -0.561  1.00  0.00     0.088 C 
HETATM   14  C16 UNL     1      -4.459   0.233  -0.535  1.00  0.00     0.037 C 
ENDROOT
BRANCH  10  15
HETATM   15  N2  UNL     1       2.191  -0.068  -0.093  1.00  0.00    -0.336 N 
HETATM   16  C9  UNL     1       2.187   0.572  -1.350  1.00  0.00     0.092 A 
HETATM   17  C10 UNL     1       3.381   0.602  -1.904  1.00  0.00    -0.004 A 
HETATM   18  C11 UNL     1       4.608   0.056  -1.339  1.00  0.00     0.076 A 
HETATM   19  C12 UNL     1       4.432  -0.571  -0.035  1.00  0.00     0.008 A 
HETATM   20 BR1  UNL     1       6.011  -1.311   0.762  1.00  0.00    -0.054 Br
HETATM   21  C13 UNL     1       3.290  -0.651   0.597  1.00  0.00     0.111 A 
ENDBRANCH  10  15
TORSDOF 1
