REMARK  2 active torsions:
REMARK  status: ('A' for Active; 'I' for Inactive)
REMARK       I    between atoms: N1_1  and  C1_2 
REMARK    1  A    between atoms: C9_12  and  C10_13 
REMARK    2  A    between atoms: C10_13  and  C11_14 
ROOT
HETATM    1  N1  UNL     1       0.302   2.933   0.333  1.00  0.00    -0.269 NA
HETATM    2  C1  UNL     1      -0.886   2.500  -0.293  1.00  0.00     0.217 C 
HETATM    3  N2  UNL     1      -1.970   2.282  -0.999  1.00  0.00    -0.146 NA
HETATM    4  N3  UNL     1      -2.913   1.286  -0.988  1.00  0.00    -0.301 N 
HETATM    5  C2  UNL     1      -3.657   0.051  -0.621  1.00  0.00     0.138 C 
HETATM    6  C3  UNL     1      -3.433   0.094   0.933  1.00  0.00     0.066 C 
HETATM    7  C4  UNL     1      -2.320  -0.972   1.043  1.00  0.00    -0.071 C 
HETATM    8  C5  UNL     1      -2.895  -2.074   0.492  1.00  0.00     0.012 C 
HETATM    9  C6  UNL     1      -2.738  -1.189  -0.750  1.00  0.00    -0.034 C 
HETATM   10  C7  UNL     1      -1.919  -1.282  -1.866  1.00  0.00     0.010 C 
HETATM   11  C8  UNL     1      -0.389  -1.082  -1.714  1.00  0.00     0.010 C 
HETATM   12  C9  UNL     1       0.225  -0.184  -0.832  1.00  0.00    -0.029 C 
HETATM   13  C17 UNL     1      -0.387   0.287   0.407  1.00  0.00     0.048 C 
HETATM   14  N4  UNL     1      -0.804   1.420   0.516  1.00  0.00    -0.221 NA
HETATM   15  C18 UNL     1      -0.966  -0.428   1.626  1.00  0.00     0.094 C 
HETATM   16  H1  UNL     1       0.625   3.889   0.007  1.00  0.00     0.127 HD
HETATM   17  H2  UNL     1       0.611   3.882   0.001  1.00  0.00     0.127 HD
HETATM   18  H3  UNL     1      -3.319   1.845  -1.771  1.00  0.00     0.183 HD
ENDROOT
BRANCH  12  19
HETATM   19  C10 UNL     1       1.487   0.357  -1.252  1.00  0.00     0.079 C 
BRANCH  19  20
HETATM   20  C11 UNL     1       2.539  -0.083  -0.289  1.00  0.00    -0.054 A 
HETATM   21  C12 UNL     1       3.099  -1.352  -0.518  1.00  0.00     0.009 A 
HETATM   22  C13 UNL     1       4.074  -1.926   0.248  1.00  0.00     0.024 A 
HETATM   23  C14 UNL     1       4.559  -1.235   1.325  1.00  0.00     0.034 A 
HETATM   24 CL1  UNL     1       5.797  -1.898   2.343  1.00  0.00    -0.084 Cl
HETATM   25  C15 UNL     1       4.037   0.005   1.579  1.00  0.00     0.024 A 
HETATM   26  C16 UNL     1       3.054   0.580   0.803  1.00  0.00     0.009 A 
ENDBRANCH  19  20
ENDBRANCH  12  19
TORSDOF 2
