REMARK  2 active torsions:
REMARK  status: ('A' for Active; 'I' for Inactive)
REMARK    1  A    between atoms: C4_5  and  C5_6 
REMARK    2  A    between atoms: C5_6  and  N1_7 
ROOT
HETATM    1  N1  UNL     1       0.709  -0.384  -0.712  1.00  0.00    -0.006 N 
HETATM    2  C6  UNL     1      -0.212   0.801  -1.198  1.00  0.00     0.173 A 
HETATM    3  C7  UNL     1      -0.725  -0.152  -0.726  1.00  0.00     0.338 A 
HETATM    4  C8  UNL     1      -0.949  -1.397  -0.133  1.00  0.00     0.063 A 
HETATM    5  C9  UNL     1      -2.301  -1.149  -0.155  1.00  0.00     0.142 A 
HETATM    6  N2  UNL     1      -2.784  -2.283   0.386  1.00  0.00    -0.204 NA
HETATM    7  C10 UNL     1      -1.581  -3.060   0.659  1.00  0.00     0.197 A 
HETATM    8 BR1  UNL     1      -2.077  -4.756   1.444  1.00  0.00    -0.007 Br
HETATM    9  N3  UNL     1      -0.228  -2.821   0.463  1.00  0.00    -0.215 NA
HETATM   10  C11 UNL     1       0.347  -1.673  -0.095  1.00  0.00     0.313 A 
HETATM   11  N4  UNL     1      -2.561   0.136  -0.726  1.00  0.00    -0.331 N 
HETATM   12  C12 UNL     1      -3.868  -0.346  -1.114  1.00  0.00     0.093 C 
HETATM   13  C13 UNL     1      -4.379   0.512  -2.053  1.00  0.00     0.017 C 
HETATM   14  C14 UNL     1      -3.490   1.666  -2.362  1.00  0.00    -0.001 C 
HETATM   15  C15 UNL     1      -2.306   2.014  -1.857  1.00  0.00     0.001 C 
HETATM   16  C16 UNL     1      -1.667   1.266  -0.830  1.00  0.00     0.157 A 
ENDROOT
BRANCH   1  17
HETATM   17  C5  UNL     1       2.260  -0.355  -0.730  1.00  0.00     0.281 C 
BRANCH  17  18
HETATM   18  C4  UNL     1       2.833   0.096   0.527  1.00  0.00    -0.032 A 
HETATM   19  C3  UNL     1       3.106   1.429   0.801  1.00  0.00     0.010 A 
HETATM   20  C2  UNL     1       3.649   1.764   2.022  1.00  0.00     0.024 A 
HETATM   21  C1  UNL     1       3.952   0.857   3.019  1.00  0.00     0.034 A 
HETATM   22 CL1  UNL     1       4.639   1.424   4.520  1.00  0.00    -0.084 Cl
HETATM   23  C18 UNL     1       3.674  -0.482   2.734  1.00  0.00     0.024 A 
HETATM   24  C17 UNL     1       3.132  -0.838   1.523  1.00  0.00     0.010 A 
ENDBRANCH  17  18
ENDBRANCH   1  17
TORSDOF 2
