REMARK  4 active torsions:
REMARK  status: ('A' for Active; 'I' for Inactive)
REMARK    1  A    between atoms: N1_1  and  C1_2 
REMARK    2  A    between atoms: C6_8  and  C7_9 
REMARK    3  A    between atoms: C7_9  and  N2_10 
REMARK    4  A    between atoms: N4_18  and  C14_19 
ROOT
HETATM    1  N2  UNL     1      -1.043   0.165  -0.510  1.00  0.00    -0.374 N 
HETATM    2  C8  UNL     1      -0.516   1.280   0.260  1.00  0.00     0.085 C 
HETATM    3  C9  UNL     1       0.828   1.124   0.318  1.00  0.00     0.018 C 
HETATM    4  C10 UNL     1       1.161  -0.106  -0.426  1.00  0.00     0.138 C 
HETATM    5  C11 UNL     1      -0.114  -0.870  -0.105  1.00  0.00     0.151 C 
HETATM    6  C12 UNL     1      -0.087  -2.084  -0.905  1.00  0.00     0.113 C 
HETATM    7  N3  UNL     1       1.001  -2.763  -0.667  1.00  0.00    -0.284 NA
HETATM    8  C13 UNL     1       1.968  -2.245   0.299  1.00  0.00     0.273 C 
HETATM    9  N4  UNL     1       2.282  -0.858  -0.007  1.00  0.00    -0.352 N 
ENDROOT
BRANCH   1  10
HETATM   10  C7  UNL     1      -2.181   0.226  -1.389  1.00  0.00     0.164 C 
BRANCH  10  11
HETATM   11  C6  UNL     1      -3.435   0.620  -0.739  1.00  0.00    -0.014 A 
HETATM   12  C1  UNL     1      -4.063  -0.344   0.026  1.00  0.00     0.035 A 
HETATM   13  C2  UNL     1      -5.246  -0.068   0.676  1.00  0.00     0.053 A 
HETATM   14  C3  UNL     1      -5.787   1.203   0.540  1.00  0.00     0.036 A 
HETATM   15 CL1  UNL     1      -7.278   1.610   1.338  1.00  0.00    -0.084 Cl
HETATM   16  C4  UNL     1      -5.183   2.174  -0.212  1.00  0.00     0.024 A 
HETATM   17  C5  UNL     1      -3.986   1.884  -0.866  1.00  0.00     0.013 A 
BRANCH  12  18
HETATM   18  N1  UNL     1      -3.580  -1.667   0.218  1.00  0.00    -0.399 N 
HETATM   19  H1  UNL     1      -3.984  -2.575  -0.137  1.00  0.00     0.156 HD
HETATM   20  H2  UNL     1      -2.712  -1.804   0.778  1.00  0.00     0.156 HD
ENDBRANCH  12  18
ENDBRANCH  10  11
ENDBRANCH   1  10
BRANCH   9  21
HETATM   21  C14 UNL     1       3.594  -0.312   0.102  1.00  0.00     0.033 A 
HETATM   22  C15 UNL     1       4.658  -1.027   0.613  1.00  0.00     0.029 A 
HETATM   23  C16 UNL     1       5.943  -0.515   0.720  1.00  0.00     0.004 A 
HETATM   24  C17 UNL     1       6.166   0.796   0.287  1.00  0.00     0.019 A 
HETATM   25  C18 UNL     1       5.097   1.534  -0.232  1.00  0.00     0.013 A 
HETATM   26 BR1  UNL     1       5.447   3.320  -0.811  1.00  0.00    -0.051 Br
HETATM   27  C19 UNL     1       3.844   0.955  -0.308  1.00  0.00     0.048 A 
ENDBRANCH   9  21
TORSDOF 4
