REMARK  3 active torsions:
REMARK  status: ('A' for Active; 'I' for Inactive)
REMARK    1  A    between atoms: C4_5  and  C5_6 
REMARK    2  A    between atoms: C5_6  and  N1_7 
REMARK    3  A    between atoms: C11_16  and  C12_17 
ROOT
HETATM    1  N1  UNL     1       1.034  -0.273   1.281  1.00  0.00    -0.336 N 
HETATM    2  C6  UNL     1       0.371   0.854   1.595  1.00  0.00     0.094 A 
HETATM    3  C7  UNL     1      -0.890   0.829   1.036  1.00  0.00     0.035 A 
HETATM    4  C8  UNL     1      -0.933  -0.397   0.364  1.00  0.00     0.043 A 
HETATM    5  C9  UNL     1       0.256  -1.066   0.522  1.00  0.00     0.162 A 
HETATM    6  N2  UNL     1       0.679  -2.211   0.094  1.00  0.00    -0.154 NA
HETATM    7  N3  UNL     1      -0.027  -3.136  -0.704  1.00  0.00    -0.270 N 
HETATM    8  C10 UNL     1      -1.367  -2.998  -1.210  1.00  0.00     0.226 A 
HETATM    9  N4  UNL     1      -2.185  -2.016  -1.041  1.00  0.00    -0.241 NA
HETATM   10  C11 UNL     1      -1.993  -0.810  -0.315  1.00  0.00     0.082 A 
HETATM   11  H7  UNL     1       0.379  -4.045  -1.013  1.00  0.00     0.190 HD
ENDROOT
BRANCH   1  12
HETATM   12  C5  UNL     1       2.406  -0.470   1.769  1.00  0.00     0.168 C 
BRANCH  12  13
HETATM   13  C4  UNL     1       3.393   0.060   0.819  1.00  0.00    -0.040 A 
HETATM   14  C3  UNL     1       3.920  -0.744  -0.197  1.00  0.00     0.010 A 
HETATM   15  C2  UNL     1       4.846  -0.218  -1.075  1.00  0.00     0.024 A 
HETATM   16  C1  UNL     1       5.264   1.086  -0.972  1.00  0.00     0.034 A 
HETATM   17 CL1  UNL     1       6.450   1.757  -2.098  1.00  0.00    -0.084 Cl
HETATM   18  C19 UNL     1       4.781   1.930   0.007  1.00  0.00     0.024 A 
HETATM   19  C18 UNL     1       3.861   1.352   0.854  1.00  0.00     0.010 A 
ENDBRANCH  12  13
ENDBRANCH   1  12
BRANCH  10  20
HETATM   20  C12 UNL     1      -3.143   0.094  -0.330  1.00  0.00    -0.005 A 
HETATM   21  C13 UNL     1      -3.159   1.360  -0.889  1.00  0.00     0.014 A 
HETATM   22  C14 UNL     1      -4.309   2.122  -0.841  1.00  0.00     0.002 A 
HETATM   23  C15 UNL     1      -5.444   1.599  -0.225  1.00  0.00     0.019 A 
HETATM   24  C16 UNL     1      -5.420   0.332   0.331  1.00  0.00     0.011 A 
HETATM   25 BR1  UNL     1      -6.999  -0.343   1.164  1.00  0.00    -0.051 Br
HETATM   26  C17 UNL     1      -4.263  -0.431   0.282  1.00  0.00     0.032 A 
ENDBRANCH  10  20
TORSDOF 3
