REMARK  3 active torsions:
REMARK  status: ('A' for Active; 'I' for Inactive)
REMARK    1  A    between atoms: N1_5  and  C5_6 
REMARK    2  A    between atoms: C7_8  and  N2_9 
REMARK    3  A    between atoms: C18_23  and  O2_24 
ROOT
HETATM    1  C5  UNL     1      -1.901   1.101  -0.268  1.00  0.00     0.237 C 
HETATM    2  C6  UNL     1      -1.551   1.159   1.190  1.00  0.00     0.042 C 
HETATM    3  C7  UNL     1      -0.652   0.907   2.162  1.00  0.00     0.007 C 
HETATM    4  C8  UNL     1       0.595   0.298   1.722  1.00  0.00     0.226 C 
HETATM    5  O1  UNL     1       1.763   1.088   2.017  1.00  0.00    -0.346 OA
HETATM    6  C9  UNL     1       2.945   0.473   1.532  1.00  0.00     0.069 A 
HETATM    7  C10 UNL     1       3.900  -0.262   2.192  1.00  0.00     0.037 A 
HETATM    8  C11 UNL     1       4.958  -0.750   1.462  1.00  0.00     0.010 A 
HETATM    9  C12 UNL     1       5.061  -0.509   0.108  1.00  0.00    -0.054 A 
HETATM   10  C13 UNL     1       6.204  -1.041  -0.660  1.00  0.00     0.049 C 
HETATM   11  C14 UNL     1       4.104   0.237  -0.593  1.00  0.00    -0.032 A 
HETATM   12  C15 UNL     1       3.056   0.713   0.162  1.00  0.00     0.046 A 
HETATM   13  C16 UNL     1       4.282   0.451  -2.048  1.00  0.00     0.159 C 
HETATM   14  N3  UNL     1       3.091   0.015  -2.748  1.00  0.00    -0.380 N 
HETATM   15  C17 UNL     1       1.752   0.484  -2.641  1.00  0.00     0.207 C 
HETATM   16  N4  UNL     1       0.587   0.106  -2.238  1.00  0.00    -0.203 NA
HETATM   17  C18 UNL     1      -0.570   0.894  -2.297  1.00  0.00     0.264 C 
HETATM   18  N5  UNL     1      -0.813   0.644  -1.065  1.00  0.00    -0.219 NA
HETATM   19  H21 UNL     1       2.927  -0.734  -3.487  1.00  0.00     0.160 HD
ENDROOT
BRANCH   1  20
HETATM   20  N1  UNL     1      -3.097   0.330  -0.404  1.00  0.00    -0.361 N 
HETATM   21  C4  UNL     1      -4.317   0.750   0.249  1.00  0.00     0.152 A 
HETATM   22  C3  UNL     1      -5.435  -0.215  -0.041  1.00  0.00    -0.001 A 
HETATM   23  C2  UNL     1      -5.376  -1.311  -0.779  1.00  0.00    -0.063 A 
HETATM   24  C1  UNL     1      -6.596  -2.124  -0.938  1.00  0.00     0.048 C 
HETATM   25  C20 UNL     1      -4.084  -1.597  -1.366  1.00  0.00     0.023 A 
HETATM   26  C19 UNL     1      -3.012  -0.834  -1.195  1.00  0.00     0.089 A 
ENDBRANCH   1  20
BRANCH   3  27
HETATM   27  N2  UNL     1      -0.577   1.079   3.575  1.00  0.00    -0.304 NA
HETATM   28  H9  UNL     1      -0.926   0.188   4.017  1.00  0.00     0.124 HD
HETATM   29  H10 UNL     1      -0.875   0.315   4.195  1.00  0.00     0.124 HD
ENDBRANCH   3  27
BRANCH  17  30
HETATM   30  O2  UNL     1      -1.482   1.716  -2.944  1.00  0.00    -0.330 OA
HETATM   31  H23 UNL     1      -1.800   2.590  -2.541  1.00  0.00     0.221 HD
ENDBRANCH  17  30
TORSDOF 3
