REMARK  6 active torsions:
REMARK  status: ('A' for Active; 'I' for Inactive)
REMARK    1  A    between atoms: O1_2  and  C2_3 
REMARK    2  A    between atoms: C7_8  and  C8_9 
REMARK    3  A    between atoms: C8_9  and  N1_10 
REMARK    4  A    between atoms: C11_13  and  C12_14 
REMARK    5  A    between atoms: C12_14  and  C14_17 
REMARK    6  A    between atoms: C13_15  and  N2_16 
ROOT
HETATM    1  N1  UNL     1       0.934   0.248  -0.786  1.00  0.00    -0.385 N 
HETATM    2  C9  UNL     1       0.404   1.358  -0.053  1.00  0.00     0.082 C 
HETATM    3  C10 UNL     1      -0.921   1.211   0.127  1.00  0.00     0.001 C 
HETATM    4  C11 UNL     1      -1.299  -0.077  -0.529  1.00  0.00     0.062 C 
HETATM    5  C20 UNL     1       0.018  -0.822  -0.388  1.00  0.00     0.136 C 
ENDROOT
BRANCH   4   6
HETATM    6  C12 UNL     1      -2.360  -0.799   0.194  1.00  0.00    -0.024 C 
HETATM    7  C13 UNL     1      -2.185  -1.927   0.858  1.00  0.00     0.089 C 
BRANCH   7   8
HETATM    8  N2  UNL     1      -2.741  -2.948   1.641  1.00  0.00    -0.407 N 
HETATM    9  H14 UNL     1      -3.186  -3.811   1.207  1.00  0.00     0.155 HD
HETATM   10  H15 UNL     1      -2.769  -2.952   2.697  1.00  0.00     0.155 HD
ENDBRANCH   7   8
BRANCH   6  11
HETATM   11  C14 UNL     1      -3.690  -0.200   0.156  1.00  0.00    -0.027 A 
HETATM   12  C15 UNL     1      -4.806  -0.745   0.793  1.00  0.00     0.012 A 
HETATM   13  C16 UNL     1      -6.051  -0.154   0.734  1.00  0.00     0.002 A 
HETATM   14  C17 UNL     1      -6.241   1.014   0.032  1.00  0.00     0.019 A 
HETATM   15  C18 UNL     1      -5.179   1.612  -0.625  1.00  0.00     0.011 A 
HETATM   16 BR1  UNL     1      -5.331   3.232  -1.628  1.00  0.00    -0.051 Br
HETATM   17  C19 UNL     1      -3.970   0.965  -0.521  1.00  0.00     0.031 A 
ENDBRANCH   6  11
ENDBRANCH   4   6
BRANCH   1  18
HETATM   18  C8  UNL     1       2.092   0.328  -1.660  1.00  0.00     0.163 C 
BRANCH  18  19
HETATM   19  C7  UNL     1       3.296   0.763  -0.903  1.00  0.00    -0.007 A 
HETATM   20  C2  UNL     1       4.000  -0.075  -0.063  1.00  0.00     0.076 A 
HETATM   21  C3  UNL     1       5.101   0.445   0.586  1.00  0.00     0.037 A 
HETATM   22  C4  UNL     1       5.534   1.742   0.445  1.00  0.00     0.003 A 
HETATM   23  C5  UNL     1       4.831   2.590  -0.398  1.00  0.00     0.001 A 
HETATM   24  C6  UNL     1       3.720   2.075  -1.057  1.00  0.00     0.011 A 
BRANCH  20  25
HETATM   25  O1  UNL     1       3.570  -1.391   0.086  1.00  0.00    -0.355 OA
HETATM   26  C1  UNL     1       4.257  -2.294   0.938  1.00  0.00     0.210 C 
ENDBRANCH  20  25
ENDBRANCH  18  19
ENDBRANCH   1  18
TORSDOF 6
