REMARK  7 active torsions:
REMARK  status: ('A' for Active; 'I' for Inactive)
REMARK    1  A    between atoms: O1_2  and  C2_3 
REMARK    2  A    between atoms: C5_6  and  O2_7 
REMARK    3  A    between atoms: C7_9  and  C8_10 
REMARK    4  A    between atoms: C8_10  and  N1_11 
REMARK    5  A    between atoms: C12_16  and  N3_17 
REMARK    6  A    between atoms: C13_19  and  N5_20 
REMARK    7  A    between atoms: N5_20  and  C14_21 
ROOT
HETATM    1  N1  UNL     1       0.656  -1.489   0.596  1.00  0.00    -0.336 N 
HETATM    2  C9  UNL     1      -0.165  -0.655   1.416  1.00  0.00     0.108 A 
HETATM    3  C10 UNL     1      -1.311  -0.885   0.771  1.00  0.00     0.049 A 
HETATM    4  C11 UNL     1      -0.563  -1.752  -0.114  1.00  0.00     0.160 A 
HETATM    5  N2  UNL     1      -1.335  -2.283  -1.030  1.00  0.00    -0.045 NA
HETATM    6  C12 UNL     1      -2.722  -1.990  -1.077  1.00  0.00     0.719 A 
HETATM    7  N4  UNL     1      -3.436  -1.234  -0.327  1.00  0.00    -0.075 NA
HETATM    8  C13 UNL     1      -2.764  -0.538   0.769  1.00  0.00     0.264 A 
ENDROOT
BRANCH   1   9
HETATM    9  C8  UNL     1       2.007  -1.966   0.421  1.00  0.00     0.171 C 
BRANCH   9  10
HETATM   10  C7  UNL     1       2.958  -0.848   0.244  1.00  0.00    -0.004 A 
HETATM   11  C5  UNL     1       4.173  -1.264  -0.327  1.00  0.00     0.076 A 
HETATM   12  C4  UNL     1       5.177  -0.345  -0.543  1.00  0.00     0.040 A 
HETATM   13  C3  UNL     1       5.055   0.998  -0.223  1.00  0.00     0.039 A 
HETATM   14  C2  UNL     1       3.848   1.397   0.341  1.00  0.00     0.069 A 
HETATM   15  C20 UNL     1       2.855   0.489   0.555  1.00  0.00     0.048 A 
BRANCH  11  16
HETATM   16  O2  UNL     1       4.423  -2.590  -0.696  1.00  0.00    -0.355 OA
HETATM   17  C6  UNL     1       5.662  -2.983  -1.271  1.00  0.00     0.210 C 
ENDBRANCH  11  16
BRANCH  14  18
HETATM   18  O1  UNL     1       3.627   2.726   0.699  1.00  0.00    -0.356 OA
HETATM   19  C1  UNL     1       4.724   3.615   0.451  1.00  0.00     0.210 C 
ENDBRANCH  14  18
ENDBRANCH   9  10
ENDBRANCH   1   9
BRANCH   8  20
HETATM   20  N5  UNL     1      -2.961   0.881   0.497  1.00  0.00    -0.363 N 
HETATM   21  H15 UNL     1      -2.162   1.542   0.327  1.00  0.00     0.162 HD
BRANCH  20  22
HETATM   22  C14 UNL     1      -4.289   1.416   0.457  1.00  0.00     0.031 A 
HETATM   23  C15 UNL     1      -4.583   2.736   0.191  1.00  0.00     0.029 A 
HETATM   24  C16 UNL     1      -5.900   3.148   0.173  1.00  0.00     0.004 A 
HETATM   25  C17 UNL     1      -6.975   2.302   0.410  1.00  0.00     0.019 A 
HETATM   26  C18 UNL     1      -6.681   0.992   0.674  1.00  0.00     0.013 A 
HETATM   27 BR1  UNL     1      -8.133  -0.216   1.007  1.00  0.00    -0.051 Br
HETATM   28  C19 UNL     1      -5.370   0.566   0.695  1.00  0.00     0.048 A 
ENDBRANCH  20  22
ENDBRANCH   8  20
BRANCH   6  29
HETATM   29  N3  UNL     1      -3.443  -2.642  -2.115  1.00  0.00    -0.231 N 
HETATM   30  H12 UNL     1      -3.970  -3.030  -2.909  1.00  0.00     0.174 HD
HETATM   31  H13 UNL     1      -3.496  -3.653  -1.787  1.00  0.00     0.174 HD
ENDBRANCH   6  29
TORSDOF 7
