REMARK  5 active torsions:
REMARK  status: ('A' for Active; 'I' for Inactive)
REMARK       I    between atoms: C2_2  and  N1_4 
REMARK    1  A    between atoms: N1_4  and  C3_5 
REMARK    2  A    between atoms: C7_9  and  O2_10 
REMARK    3  A    between atoms: O2_10  and  C8_11 
REMARK    4  A    between atoms: C8_11  and  C9_12 
REMARK    5  A    between atoms: C10_14  and  C11_15 
ROOT
HETATM    1  C9  UNL     1      -0.218   0.720  -1.007  1.00  0.00     0.032 C 
HETATM    2 CL1  UNL     1       0.183   1.071  -2.717  1.00  0.00    -0.087 Cl
HETATM    3  C10 UNL     1       0.854   0.505  -0.216  1.00  0.00     0.000 C 
ENDROOT
BRANCH   1   4
HETATM    4  C8  UNL     1      -1.700   0.816  -1.132  1.00  0.00     0.226 C 
BRANCH   4   5
HETATM    5  O2  UNL     1      -2.245  -0.090  -2.043  1.00  0.00    -0.346 OA
BRANCH   5   6
HETATM    6  C7  UNL     1      -3.597  -0.214  -2.301  1.00  0.00     0.071 A 
HETATM    7  C6  UNL     1      -4.184  -1.059  -3.205  1.00  0.00     0.037 A 
HETATM    8  C5  UNL     1      -5.550  -1.045  -3.316  1.00  0.00     0.005 A 
HETATM    9  C4  UNL     1      -6.423  -0.256  -2.602  1.00  0.00     0.029 A 
HETATM   10  C3  UNL     1      -5.824   0.615  -1.667  1.00  0.00     0.037 A 
HETATM   11  C22 UNL     1      -4.435   0.596  -1.560  1.00  0.00     0.066 A 
BRANCH  10  12
HETATM   12  N1  UNL     1      -6.575   1.483  -0.828  1.00  0.00    -0.327 N 
HETATM   13  C2  UNL     1      -6.842   0.786   0.373  1.00  0.00     0.218 C 
HETATM   14  C1  UNL     1      -7.610   1.325   1.537  1.00  0.00     0.117 C 
HETATM   15  O1  UNL     1      -6.512  -0.400   0.731  1.00  0.00    -0.274 OA
HETATM   16  H4  UNL     1      -6.943   2.452  -0.904  1.00  0.00     0.169 HD
ENDBRANCH  10  12
ENDBRANCH   5   6
ENDBRANCH   4   5
ENDBRANCH   1   4
BRANCH   3  17
HETATM   17  C11 UNL     1       2.194   0.558  -0.800  1.00  0.00     0.019 A 
HETATM   18  C12 UNL     1       3.164   1.607  -0.215  1.00  0.00     0.029 C 
HETATM   19  C13 UNL     1       3.963   1.623   0.997  1.00  0.00     0.084 C 
HETATM   20 CL2  UNL     1       4.713   3.299   0.834  1.00  0.00    -0.125 Cl
HETATM   21  C14 UNL     1       5.014   0.844   1.610  1.00  0.00     0.050 C 
HETATM   22  C15 UNL     1       5.302  -0.485   2.186  1.00  0.00     0.273 C 
HETATM   23  N2  UNL     1       5.157  -1.774   1.494  1.00  0.00     0.084 NA
HETATM   24  C16 UNL     1       5.733  -2.845   2.320  1.00  0.00     0.309 C 
HETATM   25  C17 UNL     1       3.666  -2.294   1.680  1.00  0.00     0.278 C 
HETATM   26  C18 UNL     1       2.889  -1.045   1.090  1.00  0.00    -0.009 A 
HETATM   27  C19 UNL     1       2.728  -0.604  -0.069  1.00  0.00     0.046 A 
HETATM   28  C21 UNL     1       2.932  -0.861  -0.488  1.00  0.00    -0.018 A 
HETATM   29  C20 UNL     1       3.347  -1.367  -1.404  1.00  0.00     0.007 A 
ENDBRANCH   3  17
TORSDOF 5
