REMARK  7 active torsions:
REMARK  status: ('A' for Active; 'I' for Inactive)
REMARK    1  A    between atoms: O1_2  and  C2_3 
REMARK    2  A    between atoms: C6_8  and  C7_9 
REMARK    3  A    between atoms: C7_9  and  N1_10 
REMARK    4  A    between atoms: C11_14  and  N2_15 
REMARK    5  A    between atoms: N2_15  and  C12_16 
REMARK    6  A    between atoms: C13_17  and  C14_19 
REMARK    7  A    between atoms: C15_22  and  N4_23 
ROOT
HETATM    1  N1  UNL     1       0.255  -2.048  -0.227  1.00  0.00    -0.337 N 
HETATM    2  C8  UNL     1       0.798  -2.648   0.859  1.00  0.00     0.094 A 
HETATM    3  C9  UNL     1       2.087  -2.176   1.062  1.00  0.00     0.036 A 
HETATM    4  C10 UNL     1       2.301  -1.263   0.050  1.00  0.00     0.058 A 
HETATM    5  C11 UNL     1       3.419  -0.502  -0.215  1.00  0.00     0.145 A 
HETATM    6  N3  UNL     1       3.390   0.324  -1.268  1.00  0.00    -0.200 NA
HETATM    7  C15 UNL     1       2.273   0.398  -2.048  1.00  0.00     0.203 A 
HETATM    8  N5  UNL     1       1.185  -0.347  -1.786  1.00  0.00    -0.200 NA
HETATM    9  C16 UNL     1       1.188  -1.187  -0.731  1.00  0.00     0.147 A 
ENDROOT
BRANCH   1  10
HETATM   10  C7  UNL     1      -1.048  -2.191  -0.852  1.00  0.00     0.166 C 
BRANCH  10  11
HETATM   11  C6  UNL     1      -2.061  -1.246  -0.303  1.00  0.00    -0.042 C 
HETATM   12  C5  UNL     1      -2.266  -1.448   1.143  1.00  0.00     0.203 C 
HETATM   13  O2  UNL     1      -3.513  -1.023   1.582  1.00  0.00    -0.383 OA
HETATM   14  C4  UNL     1      -3.499   0.263   2.078  1.00  0.00     0.198 C 
HETATM   15  C3  UNL     1      -4.239   1.128   1.125  1.00  0.00     0.031 C 
HETATM   16  C2  UNL     1      -4.220   1.252  -0.175  1.00  0.00     0.047 C 
HETATM   17  C18 UNL     1      -3.569   0.714  -1.376  1.00  0.00     0.091 C 
HETATM   18  C17 UNL     1      -2.625  -0.384  -1.143  1.00  0.00    -0.014 C 
BRANCH  16  19
HETATM   19  O1  UNL     1      -5.096   2.207  -0.673  1.00  0.00    -0.360 OA
HETATM   20  C1  UNL     1      -6.483   2.005  -0.519  1.00  0.00     0.209 C 
ENDBRANCH  16  19
ENDBRANCH  10  11
ENDBRANCH   1  10
BRANCH   5  21
HETATM   21  N2  UNL     1       4.554  -0.601   0.610  1.00  0.00    -0.349 N 
HETATM   22  H13 UNL     1       4.564  -1.249   1.428  1.00  0.00     0.167 HD
BRANCH  21  23
HETATM   23  C12 UNL     1       5.703   0.190   0.327  1.00  0.00     0.105 C 
HETATM   24  C13 UNL     1       6.382   1.239   0.752  1.00  0.00     0.018 C 
HETATM   25 BR1  UNL     1       7.960   1.884  -0.086  1.00  0.00    -0.053 Br
BRANCH  24  26
HETATM   26  C14 UNL     1       6.070   2.087   1.915  1.00  0.00     0.162 C 
HETATM   27 CL1  UNL     1       4.582   1.498   2.725  1.00  0.00    -0.125 Cl
ENDBRANCH  24  26
ENDBRANCH  21  23
ENDBRANCH   5  21
BRANCH   7  28
HETATM   28  N4  UNL     1       2.264   1.288  -3.169  1.00  0.00    -0.271 NA
HETATM   29  H17 UNL     1       2.696   0.781  -3.977  1.00  0.00     0.127 HD
HETATM   30  H18 UNL     1       2.705   0.751  -3.970  1.00  0.00     0.127 HD
ENDBRANCH   7  28
TORSDOF 7
