REMARK  4 active torsions:
REMARK  status: ('A' for Active; 'I' for Inactive)
REMARK    1  A    between atoms: N1_1  and  C1_2 
REMARK    2  A    between atoms: C3_5  and  C4_6 
REMARK    3  A    between atoms: C4_6  and  C5_7 
REMARK    4  A    between atoms: N3_17  and  C14_18 
ROOT
HETATM    1  C1  UNL     1      -0.747  -2.302  -0.925  1.00  0.00     0.738 A 
HETATM    2  N2  UNL     1       0.327  -2.014  -0.153  1.00  0.00    -0.059 NA
HETATM    3  C2  UNL     1       0.236  -0.948   0.678  1.00  0.00     0.111 A 
HETATM    4  C3  UNL     1       1.025  -0.304   1.602  1.00  0.00    -0.022 A 
HETATM    5  C11 UNL     1       0.366   0.773   2.159  1.00  0.00     0.012 A 
HETATM    6  C12 UNL     1      -0.872   0.793   1.557  1.00  0.00     0.035 A 
HETATM    7  C13 UNL     1      -1.026  -0.231   0.638  1.00  0.00     0.089 A 
HETATM    8  N3  UNL     1      -2.091  -0.548  -0.155  1.00  0.00    -0.216 N 
HETATM    9  N4  UNL     1      -1.898  -1.604  -0.926  1.00  0.00     0.026 NA
ENDROOT
BRANCH   4  10
HETATM   10  C4  UNL     1       2.420  -0.764   1.913  1.00  0.00     0.079 C 
BRANCH  10  11
HETATM   11  C5  UNL     1       3.368  -0.371   0.832  1.00  0.00    -0.054 A 
HETATM   12  C6  UNL     1       3.706  -1.109  -0.283  1.00  0.00     0.009 A 
HETATM   13  C7  UNL     1       4.604  -0.571  -1.174  1.00  0.00     0.024 A 
HETATM   14  C8  UNL     1       5.202   0.667  -1.037  1.00  0.00     0.034 A 
HETATM   15 CL1  UNL     1       6.341   1.301  -2.207  1.00  0.00    -0.084 Cl
HETATM   16  C9  UNL     1       4.845   1.387   0.093  1.00  0.00     0.024 A 
HETATM   17  C10 UNL     1       3.946   0.890   1.018  1.00  0.00     0.009 A 
ENDBRANCH  10  11
ENDBRANCH   4  10
BRANCH   1  18
HETATM   18  N1  UNL     1      -0.615  -3.428  -1.784  1.00  0.00    -0.230 N 
HETATM   19  H1  UNL     1      -1.008  -4.340  -1.413  1.00  0.00     0.174 HD
HETATM   20  H2  UNL     1      -0.282  -3.832  -2.698  1.00  0.00     0.174 HD
ENDBRANCH   1  18
BRANCH   8  21
HETATM   21  C14 UNL     1      -3.246   0.274  -0.061  1.00  0.00     0.060 A 
HETATM   22  C15 UNL     1      -3.163   1.282  -1.024  1.00  0.00     0.032 A 
HETATM   23  C16 UNL     1      -4.181   2.237  -1.145  1.00  0.00     0.004 A 
HETATM   24  C17 UNL     1      -5.268   2.175  -0.304  1.00  0.00     0.019 A 
HETATM   25  C18 UNL     1      -5.336   1.175   0.642  1.00  0.00     0.013 A 
HETATM   26 BR1  UNL     1      -6.803   1.003   1.856  1.00  0.00    -0.051 Br
HETATM   27  C19 UNL     1      -4.343   0.228   0.772  1.00  0.00     0.050 A 
ENDBRANCH   8  21
TORSDOF 4
