REMARK  5 active torsions:
REMARK  status: ('A' for Active; 'I' for Inactive)
REMARK    1  A    between atoms: O1_2  and  C2_3 
REMARK    2  A    between atoms: C5_7  and  C6_8 
REMARK    3  A    between atoms: C6_8  and  N1_9 
REMARK    4  A    between atoms: C10_13  and  C11_14 
REMARK    5  A    between atoms: C17_22  and  N3_23 
ROOT
HETATM    1  N1  UNL     1      -0.830  -0.184  -0.040  1.00  0.00    -0.377 N 
HETATM    2  C7  UNL     1      -0.104  -1.385   0.234  1.00  0.00     0.083 C 
HETATM    3  C8  UNL     1       1.190  -1.164  -0.064  1.00  0.00    -0.000 C 
HETATM    4  C9  UNL     1       1.376   0.203  -0.553  1.00  0.00     0.069 C 
HETATM    5  C10 UNL     1       2.415   1.013   0.145  1.00  0.00     0.153 C 
HETATM    6  N2  UNL     1       1.916   1.116   1.468  1.00  0.00    -0.264 NA
HETATM    7  C17 UNL     1       0.634   1.053   1.451  1.00  0.00     0.117 C 
HETATM    8  C18 UNL     1       0.140   0.883   0.057  1.00  0.00     0.162 C 
ENDROOT
BRANCH   1   9
HETATM    9  C6  UNL     1      -2.198   0.099  -0.362  1.00  0.00     0.136 C 
BRANCH   9  10
HETATM   10  C5  UNL     1      -3.102  -1.089  -0.411  1.00  0.00     0.086 C 
HETATM   11  C2  UNL     1      -4.467  -0.654  -0.757  1.00  0.00     0.075 C 
HETATM   12  C3  UNL     1      -5.269  -0.632   0.294  1.00  0.00     0.167 C 
HETATM   13  O2  UNL     1      -4.524  -1.036   1.379  1.00  0.00    -0.360 OA
HETATM   14  C4  UNL     1      -3.270  -1.547   1.034  1.00  0.00     0.187 C 
BRANCH  11  15
HETATM   15  O1  UNL     1      -5.142  -0.258  -1.903  1.00  0.00    -0.358 OA
HETATM   16  C1  UNL     1      -5.252   1.100  -2.228  1.00  0.00     0.209 C 
ENDBRANCH  11  15
ENDBRANCH   9  10
ENDBRANCH   1   9
BRANCH   7  17
HETATM   17  N3  UNL     1      -0.392   1.100   2.440  1.00  0.00    -0.386 N 
HETATM   18  H18 UNL     1      -0.984   1.963   2.479  1.00  0.00     0.157 HD
HETATM   19  H19 UNL     1      -0.710   0.430   3.183  1.00  0.00     0.157 HD
ENDBRANCH   7  17
BRANCH   5  20
HETATM   20  C11 UNL     1       3.793   0.496   0.043  1.00  0.00    -0.031 A 
HETATM   21  C12 UNL     1       4.229  -0.576   0.763  1.00  0.00     0.009 A 
HETATM   22  C13 UNL     1       5.512  -1.095   0.699  1.00  0.00     0.002 A 
HETATM   23  C14 UNL     1       6.437  -0.511  -0.142  1.00  0.00     0.019 A 
HETATM   24  C15 UNL     1       6.020   0.578  -0.884  1.00  0.00     0.011 A 
HETATM   25 BR1  UNL     1       7.289   1.400  -2.055  1.00  0.00    -0.051 Br
HETATM   26  C16 UNL     1       4.728   1.077  -0.800  1.00  0.00     0.028 A 
ENDBRANCH   5  20
TORSDOF 5
