REMARK  3 active torsions:
REMARK  status: ('A' for Active; 'I' for Inactive)
REMARK    1  A    between atoms: C11_14  and  O4_15 
REMARK    2  A    between atoms: O4_15  and  O5_16 
REMARK    3  A    between atoms: O5_16  and  O6_17 
ROOT
HETATM    1  O1  UNL     1      -0.917   1.256  -3.319  1.00  0.00    -0.259 OA
HETATM    2  C1  UNL     1      -1.155   0.550  -2.317  1.00  0.00     0.300 A 
HETATM    3  O2  UNL     1      -0.635  -0.648  -2.029  1.00  0.00    -0.251 OA
HETATM    4  C2  UNL     1      -1.032  -1.238  -0.896  1.00  0.00     0.188 A 
HETATM    5  C3  UNL     1      -1.948  -0.821   0.094  1.00  0.00     0.065 A 
HETATM    6  C4  UNL     1      -2.474   0.412  -0.208  1.00  0.00     0.022 A 
HETATM    7  C5  UNL     1      -2.033   0.981  -1.366  1.00  0.00     0.041 A 
HETATM    8  C6  UNL     1      -2.507   2.379  -1.389  1.00  0.00     0.042 C 
HETATM    9  C7  UNL     1      -1.380   2.919  -0.825  1.00  0.00     0.142 C 
HETATM   10  O3  UNL     1      -0.063   3.110  -0.223  1.00  0.00    -0.335 OA
HETATM   11  C8  UNL     1       0.972   2.575  -1.049  1.00  0.00     0.141 C 
HETATM   12  C9  UNL     1       1.479   1.389  -0.885  1.00  0.00     0.027 C 
HETATM   13  C10 UNL     1       0.901   0.678   0.240  1.00  0.00     0.037 C 
HETATM   14  C11 UNL     1       0.978  -0.545   0.798  1.00  0.00     0.089 C 
HETATM   15  C12 UNL     1       1.828  -1.593   0.122  1.00  0.00     0.094 C 
HETATM   16  C13 UNL     1       0.860  -2.719  -0.282  1.00  0.00     0.184 C 
HETATM   17  O7  UNL     1      -0.145  -2.292  -1.212  1.00  0.00    -0.330 OA
ENDROOT
BRANCH  14  18
HETATM   18  O4  UNL     1       0.460  -1.269   1.896  1.00  0.00    -0.172 OA
BRANCH  18  19
HETATM   19  O5  UNL     1       1.232  -1.473   2.984  1.00  0.00    -0.064 OA
BRANCH  19  20
HETATM   20  O6  UNL     1       1.819  -2.636   2.936  1.00  0.00    -0.220 OA
HETATM   21  H8  UNL     1       2.762  -2.632   3.239  1.00  0.00     0.256 HD
ENDBRANCH  19  20
ENDBRANCH  18  19
ENDBRANCH  14  18
TORSDOF 3
