REMARK  2 active torsions:
REMARK  status: ('A' for Active; 'I' for Inactive)
REMARK    1  A    between atoms: C4_4  and  C5_5 
REMARK    2  A    between atoms: N1_20  and  C16_21 
ROOT
HETATM    1  C1  UNL     1      -2.149   0.095   2.853  1.00  0.00     0.016 C 
HETATM    2  C2  UNL     1      -1.819  -0.225   1.627  1.00  0.00     0.021 C 
HETATM    3  C3  UNL     1      -1.346  -0.456   0.249  1.00  0.00     0.041 C 
HETATM    4  C4  UNL     1      -1.942  -1.533  -0.330  1.00  0.00     0.021 C 
HETATM    5  C7  UNL     1      -1.797  -2.109  -1.739  1.00  0.00     0.123 C 
HETATM    6  C8  UNL     1      -0.423  -1.868  -2.045  1.00  0.00     0.135 C 
HETATM    7  O2  UNL     1      -0.612  -0.675  -2.374  1.00  0.00    -0.297 OA
HETATM    8  C9  UNL     1       0.966  -1.662  -2.342  1.00  0.00     0.120 C 
HETATM    9  C10 UNL     1       1.548  -0.573  -1.490  1.00  0.00    -0.014 C 
HETATM   10  C11 UNL     1       1.003   0.296  -0.657  1.00  0.00     0.025 C 
HETATM   11  C12 UNL     1       1.524   1.382   0.188  1.00  0.00     0.093 C 
HETATM   12  P1  UNL     1       3.231   1.839  -0.441  1.00  0.00    -0.100 P 
HETATM   13  C13 UNL     1       4.570   0.851   0.336  1.00  0.00     0.004 C 
HETATM   14  C14 UNL     1       5.122  -0.299  -0.140  1.00  0.00     0.002 C 
HETATM   15  C15 UNL     1       4.728  -0.991  -1.405  1.00  0.00     0.016 C 
HETATM   16  P2  UNL     1       3.179  -1.170  -2.099  1.00  0.00    -0.025 P 
HETATM   17  N1  UNL     1      -0.312   0.579  -0.059  1.00  0.00    -0.345 N 
HETATM   18  H13 UNL     1       3.530   3.243  -0.397  1.00  0.00     0.062 HD
ENDROOT
BRANCH   4  19
HETATM   19  C5  UNL     1      -2.894  -2.232   0.498  1.00  0.00     0.154 C 
HETATM   20  C6  UNL     1      -3.798  -2.763   1.518  1.00  0.00     0.096 C 
HETATM   21  O1  UNL     1      -3.282  -3.163  -0.312  1.00  0.00    -0.293 OA
ENDBRANCH   4  19
BRANCH  17  22
HETATM   22  C16 UNL     1      -0.593   1.910   0.219  1.00  0.00     0.082 C 
HETATM   23  C17 UNL     1      -0.803   2.803  -1.041  1.00  0.00     0.032 C 
HETATM   24  C18 UNL     1      -0.451   2.702   1.448  1.00  0.00     0.032 C 
ENDBRANCH  17  22
TORSDOF 2
