REMARK  6 active torsions:
REMARK  status: ('A' for Active; 'I' for Inactive)
REMARK    1  A    between atoms: C3_3  and  C4_4 
REMARK    2  A    between atoms: C4_4  and  C5_5 
REMARK    3  A    between atoms: C9_10  and  C10_11 
REMARK    4  A    between atoms: C12_14  and  C13_15 
REMARK    5  A    between atoms: C13_15  and  N1_16 
REMARK    6  A    between atoms: N2_18  and  C15_19 
ROOT
HETATM    1  C5  UNL     1       1.802   0.492   0.135  1.00  0.00    -0.023 C 
HETATM    2  C6  UNL     1       2.251   1.841  -0.308  1.00  0.00     0.125 C 
HETATM    3  C7  UNL     1       0.981   2.598  -0.211  1.00  0.00     0.167 C 
HETATM    4  O1  UNL     1       0.905   3.834  -0.117  1.00  0.00    -0.292 OA
HETATM    5  C8  UNL     1      -0.094   1.629  -0.250  1.00  0.00     0.053 A 
HETATM    6  C9  UNL     1      -1.444   1.537  -0.423  1.00  0.00     0.050 A 
HETATM    7  C12 UNL     1      -1.749   0.212  -0.317  1.00  0.00     0.044 A 
HETATM    8  N2  UNL     1      -0.641  -0.554  -0.081  1.00  0.00    -0.343 N 
HETATM    9  C18 UNL     1       0.378   0.354  -0.044  1.00  0.00     0.057 A 
ENDROOT
BRANCH   1  10
HETATM   10  C4  UNL     1       2.611  -0.423   0.616  1.00  0.00     0.009 C 
BRANCH  10  11
HETATM   11  C3  UNL     1       4.057  -0.181   0.756  1.00  0.00    -0.004 C 
HETATM   12  C2  UNL     1       4.980  -1.022   1.227  1.00  0.00    -0.031 C 
HETATM   13  C1  UNL     1       6.412  -0.684   1.329  1.00  0.00     0.036 C 
ENDBRANCH  10  11
ENDBRANCH   1  10
BRANCH   8  14
HETATM   14  C15 UNL     1      -0.599  -1.989   0.084  1.00  0.00     0.082 C 
HETATM   15  C16 UNL     1       0.414  -2.714  -0.710  1.00  0.00     0.032 C 
HETATM   16  C17 UNL     1      -0.561  -2.397   1.560  1.00  0.00     0.032 C 
ENDBRANCH   8  14
BRANCH   6  17
HETATM   17  C10 UNL     1      -2.347   2.662  -0.672  1.00  0.00     0.158 C 
HETATM   18  C11 UNL     1      -2.785   3.273  -1.953  1.00  0.00     0.097 C 
HETATM   19  O2  UNL     1      -2.789   3.145   0.421  1.00  0.00    -0.293 OA
ENDBRANCH   6  17
BRANCH   7  20
HETATM   20  C13 UNL     1      -3.166  -0.259  -0.454  1.00  0.00     0.172 C 
BRANCH  20  21
HETATM   21  N1  UNL     1      -3.823   0.065   0.777  1.00  0.00    -0.420 N 
HETATM   22  C14 UNL     1      -5.202  -0.322   0.854  1.00  0.00     0.140 C 
HETATM   23  H14 UNL     1      -3.266  -0.111   1.617  1.00  0.00     0.153 HD
ENDBRANCH  20  21
ENDBRANCH   7  20
TORSDOF 6
