REMARK  4 active torsions:
REMARK  status: ('A' for Active; 'I' for Inactive)
REMARK    1  A    between atoms: N1_5  and  C5_6 
REMARK    2  A    between atoms: C8_9  and  C9_10 
REMARK    3  A    between atoms: C9_10  and  C10_11 
REMARK    4  A    between atoms: C10_11  and  C11_12 
ROOT
HETATM    1  C1  UNL     1       0.928   2.137   1.356  1.00  0.00     0.052 C 
HETATM    2  C2  UNL     1       0.169   1.076   0.643  1.00  0.00    -0.019 A 
HETATM    3  C3  UNL     1      -1.177   1.001   0.730  1.00  0.00     0.041 A 
HETATM    4  C4  UNL     1      -1.566  -0.072  -0.035  1.00  0.00     0.027 A 
HETATM    5  N1  UNL     1      -0.525  -0.662  -0.590  1.00  0.00    -0.345 N 
HETATM    6  C8  UNL     1       0.560   0.062  -0.160  1.00  0.00     0.042 A 
HETATM    7  C15 UNL     1      -3.006  -0.370  -0.088  1.00  0.00     0.059 C 
HETATM    8  C16 UNL     1      -3.723  -0.169   1.194  1.00  0.00     0.014 C 
HETATM    9  C17 UNL     1      -3.471   1.126   1.898  1.00  0.00     0.084 C 
HETATM   10  C18 UNL     1      -2.217   1.785   1.431  1.00  0.00     0.162 C 
HETATM   11  O1  UNL     1      -2.044   2.994   1.631  1.00  0.00    -0.292 OA
ENDROOT
BRANCH   6  12
HETATM   12  C9  UNL     1       1.907  -0.265  -0.528  1.00  0.00     0.031 C 
BRANCH  12  13
HETATM   13  C10 UNL     1       3.166  -0.360  -0.706  1.00  0.00     0.013 C 
BRANCH  13  14
HETATM   14  C11 UNL     1       4.298   0.403  -0.205  1.00  0.00    -0.036 A 
HETATM   15  C12 UNL     1       4.163   1.452   0.625  1.00  0.00     0.011 A 
HETATM   16  C13 UNL     1       5.609   1.710   0.704  1.00  0.00     0.002 A 
HETATM   17  C14 UNL     1       5.724   0.657  -0.127  1.00  0.00     0.011 A 
ENDBRANCH  13  14
ENDBRANCH  12  13
ENDBRANCH   6  12
BRANCH   5  18
HETATM   18  C5  UNL     1      -0.651  -1.823  -1.458  1.00  0.00     0.082 C 
HETATM   19  C6  UNL     1      -1.474  -1.429  -2.684  1.00  0.00     0.032 C 
HETATM   20  C7  UNL     1      -1.231  -3.008  -0.775  1.00  0.00     0.032 C 
ENDBRANCH   5  18
TORSDOF 4
