REMARK  6 active torsions:
REMARK  status: ('A' for Active; 'I' for Inactive)
REMARK    1  A    between atoms: C3_3  and  C4_4 
REMARK    2  A    between atoms: C4_4  and  N1_5 
REMARK    3  A    between atoms: N1_5  and  C5_6 
REMARK    4  A    between atoms: C5_6  and  C6_7 
REMARK    5  A    between atoms: C14_16  and  N2_17 
REMARK    6  A    between atoms: N2_17  and  C15_18 
ROOT
HETATM    1  C5  UNL     1       1.119  -1.302   0.838  1.00  0.00     0.077 C 
HETATM    2  C7  UNL     1       1.695  -2.046  -0.344  1.00  0.00     0.038 C 
HETATM    3  C8  UNL     1       1.083  -1.665  -1.646  1.00  0.00     0.007 C 
HETATM    4  C9  UNL     1       0.113  -0.532  -1.604  1.00  0.00     0.042 C 
HETATM    5  C10 UNL     1      -0.845  -0.682  -0.476  1.00  0.00    -0.022 A 
HETATM    6  C11 UNL     1      -0.320  -1.054   0.680  1.00  0.00    -0.012 A 
HETATM    7  C12 UNL     1      -1.666  -1.015   1.292  1.00  0.00    -0.026 A 
HETATM    8  C13 UNL     1      -2.201  -1.286   2.658  1.00  0.00     0.051 C 
HETATM    9  C14 UNL     1      -2.174  -0.643   0.125  1.00  0.00     0.042 A 
ENDROOT
BRANCH   1  10
HETATM   10  N1  UNL     1       1.751   0.019   0.919  1.00  0.00    -0.423 NA
BRANCH  10  11
HETATM   11  C4  UNL     1       2.836   0.286   0.280  1.00  0.00     0.317 C 
BRANCH  11  12
HETATM   12  C3  UNL     1       4.031   0.880  -0.307  1.00  0.00    -0.002 C 
HETATM   13  C2  UNL     1       4.453   2.113  -0.117  1.00  0.00    -0.033 C 
HETATM   14  C1  UNL     1       5.701   2.304  -0.896  1.00  0.00     0.036 C 
ENDBRANCH  11  12
ENDBRANCH  10  11
ENDBRANCH   1  10
BRANCH   1  15
HETATM   15  C6  UNL     1       1.377  -2.044   2.104  1.00  0.00     0.426 C 
HETATM   16  O1  UNL     1       1.971  -1.810   3.149  1.00  0.00    -0.427 OA
ENDBRANCH   1  15
BRANCH   9  17
HETATM   17  N2  UNL     1      -3.477  -0.344  -0.306  1.00  0.00    -0.385 N 
HETATM   18  H17 UNL     1      -4.251  -0.976   0.022  1.00  0.00     0.160 HD
BRANCH  17  19
HETATM   19  C15 UNL     1      -3.673   0.795  -1.160  1.00  0.00     0.073 C 
HETATM   20  C16 UNL     1      -3.219   2.104  -0.504  1.00  0.00     0.031 C 
HETATM   21  C17 UNL     1      -5.154   0.987  -1.454  1.00  0.00     0.031 C 
ENDBRANCH  17  19
ENDBRANCH   9  17
TORSDOF 6
