REMARK  7 active torsions:
REMARK  status: ('A' for Active; 'I' for Inactive)
REMARK    1  A    between atoms: O1_2  and  C2_3 
REMARK    2  A    between atoms: C5_6  and  O2_7 
REMARK    3  A    between atoms: C7_9  and  C8_10 
REMARK    4  A    between atoms: C8_10  and  N1_11 
REMARK    5  A    between atoms: C12_15  and  N2_16 
REMARK    6  A    between atoms: N2_16  and  C13_17 
REMARK    7  A    between atoms: C18_24  and  N4_25 
ROOT
HETATM    1  N1  UNL     1      -0.334  -1.677  -0.485  1.00  0.00    -0.336 N 
HETATM    2  C9  UNL     1      -0.240  -2.328   0.705  1.00  0.00     0.094 A 
HETATM    3  C10 UNL     1       0.909  -1.927   1.380  1.00  0.00     0.036 A 
HETATM    4  C11 UNL     1       1.529  -1.014   0.587  1.00  0.00     0.059 A 
HETATM    5  C12 UNL     1       2.674  -0.242   0.638  1.00  0.00     0.161 A 
HETATM    6  N3  UNL     1       2.962   0.577  -0.390  1.00  0.00    -0.044 NA
HETATM    7  C18 UNL     1       2.189   0.695  -1.488  1.00  0.00     0.724 A 
HETATM    8  N5  UNL     1       1.084  -0.061  -1.517  1.00  0.00    -0.044 NA
HETATM    9  C19 UNL     1       0.743  -0.887  -0.539  1.00  0.00     0.163 A 
ENDROOT
BRANCH   1  10
HETATM   10  C8  UNL     1      -1.471  -1.964  -1.330  1.00  0.00     0.171 C 
BRANCH  10  11
HETATM   11  C7  UNL     1      -2.647  -1.100  -1.060  1.00  0.00    -0.004 A 
HETATM   12  C5  UNL     1      -2.873   0.203  -1.427  1.00  0.00     0.076 A 
HETATM   13  C4  UNL     1      -4.030   0.856  -1.083  1.00  0.00     0.040 A 
HETATM   14  C3  UNL     1      -5.032   0.251  -0.354  1.00  0.00     0.039 A 
HETATM   15  C2  UNL     1      -4.843  -1.058   0.034  1.00  0.00     0.069 A 
HETATM   16  C20 UNL     1      -3.676  -1.693  -0.320  1.00  0.00     0.048 A 
BRANCH  12  17
HETATM   17  O2  UNL     1      -1.849   0.786  -2.161  1.00  0.00    -0.355 OA
HETATM   18  C6  UNL     1      -2.023   2.125  -2.568  1.00  0.00     0.210 C 
ENDBRANCH  12  17
BRANCH  15  19
HETATM   19  O1  UNL     1      -5.834  -1.693   0.770  1.00  0.00    -0.356 OA
HETATM   20  C1  UNL     1      -6.996  -0.976   1.092  1.00  0.00     0.210 C 
ENDBRANCH  15  19
ENDBRANCH  10  11
ENDBRANCH   1  10
BRANCH   5  21
HETATM   21  N2  UNL     1       3.518  -0.328   1.762  1.00  0.00    -0.342 N 
HETATM   22  H13 UNL     1       3.292  -0.962   2.557  1.00  0.00     0.167 HD
BRANCH  21  23
HETATM   23  C13 UNL     1       4.712   0.470   1.816  1.00  0.00     0.029 A 
HETATM   24  C14 UNL     1       5.510   0.420   0.748  1.00  0.00     0.026 A 
HETATM   25  C15 UNL     1       6.685   1.266   0.916  1.00  0.00    -0.001 A 
HETATM   26  C16 UNL     1       6.554   1.814   2.115  1.00  0.00    -0.005 A 
HETATM   27  C17 UNL     1       5.303   1.385   2.829  1.00  0.00     0.130 A 
HETATM   28 BR1  UNL     1       5.864   0.396   4.418  1.00  0.00    -0.080 Br
ENDBRANCH  21  23
ENDBRANCH   5  21
BRANCH   7  29
HETATM   29  N4  UNL     1       2.547   1.582  -2.546  1.00  0.00    -0.231 N 
HETATM   30  H18 UNL     1       2.138   2.486  -2.858  1.00  0.00     0.174 HD
HETATM   31  H19 UNL     1       3.338   1.438  -3.216  1.00  0.00     0.174 HD
ENDBRANCH   7  29
TORSDOF 7
