REMARK  9 active torsions:
REMARK  status: ('A' for Active; 'I' for Inactive)
REMARK       I    between atoms: C2_3  and  N2_4 
REMARK       I    between atoms: C2_3  and  N3_5 
REMARK    1  A    between atoms: C3_6  and  N4_7 
REMARK    2  A    between atoms: C3_6  and  C4_8 
REMARK    3  A    between atoms: C4_8  and  C5_9 
REMARK    4  A    between atoms: C5_9  and  C6_10 
REMARK    5  A    between atoms: C9_13  and  O1_14 
REMARK    6  A    between atoms: O1_14  and  C10_15 
REMARK    7  A    between atoms: C10_15  and  C11_16 
REMARK    8  A    between atoms: C14_19  and  O2_20 
REMARK    9  A    between atoms: C18_24  and  O3_25 
ROOT
HETATM    1  C6  UNL     1      -1.886   2.102   0.760  1.00  0.00    -0.055 A 
HETATM    2  C7  UNL     1      -1.515   1.626  -0.481  1.00  0.00     0.010 A 
HETATM    3  C8  UNL     1      -0.291   1.096  -0.814  1.00  0.00     0.040 A 
HETATM    4  C9  UNL     1       0.642   1.050   0.223  1.00  0.00     0.102 A 
HETATM    5  C18 UNL     1       0.319   1.514   1.477  1.00  0.00     0.102 A 
HETATM    6  C20 UNL     1      -0.931   2.045   1.780  1.00  0.00     0.046 A 
ENDROOT
BRANCH   1   7
HETATM    7  C5  UNL     1      -3.254   2.639   0.951  1.00  0.00     0.045 C 
BRANCH   7   8
HETATM    8  C4  UNL     1      -4.255   1.639   1.421  1.00  0.00     0.077 C 
BRANCH   8   9
HETATM    9  C3  UNL     1      -4.392   0.510   0.473  1.00  0.00     0.097 C 
HETATM   10  N3  UNL     1      -5.477   0.259  -0.178  1.00  0.00    -0.056 NA
HETATM   11  C2  UNL     1      -5.509  -0.852  -1.067  1.00  0.00     0.716 C 
HETATM   12  N1  UNL     1      -6.438  -1.731  -0.829  1.00  0.00    -0.111 NA
HETATM   13  N2  UNL     1      -4.474  -0.723  -2.040  1.00  0.00    -0.231 N 
HETATM   14  C1  UNL     1      -7.392  -1.635   0.244  1.00  0.00     0.198 C 
HETATM   15  H4  UNL     1      -3.504  -1.145  -2.091  1.00  0.00     0.174 HD
HETATM   16  H5  UNL     1      -4.564  -0.129  -2.915  1.00  0.00     0.174 HD
BRANCH   9  17
HETATM   17  N4  UNL     1      -3.333  -0.399   0.196  1.00  0.00    -0.290 NA
HETATM   18  H6  UNL     1      -2.569  -1.106   0.279  1.00  0.00     0.125 HD
HETATM   19  H7  UNL     1      -2.774  -1.019   0.826  1.00  0.00     0.125 HD
ENDBRANCH   9  17
ENDBRANCH   8   9
ENDBRANCH   7   8
ENDBRANCH   1   7
BRANCH   5  20
HETATM   20  O3  UNL     1       1.293   1.439   2.461  1.00  0.00    -0.353 OA
HETATM   21  C19 UNL     1       1.051   1.895   3.787  1.00  0.00     0.210 C 
ENDBRANCH   5  20
BRANCH   4  22
HETATM   22  O1  UNL     1       1.897   0.523  -0.063  1.00  0.00    -0.344 OA
BRANCH  22  23
HETATM   23  C10 UNL     1       2.267   0.045  -1.324  1.00  0.00     0.214 C 
BRANCH  23  24
HETATM   24  C11 UNL     1       3.669  -0.448  -1.304  1.00  0.00    -0.034 A 
HETATM   25  C12 UNL     1       4.700   0.421  -1.598  1.00  0.00     0.012 A 
HETATM   26  C13 UNL     1       6.026   0.068  -1.610  1.00  0.00     0.037 A 
HETATM   27  C14 UNL     1       6.373  -1.231  -1.313  1.00  0.00     0.068 A 
HETATM   28  C16 UNL     1       5.360  -2.147  -1.008  1.00  0.00     0.037 A 
HETATM   29  C17 UNL     1       4.041  -1.743  -1.009  1.00  0.00     0.012 A 
BRANCH  27  30
HETATM   30  O2  UNL     1       7.726  -1.506  -1.347  1.00  0.00    -0.356 OA
HETATM   31  C15 UNL     1       8.138  -2.829  -1.049  1.00  0.00     0.210 C 
ENDBRANCH  27  30
ENDBRANCH  23  24
ENDBRANCH  22  23
ENDBRANCH   4  22
TORSDOF 9
