REMARK  2 active torsions:
REMARK  status: ('A' for Active; 'I' for Inactive)
REMARK    1  A    between atoms: C5_5  and  O1_6 
REMARK    2  A    between atoms: C12_16  and  O4_17 
ROOT
HETATM    1  C1  UNL     1      -0.466  -0.730   1.673  1.00  0.00     0.048 C 
HETATM    2  C2  UNL     1      -1.073  -0.777   0.263  1.00  0.00     0.087 A 
HETATM    3  C3  UNL     1      -1.246  -2.039  -0.234  1.00  0.00     0.109 A 
HETATM    4  C4  UNL     1      -2.481  -1.524   0.355  1.00  0.00     0.086 A 
HETATM    5  C5  UNL     1      -2.903  -0.338   0.992  1.00  0.00     0.146 C 
HETATM    6  C6  UNL     1      -2.476   0.923   0.257  1.00  0.00     0.284 C 
HETATM    7  N1  UNL     1      -1.383   1.646   0.850  1.00  0.00    -0.243 NA
HETATM    8  C7  UNL     1      -0.989   2.801   0.466  1.00  0.00     0.259 C 
HETATM    9  O2  UNL     1       0.142   3.420   1.135  1.00  0.00    -0.269 OA
HETATM   10  C8  UNL     1       1.376   2.735   0.987  1.00  0.00     0.288 C 
HETATM   11  O3  UNL     1       0.645   1.985   0.337  1.00  0.00    -0.260 OA
HETATM   12  C9  UNL     1       2.659   1.972   0.799  1.00  0.00     0.082 C 
HETATM   13  C10 UNL     1       2.612   0.834   0.117  1.00  0.00     0.011 C 
HETATM   14  C11 UNL     1       2.850  -0.423  -0.580  1.00  0.00     0.064 C 
HETATM   15  C12 UNL     1       2.456  -1.510  -1.291  1.00  0.00     0.186 C 
HETATM   16  O5  UNL     1       1.068  -1.612  -1.581  1.00  0.00    -0.255 OA
HETATM   17  C13 UNL     1       0.142  -1.878  -0.591  1.00  0.00     0.279 C 
HETATM   18  O6  UNL     1       1.230  -1.940   0.045  1.00  0.00    -0.264 OA
HETATM   19  O7  UNL     1      -1.530   0.186  -0.716  1.00  0.00    -0.349 OA
ENDROOT
BRANCH   5  20
HETATM   20  O1  UNL     1      -3.617  -0.610   2.155  1.00  0.00    -0.381 OA
HETATM   21  H5  UNL     1      -4.612  -0.693   2.087  1.00  0.00     0.211 HD
ENDBRANCH   5  20
BRANCH  15  22
HETATM   22  O4  UNL     1       3.512  -2.328  -1.591  1.00  0.00    -0.341 OA
HETATM   23  H11 UNL     1       3.488  -3.292  -1.218  1.00  0.00     0.220 HD
ENDBRANCH  15  22
TORSDOF 2
