REMARK  7 active torsions:
REMARK  status: ('A' for Active; 'I' for Inactive)
REMARK    1  A    between atoms: O1_2  and  C2_3 
REMARK    2  A    between atoms: C4_5  and  C5_6 
REMARK    3  A    between atoms: C5_6  and  C6_7 
REMARK    4  A    between atoms: C8_10  and  N2_11 
REMARK    5  A    between atoms: C9_13  and  N4_14 
REMARK    6  A    between atoms: N4_14  and  C10_15 
REMARK    7  A    between atoms: C13_18  and  O2_19 
ROOT
HETATM    1  C6  UNL     1       1.117  -1.247  -1.261  1.00  0.00     0.011 A 
HETATM    2  C7  UNL     1       1.876  -2.395  -1.370  1.00  0.00     0.147 A 
HETATM    3  N1  UNL     1       1.431  -3.565  -0.881  1.00  0.00    -0.075 NA
HETATM    4  C8  UNL     1       0.242  -3.662  -0.274  1.00  0.00     0.721 A 
HETATM    5  N3  UNL     1      -0.473  -2.541  -0.181  1.00  0.00    -0.045 NA
HETATM    6  C9  UNL     1      -0.125  -1.350  -0.627  1.00  0.00     0.155 A 
ENDROOT
BRANCH   6   7
HETATM    7  N4  UNL     1      -0.918  -0.201  -0.514  1.00  0.00    -0.340 N 
HETATM    8  H10 UNL     1      -0.539   0.707  -0.923  1.00  0.00     0.167 HD
BRANCH   7   9
HETATM    9  C10 UNL     1      -2.199   0.027   0.060  1.00  0.00     0.033 A 
HETATM   10  C11 UNL     1      -2.854   1.268   0.068  1.00  0.00     0.032 A 
HETATM   11  C12 UNL     1      -4.096   1.383   0.648  1.00  0.00     0.039 A 
HETATM   12  C13 UNL     1      -4.756   0.324   1.238  1.00  0.00     0.068 A 
HETATM   13  C15 UNL     1      -4.129  -0.903   1.240  1.00  0.00     0.039 A 
HETATM   14  C16 UNL     1      -2.885  -1.008   0.657  1.00  0.00     0.032 A 
BRANCH  12  15
HETATM   15  O2  UNL     1      -6.007   0.534   1.798  1.00  0.00    -0.356 OA
HETATM   16  C14 UNL     1      -6.544   1.845   1.730  1.00  0.00     0.210 C 
ENDBRANCH  12  15
ENDBRANCH   7   9
ENDBRANCH   6   7
BRANCH   1  17
HETATM   17  C5  UNL     1       1.671   0.022  -1.809  1.00  0.00     0.082 C 
BRANCH  17  18
HETATM   18  C4  UNL     1       2.225   0.893  -0.742  1.00  0.00    -0.051 A 
HETATM   19  C3  UNL     1       3.306   0.220  -0.006  1.00  0.00     0.071 A 
HETATM   20  C2  UNL     1       3.950   0.826   1.000  1.00  0.00     0.180 A 
HETATM   21  O3  UNL     1       3.581   2.102   1.338  1.00  0.00    -0.327 OA
HETATM   22  C18 UNL     1       2.563   2.851   0.708  1.00  0.00     0.206 A 
HETATM   23  C17 UNL     1       1.901   2.130  -0.380  1.00  0.00     0.007 A 
BRANCH  20  24
HETATM   24  O1  UNL     1       4.981   0.201   1.710  1.00  0.00    -0.336 OA
HETATM   25  C1  UNL     1       6.333   0.647   1.550  1.00  0.00     0.212 C 
ENDBRANCH  20  24
ENDBRANCH  17  18
ENDBRANCH   1  17
BRANCH   4  26
HETATM   26  N2  UNL     1      -0.324  -4.855   0.279  1.00  0.00    -0.231 N 
HETATM   27  H8  UNL     1      -0.792  -5.677  -0.160  1.00  0.00     0.174 HD
HETATM   28  H9  UNL     1      -0.283  -4.968   1.330  1.00  0.00     0.174 HD
ENDBRANCH   4  26
TORSDOF 7
