REMARK  3 active torsions:
REMARK  status: ('A' for Active; 'I' for Inactive)
REMARK    1  A    between atoms: O1_2  and  C2_3 
REMARK    2  A    between atoms: N3_16  and  C12_17 
REMARK    3  A    between atoms: C12_17  and  C13_18 
ROOT
HETATM    1  C2  UNL     1       2.468   0.298   0.034  1.00  0.00     0.096 A 
HETATM    2  C3  UNL     1       1.969  -0.994   0.155  1.00  0.00     0.068 A 
HETATM    3  C4  UNL     1       1.217  -1.357   1.286  1.00  0.00     0.030 A 
HETATM    4  C5  UNL     1       0.977  -0.415   2.293  1.00  0.00     0.031 A 
HETATM    5  C6  UNL     1       1.468   0.861   2.179  1.00  0.00     0.034 A 
HETATM    6  C7  UNL     1       2.198   1.211   1.067  1.00  0.00     0.063 A 
HETATM    7  N1  UNL     1       2.685   2.526   0.838  1.00  0.00    -0.370 N 
HETATM    8  C8  UNL     1       1.759   3.090  -0.131  1.00  0.00     0.270 C 
HETATM    9  N2  UNL     1       0.435   3.263   0.335  1.00  0.00    -0.281 NA
HETATM   10  C9  UNL     1      -0.529   2.490   0.432  1.00  0.00     0.137 C 
HETATM   11  C10 UNL     1      -1.731   1.709   0.601  1.00  0.00     0.066 C 
HETATM   12 CL1  UNL     1      -2.380   3.259   1.166  1.00  0.00    -0.081 Cl
HETATM   13  C11 UNL     1      -2.457   0.623   0.555  1.00  0.00     0.111 C 
HETATM   14  N3  UNL     1      -2.316  -0.738   0.189  1.00  0.00    -0.382 N 
HETATM   15  C14 UNL     1      -0.999  -1.326   0.203  1.00  0.00     0.142 C 
HETATM   16  C15 UNL     1      -0.751  -2.295   1.320  1.00  0.00     0.139 C 
HETATM   17  N5  UNL     1       0.679  -2.694   1.258  1.00  0.00    -0.388 N 
HETATM   18  H7  UNL     1       3.535   2.898   1.319  1.00  0.00     0.161 HD
HETATM   19  H20 UNL     1       1.265  -3.556   1.208  1.00  0.00     0.159 HD
ENDROOT
BRANCH  14  20
HETATM   20  C12 UNL     1      -3.430  -1.544  -0.158  1.00  0.00     0.168 C 
BRANCH  20  21
HETATM   21  C13 UNL     1      -4.025  -1.083  -1.458  1.00  0.00     0.099 C 
HETATM   22  N4  UNL     1      -3.518  -0.108  -2.107  1.00  0.00    -0.315 NA
HETATM   23  H15 UNL     1      -3.943   0.197  -3.004  1.00  0.00     0.185 HD
ENDBRANCH  20  21
ENDBRANCH  14  20
BRANCH   1  24
HETATM   24  O1  UNL     1       3.207   0.649  -1.082  1.00  0.00    -0.354 OA
HETATM   25  C1  UNL     1       3.441  -0.303  -2.074  1.00  0.00     0.210 C 
ENDBRANCH   1  24
TORSDOF 3
