REMARK  10 active torsions:
REMARK  status: ('A' for Active; 'I' for Inactive)
REMARK    1  A    between atoms: O1_2  and  C2_3 
REMARK    2  A    between atoms: C5_6  and  C6_7 
REMARK    3  A    between atoms: C6_7  and  O2_8 
REMARK    4  A    between atoms: O2_8  and  C7_9 
REMARK    5  A    between atoms: C10_12  and  C11_13 
REMARK    6  A    between atoms: C11_13  and  C12_14 
REMARK    7  A    between atoms: C14_17  and  N2_18 
REMARK    8  A    between atoms: C15_20  and  N4_21 
REMARK    9  A    between atoms: C17_23  and  O3_24 
REMARK   10  A    between atoms: O3_24  and  P1_25 
ROOT
HETATM    1  C7  UNL     1       0.495  -1.050  -1.453  1.00  0.00     0.102 A 
HETATM    2  C8  UNL     1       0.323   0.256  -1.842  1.00  0.00     0.040 A 
HETATM    3  C9  UNL     1      -0.886   0.884  -2.011  1.00  0.00     0.010 A 
HETATM    4  C10 UNL     1      -2.018   0.138  -1.770  1.00  0.00    -0.051 A 
HETATM    5  C16 UNL     1      -1.951  -1.202  -1.370  1.00  0.00     0.047 A 
HETATM    6  C17 UNL     1      -0.682  -1.783  -1.216  1.00  0.00     0.107 A 
ENDROOT
BRANCH   4   7
HETATM    7  C11 UNL     1      -3.354   0.762  -1.934  1.00  0.00     0.082 C 
BRANCH   7   8
HETATM    8  C12 UNL     1      -3.935   1.290  -0.690  1.00  0.00     0.010 A 
HETATM    9  C13 UNL     1      -4.934   0.493  -0.116  1.00  0.00     0.147 A 
HETATM   10  N1  UNL     1      -5.546   0.878   1.044  1.00  0.00    -0.075 NA
HETATM   11  C14 UNL     1      -5.181   2.036   1.636  1.00  0.00     0.721 A 
HETATM   12  N3  UNL     1      -4.224   2.817   1.102  1.00  0.00    -0.045 NA
HETATM   13  C15 UNL     1      -3.592   2.461  -0.057  1.00  0.00     0.148 A 
BRANCH  11  14
HETATM   14  N2  UNL     1      -5.877   2.346   2.836  1.00  0.00    -0.231 N 
HETATM   15  H13 UNL     1      -5.588   2.514   3.819  1.00  0.00     0.174 HD
HETATM   16  H14 UNL     1      -6.917   2.475   2.952  1.00  0.00     0.174 HD
ENDBRANCH  11  14
BRANCH  13  17
HETATM   17  N4  UNL     1      -2.583   3.271  -0.641  1.00  0.00    -0.383 N 
HETATM   18  H15 UNL     1      -2.510   3.842  -1.533  1.00  0.00     0.157 HD
HETATM   19  H16 UNL     1      -1.800   3.217   0.038  1.00  0.00     0.157 HD
ENDBRANCH  13  17
ENDBRANCH   7   8
ENDBRANCH   4   7
BRANCH   6  20
HETATM   20  O3  UNL     1      -0.811  -3.128  -0.811  1.00  0.00    -0.325 OA
BRANCH  20  21
HETATM   21  P1  UNL     1       0.654  -4.062  -0.555  1.00  0.00     0.016 P 
HETATM   22  C18 UNL     1       0.210  -5.821  -0.182  1.00  0.00     0.072 C 
HETATM   23  H18 UNL     1       1.376  -3.529   0.590  1.00  0.00     0.087 HD
ENDBRANCH  20  21
ENDBRANCH   6  20
BRANCH   1  24
HETATM   24  O2  UNL     1       1.530  -1.886  -1.218  1.00  0.00    -0.344 OA
BRANCH  24  25
HETATM   25  C6  UNL     1       2.902  -1.745  -1.270  1.00  0.00     0.214 C 
BRANCH  25  26
HETATM   26  C5  UNL     1       3.377  -0.725  -0.315  1.00  0.00    -0.034 A 
HETATM   27  C4  UNL     1       3.670   0.604  -0.422  1.00  0.00     0.012 A 
HETATM   28  C3  UNL     1       4.086   1.352   0.639  1.00  0.00     0.037 A 
HETATM   29  C2  UNL     1       4.242   0.828   1.898  1.00  0.00     0.068 A 
HETATM   30  C20 UNL     1       3.962  -0.503   2.062  1.00  0.00     0.037 A 
HETATM   31  C19 UNL     1       3.541  -1.245   0.972  1.00  0.00     0.012 A 
BRANCH  29  32
HETATM   32  O1  UNL     1       4.663   1.595   2.961  1.00  0.00    -0.356 OA
HETATM   33  C1  UNL     1       4.954   2.973   2.795  1.00  0.00     0.210 C 
ENDBRANCH  29  32
ENDBRANCH  25  26
ENDBRANCH  24  25
ENDBRANCH   1  24
TORSDOF 10
