REMARK  4 active torsions:
REMARK  status: ('A' for Active; 'I' for Inactive)
REMARK    1  A    between atoms: O1_2  and  C2_3 
REMARK    2  A    between atoms: C6_9  and  N3_10 
REMARK    3  A    between atoms: N3_10  and  C7_11 
REMARK    4  A    between atoms: C15_20  and  O2_21 
ROOT
HETATM    1  C2  UNL     1       3.136   0.036   0.010  1.00  0.00     0.103 A 
HETATM    2  C3  UNL     1       2.868  -1.224  -0.451  1.00  0.00     0.072 A 
HETATM    3  C4  UNL     1       1.644  -1.844  -0.465  1.00  0.00     0.075 A 
HETATM    4  N1  UNL     1       1.423  -3.075  -0.916  1.00  0.00    -0.241 NA
HETATM    5  C5  UNL     1       0.210  -3.646  -0.905  1.00  0.00     0.236 A 
HETATM    6  N2  UNL     1      -0.860  -2.949  -0.412  1.00  0.00    -0.224 NA
HETATM    7  C6  UNL     1      -0.708  -1.686   0.065  1.00  0.00     0.142 A 
HETATM    8  C13 UNL     1       0.552  -1.132   0.038  1.00  0.00     0.042 A 
HETATM    9  C14 UNL     1       0.782   0.145   0.513  1.00  0.00     0.057 A 
HETATM   10  C15 UNL     1       2.045   0.752   0.514  1.00  0.00     0.102 A 
ENDROOT
BRANCH   7  11
HETATM   11  N3  UNL     1      -1.811  -0.983   0.582  1.00  0.00    -0.340 N 
HETATM   12  H6  UNL     1      -1.644  -1.171   1.585  1.00  0.00     0.167 HD
BRANCH  11  13
HETATM   13  C7  UNL     1      -2.892  -0.215   0.072  1.00  0.00     0.035 A 
HETATM   14  C8  UNL     1      -3.097  -0.143  -1.288  1.00  0.00     0.029 A 
HETATM   15  C9  UNL     1      -4.168   0.616  -1.761  1.00  0.00     0.004 A 
HETATM   16  C10 UNL     1      -4.980   1.264  -0.839  1.00  0.00     0.024 A 
HETATM   17  C11 UNL     1      -4.729   1.159   0.524  1.00  0.00     0.036 A 
HETATM   18 CL1  UNL     1      -5.774   1.993   1.672  1.00  0.00    -0.084 Cl
HETATM   19  C12 UNL     1      -3.675   0.414   1.013  1.00  0.00     0.053 A 
ENDBRANCH  11  13
ENDBRANCH   7  11
BRANCH  10  20
HETATM   20  O2  UNL     1       2.238   2.033   0.999  1.00  0.00    -0.353 OA
HETATM   21  C16 UNL     1       1.247   2.864   1.529  1.00  0.00     0.210 C 
ENDBRANCH  10  20
BRANCH   1  22
HETATM   22  O1  UNL     1       4.345   0.685   0.039  1.00  0.00    -0.353 OA
HETATM   23  C1  UNL     1       5.559   0.144  -0.415  1.00  0.00     0.210 C 
ENDBRANCH   1  22
TORSDOF 4
