REMARK  5 active torsions:
REMARK  status: ('A' for Active; 'I' for Inactive)
REMARK    1  A    between atoms: C2_2  and  C3_3 
REMARK    2  A    between atoms: C7_7  and  C8_8 
REMARK    3  A    between atoms: C8_8  and  C9_9 
REMARK    4  A    between atoms: C11_12  and  N2_13 
REMARK    5  A    between atoms: C12_15  and  N4_16 
ROOT
HETATM    1  C3  UNL     1      -3.047   0.761   0.305  1.00  0.00    -0.062 C 
HETATM    2  C4  UNL     1      -1.789   0.606   0.639  1.00  0.00    -0.015 C 
HETATM    3  C5  UNL     1      -0.369   0.514   0.984  1.00  0.00     0.066 C 
HETATM    4  C6  UNL     1       0.375  -0.520   0.288  1.00  0.00    -0.056 C 
HETATM    5  C7  UNL     1       1.459  -0.478  -0.544  1.00  0.00    -0.015 C 
HETATM    6  C13 UNL     1       0.059  -1.967   0.335  1.00  0.00     0.031 C 
HETATM    7  C14 UNL     1      -0.835  -2.814   0.895  1.00  0.00     0.135 C 
HETATM    8  O1  UNL     1      -1.970  -3.157   1.704  1.00  0.00    -0.363 OA
HETATM    9  C15 UNL     1      -3.263  -2.883   1.082  1.00  0.00     0.178 C 
HETATM   10  C16 UNL     1      -3.786  -1.602   1.633  1.00  0.00     0.054 C 
HETATM   11  C17 UNL     1      -4.903  -0.962   0.962  1.00  0.00    -0.024 C 
HETATM   12  C18 UNL     1      -4.339   0.117   0.421  1.00  0.00     0.003 C 
ENDROOT
BRANCH   5  13
HETATM   13  C8  UNL     1       2.003   0.879  -0.807  1.00  0.00     0.071 C 
BRANCH  13  14
HETATM   14  C9  UNL     1       3.413   0.873  -0.317  1.00  0.00     0.009 A 
HETATM   15  C10 UNL     1       3.631   1.408   0.953  1.00  0.00     0.147 A 
HETATM   16  N1  UNL     1       4.873   1.407   1.483  1.00  0.00    -0.075 NA
HETATM   17  C11 UNL     1       5.937   0.894   0.804  1.00  0.00     0.721 A 
HETATM   18  N3  UNL     1       5.735   0.380  -0.419  1.00  0.00    -0.045 NA
HETATM   19  C12 UNL     1       4.516   0.372  -0.961  1.00  0.00     0.148 A 
BRANCH  17  20
HETATM   20  N2  UNL     1       7.122   1.023   1.571  1.00  0.00    -0.231 N 
HETATM   21  H13 UNL     1       7.137   0.729   2.584  1.00  0.00     0.174 HD
HETATM   22  H14 UNL     1       7.917   1.413   1.045  1.00  0.00     0.174 HD
ENDBRANCH  17  20
BRANCH  19  23
HETATM   23  N4  UNL     1       4.300  -0.160  -2.255  1.00  0.00    -0.383 N 
HETATM   24  H15 UNL     1       4.519  -1.178  -2.183  1.00  0.00     0.157 HD
HETATM   25  H16 UNL     1       4.000   0.182  -3.215  1.00  0.00     0.157 HD
ENDBRANCH  19  23
ENDBRANCH  13  14
ENDBRANCH   5  13
BRANCH   1  26
HETATM   26  C2  UNL     1      -3.057   2.121  -0.256  1.00  0.00     0.034 C 
HETATM   27  C1  UNL     1      -3.499   2.108  -1.717  1.00  0.00     0.010 C 
ENDBRANCH   1  26
TORSDOF 5
