REMARK  2 active torsions:
REMARK  status: ('A' for Active; 'I' for Inactive)
REMARK    1  A    between atoms: O1_2  and  C2_3 
REMARK    2  A    between atoms: C5_8  and  N3_9 
ROOT
HETATM    1  C2  UNL     1      -0.828  -3.218  -0.271  1.00  0.00     0.139 C 
HETATM    2  C3  UNL     1      -0.781  -1.944  -0.637  1.00  0.00     0.149 C 
HETATM    3  N1  UNL     1      -1.540  -0.897  -1.229  1.00  0.00    -0.364 N 
HETATM    4  C4  UNL     1      -2.494   0.048  -0.717  1.00  0.00     0.151 A 
HETATM    5  N2  UNL     1      -3.451  -0.716  -0.178  1.00  0.00    -0.045 NA
HETATM    6  C5  UNL     1      -4.563  -0.254   0.427  1.00  0.00     0.721 A 
HETATM    7  N4  UNL     1      -4.700   1.082   0.481  1.00  0.00    -0.075 NA
HETATM    8  C6  UNL     1      -3.735   1.839  -0.063  1.00  0.00     0.147 A 
HETATM    9  C7  UNL     1      -2.568   1.393  -0.698  1.00  0.00     0.010 A 
HETATM   10  C8  UNL     1      -1.719   2.486  -1.196  1.00  0.00     0.071 C 
HETATM   11  C9  UNL     1      -0.296   2.150  -1.345  1.00  0.00    -0.022 C 
HETATM   12  C10 UNL     1       0.651   2.793  -0.683  1.00  0.00    -0.002 C 
HETATM   13  C11 UNL     1       1.096   3.811   0.258  1.00  0.00     0.024 C 
HETATM   14  C12 UNL     1       2.110   4.415   0.907  1.00  0.00     0.134 C 
HETATM   15  O2  UNL     1       3.285   3.757   0.483  1.00  0.00    -0.363 OA
HETATM   16  C13 UNL     1       3.389   2.409   0.987  1.00  0.00     0.174 C 
HETATM   17  C14 UNL     1       4.255   1.591   0.105  1.00  0.00     0.027 C 
HETATM   18  C15 UNL     1       4.173   0.120   0.481  1.00  0.00     0.004 C 
HETATM   19  C16 UNL     1       2.790  -0.328   0.183  1.00  0.00     0.026 C 
HETATM   20  C17 UNL     1       2.485  -1.789   0.467  1.00  0.00     0.167 C 
HETATM   21  O3  UNL     1       1.133  -1.912   0.048  1.00  0.00    -0.388 OA
HETATM   22  C18 UNL     1       0.602  -3.155   0.228  1.00  0.00     0.211 C 
HETATM   23  H5  UNL     1      -1.612  -0.536  -2.202  1.00  0.00     0.161 HD
ENDROOT
BRANCH   6  24
HETATM   24  N3  UNL     1      -5.606  -1.024   1.012  1.00  0.00    -0.231 N 
HETATM   25  H6  UNL     1      -5.529  -1.627   1.877  1.00  0.00     0.174 HD
HETATM   26  H7  UNL     1      -6.535  -0.961   0.504  1.00  0.00     0.174 HD
ENDBRANCH   6  24
BRANCH   1  27
HETATM   27  O1  UNL     1      -1.213  -4.561  -0.009  1.00  0.00    -0.377 OA
HETATM   28  C1  UNL     1      -2.213  -5.108  -0.873  1.00  0.00     0.202 C 
ENDBRANCH   1  27
TORSDOF 2
