REMARK  9 active torsions:
REMARK  status: ('A' for Active; 'I' for Inactive)
REMARK    1  A    between atoms: O1_2  and  C2_3 
REMARK    2  A    between atoms: C5_6  and  C6_7 
REMARK    3  A    between atoms: C6_7  and  O2_8 
REMARK    4  A    between atoms: O2_8  and  C7_9 
REMARK    5  A    between atoms: C10_12  and  C11_13 
REMARK    6  A    between atoms: C11_13  and  C12_14 
REMARK    7  A    between atoms: C14_17  and  N2_18 
REMARK    8  A    between atoms: C15_20  and  N4_21 
REMARK    9  A    between atoms: C17_23  and  O3_24 
ROOT
HETATM    1  C7  UNL     1       0.484  -1.936   0.614  1.00  0.00     0.102 A 
HETATM    2  C8  UNL     1       0.042  -0.952   1.473  1.00  0.00     0.040 A 
HETATM    3  C9  UNL     1      -1.231  -0.498   1.600  1.00  0.00     0.010 A 
HETATM    4  C10 UNL     1      -2.168  -1.074   0.793  1.00  0.00    -0.051 A 
HETATM    5  C16 UNL     1      -1.831  -2.083  -0.118  1.00  0.00     0.047 A 
HETATM    6  C17 UNL     1      -0.500  -2.512  -0.205  1.00  0.00     0.102 A 
ENDROOT
BRANCH   4   7
HETATM    7  C11 UNL     1      -3.597  -0.673   0.821  1.00  0.00     0.082 C 
BRANCH   7   8
HETATM    8  C12 UNL     1      -3.965   0.351  -0.155  1.00  0.00     0.010 A 
HETATM    9  C13 UNL     1      -4.629  -0.056  -1.296  1.00  0.00     0.147 A 
HETATM   10  N1  UNL     1      -4.995   0.829  -2.244  1.00  0.00    -0.075 NA
HETATM   11  C14 UNL     1      -4.743   2.146  -2.142  1.00  0.00     0.721 A 
HETATM   12  N3  UNL     1      -4.094   2.587  -1.039  1.00  0.00    -0.045 NA
HETATM   13  C15 UNL     1      -3.721   1.703  -0.080  1.00  0.00     0.148 A 
BRANCH  11  14
HETATM   14  N2  UNL     1      -5.100   3.132  -3.100  1.00  0.00    -0.231 N 
HETATM   15  H13 UNL     1      -6.086   3.368  -3.337  1.00  0.00     0.174 HD
HETATM   16  H14 UNL     1      -4.281   3.618  -3.565  1.00  0.00     0.174 HD
ENDBRANCH  11  14
BRANCH  13  17
HETATM   17  N4  UNL     1      -3.047   2.193   1.069  1.00  0.00    -0.383 N 
HETATM   18  H15 UNL     1      -2.254   2.894   1.172  1.00  0.00     0.157 HD
HETATM   19  H16 UNL     1      -3.108   2.035   2.097  1.00  0.00     0.157 HD
ENDBRANCH  13  17
ENDBRANCH   7   8
ENDBRANCH   4   7
BRANCH   6  20
HETATM   20  O3  UNL     1      -0.219  -3.512  -1.122  1.00  0.00    -0.353 OA
HETATM   21  C18 UNL     1      -1.282  -4.024  -1.896  1.00  0.00     0.210 C 
ENDBRANCH   6  20
BRANCH   1  22
HETATM   22  O2  UNL     1       1.697  -2.462   0.401  1.00  0.00    -0.344 OA
BRANCH  22  23
HETATM   23  C6  UNL     1       2.953  -2.272   0.901  1.00  0.00     0.214 C 
BRANCH  23  24
HETATM   24  C5  UNL     1       3.565  -0.946   0.748  1.00  0.00    -0.034 A 
HETATM   25  C4  UNL     1       4.245  -0.770  -0.467  1.00  0.00     0.012 A 
HETATM   26  C3  UNL     1       4.894   0.393  -0.809  1.00  0.00     0.037 A 
HETATM   27  C2  UNL     1       4.869   1.435   0.097  1.00  0.00     0.068 A 
HETATM   28  C20 UNL     1       4.224   1.324   1.297  1.00  0.00     0.037 A 
HETATM   29  C19 UNL     1       3.591   0.138   1.588  1.00  0.00     0.012 A 
BRANCH  27  30
HETATM   30  O1  UNL     1       5.506   2.627  -0.197  1.00  0.00    -0.356 OA
HETATM   31  C1  UNL     1       5.516   3.730   0.692  1.00  0.00     0.210 C 
ENDBRANCH  27  30
ENDBRANCH  23  24
ENDBRANCH  22  23
ENDBRANCH   1  22
TORSDOF 9
