REMARK  9 active torsions:
REMARK  status: ('A' for Active; 'I' for Inactive)
REMARK    1  A    between atoms: C2_2  and  C3_3 
REMARK    2  A    between atoms: C3_3  and  O1_4 
REMARK    3  A    between atoms: O1_4  and  C4_5 
REMARK    4  A    between atoms: C7_8  and  C8_9 
REMARK    5  A    between atoms: C8_9  and  O2_10 
REMARK    6  A    between atoms: O2_10  and  C9_11 
REMARK    7  A    between atoms: C11_13  and  C12_14 
REMARK    8  A    between atoms: C15_18  and  N2_19 
REMARK    9  A    between atoms: C16_21  and  N4_22 
ROOT
HETATM    1  C9  UNL     1       1.598  -1.349   0.529  1.00  0.00     0.066 A 
HETATM    2  C10 UNL     1       2.612  -0.850   1.269  1.00  0.00     0.023 A 
HETATM    3  C11 UNL     1       3.961  -1.408   0.847  1.00  0.00     0.072 A 
HETATM    4  C17 UNL     1       3.551  -2.299  -0.235  1.00  0.00    -0.010 A 
HETATM    5  C18 UNL     1       2.215  -2.279  -0.434  1.00  0.00     0.033 A 
ENDROOT
BRANCH   3   6
HETATM    6  C12 UNL     1       4.825  -0.301   0.425  1.00  0.00     0.024 A 
HETATM    7  C13 UNL     1       5.649  -0.012  -0.630  1.00  0.00     0.060 A 
HETATM    8  C14 UNL     1       5.696  -1.069  -1.656  1.00  0.00     0.072 C 
HETATM    9  N1  UNL     1       6.355   1.111  -0.738  1.00  0.00    -0.068 NA
HETATM   10  C15 UNL     1       6.341   2.089   0.174  1.00  0.00     0.722 A 
HETATM   11  N3  UNL     1       5.559   1.879   1.235  1.00  0.00    -0.045 NA
HETATM   12  C16 UNL     1       4.840   0.747   1.357  1.00  0.00     0.149 A 
BRANCH  10  13
HETATM   13  N2  UNL     1       7.166   3.191  -0.144  1.00  0.00    -0.231 N 
HETATM   14  H17 UNL     1       6.480   3.903  -0.494  1.00  0.00     0.174 HD
HETATM   15  H18 UNL     1       8.203   3.229  -0.035  1.00  0.00     0.174 HD
ENDBRANCH  10  13
BRANCH  12  16
HETATM   16  N4  UNL     1       4.148   0.871   2.619  1.00  0.00    -0.383 N 
HETATM   17  H19 UNL     1       3.504   1.660   2.843  1.00  0.00     0.157 HD
HETATM   18  H20 UNL     1       4.460   0.030   3.158  1.00  0.00     0.157 HD
ENDBRANCH  12  16
ENDBRANCH   3   6
BRANCH   1  19
HETATM   19  O2  UNL     1       0.198  -1.125   0.555  1.00  0.00    -0.347 OA
BRANCH  19  20
HETATM   20  C8  UNL     1      -0.349  -0.629  -0.676  1.00  0.00     0.214 C 
BRANCH  20  21
HETATM   21  C7  UNL     1      -1.798  -0.412  -0.563  1.00  0.00    -0.034 A 
HETATM   22  C6  UNL     1      -2.181   0.843  -0.140  1.00  0.00     0.012 A 
HETATM   23  C5  UNL     1      -3.526   1.187   0.011  1.00  0.00     0.037 A 
HETATM   24  C4  UNL     1      -4.502   0.226  -0.277  1.00  0.00     0.068 A 
HETATM   25  C20 UNL     1      -4.076  -1.021  -0.699  1.00  0.00     0.037 A 
HETATM   26  C19 UNL     1      -2.751  -1.367  -0.850  1.00  0.00     0.012 A 
BRANCH  24  27
HETATM   27  O1  UNL     1      -5.802   0.625  -0.108  1.00  0.00    -0.351 OA
BRANCH  27  28
HETATM   28  C3  UNL     1      -6.841  -0.297  -0.382  1.00  0.00     0.175 C 
BRANCH  28  29
HETATM   29  C2  UNL     1      -8.172   0.382  -0.120  1.00  0.00     0.022 C 
HETATM   30  C1  UNL     1      -8.326   1.596  -1.013  1.00  0.00     0.007 C 
ENDBRANCH  28  29
ENDBRANCH  27  28
ENDBRANCH  24  27
ENDBRANCH  20  21
ENDBRANCH  19  20
ENDBRANCH   1  19
TORSDOF 9
