REMARK  8 active torsions:
REMARK  status: ('A' for Active; 'I' for Inactive)
REMARK    1  A    between atoms: O1_2  and  C2_3 
REMARK    2  A    between atoms: C5_6  and  C6_7 
REMARK    3  A    between atoms: C6_7  and  O2_8 
REMARK    4  A    between atoms: O2_8  and  C7_9 
REMARK    5  A    between atoms: C10_12  and  C11_13 
REMARK    6  A    between atoms: C11_13  and  C12_14 
REMARK    7  A    between atoms: C14_17  and  N1_18 
REMARK    8  A    between atoms: C15_20  and  N3_21 
ROOT
HETATM    1  C7  UNL     1      -0.500   0.026  -0.792  1.00  0.00     0.047 C 
HETATM    2  C8  UNL     1       0.017   0.632  -1.849  1.00  0.00     0.007 C 
HETATM    3  C9  UNL     1       1.423   0.801  -2.291  1.00  0.00     0.048 C 
HETATM    4  C10 UNL     1       2.435   0.178  -1.358  1.00  0.00     0.008 A 
HETATM    5  C16 UNL     1       2.903  -1.157  -1.494  1.00  0.00    -0.008 A 
HETATM    6  C17 UNL     1       1.752  -0.962  -0.713  1.00  0.00    -0.064 A 
HETATM    7  C18 UNL     1       0.529  -0.586   0.092  1.00  0.00     0.099 C 
ENDROOT
BRANCH   4   8
HETATM    8  C11 UNL     1       3.241   1.130  -0.535  1.00  0.00     0.062 C 
BRANCH   8   9
HETATM    9  C12 UNL     1       4.232   0.513   0.366  1.00  0.00     0.010 A 
HETATM   10  C13 UNL     1       4.197   0.586   1.683  1.00  0.00     0.150 A 
HETATM   11  O3  UNL     1       5.105   0.020   2.511  1.00  0.00    -0.310 OA
HETATM   12  C14 UNL     1       6.214  -0.690   2.079  1.00  0.00     0.489 A 
HETATM   13  N2  UNL     1       6.259  -0.774   0.653  1.00  0.00    -0.212 NA
HETATM   14  C15 UNL     1       5.381  -0.240  -0.101  1.00  0.00     0.129 A 
BRANCH  12  15
HETATM   15  N1  UNL     1       7.442  -0.001   2.505  1.00  0.00     0.129 N 
HETATM   16  H15 UNL     1       8.260  -0.385   1.995  1.00  0.00     0.318 HD
HETATM   17  H16 UNL     1       7.324   1.008   2.337  1.00  0.00     0.318 HD
ENDBRANCH  12  15
BRANCH  14  18
HETATM   18  N3  UNL     1       5.611  -0.425  -1.497  1.00  0.00    -0.384 N 
HETATM   19  H17 UNL     1       5.626   0.173  -2.360  1.00  0.00     0.157 HD
HETATM   20  H18 UNL     1       5.842  -1.251  -2.076  1.00  0.00     0.157 HD
ENDBRANCH  14  18
ENDBRANCH   8   9
ENDBRANCH   4   8
BRANCH   1  21
HETATM   21  O2  UNL     1      -1.830  -0.065  -0.485  1.00  0.00    -0.351 OA
BRANCH  21  22
HETATM   22  C6  UNL     1      -2.865   0.633  -1.104  1.00  0.00     0.214 C 
BRANCH  22  23
HETATM   23  C5  UNL     1      -4.174   0.254  -0.479  1.00  0.00    -0.034 A 
HETATM   24  C4  UNL     1      -4.846  -0.829  -1.048  1.00  0.00     0.012 A 
HETATM   25  C3  UNL     1      -6.056  -1.249  -0.542  1.00  0.00     0.037 A 
HETATM   26  C2  UNL     1      -6.632  -0.616   0.536  1.00  0.00     0.068 A 
HETATM   27  C20 UNL     1      -5.957   0.447   1.083  1.00  0.00     0.037 A 
HETATM   28  C19 UNL     1      -4.743   0.896   0.601  1.00  0.00     0.012 A 
BRANCH  26  29
HETATM   29  O1  UNL     1      -7.850  -1.063   1.022  1.00  0.00    -0.356 OA
HETATM   30  C1  UNL     1      -8.431  -0.394   2.137  1.00  0.00     0.210 C 
ENDBRANCH  26  29
ENDBRANCH  22  23
ENDBRANCH  21  22
ENDBRANCH   1  21
TORSDOF 8
