REMARK  6 active torsions:
REMARK  status: ('A' for Active; 'I' for Inactive)
REMARK    1  A    between atoms: C3_3  and  C4_4 
REMARK    2  A    between atoms: C9_9  and  N1_10 
REMARK    3  A    between atoms: N1_10  and  O1_11 
REMARK    4  A    between atoms: O1_11  and  C10_12 
REMARK    5  A    between atoms: C10_12  and  C11_13 
REMARK    6  A    between atoms: C14_16  and  O2_17 
ROOT
HETATM    1  N1  UNL     1      -0.109   0.545  -0.439  1.00  0.00    -0.269 N 
HETATM    2  H11 UNL     1      -0.545  -0.193   0.184  1.00  0.00     0.194 HD
ENDROOT
BRANCH   1   3
HETATM    3  C9  UNL     1       1.279   0.176  -0.539  1.00  0.00     0.054 C 
HETATM    4  C8  UNL     1       1.753  -0.373  -1.851  1.00  0.00     0.065 C 
HETATM    5  C7  UNL     1       1.872  -1.850  -1.725  1.00  0.00     0.034 C 
HETATM    6  C6  UNL     1       3.130  -2.346  -1.142  1.00  0.00    -0.011 C 
HETATM    7  C5  UNL     1       4.157  -1.673  -0.726  1.00  0.00     0.007 C 
HETATM    8  C4  UNL     1       4.213  -0.912   0.318  1.00  0.00     0.085 C 
HETATM    9  O3  UNL     1       3.377   0.102   0.761  1.00  0.00    -0.320 OA
HETATM   10  C18 UNL     1       2.029   0.359   0.557  1.00  0.00     0.169 C 
BRANCH   8  11
HETATM   11  C3  UNL     1       5.364  -1.175   1.175  1.00  0.00     0.034 C 
HETATM   12  C2  UNL     1       5.604  -0.506   2.290  1.00  0.00    -0.028 C 
HETATM   13  C1  UNL     1       4.723   0.580   2.779  1.00  0.00     0.036 C 
ENDBRANCH   8  11
ENDBRANCH   1   3
BRANCH   1  14
HETATM   14  O1  UNL     1      -0.311   1.667  -1.165  1.00  0.00    -0.276 OA
BRANCH  14  15
HETATM   15  C10 UNL     1      -1.474   1.587  -1.948  1.00  0.00     0.239 C 
BRANCH  15  16
HETATM   16  C11 UNL     1      -2.653   1.390  -1.081  1.00  0.00    -0.032 A 
HETATM   17  C12 UNL     1      -3.393   2.435  -0.556  1.00  0.00     0.012 A 
HETATM   18  C13 UNL     1      -4.480   2.111   0.246  1.00  0.00     0.037 A 
HETATM   19  C14 UNL     1      -4.857   0.813   0.543  1.00  0.00     0.068 A 
HETATM   20  C16 UNL     1      -4.107  -0.212   0.011  1.00  0.00     0.037 A 
HETATM   21  C17 UNL     1      -3.034   0.104  -0.781  1.00  0.00     0.012 A 
BRANCH  19  22
HETATM   22  O2  UNL     1      -5.948   0.614   1.346  1.00  0.00    -0.356 OA
HETATM   23  C15 UNL     1      -6.351  -0.717   1.663  1.00  0.00     0.210 C 
ENDBRANCH  19  22
ENDBRANCH  15  16
ENDBRANCH  14  15
ENDBRANCH   1  14
TORSDOF 6
