REMARK  6 active torsions:
REMARK  status: ('A' for Active; 'I' for Inactive)
REMARK    1  A    between atoms: O1_2  and  C2_3 
REMARK    2  A    between atoms: C5_9  and  N4_10 
REMARK    3  A    between atoms: N4_10  and  C6_11 
REMARK    4  A    between atoms: C7_12  and  C8_13 
REMARK    5  A    between atoms: C9_14  and  C10_15 
REMARK    6  A    between atoms: C13_19  and  O2_20 
ROOT
HETATM    1  C10 UNL     1       4.110  -4.761  -2.484  1.00  0.00    -0.061 C 
HETATM    2  C11 UNL     1       5.199  -5.342  -2.481  1.00  0.00     0.009 C 
HETATM    3 CL1  UNL     1       6.727  -6.164  -2.498  1.00  0.00    -0.023 Cl
ENDROOT
BRANCH   1   4
HETATM    4  C9  UNL     1       2.880  -4.095  -2.504  1.00  0.00     0.066 C 
HETATM    5  C8  UNL     1       2.663  -3.007  -1.803  1.00  0.00     0.010 C 
BRANCH   5   6
HETATM    6  C7  UNL     1       3.081  -1.969  -0.879  1.00  0.00     0.017 C 
HETATM    7  C6  UNL     1       2.620  -0.861  -0.268  1.00  0.00     0.085 C 
BRANCH   7   8
HETATM    8  N4  UNL     1       1.307  -0.431  -0.494  1.00  0.00    -0.374 N 
HETATM    9  H7  UNL     1       0.726  -0.934  -1.179  1.00  0.00     0.161 HD
BRANCH   8  10
HETATM   10  C5  UNL     1       1.028   0.696   0.330  1.00  0.00     0.254 A 
HETATM   11  N3  UNL     1       1.173   0.392   1.762  1.00  0.00    -0.090 NA
HETATM   12  N2  UNL     1       0.231   0.451   2.487  1.00  0.00    -0.188 NA
HETATM   13  N1  UNL     1      -0.663   0.462   3.410  1.00  0.00    -0.087 NA
HETATM   14  C4  UNL     1      -1.939   0.750   3.332  1.00  0.00     0.159 A 
HETATM   15  C3  UNL     1      -2.877   1.154   2.302  1.00  0.00     0.061 A 
HETATM   16  C2  UNL     1      -2.956   1.433   1.005  1.00  0.00     0.099 A 
HETATM   17  C13 UNL     1      -1.714   1.343   0.149  1.00  0.00     0.088 A 
HETATM   18  C12 UNL     1      -0.427   1.068   0.105  1.00  0.00     0.106 A 
BRANCH  16  19
HETATM   19  O1  UNL     1      -4.112   1.796   0.402  1.00  0.00    -0.353 OA
HETATM   20  C1  UNL     1      -4.247   2.935  -0.398  1.00  0.00     0.210 C 
ENDBRANCH  16  19
BRANCH  17  21
HETATM   21  O2  UNL     1      -1.963   1.680  -1.167  1.00  0.00    -0.357 OA
HETATM   22  C14 UNL     1      -1.142   2.212  -2.137  1.00  0.00     0.209 C 
ENDBRANCH  17  21
ENDBRANCH   8  10
ENDBRANCH   7   8
ENDBRANCH   5   6
ENDBRANCH   1   4
TORSDOF 6
