REMARK  6 active torsions:
REMARK  status: ('A' for Active; 'I' for Inactive)
REMARK    1  A    between atoms: C2_2  and  C3_3 
REMARK    2  A    between atoms: C5_5  and  N1_6 
REMARK    3  A    between atoms: C5_5  and  S1_14 
REMARK    4  A    between atoms: N1_6  and  C6_7 
REMARK    5  A    between atoms: S1_14  and  N2_15 
REMARK    6  A    between atoms: C15_20  and  O1_21 
ROOT
HETATM    1  C3  UNL     1      -1.695   0.505   0.083  1.00  0.00    -0.027 C 
HETATM    2  C4  UNL     1      -0.517   0.193  -0.432  1.00  0.00     0.032 C 
HETATM    3  C5  UNL     1       0.248  -1.038  -0.646  1.00  0.00     0.147 C 
HETATM    4  C12 UNL     1      -0.440  -2.120  -1.331  1.00  0.00     0.137 C 
HETATM    5  N3  UNL     1      -1.581  -2.725  -1.194  1.00  0.00    -0.274 NA
HETATM    6  C13 UNL     1      -2.670  -2.599  -0.307  1.00  0.00     0.115 C 
HETATM    7  C14 UNL     1      -3.091  -1.554   0.387  1.00  0.00     0.028 C 
HETATM    8  C15 UNL     1      -2.846  -0.146   0.695  1.00  0.00     0.175 C 
ENDROOT
BRANCH   3   9
HETATM    9  N1  UNL     1       1.416  -0.690  -1.438  1.00  0.00    -0.363 N 
HETATM   10  H5  UNL     1       1.577  -1.110  -2.399  1.00  0.00     0.162 HD
BRANCH   9  11
HETATM   11  C6  UNL     1       2.448   0.206  -1.068  1.00  0.00     0.031 A 
HETATM   12  C7  UNL     1       3.560   0.528  -1.857  1.00  0.00     0.029 A 
HETATM   13  C8  UNL     1       4.512   1.405  -1.417  1.00  0.00     0.004 A 
HETATM   14  C9  UNL     1       4.453   2.026  -0.189  1.00  0.00     0.024 A 
HETATM   15  C10 UNL     1       3.366   1.719   0.600  1.00  0.00     0.036 A 
HETATM   16 CL1  UNL     1       3.314   2.525   2.163  1.00  0.00    -0.084 Cl
HETATM   17  C11 UNL     1       2.407   0.836   0.155  1.00  0.00     0.053 A 
ENDBRANCH   9  11
ENDBRANCH   3   9
BRANCH   3  18
HETATM   18  S1  UNL     1       0.922  -1.735   0.906  1.00  0.00    -0.045 SA
BRANCH  18  19
HETATM   19  N2  UNL     1      -0.315  -2.298   1.990  1.00  0.00    -0.275 NA
HETATM   20  H10 UNL     1      -0.202  -1.751   2.889  1.00  0.00     0.131 HD
HETATM   21  H11 UNL     1      -0.134  -3.309   2.235  1.00  0.00     0.131 HD
ENDBRANCH  18  19
ENDBRANCH   3  18
BRANCH   1  22
HETATM   22  C2  UNL     1      -1.944   1.967   0.028  1.00  0.00    -0.001 C 
HETATM   23  C1  UNL     1      -3.020   2.610   0.456  1.00  0.00     0.012 C 
ENDBRANCH   1  22
BRANCH   8  24
HETATM   24  O1  UNL     1      -2.918   0.023   2.078  1.00  0.00    -0.387 OA
HETATM   25  H16 UNL     1      -3.357  -0.731   2.529  1.00  0.00     0.210 HD
ENDBRANCH   8  24
TORSDOF 6
