REMARK  3 active torsions:
REMARK  status: ('A' for Active; 'I' for Inactive)
REMARK    1  A    between atoms: O1_2  and  S1_3 
REMARK    2  A    between atoms: S1_3  and  C2_4 
REMARK    3  A    between atoms: C14_19  and  O2_20 
ROOT
HETATM    1  C2  UNL     1      -1.301   0.430   0.094  1.00  0.00     0.061 C 
HETATM    2  C3  UNL     1      -0.376  -0.571   0.043  1.00  0.00     0.038 C 
HETATM    3  C4  UNL     1       0.983  -0.895  -0.366  1.00  0.00     0.117 A 
HETATM    4  C5  UNL     1       1.213  -2.299   0.187  1.00  0.00     0.011 A 
HETATM    5  C6  UNL     1       2.083  -2.690   1.084  1.00  0.00    -0.022 A 
HETATM    6  C7  UNL     1       3.012  -1.739   1.707  1.00  0.00     0.078 A 
HETATM    7  C8  UNL     1       2.943  -0.380   1.155  1.00  0.00     0.021 A 
HETATM    8 CL1  UNL     1       4.110   0.791   1.749  1.00  0.00    -0.088 Cl
HETATM    9  C9  UNL     1       2.047  -0.013   0.242  1.00  0.00    -0.019 A 
HETATM   10  C10 UNL     1       2.269   1.462  -0.097  1.00  0.00     0.098 C 
HETATM   11  C11 UNL     1       1.244   1.780  -1.194  1.00  0.00     0.042 C 
HETATM   12  N1  UNL     1       1.575   1.442  -2.451  1.00  0.00    -0.247 NA
HETATM   13  C12 UNL     1       1.680  -0.072  -2.653  1.00  0.00     0.229 C 
HETATM   14  N2  UNL     1       1.323  -1.061  -1.770  1.00  0.00    -0.259 NA
HETATM   15  C13 UNL     1      -0.189   2.337  -1.247  1.00  0.00     0.065 C 
HETATM   16  C14 UNL     1      -1.237   1.851  -0.443  1.00  0.00     0.088 C 
ENDROOT
BRANCH   1  17
HETATM   17  S1  UNL     1      -2.913   0.411   0.778  1.00  0.00     0.030 SA
BRANCH  17  18
HETATM   18  O1  UNL     1      -3.234  -1.114   1.456  1.00  0.00    -0.320 OA
HETATM   19  C1  UNL     1      -3.511  -2.084   0.511  1.00  0.00     0.220 C 
ENDBRANCH  17  18
ENDBRANCH   1  17
BRANCH  16  20
HETATM   20  O2  UNL     1      -1.987   2.930  -0.373  1.00  0.00    -0.354 OA
HETATM   21  C15 UNL     1      -3.344   2.932  -0.038  1.00  0.00     0.210 C 
ENDBRANCH  16  20
TORSDOF 3
