REMARK  5 active torsions:
REMARK  status: ('A' for Active; 'I' for Inactive)
REMARK    1  A    between atoms: O1_2  and  C2_3 
REMARK    2  A    between atoms: C6_9  and  N3_10 
REMARK    3  A    between atoms: N3_10  and  C7_11 
REMARK    4  A    between atoms: C13_18  and  O2_19 
REMARK    5  A    between atoms: O2_19  and  P1_20 
ROOT
HETATM    1  C2  UNL     1      -2.852   0.048   0.315  1.00  0.00     0.104 A 
HETATM    2  C3  UNL     1      -2.370  -0.562  -0.827  1.00  0.00     0.072 A 
HETATM    3  C4  UNL     1      -1.019  -0.644  -1.097  1.00  0.00     0.075 A 
HETATM    4  N1  UNL     1      -0.580  -1.248  -2.225  1.00  0.00    -0.241 NA
HETATM    5  C5  UNL     1       0.753  -1.341  -2.513  1.00  0.00     0.236 A 
HETATM    6  N2  UNL     1       1.628  -0.811  -1.635  1.00  0.00    -0.224 NA
HETATM    7  C6  UNL     1       1.201  -0.216  -0.524  1.00  0.00     0.141 A 
HETATM    8  C11 UNL     1      -0.132  -0.098  -0.192  1.00  0.00     0.042 A 
HETATM    9  C12 UNL     1      -0.573   0.519   0.960  1.00  0.00     0.057 A 
HETATM   10  C13 UNL     1      -1.935   0.595   1.219  1.00  0.00     0.107 A 
ENDROOT
BRANCH   7  11
HETATM   11  N3  UNL     1       2.190   0.313   0.339  1.00  0.00    -0.343 N 
HETATM   12  H6  UNL     1       2.152   0.807   1.234  1.00  0.00     0.167 HD
BRANCH  11  13
HETATM   13  C7  UNL     1       3.573   0.200   0.011  1.00  0.00     0.026 A 
HETATM   14  C8  UNL     1       4.102   0.653  -1.107  1.00  0.00     0.002 A 
HETATM   15  C9  UNL     1       5.458   0.204  -0.751  1.00  0.00     0.055 A 
HETATM   16  C10 UNL     1       4.844  -0.308   0.519  1.00  0.00     0.135 A 
HETATM   17 CL1  UNL     1       5.498   0.561   1.926  1.00  0.00    -0.118 Cl
ENDBRANCH  11  13
ENDBRANCH   7  11
BRANCH  10  18
HETATM   18  O2  UNL     1      -2.276   1.235   2.403  1.00  0.00    -0.327 OA
BRANCH  18  19
HETATM   19  P1  UNL     1      -3.969   1.395   2.845  1.00  0.00     0.009 P 
HETATM   20  H12 UNL     1      -4.748   2.095   1.838  1.00  0.00     0.085 HD
HETATM   21  H13 UNL     1      -4.556   0.146   3.261  1.00  0.00     0.085 HD
ENDBRANCH  18  19
ENDBRANCH  10  18
BRANCH   1  22
HETATM   22  O1  UNL     1      -4.196   0.162   0.642  1.00  0.00    -0.353 OA
HETATM   23  C1  UNL     1      -5.116  -0.402  -0.292  1.00  0.00     0.210 C 
ENDBRANCH   1  22
TORSDOF 5
