REMARK  0 active torsions:
REMARK  status: ('A' for Active; 'I' for Inactive)
ROOT
HETATM    1  C1  UNL     1      -4.260  -0.358   0.580  1.00  0.00     0.043 C 
HETATM    2  C2  UNL     1      -3.063   0.173  -0.174  1.00  0.00    -0.082 C 
HETATM    3  C3  UNL     1      -2.851   1.523  -0.300  1.00  0.00     0.002 C 
HETATM    4  C4  UNL     1      -1.675   1.894  -1.064  1.00  0.00     0.198 C 
HETATM    5  O1  UNL     1      -0.764   2.602  -0.247  1.00  0.00    -0.363 OA
HETATM    6  C5  UNL     1       0.412   2.745  -1.019  1.00  0.00     0.338 C 
HETATM    7  O2  UNL     1       1.379   3.365  -0.180  1.00  0.00    -0.363 OA
HETATM    8  C6  UNL     1       1.429   2.426   0.893  1.00  0.00     0.197 C 
HETATM    9  C7  UNL     1       2.572   2.621   1.751  1.00  0.00    -0.003 C 
HETATM   10  C8  UNL     1       3.400   1.547   1.834  1.00  0.00    -0.007 C 
HETATM   11  C9  UNL     1       3.456   0.159   1.262  1.00  0.00     0.178 C 
HETATM   12  N1  UNL     1       4.579  -0.166   0.488  1.00  0.00    -0.264 NA
HETATM   13  C10 UNL     1       4.484  -0.827  -0.602  1.00  0.00     0.194 C 
HETATM   14  N2  UNL     1       3.250  -1.013  -0.950  1.00  0.00    -0.220 NA
HETATM   15  C11 UNL     1       2.577  -1.892  -0.017  1.00  0.00     0.231 C 
HETATM   16  N3  UNL     1       1.318  -1.957  -0.405  1.00  0.00    -0.263 NA
HETATM   17  C12 UNL     1       0.322  -2.755   0.297  1.00  0.00     0.271 C 
HETATM   18  N4  UNL     1      -0.716  -3.273  -0.530  1.00  0.00    -0.381 N 
HETATM   19  C13 UNL     1      -1.679  -2.881  -1.509  1.00  0.00     0.080 C 
HETATM   20  C14 UNL     1      -2.376  -1.734  -1.677  1.00  0.00    -0.006 C 
HETATM   21  C15 UNL     1      -2.028  -0.792  -0.636  1.00  0.00     0.062 C 
HETATM   22  H18 UNL     1      -0.888  -4.325  -0.417  1.00  0.00     0.160 HD
ENDROOT
TORSDOF 0
