REMARK  4 active torsions:
REMARK  status: ('A' for Active; 'I' for Inactive)
REMARK    1  A    between atoms: O1_2  and  C2_3 
REMARK    2  A    between atoms: C6_9  and  N3_10 
REMARK    3  A    between atoms: N3_10  and  C7_11 
REMARK    4  A    between atoms: C14_18  and  O2_19 
ROOT
HETATM    1  C2  UNL     1       2.987   0.264  -0.035  1.00  0.00     0.103 A 
HETATM    2  C3  UNL     1       2.374   1.510   0.036  1.00  0.00     0.072 A 
HETATM    3  C4  UNL     1       1.001   1.638   0.150  1.00  0.00     0.075 A 
HETATM    4  N1  UNL     1       0.438   2.858   0.216  1.00  0.00    -0.241 NA
HETATM    5  C5  UNL     1      -0.914   2.921   0.328  1.00  0.00     0.236 A 
HETATM    6  N2  UNL     1      -1.742   1.840   0.378  1.00  0.00    -0.224 NA
HETATM    7  C6  UNL     1      -1.166   0.631   0.311  1.00  0.00     0.142 A 
HETATM    8  C12 UNL     1       0.202   0.497   0.197  1.00  0.00     0.042 A 
HETATM    9  C13 UNL     1       0.777  -0.734   0.130  1.00  0.00     0.057 A 
HETATM   10  C14 UNL     1       2.137  -0.820   0.017  1.00  0.00     0.102 A 
ENDROOT
BRANCH   7  11
HETATM   11  N3  UNL     1      -2.035  -0.475   0.364  1.00  0.00    -0.339 N 
HETATM   12  H6  UNL     1      -1.857  -1.493   0.333  1.00  0.00     0.167 HD
BRANCH  11  13
HETATM   13  C7  UNL     1      -3.422  -0.304   0.481  1.00  0.00     0.044 C 
HETATM   14  C8  UNL     1      -4.109  -0.484   1.595  1.00  0.00     0.003 C 
HETATM   15  C9  UNL     1      -5.364  -0.831   1.357  1.00  0.00     0.014 C 
HETATM   16  C10 UNL     1      -5.631  -0.232   0.031  1.00  0.00     0.003 C 
HETATM   17  C11 UNL     1      -4.444   0.092  -0.511  1.00  0.00     0.030 C 
ENDBRANCH  11  13
ENDBRANCH   7  11
BRANCH  10  18
HETATM   18  O2  UNL     1       2.691  -2.092  -0.049  1.00  0.00    -0.353 OA
HETATM   19  C15 UNL     1       1.924  -3.270  -0.006  1.00  0.00     0.210 C 
ENDBRANCH  10  18
BRANCH   1  20
HETATM   20  O1  UNL     1       4.348   0.047  -0.150  1.00  0.00    -0.353 OA
HETATM   21  C1  UNL     1       5.223   1.150  -0.203  1.00  0.00     0.210 C 
ENDBRANCH   1  20
TORSDOF 4
