REMARK  0 active torsions:
REMARK  status: ('A' for Active; 'I' for Inactive)
ROOT
HETATM    1  C1  UNL     1      -3.789   0.880   1.715  1.00  0.00     0.048 C 
HETATM    2  C2  UNL     1      -2.382   0.872   1.243  1.00  0.00    -0.033 C 
HETATM    3  C3  UNL     1      -1.392   0.185   1.709  1.00  0.00     0.037 C 
HETATM    4  C4  UNL     1      -0.553  -0.710   2.450  1.00  0.00     0.028 C 
HETATM    5  C5  UNL     1       0.560  -1.298   2.783  1.00  0.00     0.002 C 
HETATM    6  C6  UNL     1       1.848  -1.017   2.152  1.00  0.00     0.204 C 
HETATM    7  O1  UNL     1       2.206  -2.284   1.503  1.00  0.00    -0.332 OA
HETATM    8  C7  UNL     1       1.884  -2.240   0.072  1.00  0.00     0.168 C 
HETATM    9  N1  UNL     1       3.103  -1.728   0.095  1.00  0.00    -0.249 NA
HETATM   10  C8  UNL     1       3.669  -1.331  -1.161  1.00  0.00     0.269 C 
HETATM   11  N2  UNL     1       4.600  -0.333  -1.230  1.00  0.00    -0.384 N 
HETATM   12  C9  UNL     1       4.544   0.897  -0.613  1.00  0.00     0.287 C 
HETATM   13  O2  UNL     1       3.590   1.861  -0.761  1.00  0.00    -0.362 OA
HETATM   14  C10 UNL     1       2.226   1.864  -0.443  1.00  0.00     0.066 A 
HETATM   15  C11 UNL     1       1.471   1.137  -1.450  1.00  0.00     0.059 A 
HETATM   16  C12 UNL     1       0.094   0.749  -1.733  1.00  0.00     0.075 A 
HETATM   17  C13 UNL     1       0.872   1.386  -0.883  1.00  0.00     0.059 A 
HETATM   18  C14 UNL     1       1.522   2.050   0.040  1.00  0.00     0.095 A 
HETATM   19  C15 UNL     1       2.026   2.676   0.938  1.00  0.00     0.052 A 
HETATM   20  C16 UNL     1       0.428   2.423   1.152  1.00  0.00     0.164 C 
HETATM   21  O3  UNL     1      -0.254   3.514   0.947  1.00  0.00    -0.176 OA
HETATM   22  N3  UNL     1      -0.346   1.175   1.488  1.00  0.00    -0.337 N 
HETATM   23  N4  UNL     1      -1.138   0.662  -0.908  1.00  0.00    -0.335 N 
HETATM   24  C17 UNL     1      -0.967  -0.775  -1.088  1.00  0.00     0.177 C 
HETATM   25  N5  UNL     1      -0.279  -1.764  -1.082  1.00  0.00    -0.425 NA
HETATM   26  C18 UNL     1       0.801  -2.566  -0.960  1.00  0.00     0.305 C 
HETATM   27  C19 UNL     1      -2.319  -1.180  -1.546  1.00  0.00     0.363 C 
HETATM   28  N6  UNL     1      -3.356  -0.622  -0.709  1.00  0.00     0.094 N 
HETATM   29  C20 UNL     1      -4.607  -1.254  -1.135  1.00  0.00     0.310 C 
HETATM   30  C21 UNL     1      -3.450   0.807  -0.912  1.00  0.00     0.302 C 
HETATM   31  C22 UNL     1      -2.185   1.379  -0.160  1.00  0.00     0.147 C 
HETATM   32  H10 UNL     1       5.605  -0.645  -1.342  1.00  0.00     0.157 HD
HETATM   33  H16 UNL     1       0.635   1.242   1.700  1.00  0.00     0.168 HD
ENDROOT
TORSDOF 0
