REMARK  4 active torsions:
REMARK  status: ('A' for Active; 'I' for Inactive)
REMARK    1  A    between atoms: O1_2  and  C2_3 
REMARK    2  A    between atoms: C6_9  and  N3_10 
REMARK    3  A    between atoms: N3_10  and  C7_11 
REMARK    4  A    between atoms: C15_19  and  O2_20 
ROOT
HETATM    1  C2  UNL     1       3.735   0.041  -0.570  1.00  0.00     0.103 A 
HETATM    2  C3  UNL     1       2.984  -0.313  -1.673  1.00  0.00     0.072 A 
HETATM    3  C4  UNL     1       1.614  -0.416  -1.619  1.00  0.00     0.075 A 
HETATM    4  N1  UNL     1       0.868  -0.764  -2.704  1.00  0.00    -0.241 NA
HETATM    5  C5  UNL     1      -0.485  -0.861  -2.631  1.00  0.00     0.236 A 
HETATM    6  N2  UNL     1      -1.089  -0.599  -1.434  1.00  0.00    -0.224 NA
HETATM    7  C6  UNL     1      -0.356  -0.254  -0.360  1.00  0.00     0.142 A 
HETATM    8  C13 UNL     1       1.016  -0.148  -0.403  1.00  0.00     0.042 A 
HETATM    9  C14 UNL     1       1.734   0.207   0.717  1.00  0.00     0.057 A 
HETATM   10  C15 UNL     1       3.108   0.308   0.651  1.00  0.00     0.102 A 
ENDROOT
BRANCH   7  11
HETATM   11  N3  UNL     1      -1.099  -0.008   0.822  1.00  0.00    -0.340 N 
HETATM   12  H6  UNL     1      -0.801   0.269   1.780  1.00  0.00     0.167 HD
BRANCH  11  13
HETATM   13  C7  UNL     1      -2.515  -0.131   0.816  1.00  0.00     0.030 A 
HETATM   14  C8  UNL     1      -3.289  -0.839   1.656  1.00  0.00     0.007 A 
HETATM   15  C9  UNL     1      -4.727  -0.740   1.353  1.00  0.00     0.063 A 
HETATM   16  C10 UNL     1      -4.710   0.167   0.162  1.00  0.00    -0.078 A 
HETATM   17  C11 UNL     1      -5.897   0.645  -0.610  1.00  0.00     0.044 C 
HETATM   18  C12 UNL     1      -3.465   0.489  -0.114  1.00  0.00     0.032 A 
ENDBRANCH  11  13
ENDBRANCH   7  11
BRANCH  10  19
HETATM   19  O2  UNL     1       3.856   0.664   1.763  1.00  0.00    -0.353 OA
HETATM   20  C16 UNL     1       3.165   0.919   2.963  1.00  0.00     0.210 C 
ENDBRANCH  10  19
BRANCH   1  21
HETATM   21  O1  UNL     1       5.120   0.148  -0.617  1.00  0.00    -0.353 OA
HETATM   22  C1  UNL     1       5.773  -0.118  -1.843  1.00  0.00     0.210 C 
ENDBRANCH   1  21
TORSDOF 4
