REMARK  1 active torsions:
REMARK  status: ('A' for Active; 'I' for Inactive)
REMARK    1  A    between atoms: C3_3  and  N1_4 
ROOT
HETATM    1  C1  UNL     1      -0.394   2.059   0.677  1.00  0.00     0.083 C 
HETATM    2  C2  UNL     1      -1.094   1.022   1.088  1.00  0.00     0.029 C 
HETATM    3  C3  UNL     1      -1.591  -0.296   0.712  1.00  0.00     0.270 C 
HETATM    4  C8  UNL     1      -0.658  -0.986  -0.255  1.00  0.00     0.015 C 
HETATM    5  C9  UNL     1       0.479  -1.537   0.101  1.00  0.00     0.031 C 
HETATM    6  C10 UNL     1       1.725  -2.248  -0.076  1.00  0.00     0.071 A 
HETATM    7  N2  UNL     1       1.780  -3.591  -0.060  1.00  0.00    -0.241 NA
HETATM    8  C11 UNL     1       2.965  -4.203  -0.229  1.00  0.00     0.234 A 
HETATM    9  N3  UNL     1       4.156  -3.559  -0.421  1.00  0.00    -0.241 NA
HETATM   10  C12 UNL     1       4.134  -2.190  -0.442  1.00  0.00     0.072 A 
HETATM   11  C13 UNL     1       2.913  -1.593  -0.268  1.00  0.00     0.035 A 
HETATM   12  C14 UNL     1       3.231  -0.195  -0.343  1.00  0.00     0.015 A 
HETATM   13  C15 UNL     1       3.141   1.085  -0.356  1.00  0.00     0.064 A 
HETATM   14  C16 UNL     1       4.582   1.378  -0.576  1.00  0.00     0.105 A 
HETATM   15  C17 UNL     1       4.665  -0.083  -0.562  1.00  0.00    -0.036 A 
HETATM   16  C18 UNL     1       5.246  -1.268  -0.628  1.00  0.00     0.041 A 
HETATM   17  O2  UNL     1       1.992   1.790  -0.201  1.00  0.00    -0.335 OA
HETATM   18  C19 UNL     1       1.760   2.911   0.627  1.00  0.00     0.297 C 
HETATM   19  N4  UNL     1       0.331   3.236   0.371  1.00  0.00    -0.378 N 
HETATM   20  H20 UNL     1      -0.231   4.053   0.046  1.00  0.00     0.161 HD
ENDROOT
BRANCH   3  21
HETATM   21  N1  UNL     1      -2.933  -0.360   0.215  1.00  0.00     0.104 N 
HETATM   22  C4  UNL     1      -3.208   0.411  -0.950  1.00  0.00     0.299 C 
HETATM   23  C5  UNL     1      -4.635   0.049  -1.379  1.00  0.00     0.198 C 
HETATM   24  O1  UNL     1      -5.245  -0.826  -0.487  1.00  0.00    -0.388 OA
HETATM   25  C6  UNL     1      -5.296  -0.236   0.777  1.00  0.00     0.198 C 
HETATM   26  C7  UNL     1      -3.872  -0.048   1.251  1.00  0.00     0.299 C 
ENDBRANCH   3  21
TORSDOF 1
