REMARK  4 active torsions:
REMARK  status: ('A' for Active; 'I' for Inactive)
REMARK    1  A    between atoms: O1_2  and  C2_3 
REMARK    2  A    between atoms: N1_7  and  C6_8 
REMARK    3  A    between atoms: C7_9  and  C8_10 
REMARK    4  A    between atoms: C9_11  and  N2_12 
ROOT
HETATM    1  C2  UNL     1      -4.670   0.562   0.632  1.00  0.00     0.068 C 
HETATM    2  C3  UNL     1      -3.607   0.290   1.415  1.00  0.00     0.038 C 
HETATM    3  C4  UNL     1      -2.228  -0.194   1.476  1.00  0.00     0.022 C 
HETATM    4  C5  UNL     1      -1.357  -0.662   0.561  1.00  0.00     0.118 C 
HETATM    5  N1  UNL     1      -1.178  -0.965  -0.839  1.00  0.00    -0.257 N 
HETATM    6  N3  UNL     1      -1.777  -1.865  -1.774  1.00  0.00    -0.185 NA
HETATM    7  C14 UNL     1      -2.795  -1.422  -2.449  1.00  0.00     0.116 C 
HETATM    8  C15 UNL     1      -3.029  -0.064  -2.023  1.00  0.00     0.075 C 
HETATM    9  C16 UNL     1      -4.473   0.281  -2.037  1.00  0.00    -0.019 C 
HETATM   10  C17 UNL     1      -4.923   0.506  -0.790  1.00  0.00     0.033 C 
ENDROOT
BRANCH   5  11
HETATM   11  C6  UNL     1      -0.219  -0.327  -1.657  1.00  0.00     0.118 C 
HETATM   12  C7  UNL     1       0.980  -0.165  -1.173  1.00  0.00     0.021 C 
BRANCH  12  13
HETATM   13  C8  UNL     1       2.295   0.361  -1.472  1.00  0.00     0.018 C 
HETATM   14  C9  UNL     1       3.513   0.551  -1.020  1.00  0.00     0.085 C 
BRANCH  14  15
HETATM   15  N2  UNL     1       4.215   0.276   0.174  1.00  0.00    -0.386 N 
HETATM   16  C10 UNL     1       4.450  -0.968   0.893  1.00  0.00     0.148 C 
HETATM   17  C11 UNL     1       5.911  -1.099   1.193  1.00  0.00     0.187 C 
HETATM   18  O2  UNL     1       6.723  -0.173   0.584  1.00  0.00    -0.388 OA
HETATM   19  C12 UNL     1       6.362   1.135   0.838  1.00  0.00     0.187 C 
HETATM   20  C13 UNL     1       4.876   1.329   0.927  1.00  0.00     0.148 C 
ENDBRANCH  14  15
ENDBRANCH  12  13
ENDBRANCH   5  11
BRANCH   1  21
HETATM   21  O1  UNL     1      -5.831   1.042   1.294  1.00  0.00    -0.356 OA
HETATM   22  C1  UNL     1      -6.868   0.147   1.579  1.00  0.00     0.210 C 
ENDBRANCH   1  21
TORSDOF 4
