REMARK  4 active torsions:
REMARK  status: ('A' for Active; 'I' for Inactive)
REMARK    1  A    between atoms: C2_2  and  O1_3 
REMARK    2  A    between atoms: C2_2  and  C4_5 
REMARK    3  A    between atoms: C10_13  and  N3_14 
REMARK    4  A    between atoms: N3_14  and  C11_15 
ROOT
HETATM    1  C4  UNL     1      -1.631  -0.399   1.048  1.00  0.00     0.082 A 
HETATM    2  C5  UNL     1      -2.240  -1.535   1.603  1.00  0.00     0.016 A 
HETATM    3  C6  UNL     1      -2.153  -1.934   0.364  1.00  0.00     0.005 A 
HETATM    4  C7  UNL     1      -2.065  -2.274  -0.751  1.00  0.00    -0.122 C 
HETATM    5  C8  UNL     1      -1.952  -2.641  -2.022  1.00  0.00     0.315 C 
HETATM    6  N1  UNL     1      -0.662  -2.528  -2.486  1.00  0.00    -0.288 NA
HETATM    7  C9  UNL     1      -0.226  -1.317  -3.008  1.00  0.00     0.171 C 
HETATM    8  N2  UNL     1       0.398  -1.191  -1.852  1.00  0.00    -0.233 NA
HETATM    9  C10 UNL     1       0.147  -0.384  -0.827  1.00  0.00     0.126 C 
HETATM   10  C17 UNL     1      -0.513  -0.034   0.359  1.00  0.00     0.049 C 
ENDROOT
BRANCH   9  11
HETATM   11  N3  UNL     1       1.111   0.607  -1.231  1.00  0.00    -0.341 N 
HETATM   12  H9  UNL     1       0.988   1.365  -1.906  1.00  0.00     0.167 HD
BRANCH  11  13
HETATM   13  C11 UNL     1       2.398   0.490  -0.590  1.00  0.00     0.035 A 
HETATM   14  C12 UNL     1       3.413   1.399  -0.868  1.00  0.00     0.029 A 
HETATM   15  C13 UNL     1       4.633   1.280  -0.240  1.00  0.00     0.004 A 
HETATM   16  C14 UNL     1       4.912   0.287   0.670  1.00  0.00     0.024 A 
HETATM   17  C15 UNL     1       3.908  -0.616   0.948  1.00  0.00     0.036 A 
HETATM   18 CL1  UNL     1       4.152  -1.932   2.099  1.00  0.00    -0.084 Cl
HETATM   19  C16 UNL     1       2.674  -0.524   0.336  1.00  0.00     0.053 A 
ENDBRANCH  11  13
ENDBRANCH   9  11
BRANCH   1  20
HETATM   20  C2  UNL     1      -2.662   0.552   1.434  1.00  0.00     0.058 C 
HETATM   21  C1  UNL     1      -3.673   0.050   2.090  1.00  0.00     0.048 C 
BRANCH  20  22
HETATM   22  O1  UNL     1      -3.098   1.851   1.423  1.00  0.00    -0.359 OA
HETATM   23  C3  UNL     1      -2.857   2.648   0.289  1.00  0.00     0.209 C 
ENDBRANCH  20  22
ENDBRANCH   1  20
TORSDOF 4
