REMARK  6 active torsions:
REMARK  status: ('A' for Active; 'I' for Inactive)
REMARK    1  A    between atoms: C3_3  and  C4_4 
REMARK    2  A    between atoms: C5_6  and  B1_7 
REMARK    3  A    between atoms: B1_7  and  N1_8 
REMARK    4  A    between atoms: N1_8  and  C6_9 
REMARK    5  A    between atoms: C10_15  and  O1_16 
REMARK    6  A    between atoms: C12_18  and  O2_19 
ROOT
HETATM    1  C6  UNL     1      -0.396   1.694   1.364  1.00  0.00     0.142 A 
HETATM    2  N2  UNL     1      -0.267   2.973   1.757  1.00  0.00    -0.223 NA
HETATM    3  C7  UNL     1      -1.315   3.821   1.716  1.00  0.00     0.236 A 
HETATM    4  N3  UNL     1      -2.551   3.438   1.280  1.00  0.00    -0.241 NA
HETATM    5  C8  UNL     1      -2.680   2.142   0.883  1.00  0.00     0.075 A 
HETATM    6  C9  UNL     1      -3.871   1.648   0.427  1.00  0.00     0.072 A 
HETATM    7  C10 UNL     1      -4.061   0.348   0.011  1.00  0.00     0.103 A 
HETATM    8  C12 UNL     1      -2.997  -0.537   0.046  1.00  0.00     0.102 A 
HETATM    9  C14 UNL     1      -1.807  -0.026   0.506  1.00  0.00     0.057 A 
HETATM   10  C15 UNL     1      -1.600   1.254   0.921  1.00  0.00     0.042 A 
ENDROOT
BRANCH   1  11
HETATM   11  N1  UNL     1       0.715   0.784   1.404  1.00  0.00    -0.340 NA
BRANCH  11  12
HETATM   12  B1  UNL     1       1.714   1.096  -0.275  1.00  0.00     0.338 B 
BRANCH  12  13
HETATM   13  C5  UNL     1       3.441   0.012  -0.714  1.00  0.00    -0.038 C 
HETATM   14  C4  UNL     1       4.512   0.248   0.075  1.00  0.00     0.004 C 
HETATM   15 CL1  UNL     1       4.285   1.421   1.339  1.00  0.00    -0.090 Cl
BRANCH  14  16
HETATM   16  C3  UNL     1       5.220  -0.717  -0.713  1.00  0.00     0.043 C 
HETATM   17  C2  UNL     1       6.241  -1.426  -1.063  1.00  0.00    -0.004 C 
HETATM   18  C1  UNL     1       7.613  -1.940  -1.031  1.00  0.00     0.011 C 
ENDBRANCH  14  16
ENDBRANCH  12  13
ENDBRANCH  11  12
ENDBRANCH   1  11
BRANCH   8  19
HETATM   19  O2  UNL     1      -3.283  -1.813  -0.390  1.00  0.00    -0.353 OA
HETATM   20  C13 UNL     1      -2.326  -2.841  -0.426  1.00  0.00     0.210 C 
ENDBRANCH   8  19
BRANCH   7  21
HETATM   21  O1  UNL     1      -5.302  -0.028  -0.425  1.00  0.00    -0.353 OA
HETATM   22  C11 UNL     1      -6.408   0.826  -0.478  1.00  0.00     0.210 C 
ENDBRANCH   7  21
TORSDOF 6
