REMARK  7 active torsions:
REMARK  status: ('A' for Active; 'I' for Inactive)
REMARK    1  A    between atoms: O1_2  and  C2_3 
REMARK    2  A    between atoms: C2_3  and  C3_4 
REMARK    3  A    between atoms: C3_4  and  O2_5 
REMARK    4  A    between atoms: C3_4  and  C5_7 
REMARK    5  A    between atoms: C7_11  and  N3_12 
REMARK    6  A    between atoms: N3_12  and  C8_13 
REMARK    7  A    between atoms: C8_13  and  C9_14 
ROOT
HETATM    1  C5  UNL     1       1.799  -0.721   0.236  1.00  0.00     0.092 A 
HETATM    2  N1  UNL     1       1.301  -1.247   1.393  1.00  0.00    -0.242 NA
HETATM    3  C6  UNL     1      -0.018  -1.543   1.389  1.00  0.00     0.235 A 
HETATM    4  N2  UNL     1      -0.818  -1.344   0.326  1.00  0.00    -0.223 NA
HETATM    5  C7  UNL     1      -0.367  -0.828  -0.832  1.00  0.00     0.149 A 
HETATM    6  C14 UNL     1       0.991  -0.498  -0.895  1.00  0.00     0.107 A 
HETATM    7 CL1  UNL     1       1.676   0.179  -2.357  1.00  0.00    -0.078 Cl
ENDROOT
BRANCH   5   8
HETATM    8  N3  UNL     1      -1.227  -0.623  -1.947  1.00  0.00    -0.369 N 
HETATM    9  H11 UNL     1      -0.813  -0.219  -2.815  1.00  0.00     0.161 HD
BRANCH   8  10
HETATM   10  C8  UNL     1      -2.628  -0.989  -1.808  1.00  0.00     0.157 C 
BRANCH  10  11
HETATM   11  C9  UNL     1      -3.257  -0.229  -0.723  1.00  0.00    -0.044 A 
HETATM   12  C10 UNL     1      -3.804  -0.809   0.333  1.00  0.00     0.092 A 
HETATM   13  N4  UNL     1      -4.367   0.084   1.287  1.00  0.00    -0.375 N 
HETATM   14  C11 UNL     1      -4.363   1.500   1.153  1.00  0.00     0.084 A 
HETATM   15  H15 UNL     1      -4.809  -0.318   2.134  1.00  0.00     0.164 HD
HETATM   16  C12 UNL     1      -3.789   1.968   0.057  1.00  0.00    -0.005 A 
HETATM   17  C13 UNL     1      -3.148   1.215  -1.051  1.00  0.00     0.065 A 
ENDBRANCH  10  11
ENDBRANCH   8  10
ENDBRANCH   5   8
BRANCH   1  18
HETATM   18  C3  UNL     1       3.220  -0.395   0.217  1.00  0.00     0.198 C 
BRANCH  18  19
HETATM   19  C2  UNL     1       3.732   0.692   1.063  1.00  0.00     0.205 C 
BRANCH  19  20
HETATM   20  O1  UNL     1       3.089   1.871   1.062  1.00  0.00    -0.393 OA
HETATM   21  C1  UNL     1       1.835   2.001   1.535  1.00  0.00     0.201 C 
ENDBRANCH  19  20
ENDBRANCH  18  19
BRANCH  18  22
HETATM   22  O2  UNL     1       4.024  -1.553   0.389  1.00  0.00    -0.382 OA
HETATM   23  C4  UNL     1       4.704  -1.721  -0.811  1.00  0.00     0.202 C 
ENDBRANCH  18  22
ENDBRANCH   1  18
TORSDOF 7
