REMARK  7 active torsions:
REMARK  status: ('A' for Active; 'I' for Inactive)
REMARK    1  A    between atoms: O1_2  and  C2_3 
REMARK    2  A    between atoms: C6_9  and  N3_10 
REMARK    3  A    between atoms: N3_10  and  C7_11 
REMARK    4  A    between atoms: C7_11  and  C8_12 
REMARK    5  A    between atoms: C8_12  and  C9_13 
REMARK    6  A    between atoms: C10_14  and  C11_15 
REMARK    7  A    between atoms: C19_24  and  O3_25 
ROOT
HETATM    1  C2  UNL     1      -5.704   0.235   0.552  1.00  0.00     0.103 A 
HETATM    2  C3  UNL     1      -5.503   1.233  -0.381  1.00  0.00     0.072 A 
HETATM    3  C4  UNL     1      -4.240   1.444  -0.926  1.00  0.00     0.075 A 
HETATM    4  N1  UNL     1      -3.954   2.409  -1.849  1.00  0.00    -0.241 NA
HETATM    5  C5  UNL     1      -2.679   2.522  -2.306  1.00  0.00     0.236 A 
HETATM    6  N2  UNL     1      -1.671   1.713  -1.885  1.00  0.00    -0.224 NA
HETATM    7  C6  UNL     1      -1.954   0.761  -0.974  1.00  0.00     0.141 A 
HETATM    8  C17 UNL     1      -3.234   0.622  -0.490  1.00  0.00     0.042 A 
HETATM    9  C18 UNL     1      -3.421  -0.375   0.439  1.00  0.00     0.057 A 
HETATM   10  C19 UNL     1      -4.660  -0.598   0.988  1.00  0.00     0.102 A 
ENDROOT
BRANCH   7  11
HETATM   11  N3  UNL     1      -0.783  -0.017  -0.648  1.00  0.00    -0.353 N 
HETATM   12  H6  UNL     1      -0.618   0.357   0.315  1.00  0.00     0.166 HD
BRANCH  11  13
HETATM   13  C7  UNL     1      -0.283  -0.959  -1.632  1.00  0.00     0.072 C 
BRANCH  13  14
HETATM   14  C8  UNL     1       1.000  -1.099  -1.536  1.00  0.00     0.059 C 
BRANCH  14  15
HETATM   15  C9  UNL     1       2.375  -1.481  -1.702  1.00  0.00    -0.016 C 
HETATM   16  C10 UNL     1       3.082  -0.811  -0.770  1.00  0.00    -0.003 C 
BRANCH  16  17
HETATM   17  C11 UNL     1       4.491  -0.773  -0.436  1.00  0.00     0.003 C 
HETATM   18  C12 UNL     1       5.369  -0.236   0.391  1.00  0.00    -0.076 C 
HETATM   19  C13 UNL     1       4.903   0.708   1.440  1.00  0.00     0.060 C 
HETATM   20  C16 UNL     1       6.791  -0.611   0.212  1.00  0.00     0.060 C 
HETATM   21  C14 UNL     1       6.144   1.018   2.271  1.00  0.00     0.171 C 
HETATM   22  O2  UNL     1       7.189   1.431   1.483  1.00  0.00    -0.391 OA
HETATM   23  C15 UNL     1       7.656   0.549   0.555  1.00  0.00     0.171 C 
ENDBRANCH  16  17
ENDBRANCH  14  15
ENDBRANCH  13  14
ENDBRANCH  11  13
ENDBRANCH   7  11
BRANCH  10  24
HETATM   24  O3  UNL     1      -4.992  -1.548   1.927  1.00  0.00    -0.353 OA
HETATM   25  C20 UNL     1      -4.069  -2.428   2.496  1.00  0.00     0.210 C 
ENDBRANCH  10  24
BRANCH   1  26
HETATM   26  O1  UNL     1      -6.944   0.039   1.079  1.00  0.00    -0.353 OA
HETATM   27  C1  UNL     1      -8.102   0.800   0.768  1.00  0.00     0.210 C 
ENDBRANCH   1  26
TORSDOF 7
