REMARK  5 active torsions:
REMARK  status: ('A' for Active; 'I' for Inactive)
REMARK    1  A    between atoms: O1_2  and  C2_3 
REMARK    2  A    between atoms: C7_8  and  O2_9 
REMARK    3  A    between atoms: C9_11  and  N1_12 
REMARK    4  A    between atoms: N1_12  and  C10_13 
REMARK    5  A    between atoms: C13_16  and  N2_17 
ROOT
HETATM    1  C2  UNL     1       5.301   0.424  -0.263  1.00  0.00     0.103 A 
HETATM    2  C3  UNL     1       4.894   0.515   1.074  1.00  0.00     0.071 A 
HETATM    3  C4  UNL     1       3.614   0.099   1.468  1.00  0.00     0.067 A 
HETATM    4  C5  UNL     1       2.796  -0.391   0.503  1.00  0.00     0.029 A 
HETATM    5  C6  UNL     1       3.195  -0.483  -0.820  1.00  0.00     0.056 A 
HETATM    6  C7  UNL     1       4.443  -0.080  -1.216  1.00  0.00     0.102 A 
HETATM    7  C9  UNL     1       1.591  -0.780   0.888  1.00  0.00     0.084 A 
HETATM    8  S1  UNL     1       1.002  -0.695   2.570  1.00  0.00    -0.089 SA
HETATM    9  C20 UNL     1       2.352   0.005   3.552  1.00  0.00     0.230 A 
HETATM   10  N3  UNL     1       3.458   0.270   2.706  1.00  0.00    -0.278 NA
ENDROOT
BRANCH   7  11
HETATM   11  N1  UNL     1       0.753  -1.287  -0.132  1.00  0.00    -0.350 N 
HETATM   12  H9  UNL     1       0.835  -1.850  -1.002  1.00  0.00     0.166 HD
BRANCH  11  13
HETATM   13  C10 UNL     1      -0.626  -0.964   0.023  1.00  0.00     0.033 A 
HETATM   14  C11 UNL     1      -1.037   0.247  -0.489  1.00  0.00     0.031 A 
HETATM   15  C12 UNL     1      -2.346   0.645  -0.391  1.00  0.00     0.031 A 
HETATM   16  C13 UNL     1      -3.328  -0.107   0.208  1.00  0.00     0.030 A 
HETATM   17  C18 UNL     1      -2.892  -1.310   0.710  1.00  0.00     0.031 A 
HETATM   18  C19 UNL     1      -1.586  -1.748   0.633  1.00  0.00     0.031 A 
BRANCH  16  19
HETATM   19  N2  UNL     1      -4.687   0.269   0.331  1.00  0.00    -0.377 N 
HETATM   20  C14 UNL     1      -5.748  -0.514   0.930  1.00  0.00     0.149 C 
HETATM   21  C15 UNL     1      -6.701  -0.833  -0.232  1.00  0.00     0.187 C 
HETATM   22  O3  UNL     1      -7.381   0.346  -0.468  1.00  0.00    -0.388 OA
HETATM   23  C16 UNL     1      -6.575   1.394  -0.815  1.00  0.00     0.187 C 
HETATM   24  C17 UNL     1      -5.266   1.494  -0.113  1.00  0.00     0.149 C 
ENDBRANCH  16  19
ENDBRANCH  11  13
ENDBRANCH   7  11
BRANCH   6  25
HETATM   25  O2  UNL     1       4.838  -0.175  -2.543  1.00  0.00    -0.353 OA
HETATM   26  C8  UNL     1       4.027  -0.674  -3.562  1.00  0.00     0.210 C 
ENDBRANCH   6  25
BRANCH   1  27
HETATM   27  O1  UNL     1       6.554   0.820  -0.708  1.00  0.00    -0.353 OA
HETATM   28  C1  UNL     1       7.466   1.340   0.212  1.00  0.00     0.210 C 
ENDBRANCH   1  27
TORSDOF 5
