REMARK  7 active torsions:
REMARK  status: ('A' for Active; 'I' for Inactive)
REMARK    1  A    between atoms: C3_3  and  N1_4 
REMARK    2  A    between atoms: N1_4  and  C4_5 
REMARK    3  A    between atoms: C7_8  and  O1_9 
REMARK    4  A    between atoms: C9_11  and  O2_12 
REMARK    5  A    between atoms: N2_16  and  B1_17 
REMARK    6  A    between atoms: B1_17  and  C13_18 
REMARK    7  A    between atoms: C16_22  and  N4_23 
ROOT
HETATM    1  C4  UNL     1      -0.647  -0.353   0.639  1.00  0.00     0.102 C 
HETATM    2  C5  UNL     1      -1.919  -0.399   0.358  1.00  0.00     0.009 A 
HETATM    3  C6  UNL     1      -2.516  -1.579  -0.288  1.00  0.00     0.054 A 
HETATM    4  C7  UNL     1      -3.821  -1.650  -0.586  1.00  0.00     0.102 A 
HETATM    5  C9  UNL     1      -4.664  -0.525  -0.259  1.00  0.00     0.103 A 
HETATM    6  C11 UNL     1      -4.213   0.566   0.318  1.00  0.00     0.070 A 
HETATM    7  C12 UNL     1      -2.809   0.723   0.674  1.00  0.00     0.048 A 
HETATM    8  N2  UNL     1      -2.254   1.741   1.240  1.00  0.00    -0.352 NA
ENDROOT
BRANCH   1   9
HETATM    9  N1  UNL     1       0.186  -1.458   0.318  1.00  0.00    -0.364 N 
HETATM   10  H3  UNL     1      -0.002  -2.479   0.438  1.00  0.00     0.165 HD
BRANCH   9  11
HETATM   11  C3  UNL     1       1.470  -1.236  -0.247  1.00  0.00     0.043 A 
HETATM   12  C2  UNL     1       2.553  -0.514   0.411  1.00  0.00     0.008 A 
HETATM   13  C1  UNL     1       2.542   0.041   1.597  1.00  0.00     0.028 C 
HETATM   14  C16 UNL     1       3.697  -0.493  -0.468  1.00  0.00     0.042 A 
HETATM   15  C15 UNL     1       3.353  -1.143  -1.570  1.00  0.00     0.032 A 
HETATM   16  C14 UNL     1       1.978  -1.589  -1.407  1.00  0.00     0.033 A 
BRANCH  14  17
HETATM   17  N4  UNL     1       4.975   0.116  -0.208  1.00  0.00    -0.376 N 
HETATM   18  C17 UNL     1       6.045  -0.783   0.146  1.00  0.00     0.149 C 
HETATM   19  C18 UNL     1       7.417  -0.223  -0.023  1.00  0.00     0.187 C 
HETATM   20  O3  UNL     1       7.478   1.164   0.031  1.00  0.00    -0.388 OA
HETATM   21  C19 UNL     1       6.580   1.768  -0.833  1.00  0.00     0.187 C 
HETATM   22  C20 UNL     1       5.178   1.564  -0.298  1.00  0.00     0.149 C 
ENDBRANCH  14  17
ENDBRANCH   9  11
ENDBRANCH   1   9
BRANCH   4  23
HETATM   23  O1  UNL     1      -4.183  -2.841  -1.189  1.00  0.00    -0.353 OA
HETATM   24  C8  UNL     1      -5.467  -3.053  -1.746  1.00  0.00     0.210 C 
ENDBRANCH   4  23
BRANCH   8  25
HETATM   25  B1  UNL     1      -3.004   3.001   1.646  1.00  0.00     0.340 B 
HETATM   26  H13 UNL     1      -2.483   3.651   2.502  1.00  0.00     0.008 HD
BRANCH  25  27
HETATM   27  C13 UNL     1      -3.897   3.770   0.618  1.00  0.00     0.051 C 
HETATM   28  N3  UNL     1      -4.775   4.532   1.168  1.00  0.00    -0.326 NA
HETATM   29  H15 UNL     1      -4.870   4.618   2.204  1.00  0.00     0.184 HD
ENDBRANCH  25  27
ENDBRANCH   8  25
BRANCH   5  30
HETATM   30  O2  UNL     1      -6.003  -0.654  -0.590  1.00  0.00    -0.353 OA
HETATM   31  C10 UNL     1      -6.917  -0.532   0.507  1.00  0.00     0.210 C 
ENDBRANCH   5  30
TORSDOF 7
