REMARK  4 active torsions:
REMARK  status: ('A' for Active; 'I' for Inactive)
REMARK    1  A    between atoms: C2_2  and  O1_3 
REMARK    2  A    between atoms: O1_3  and  C3_4 
REMARK    3  A    between atoms: C7_10  and  C8_11 
REMARK    4  A    between atoms: C18_23  and  O3_24 
ROOT
HETATM    1  C3  UNL     1       3.330  -0.060  -0.325  1.00  0.00     0.104 A 
HETATM    2  C4  UNL     1       2.834  -0.651  -1.467  1.00  0.00     0.072 A 
HETATM    3  C5  UNL     1       1.480  -0.875  -1.598  1.00  0.00     0.073 A 
HETATM    4  N1  UNL     1       0.939  -1.439  -2.707  1.00  0.00    -0.241 NA
HETATM    5  C6  UNL     1      -0.384  -1.636  -2.822  1.00  0.00     0.234 A 
HETATM    6  N2  UNL     1      -1.240  -1.280  -1.832  1.00  0.00    -0.240 NA
HETATM    7  C7  UNL     1      -0.781  -0.714  -0.696  1.00  0.00     0.083 A 
HETATM    8  C16 UNL     1       0.565  -0.537  -0.633  1.00  0.00     0.025 A 
HETATM    9  C17 UNL     1       1.098   0.052   0.490  1.00  0.00     0.055 A 
HETATM   10  C18 UNL     1       2.437   0.306   0.688  1.00  0.00     0.102 A 
ENDROOT
BRANCH   7  11
HETATM   11  C8  UNL     1      -1.749  -0.367   0.313  1.00  0.00     0.024 C 
HETATM   12  C9  UNL     1      -2.673   0.343  -0.355  1.00  0.00     0.087 C 
HETATM   13  C10 UNL     1      -3.534   1.422   0.311  1.00  0.00     0.338 C 
HETATM   14  O2  UNL     1      -3.054   0.274  -1.707  1.00  0.00    -0.351 OA
HETATM   15  N3  UNL     1      -4.623   0.544   0.741  1.00  0.00     0.100 NA
HETATM   16  C11 UNL     1      -4.387  -0.158   1.926  1.00  0.00     0.300 C 
HETATM   17  C14 UNL     1      -4.978  -0.223  -0.439  1.00  0.00     0.299 C 
HETATM   18  C12 UNL     1      -3.018  -0.375   2.451  1.00  0.00     0.004 C 
HETATM   19  C13 UNL     1      -1.884  -0.700   1.768  1.00  0.00     0.014 C 
HETATM   20  C15 UNL     1      -4.526   0.374  -1.771  1.00  0.00     0.205 C 
ENDBRANCH   7  11
BRANCH  10  21
HETATM   21  O3  UNL     1       3.005   0.894   1.802  1.00  0.00    -0.353 OA
HETATM   22  C19 UNL     1       2.293   1.337   2.933  1.00  0.00     0.210 C 
ENDBRANCH  10  21
BRANCH   1  23
HETATM   23  O1  UNL     1       4.693   0.172  -0.177  1.00  0.00    -0.349 OA
BRANCH  23  24
HETATM   24  C2  UNL     1       5.560  -0.212  -1.225  1.00  0.00     0.171 C 
HETATM   25  C1  UNL     1       6.960   0.163  -0.778  1.00  0.00     0.034 C 
ENDBRANCH  23  24
ENDBRANCH   1  23
TORSDOF 4
