REMARK  4 active torsions:
REMARK  status: ('A' for Active; 'I' for Inactive)
REMARK    1  A    between atoms: O1_2  and  C2_3 
REMARK    2  A    between atoms: C3_4  and  O2_5 
REMARK    3  A    between atoms: C8_12  and  N3_13 
REMARK    4  A    between atoms: N3_13  and  C10_15 
ROOT
HETATM    1  C2  UNL     1       2.821   0.173   0.792  1.00  0.00     0.132 A 
HETATM    2  C3  UNL     1       1.929  -0.668   0.244  1.00  0.00     0.120 A 
HETATM    3  C5  UNL     1       0.957   0.392  -0.039  1.00  0.00     0.078 A 
HETATM    4  C6  UNL     1       1.869   1.260   0.523  1.00  0.00     0.111 A 
HETATM    5  N1  UNL     1       1.592   2.580   0.605  1.00  0.00    -0.238 NA
HETATM    6  C7  UNL     1       0.458   3.121   0.164  1.00  0.00     0.236 A 
HETATM    7  N2  UNL     1      -0.440   2.296  -0.385  1.00  0.00    -0.223 NA
HETATM    8  C8  UNL     1      -0.219   0.959  -0.495  1.00  0.00     0.146 A 
ENDROOT
BRANCH   8   9
HETATM    9  N3  UNL     1      -1.168   0.075  -1.077  1.00  0.00    -0.335 N 
HETATM   10  C9  UNL     1      -0.910  -0.746  -2.245  1.00  0.00     0.158 C 
BRANCH   9  11
HETATM   11  C10 UNL     1      -2.455  -0.011  -0.476  1.00  0.00     0.035 A 
HETATM   12  C11 UNL     1      -3.445  -0.839  -0.964  1.00  0.00     0.029 A 
HETATM   13  C12 UNL     1      -4.702  -0.947  -0.405  1.00  0.00     0.002 A 
HETATM   14  C13 UNL     1      -4.978  -0.179   0.706  1.00  0.00     0.000 A 
HETATM   15  C14 UNL     1      -4.033   0.685   1.265  1.00  0.00     0.002 A 
HETATM   16  C15 UNL     1      -2.796   0.729   0.637  1.00  0.00     0.029 A 
ENDBRANCH   9  11
ENDBRANCH   8   9
BRANCH   2  17
HETATM   17  O2  UNL     1       1.750  -2.006  -0.053  1.00  0.00    -0.352 OA
HETATM   18  C4  UNL     1       2.782  -2.976  -0.057  1.00  0.00     0.210 C 
ENDBRANCH   2  17
BRANCH   1  19
HETATM   19  O1  UNL     1       4.081   0.134   1.372  1.00  0.00    -0.351 OA
HETATM   20  C1  UNL     1       5.086   1.071   1.088  1.00  0.00     0.210 C 
ENDBRANCH   1  19
TORSDOF 4
