REMARK  4 active torsions:
REMARK  status: ('A' for Active; 'I' for Inactive)
REMARK    1  A    between atoms: C2_2  and  O1_3 
REMARK    2  A    between atoms: O1_3  and  C3_4 
REMARK    3  A    between atoms: N3_12  and  C9_13 
REMARK    4  A    between atoms: C16_20  and  O2_21 
ROOT
HETATM    1  C3  UNL     1       1.526   0.136   0.291  1.00  0.00     0.077 C 
HETATM    2  C4  UNL     1       0.566  -0.020  -0.608  1.00  0.00     0.040 C 
HETATM    3  C5  UNL     1      -0.417  -1.035  -0.947  1.00  0.00     0.163 C 
HETATM    4  C6  UNL     1      -0.155  -2.389  -0.474  1.00  0.00     0.062 C 
HETATM    5  N1  UNL     1      -0.973  -3.378  -0.573  1.00  0.00    -0.244 NA
HETATM    6  C7  UNL     1      -2.280  -3.459  -1.127  1.00  0.00     0.229 C 
HETATM    7  N2  UNL     1      -3.175  -2.533  -1.155  1.00  0.00    -0.263 NA
HETATM    8  C8  UNL     1      -3.108  -1.202  -0.653  1.00  0.00     0.275 C 
HETATM    9  N3  UNL     1      -1.786  -0.617  -0.631  1.00  0.00    -0.352 N 
HETATM   10  C14 UNL     1       1.007  -2.966   0.190  1.00  0.00     0.028 C 
HETATM   11  C15 UNL     1       1.845  -2.240   0.949  1.00  0.00     0.013 C 
HETATM   12  C16 UNL     1       1.888  -0.830   1.326  1.00  0.00     0.197 C 
ENDROOT
BRANCH   9  13
HETATM   13  C9  UNL     1      -1.975   0.722  -0.160  1.00  0.00     0.013 A 
HETATM   14  C10 UNL     1      -1.996   1.931  -0.657  1.00  0.00     0.025 A 
HETATM   15  C11 UNL     1      -2.245   2.950   0.356  1.00  0.00    -0.002 A 
HETATM   16  C12 UNL     1      -2.381   2.321   1.519  1.00  0.00    -0.021 A 
HETATM   17  C13 UNL     1      -2.223   0.859   1.304  1.00  0.00     0.084 A 
ENDBRANCH   9  13
BRANCH   1  18
HETATM   18  O1  UNL     1       2.252   1.331   0.240  1.00  0.00    -0.353 OA
BRANCH  18  19
HETATM   19  C2  UNL     1       3.162   1.569  -0.799  1.00  0.00     0.171 C 
HETATM   20  C1  UNL     1       3.871   2.889  -0.719  1.00  0.00     0.034 C 
ENDBRANCH  18  19
ENDBRANCH   1  18
BRANCH  12  21
HETATM   21  O2  UNL     1       1.140  -0.537   2.463  1.00  0.00    -0.385 OA
HETATM   22  H19 UNL     1       1.073  -1.308   3.056  1.00  0.00     0.210 HD
ENDBRANCH  12  21
TORSDOF 4
