REMARK  4 active torsions:
REMARK  status: ('A' for Active; 'I' for Inactive)
REMARK    1  A    between atoms: O1_2  and  C2_3 
REMARK    2  A    between atoms: C2_3  and  C3_4 
REMARK    3  A    between atoms: C17_21  and  C18_22 
REMARK    4  A    between atoms: C18_22  and  O2_23 
ROOT
HETATM    1  C3  UNL     1       1.617   0.205  -0.359  1.00  0.00    -0.025 C 
HETATM    2  C4  UNL     1       0.366   0.500  -0.857  1.00  0.00     0.026 C 
HETATM    3  C5  UNL     1      -0.928   0.138  -0.544  1.00  0.00     0.023 A 
HETATM    4  C6  UNL     1      -1.867   1.039  -0.044  1.00  0.00     0.005 A 
HETATM    5  C7  UNL     1      -1.827   2.406   0.257  1.00  0.00     0.014 A 
HETATM    6  C8  UNL     1      -2.924   3.093   0.755  1.00  0.00     0.001 A 
HETATM    7  C9  UNL     1      -4.079   2.369   0.948  1.00  0.00     0.002 A 
HETATM    8  C10 UNL     1      -4.159   1.007   0.660  1.00  0.00     0.030 A 
HETATM    9  C11 UNL     1      -3.043   0.349   0.163  1.00  0.00     0.046 A 
HETATM   10  N1  UNL     1      -2.799  -0.911  -0.204  1.00  0.00    -0.335 N 
HETATM   11  C12 UNL     1      -3.820  -1.931  -0.122  1.00  0.00     0.158 C 
HETATM   12  C13 UNL     1      -1.541  -1.095  -0.638  1.00  0.00     0.142 A 
HETATM   13  N2  UNL     1      -0.847  -2.147  -1.100  1.00  0.00    -0.223 NA
HETATM   14  C14 UNL     1      -0.999  -3.395  -0.679  1.00  0.00     0.234 C 
HETATM   15  N3  UNL     1      -0.282  -3.229   0.446  1.00  0.00    -0.254 NA
HETATM   16  C15 UNL     1       1.056  -3.321   0.379  1.00  0.00     0.118 C 
HETATM   17  C16 UNL     1       1.531  -2.278  -0.422  1.00  0.00     0.029 C 
HETATM   18  C17 UNL     1       2.194  -1.053  -0.291  1.00  0.00    -0.025 C 
ENDROOT
BRANCH   1  19
HETATM   19  C2  UNL     1       2.409   1.329   0.141  1.00  0.00     0.206 C 
BRANCH  19  20
HETATM   20  O1  UNL     1       3.419   1.722  -0.728  1.00  0.00    -0.391 OA
HETATM   21  C1  UNL     1       4.077   2.802  -0.107  1.00  0.00     0.201 C 
ENDBRANCH  19  20
ENDBRANCH   1  19
BRANCH  18  22
HETATM   22  C18 UNL     1       3.639  -1.169  -0.060  1.00  0.00     0.203 C 
BRANCH  22  23
HETATM   23  O2  UNL     1       4.002  -0.935   1.283  1.00  0.00    -0.396 OA
HETATM   24  H19 UNL     1       3.233  -1.208   1.837  1.00  0.00     0.209 HD
ENDBRANCH  22  23
ENDBRANCH  18  22
TORSDOF 4
