REMARK  8 active torsions:
REMARK  status: ('A' for Active; 'I' for Inactive)
REMARK    1  A    between atoms: C2_2  and  C3_3 
REMARK    2  A    between atoms: C3_3  and  C4_4 
REMARK    3  A    between atoms: C5_5  and  C6_6 
REMARK    4  A    between atoms: C6_6  and  C7_7 
REMARK    5  A    between atoms: C7_7  and  C8_8 
REMARK    6  A    between atoms: C8_8  and  N1_9 
REMARK    7  A    between atoms: N1_9  and  C10_11 
REMARK    8  A    between atoms: C15_18  and  O1_19 
ROOT
HETATM    1  C10 UNL     1      -0.991  -0.372  -0.594  1.00  0.00     0.143 A 
HETATM    2  N2  UNL     1      -0.169  -0.497  -1.663  1.00  0.00    -0.223 NA
HETATM    3  C11 UNL     1      -0.692  -0.715  -2.880  1.00  0.00     0.236 A 
HETATM    4  N3  UNL     1      -2.012  -0.825  -3.148  1.00  0.00    -0.241 NA
HETATM    5  C12 UNL     1      -2.841  -0.700  -2.080  1.00  0.00     0.072 A 
HETATM    6  C13 UNL     1      -4.218  -0.790  -2.198  1.00  0.00     0.035 A 
HETATM    7  C14 UNL     1      -5.039  -0.660  -1.097  1.00  0.00     0.039 A 
HETATM    8  C15 UNL     1      -4.510  -0.434   0.172  1.00  0.00     0.069 A 
HETATM    9  C17 UNL     1      -3.137  -0.340   0.315  1.00  0.00     0.054 A 
HETATM   10  C18 UNL     1      -2.350  -0.476  -0.810  1.00  0.00     0.042 A 
ENDROOT
BRANCH   1  11
HETATM   11  N1  UNL     1      -0.322  -0.144   0.641  1.00  0.00    -0.345 N 
HETATM   12  C9  UNL     1      -0.468  -1.083   1.758  1.00  0.00     0.157 C 
BRANCH  11  13
HETATM   13  C8  UNL     1       0.545   0.893   1.084  1.00  0.00     0.092 C 
BRANCH  13  14
HETATM   14  C7  UNL     1       1.782   1.106   0.664  1.00  0.00     0.017 C 
BRANCH  14  15
HETATM   15  C6  UNL     1       2.611   2.195   1.167  1.00  0.00     0.002 C 
BRANCH  15  16
HETATM   16  C5  UNL     1       3.837   2.323   0.682  1.00  0.00     0.008 C 
HETATM   17  C4  UNL     1       4.185   1.330  -0.311  1.00  0.00     0.051 C 
BRANCH  17  18
HETATM   18  C3  UNL     1       5.244   0.599  -0.094  1.00  0.00    -0.150 C 
BRANCH  18  19
HETATM   19  C2  UNL     1       6.434   0.102   0.187  1.00  0.00     0.067 C 
HETATM   20  C1  UNL     1       7.620   0.822  -0.315  1.00  0.00     0.024 C 
ENDBRANCH  18  19
ENDBRANCH  17  18
ENDBRANCH  15  16
ENDBRANCH  14  15
ENDBRANCH  13  14
ENDBRANCH  11  13
ENDBRANCH   1  11
BRANCH   8  21
HETATM   21  O1  UNL     1      -5.307  -0.301   1.281  1.00  0.00    -0.356 OA
HETATM   22  C16 UNL     1      -6.701  -0.375   1.267  1.00  0.00     0.210 C 
ENDBRANCH   8  21
TORSDOF 8
