REMARK  4 active torsions:
REMARK  status: ('A' for Active; 'I' for Inactive)
REMARK    1  A    between atoms: C2_2  and  O1_3 
REMARK    2  A    between atoms: O1_3  and  C3_4 
REMARK    3  A    between atoms: N3_12  and  C9_13 
REMARK    4  A    between atoms: C15_19  and  O2_20 
ROOT
HETATM    1  C3  UNL     1      -1.093   0.099  -0.539  1.00  0.00     0.100 A 
HETATM    2  C4  UNL     1       0.203   0.333  -0.675  1.00  0.00     0.044 A 
HETATM    3  C5  UNL     1       1.052   1.144   0.193  1.00  0.00     0.164 A 
HETATM    4  C6  UNL     1       0.191   1.673   1.311  1.00  0.00     0.065 A 
HETATM    5  N1  UNL     1       0.688   2.401   2.254  1.00  0.00    -0.244 NA
HETATM    6  C7  UNL     1       1.997   2.890   2.539  1.00  0.00     0.229 C 
HETATM    7  N2  UNL     1       2.957   2.048   2.364  1.00  0.00    -0.263 NA
HETATM    8  C8  UNL     1       2.994   0.689   1.933  1.00  0.00     0.275 C 
HETATM    9  N3  UNL     1       2.174   0.487   0.777  1.00  0.00    -0.352 N 
HETATM   10  C14 UNL     1      -1.259   1.451   1.509  1.00  0.00     0.069 A 
HETATM   11  C15 UNL     1      -1.818   0.683   0.584  1.00  0.00     0.103 A 
ENDROOT
BRANCH   9  12
HETATM   12  C9  UNL     1       2.568  -0.662   0.003  1.00  0.00     0.013 A 
HETATM   13  C10 UNL     1       3.136  -0.523  -1.200  1.00  0.00     0.025 A 
HETATM   14  C11 UNL     1       3.416  -1.854  -1.725  1.00  0.00    -0.002 A 
HETATM   15  C12 UNL     1       3.018  -2.766  -0.841  1.00  0.00    -0.021 A 
HETATM   16  C13 UNL     1       2.429  -2.097   0.366  1.00  0.00     0.084 A 
ENDBRANCH   9  12
BRANCH   1  17
HETATM   17  O1  UNL     1      -1.721  -0.705  -1.481  1.00  0.00    -0.349 OA
BRANCH  17  18
HETATM   18  C2  UNL     1      -3.093  -0.969  -1.470  1.00  0.00     0.171 C 
HETATM   19  C1  UNL     1      -3.545  -1.870  -2.597  1.00  0.00     0.034 C 
ENDBRANCH  17  18
ENDBRANCH   1  17
BRANCH  11  20
HETATM   20  O2  UNL     1      -3.173   0.445   0.729  1.00  0.00    -0.353 OA
HETATM   21  C16 UNL     1      -4.050   1.540   0.972  1.00  0.00     0.210 C 
ENDBRANCH  11  20
TORSDOF 4
