REMARK  3 active torsions:
REMARK  status: ('A' for Active; 'I' for Inactive)
REMARK    1  A    between atoms: O1_2  and  C2_3 
REMARK    2  A    between atoms: C6_9  and  N3_10 
REMARK    3  A    between atoms: N3_10  and  C8_12 
ROOT
HETATM    1  C2  UNL     1      -1.565   0.683  -0.790  1.00  0.00     0.188 C 
HETATM    2  C3  UNL     1      -2.435   0.401   0.330  1.00  0.00     0.093 C 
HETATM    3  C4  UNL     1      -2.610  -1.105   0.666  1.00  0.00     0.058 C 
HETATM    4  N1  UNL     1      -2.356  -1.299   1.986  1.00  0.00    -0.245 NA
HETATM    5  C5  UNL     1      -1.025  -2.025   2.350  1.00  0.00     0.235 C 
HETATM    6  N2  UNL     1       0.029  -2.606   1.585  1.00  0.00    -0.220 NA
HETATM    7  C6  UNL     1       0.338  -1.847   0.297  1.00  0.00     0.183 C 
HETATM    8  C14 UNL     1      -0.637  -1.624  -0.679  1.00  0.00     0.193 C 
HETATM    9  N4  UNL     1      -1.755  -2.470  -1.170  1.00  0.00    -0.362 N 
HETATM   10  C15 UNL     1      -2.948  -2.262  -0.292  1.00  0.00     0.181 C 
HETATM   11  O2  UNL     1      -0.583  -0.324  -1.351  1.00  0.00    -0.267 OA
HETATM   12  H14 UNL     1      -2.073  -3.184  -1.908  1.00  0.00     0.162 HD
ENDROOT
BRANCH   7  13
HETATM   13  N3  UNL     1       1.367  -1.135  -0.363  1.00  0.00    -0.333 N 
HETATM   14  C7  UNL     1       2.023  -1.771  -1.494  1.00  0.00     0.158 C 
BRANCH  13  15
HETATM   15  C8  UNL     1       1.741   0.129   0.083  1.00  0.00     0.035 A 
HETATM   16  C9  UNL     1       1.194   0.854   1.144  1.00  0.00     0.029 A 
HETATM   17  C10 UNL     1       1.661   2.105   1.496  1.00  0.00     0.002 A 
HETATM   18  C11 UNL     1       2.703   2.689   0.796  1.00  0.00     0.000 A 
HETATM   19  C12 UNL     1       3.306   2.042  -0.272  1.00  0.00     0.002 A 
HETATM   20  C13 UNL     1       2.785   0.799  -0.561  1.00  0.00     0.029 A 
ENDBRANCH  13  15
ENDBRANCH   7  13
BRANCH   1  21
HETATM   21  O1  UNL     1      -1.972   1.940  -0.994  1.00  0.00    -0.335 OA
HETATM   22  C1  UNL     1      -1.318   2.999  -0.341  1.00  0.00     0.212 C 
ENDBRANCH   1  21
TORSDOF 3
