REMARK  1 active torsions:
REMARK  status: ('A' for Active; 'I' for Inactive)
REMARK    1  A    between atoms: O1_2  and  C2_3 
ROOT
HETATM    1  C2  UNL     1       2.460  -0.044   0.683  1.00  0.00     0.075 A 
HETATM    2  C3  UNL     1       1.494  -0.931   0.957  1.00  0.00     0.065 A 
HETATM    3  C4  UNL     1       0.317  -1.038   0.067  1.00  0.00     0.051 A 
HETATM    4  N1  UNL     1      -0.509  -1.951   0.448  1.00  0.00    -0.244 NA
HETATM    5  C5  UNL     1      -0.295  -2.755   1.597  1.00  0.00     0.256 C 
HETATM    6  N2  UNL     1      -1.555  -2.876   1.524  1.00  0.00    -0.152 NA
HETATM    7  N3  UNL     1      -2.327  -2.253   0.518  1.00  0.00    -0.216 N 
HETATM    8  N4  UNL     1      -2.536  -0.874   0.453  1.00  0.00    -0.280 N 
HETATM    9  C6  UNL     1      -3.176  -0.595   1.725  1.00  0.00     0.179 C 
HETATM   10  C7  UNL     1      -2.298   0.179  -0.473  1.00  0.00     0.059 A 
HETATM   11  C8  UNL     1      -3.458   0.914  -0.601  1.00  0.00     0.032 A 
HETATM   12  C9  UNL     1      -3.569   2.026  -1.446  1.00  0.00     0.002 A 
HETATM   13  C10 UNL     1      -2.433   2.351  -2.157  1.00  0.00     0.001 A 
HETATM   14  C11 UNL     1      -1.282   1.606  -2.016  1.00  0.00     0.010 A 
HETATM   15  C12 UNL     1      -1.170   0.512  -1.185  1.00  0.00    -0.016 A 
HETATM   16  C13 UNL     1       0.125  -0.203  -1.124  1.00  0.00     0.096 A 
HETATM   17  C14 UNL     1       1.293   0.731  -1.290  1.00  0.00    -0.002 A 
HETATM   18  C15 UNL     1       2.341   0.811  -0.489  1.00  0.00    -0.031 A 
HETATM   19  C16 UNL     1       3.467   1.756  -0.702  1.00  0.00     0.050 C 
HETATM   20  H6  UNL     1      -2.905  -2.387  -0.338  1.00  0.00     0.210 HD
ENDROOT
BRANCH   1  21
HETATM   21  O1  UNL     1       3.553   0.034   1.533  1.00  0.00    -0.355 OA
HETATM   22  C1  UNL     1       4.714  -0.767   1.379  1.00  0.00     0.210 C 
ENDBRANCH   1  21
TORSDOF 1
