REMARK  1 active torsions:
REMARK  status: ('A' for Active; 'I' for Inactive)
REMARK    1  A    between atoms: C2_2  and  O1_3 
ROOT
HETATM    1  C1  UNL     1       2.361   0.708  -2.029  1.00  0.00     0.013 C 
HETATM    2  C2  UNL     1       2.028   0.486  -0.724  1.00  0.00    -0.013 A 
HETATM    3  C4  UNL     1       1.697   1.558   0.278  1.00  0.00    -0.010 A 
HETATM    4  C5  UNL     1       1.464   0.494   0.898  1.00  0.00     0.046 A 
HETATM    5  C6  UNL     1       1.444  -0.908   0.932  1.00  0.00     0.256 C 
HETATM    6  N1  UNL     1       1.183  -2.051   1.418  1.00  0.00    -0.399 NA
HETATM    7  C7  UNL     1       0.522  -2.296   2.626  1.00  0.00     0.401 C 
HETATM    8  N2  UNL     1      -0.704  -2.460   2.340  1.00  0.00    -0.408 NA
HETATM    9  C8  UNL     1      -1.283  -2.404   1.056  1.00  0.00     0.231 C 
HETATM   10  N3  UNL     1      -2.432  -1.500   1.014  1.00  0.00    -0.379 N 
HETATM   11  C9  UNL     1      -3.113  -1.806   2.289  1.00  0.00     0.150 C 
HETATM   12  C10 UNL     1      -2.952  -0.517   0.091  1.00  0.00     0.086 C 
HETATM   13  C11 UNL     1      -3.180   0.460  -0.703  1.00  0.00     0.017 C 
HETATM   14  C12 UNL     1      -2.753   1.666  -1.387  1.00  0.00     0.001 C 
HETATM   15  C13 UNL     1      -1.640   2.362  -1.430  1.00  0.00    -0.000 C 
HETATM   16  C14 UNL     1      -0.229   2.540  -0.988  1.00  0.00    -0.004 C 
HETATM   17  C15 UNL     1       0.835   3.362  -1.127  1.00  0.00    -0.026 C 
HETATM   18  C16 UNL     1       1.970   2.847  -0.322  1.00  0.00     0.039 C 
ENDROOT
BRANCH   2  19
HETATM   19  O1  UNL     1       2.296  -0.712  -1.451  1.00  0.00     0.000 OA
HETATM   20  C3  UNL     1       3.670  -1.224  -1.394  1.00  0.00     0.000 C 
ENDBRANCH   2  19
TORSDOF 1
