REMARK  3 active torsions:
REMARK  status: ('A' for Active; 'I' for Inactive)
REMARK    1  A    between atoms: O1_2  and  C2_3 
REMARK    2  A    between atoms: C2_3  and  O2_4 
REMARK    3  A    between atoms: C2_3  and  C3_5 
ROOT
HETATM    1  C3  UNL     1       1.493   0.746  -0.511  1.00  0.00     0.030 C 
HETATM    2  C4  UNL     1       0.632   1.531   0.246  1.00  0.00     0.103 C 
HETATM    3  C5  UNL     1      -0.841   1.414   0.508  1.00  0.00     0.044 A 
HETATM    4  C6  UNL     1      -1.689   0.386   0.956  1.00  0.00     0.059 A 
HETATM    5  C7  UNL     1      -3.031   0.242   1.117  1.00  0.00     0.059 A 
HETATM    6  N1  UNL     1      -3.649   1.356   0.764  1.00  0.00    -0.242 NA
HETATM    7  C8  UNL     1      -2.991   2.430   0.319  1.00  0.00     0.233 A 
HETATM    8  N2  UNL     1      -1.627   2.484   0.185  1.00  0.00    -0.246 NA
HETATM    9  C9  UNL     1      -3.447  -1.072   1.562  1.00  0.00     0.029 C 
HETATM   10  C10 UNL     1      -2.960  -2.240   1.057  1.00  0.00     0.000 C 
HETATM   11  C11 UNL     1      -1.973  -2.728   0.007  1.00  0.00     0.135 A 
HETATM   12  C12 UNL     1      -1.084  -2.861  -0.964  1.00  0.00     0.019 A 
HETATM   13 CL1  UNL     1      -1.661  -4.311  -0.173  1.00  0.00    -0.174 Cl
HETATM   14  C13 UNL     1      -0.676  -1.508  -1.562  1.00  0.00     0.215 C 
HETATM   15  O3  UNL     1       0.490  -1.105  -1.468  1.00  0.00    -0.386 OA
HETATM   16  C14 UNL     1       1.629  -0.584  -1.433  1.00  0.00     0.178 C 
ENDROOT
BRANCH   1  17
HETATM   17  C2  UNL     1       2.896   1.303  -0.452  1.00  0.00     0.263 C 
BRANCH  17  18
HETATM   18  O1  UNL     1       3.705   0.303   0.121  1.00  0.00    -0.366 OA
HETATM   19  C1  UNL     1       4.242   0.886   1.274  1.00  0.00     0.204 C 
ENDBRANCH  17  18
BRANCH  17  20
HETATM   20  O2  UNL     1       3.264   1.568  -1.771  1.00  0.00    -0.371 OA
HETATM   21  H5  UNL     1       2.993   2.512  -2.016  1.00  0.00     0.212 HD
ENDBRANCH  17  20
ENDBRANCH   1  17
TORSDOF 3
