REMARK  6 active torsions:
REMARK  status: ('A' for Active; 'I' for Inactive)
REMARK    1  A    between atoms: N1_2  and  C2_3 
REMARK    2  A    between atoms: N1_2  and  C12_18 
REMARK    3  A    between atoms: C2_3  and  C3_4 
REMARK    4  A    between atoms: C7_10  and  O1_11 
REMARK    5  A    between atoms: C8_13  and  C9_14 
REMARK    6  A    between atoms: C9_14  and  O2_15 
ROOT
HETATM    1  C3  UNL     1       0.246   1.013  -0.927  1.00  0.00     0.076 A 
HETATM    2  N2  UNL     1      -0.089   1.775  -2.013  1.00  0.00    -0.244 NA
HETATM    3  C4  UNL     1       0.874   2.164  -2.878  1.00  0.00     0.234 A 
HETATM    4  N3  UNL     1       2.178   1.843  -2.744  1.00  0.00    -0.241 NA
HETATM    5  C5  UNL     1       2.576   1.091  -1.694  1.00  0.00     0.073 A 
HETATM    6  C6  UNL     1       3.902   0.746  -1.533  1.00  0.00     0.073 A 
HETATM    7  C7  UNL     1       4.316  -0.029  -0.458  1.00  0.00     0.122 A 
HETATM    8  C8  UNL     1       3.352  -0.431   0.428  1.00  0.00     0.003 A 
HETATM    9  C10 UNL     1       2.042  -0.078   0.253  1.00  0.00     0.028 A 
HETATM   10  C11 UNL     1       1.584   0.689  -0.798  1.00  0.00     0.020 A 
ENDROOT
BRANCH   1  11
HETATM   11  C2  UNL     1      -0.637   0.488   0.144  1.00  0.00     0.333 C 
BRANCH  11  12
HETATM   12  N1  UNL     1      -2.013   0.848  -0.227  1.00  0.00     0.107 N 
HETATM   13  C1  UNL     1      -2.412   0.183  -1.438  1.00  0.00     0.312 C 
BRANCH  12  14
HETATM   14  C12 UNL     1      -2.890   0.605   0.902  1.00  0.00     0.311 A 
HETATM   15  C13 UNL     1      -2.914  -0.809   1.342  1.00  0.00     0.020 A 
HETATM   16  C14 UNL     1      -3.784  -1.765   1.491  1.00  0.00    -0.001 A 
HETATM   17  C15 UNL     1      -5.186  -1.541   1.178  1.00  0.00     0.007 A 
HETATM   18  C16 UNL     1      -5.618  -0.372   0.738  1.00  0.00     0.047 A 
HETATM   19  S1  UNL     1      -4.585   1.085   0.464  1.00  0.00    -0.102 SA
ENDBRANCH  12  14
ENDBRANCH  11  12
ENDBRANCH   1  11
BRANCH   8  20
HETATM   20  C9  UNL     1       3.814  -1.269   1.557  1.00  0.00     0.205 C 
BRANCH  20  21
HETATM   21  O2  UNL     1       4.476  -0.454   2.474  1.00  0.00    -0.396 OA
HETATM   22  H10 UNL     1       4.115   0.471   2.474  1.00  0.00     0.209 HD
ENDBRANCH  20  21
ENDBRANCH   8  20
BRANCH   7  23
HETATM   23  O1  UNL     1       5.672  -0.271  -0.460  1.00  0.00    -0.155 OA
HETATM   24  F1  UNL     1       6.265  -0.985   0.483  1.00  0.00    -0.042 F 
ENDBRANCH   7  23
TORSDOF 6
