REMARK  3 active torsions:
REMARK  status: ('A' for Active; 'I' for Inactive)
REMARK    1  A    between atoms: O1_2  and  C2_3 
REMARK    2  A    between atoms: C6_9  and  O2_10 
REMARK    3  A    between atoms: O2_10  and  C7_11 
ROOT
HETATM    1  C2  UNL     1       3.246   0.317   0.290  1.00  0.00     0.076 A 
HETATM    2  C3  UNL     1       2.895   0.403  -1.041  1.00  0.00     0.070 A 
HETATM    3  C4  UNL     1       1.555   0.289  -1.327  1.00  0.00     0.075 A 
HETATM    4  N1  UNL     1       1.251   0.380  -2.654  1.00  0.00    -0.241 NA
HETATM    5  C5  UNL     1      -0.045   0.281  -3.059  1.00  0.00     0.236 A 
HETATM    6  N2  UNL     1      -1.026   0.095  -2.166  1.00  0.00    -0.217 NA
HETATM    7  C6  UNL     1      -0.796  -0.003  -0.845  1.00  0.00     0.183 A 
HETATM    8  C13 UNL     1       0.526   0.098  -0.431  1.00  0.00     0.047 A 
HETATM    9  C14 UNL     1       0.952   0.021   0.878  1.00  0.00     0.027 A 
HETATM   10  C15 UNL     1       2.274   0.125   1.250  1.00  0.00    -0.028 A 
HETATM   11  C16 UNL     1       2.678   0.036   2.678  1.00  0.00     0.051 C 
ENDROOT
BRANCH   7  12
HETATM   12  O2  UNL     1      -1.651  -0.192   0.223  1.00  0.00    -0.291 OA
BRANCH  12  13
HETATM   13  C7  UNL     1      -3.003  -0.324   0.112  1.00  0.00     0.079 A 
HETATM   14  C8  UNL     1      -3.567  -0.501   1.382  1.00  0.00     0.037 A 
HETATM   15  C9  UNL     1      -4.947  -0.661   1.548  1.00  0.00     0.004 A 
HETATM   16  C10 UNL     1      -5.796  -0.650   0.461  1.00  0.00     0.024 A 
HETATM   17  C11 UNL     1      -5.226  -0.475  -0.781  1.00  0.00     0.036 A 
HETATM   18 CL1  UNL     1      -6.162  -0.435  -2.268  1.00  0.00    -0.084 Cl
HETATM   19  C12 UNL     1      -3.868  -0.315  -0.961  1.00  0.00     0.061 A 
ENDBRANCH  12  13
ENDBRANCH   7  12
BRANCH   1  20
HETATM   20  O1  UNL     1       4.587   0.425   0.645  1.00  0.00    -0.355 OA
HETATM   21  C1  UNL     1       5.586   0.622  -0.349  1.00  0.00     0.210 C 
ENDBRANCH   1  20
TORSDOF 3
