REMARK  1 active torsions:
REMARK  status: ('A' for Active; 'I' for Inactive)
REMARK    1  A    between atoms: N2_5  and  C4_6 
ROOT
HETATM    1  C4  UNL     1       0.530   0.069   0.732  1.00  0.00     0.033 A 
HETATM    2  C5  UNL     1       0.061   1.368   0.752  1.00  0.00     0.032 A 
HETATM    3  C6  UNL     1      -1.292   1.593   0.657  1.00  0.00     0.036 A 
HETATM    4  C7  UNL     1      -1.969   0.402   0.553  1.00  0.00     0.086 A 
HETATM    5  C8  UNL     1      -1.562  -0.971   0.523  1.00  0.00     0.101 A 
HETATM    6  C9  UNL     1      -0.213  -1.102   0.623  1.00  0.00     0.068 A 
HETATM    7  O1  UNL     1      -2.457  -2.070   0.396  1.00  0.00    -0.329 OA
HETATM    8  C10 UNL     1      -3.751  -2.109  -0.335  1.00  0.00     0.303 C 
HETATM    9  N3  UNL     1      -4.366  -0.835  -0.354  1.00  0.00    -0.330 N 
HETATM   10  C11 UNL     1      -4.495  -0.077   0.949  1.00  0.00     0.277 C 
HETATM   11  N4  UNL     1      -3.347   0.778   0.405  1.00  0.00    -0.272 N 
HETATM   12  N5  UNL     1      -3.645   1.887  -0.399  1.00  0.00    -0.305 N 
HETATM   13  C12 UNL     1      -4.528   1.375  -1.491  1.00  0.00     0.149 C 
HETATM   14  C13 UNL     1      -4.786   0.021  -1.434  1.00  0.00     0.121 C 
HETATM   15 CL1  UNL     1      -5.531  -0.940  -2.670  1.00  0.00    -0.063 Cl
HETATM   16  H15 UNL     1      -3.163   2.696  -0.071  1.00  0.00     0.186 HD
ENDROOT
BRANCH   1  17
HETATM   17  N2  UNL     1       1.939  -0.134   0.833  1.00  0.00    -0.377 N 
HETATM   18  C3  UNL     1       2.545  -1.430   0.619  1.00  0.00     0.153 C 
HETATM   19  C2  UNL     1       3.961  -1.129   0.105  1.00  0.00     0.291 C 
HETATM   20  N1  UNL     1       3.953   0.028  -0.773  1.00  0.00     0.087 N 
HETATM   21  C1  UNL     1       5.112   0.063  -1.607  1.00  0.00     0.310 C 
HETATM   22  C15 UNL     1       3.734   1.264  -0.052  1.00  0.00     0.291 C 
HETATM   23  C14 UNL     1       2.899   0.896   1.158  1.00  0.00     0.153 C 
ENDBRANCH   1  17
TORSDOF 1
