REMARK  4 active torsions:
REMARK  status: ('A' for Active; 'I' for Inactive)
REMARK    1  A    between atoms: C7_8  and  O1_9 
REMARK    2  A    between atoms: O1_9  and  C8_10 
REMARK    3  A    between atoms: C12_16  and  O2_17 
REMARK    4  A    between atoms: C14_19  and  O3_20 
ROOT
HETATM    1  C8  UNL     1      -0.574   0.598  -0.348  1.00  0.00     0.183 A 
HETATM    2  N1  UNL     1      -1.155   1.734  -0.722  1.00  0.00    -0.217 NA
HETATM    3  C9  UNL     1      -0.450   2.845  -0.936  1.00  0.00     0.236 A 
HETATM    4  N2  UNL     1       0.904   2.813  -0.767  1.00  0.00    -0.241 NA
HETATM    5  C10 UNL     1       1.523   1.685  -0.391  1.00  0.00     0.075 A 
HETATM    6  C11 UNL     1       2.893   1.601  -0.206  1.00  0.00     0.072 A 
HETATM    7  C12 UNL     1       3.479   0.404   0.184  1.00  0.00     0.103 A 
HETATM    8  C14 UNL     1       2.742  -0.746   0.405  1.00  0.00     0.102 A 
HETATM    9  C16 UNL     1       1.378  -0.650   0.218  1.00  0.00     0.057 A 
HETATM   10  C17 UNL     1       0.793   0.536  -0.169  1.00  0.00     0.049 A 
ENDROOT
BRANCH   1  11
HETATM   11  O1  UNL     1      -1.300  -0.533  -0.131  1.00  0.00    -0.291 OA
BRANCH  11  12
HETATM   12  C7  UNL     1      -2.654  -0.707  -0.245  1.00  0.00     0.085 A 
HETATM   13  C2  UNL     1      -3.638  -0.039   0.454  1.00  0.00    -0.006 A 
HETATM   14  C1  UNL     1      -3.198   0.968   1.426  1.00  0.00     0.053 C 
HETATM   15  C3  UNL     1      -4.934  -0.373   0.180  1.00  0.00     0.042 A 
HETATM   16 CL1  UNL     1      -6.198   0.469   1.063  1.00  0.00    -0.084 Cl
HETATM   17  C4  UNL     1      -5.302  -1.328  -0.743  1.00  0.00     0.024 A 
HETATM   18  C5  UNL     1      -4.331  -1.983  -1.429  1.00  0.00     0.004 A 
HETATM   19  C6  UNL     1      -2.995  -1.678  -1.186  1.00  0.00     0.038 A 
ENDBRANCH  11  12
ENDBRANCH   1  11
BRANCH   8  20
HETATM   20  O3  UNL     1       3.463  -1.867   0.791  1.00  0.00    -0.353 OA
HETATM   21  C15 UNL     1       2.870  -3.117   1.056  1.00  0.00     0.210 C 
ENDBRANCH   8  20
BRANCH   7  22
HETATM   22  O2  UNL     1       4.849   0.414   0.344  1.00  0.00    -0.353 OA
HETATM   23  C13 UNL     1       5.575   1.602   0.112  1.00  0.00     0.210 C 
ENDBRANCH   7  22
TORSDOF 4
