REMARK  6 active torsions:
REMARK  status: ('A' for Active; 'I' for Inactive)
REMARK    1  A    between atoms: O1_2  and  C2_3 
REMARK    2  A    between atoms: C7_10  and  N3_11 
REMARK    3  A    between atoms: N3_11  and  C8_12 
REMARK    4  A    between atoms: C10_14  and  O2_15 
REMARK    5  A    between atoms: C11_16  and  O3_17 
REMARK    6  A    between atoms: C13_19  and  O4_20 
ROOT
HETATM    1  N3  UNL     1       0.038  -1.469  -1.452  1.00  0.00    -0.340 N 
HETATM    2  H7  UNL     1      -0.334  -2.440  -1.487  1.00  0.00     0.167 HD
ENDROOT
BRANCH   1   3
HETATM    3  C7  UNL     1      -0.447  -0.459  -2.328  1.00  0.00     0.142 A 
HETATM    4  N2  UNL     1       0.076  -0.193  -3.540  1.00  0.00    -0.224 NA
HETATM    5  C6  UNL     1      -0.396   0.767  -4.357  1.00  0.00     0.236 A 
HETATM    6  N1  UNL     1      -1.443   1.520  -3.974  1.00  0.00    -0.241 NA
HETATM    7  C5  UNL     1      -2.012   1.303  -2.769  1.00  0.00     0.072 A 
HETATM    8  C4  UNL     1      -3.081   2.111  -2.442  1.00  0.00     0.035 A 
HETATM    9  C16 UNL     1      -1.525   0.318  -1.936  1.00  0.00     0.041 A 
HETATM   10  C3  UNL     1      -3.670   1.887  -1.197  1.00  0.00     0.039 A 
HETATM   11  C2  UNL     1      -3.226   0.913  -0.316  1.00  0.00     0.069 A 
HETATM   12  C17 UNL     1      -2.150   0.154  -0.732  1.00  0.00     0.054 A 
BRANCH  11  13
HETATM   13  O1  UNL     1      -3.831   0.712   0.918  1.00  0.00    -0.356 OA
HETATM   14  C1  UNL     1      -4.919   1.515   1.283  1.00  0.00     0.210 C 
ENDBRANCH  11  13
ENDBRANCH   1   3
BRANCH   1  15
HETATM   15  C8  UNL     1       1.052  -1.084  -0.531  1.00  0.00     0.039 A 
HETATM   16  C9  UNL     1       1.498   0.221  -0.539  1.00  0.00     0.069 A 
HETATM   17  C10 UNL     1       2.494   0.584   0.371  1.00  0.00     0.103 A 
HETATM   18  C11 UNL     1       2.997  -0.362   1.241  1.00  0.00     0.135 A 
HETATM   19  C13 UNL     1       2.525  -1.680   1.227  1.00  0.00     0.106 A 
HETATM   20  C15 UNL     1       1.549  -2.032   0.334  1.00  0.00     0.069 A 
BRANCH  17  21
HETATM   21  O2  UNL     1       2.920   1.905   0.336  1.00  0.00    -0.358 OA
HETATM   22  H9  UNL     1       2.294   2.651   0.072  1.00  0.00     0.217 HD
ENDBRANCH  17  21
BRANCH  18  23
HETATM   23  O3  UNL     1       3.990   0.138   2.098  1.00  0.00    -0.351 OA
HETATM   24  C12 UNL     1       3.652   0.698   3.366  1.00  0.00     0.210 C 
ENDBRANCH  18  23
BRANCH  19  25
HETATM   25  O4  UNL     1       3.162  -2.467   2.179  1.00  0.00    -0.353 OA
HETATM   26  C14 UNL     1       2.798  -3.831   2.295  1.00  0.00     0.210 C 
ENDBRANCH  19  25
ENDBRANCH   1  15
TORSDOF 6
