REMARK  1 active torsions:
REMARK  status: ('A' for Active; 'I' for Inactive)
REMARK    1  A    between atoms: C13_16  and  C14_17 
ROOT
HETATM    1  C1  UNL     1       3.881   0.840   1.539  1.00  0.00     0.006 C 
HETATM    2  C2  UNL     1       3.279   1.027   0.349  1.00  0.00     0.001 A 
HETATM    3  C3  UNL     1       1.972   0.277   0.601  1.00  0.00    -0.021 A 
HETATM    4  C4  UNL     1       1.811   0.605  -0.350  1.00  0.00     0.056 A 
HETATM    5  C5  UNL     1       1.535  -0.188   1.166  1.00  0.00     0.132 A 
HETATM    6  C6  UNL     1       0.888  -0.968   2.212  1.00  0.00     0.143 C 
HETATM    7  F1  UNL     1       0.388  -1.698   3.318  1.00  0.00    -0.235 F 
HETATM    8  C7  UNL     1      -0.424  -1.374   1.856  1.00  0.00    -0.064 C 
HETATM    9  C8  UNL     1      -1.513  -1.685   1.565  1.00  0.00    -0.076 C 
HETATM   10  C9  UNL     1      -2.804  -2.027   1.221  1.00  0.00     0.062 C 
HETATM   11  C10 UNL     1      -3.295  -1.259   0.323  1.00  0.00     0.012 C 
HETATM   12  C11 UNL     1      -3.408  -0.149  -0.699  1.00  0.00     0.304 A 
HETATM   13  N1  UNL     1      -2.090   0.209  -1.169  1.00  0.00     0.121 N 
HETATM   14  C12 UNL     1      -0.721   0.445  -0.918  1.00  0.00     0.196 A 
HETATM   15  O1  UNL     1      -1.831   0.121  -0.488  1.00  0.00     0.000 OA
HETATM   16  C13 UNL     1       0.459   0.817  -1.501  1.00  0.00     0.122 A 
HETATM   17  C15 UNL     1       1.709   0.822  -0.977  1.00  0.00     0.025 A 
HETATM   18  H10 UNL     1      -2.291   0.396  -2.273  1.00  0.00     0.323 HD
ENDROOT
BRANCH  16  19
HETATM   19  C14 UNL     1      -0.036   1.156  -2.829  1.00  0.00     0.401 C 
HETATM   20  F2  UNL     1      -0.955   2.150  -2.757  1.00  0.00    -0.170 F 
HETATM   21  F3  UNL     1      -0.556   0.023  -3.443  1.00  0.00    -0.170 F 
HETATM   22  F4  UNL     1       0.992   1.567  -3.676  1.00  0.00    -0.170 F 
ENDBRANCH  16  19
TORSDOF 1
