REMARK  11 active torsions:
REMARK  status: ('A' for Active; 'I' for Inactive)
REMARK    1  A    between atoms: O1_2  and  C2_3 
REMARK    2  A    between atoms: C5_6  and  N1_7 
REMARK    3  A    between atoms: N1_7  and  C6_8 
REMARK    4  A    between atoms: N2_9  and  C7_10 
REMARK    5  A    between atoms: C7_10  and  N3_11 
REMARK    6  A    between atoms: N3_11  and  C8_12 
REMARK    7  A    between atoms: C9_13  and  C10_14 
REMARK    8  A    between atoms: C11_15  and  O2_16 
REMARK    9  A    between atoms: C12_17  and  C13_18 
REMARK   10  A    between atoms: C15_20  and  O3_21 
REMARK   11  A    between atoms: C17_23  and  O4_24 
ROOT
HETATM    1  N1  UNL     1       0.279   0.844   2.424  1.00  0.00    -0.354 N 
HETATM    2  H7  UNL     1       0.445   1.164   3.403  1.00  0.00     0.166 HD
ENDROOT
BRANCH   1   3
HETATM    3  C5  UNL     1      -0.566   0.735   1.287  1.00  0.00     0.016 C 
HETATM    4  C4  UNL     1      -0.544   1.944   0.458  1.00  0.00     0.087 C 
HETATM    5  C3  UNL     1      -1.821   2.171  -0.272  1.00  0.00     0.019 C 
HETATM    6  C2  UNL     1      -2.781   1.404  -0.751  1.00  0.00     0.101 C 
HETATM    7  C17 UNL     1      -2.795  -0.060  -0.648  1.00  0.00     0.134 C 
HETATM    8  C15 UNL     1      -2.134  -0.855   0.179  1.00  0.00     0.106 C 
HETATM    9  C14 UNL     1      -1.200  -0.450   1.224  1.00  0.00     0.065 C 
BRANCH   6  10
HETATM   10  O1  UNL     1      -3.860   1.935  -1.394  1.00  0.00    -0.353 OA
HETATM   11  C1  UNL     1      -4.336   3.242  -1.373  1.00  0.00     0.210 C 
ENDBRANCH   6  10
BRANCH   7  12
HETATM   12  O4  UNL     1      -3.641  -0.694  -1.574  1.00  0.00    -0.351 OA
HETATM   13  C18 UNL     1      -4.962  -1.071  -1.300  1.00  0.00     0.210 C 
ENDBRANCH   7  12
BRANCH   8  14
HETATM   14  O3  UNL     1      -2.342  -2.227   0.049  1.00  0.00    -0.353 OA
HETATM   15  C16 UNL     1      -1.302  -3.125  -0.275  1.00  0.00     0.210 C 
ENDBRANCH   8  14
ENDBRANCH   1   3
BRANCH   1  16
HETATM   16  C6  UNL     1       1.496   0.212   2.069  1.00  0.00     0.208 C 
HETATM   17  N2  UNL     1       2.075  -0.436   1.131  1.00  0.00    -0.237 NA
BRANCH  17  18
HETATM   18  C7  UNL     1       1.356  -0.695  -0.064  1.00  0.00     0.234 C 
BRANCH  18  19
HETATM   19  N3  UNL     1       2.169  -1.205  -0.953  1.00  0.00    -0.245 NA
BRANCH  19  20
HETATM   20  C8  UNL     1       3.449  -1.415  -0.697  1.00  0.00     0.052 A 
HETATM   21  C9  UNL     1       4.333  -0.625  -0.877  1.00  0.00    -0.016 A 
HETATM   22  C13 UNL     1       4.894  -1.696  -0.390  1.00  0.00     0.085 A 
BRANCH  21  23
HETATM   23  C10 UNL     1       5.140   0.069  -1.030  1.00  0.00    -0.024 A 
HETATM   24  C11 UNL     1       6.025   0.798  -1.187  1.00  0.00     0.126 A 
HETATM   25  C12 UNL     1       6.107  -0.702  -0.603  1.00  0.00     0.075 A 
BRANCH  24  26
HETATM   26  O2  UNL     1       7.370   0.790  -0.998  1.00  0.00    -0.381 OA
HETATM   27  H10 UNL     1       7.809   1.226  -0.178  1.00  0.00     0.211 HD
ENDBRANCH  24  26
ENDBRANCH  21  23
ENDBRANCH  19  20
ENDBRANCH  18  19
ENDBRANCH  17  18
ENDBRANCH   1  16
TORSDOF 11
