REMARK  3 active torsions:
REMARK  status: ('A' for Active; 'I' for Inactive)
REMARK    1  A    between atoms: C2_2  and  C3_3 
REMARK    2  A    between atoms: C3_3  and  O1_4 
REMARK    3  A    between atoms: C11_16  and  O3_17 
ROOT
HETATM    1  C3  UNL     1      -1.851  -0.886   0.462  1.00  0.00     0.119 A 
HETATM    2  C5  UNL     1      -2.289  -0.814   1.873  1.00  0.00     0.053 A 
HETATM    3  C6  UNL     1      -1.195  -0.293   2.249  1.00  0.00     0.098 A 
HETATM    4  O2  UNL     1      -0.403   0.224   3.291  1.00  0.00    -0.216 OA
HETATM    5  N1  UNL     1       0.179   1.486   3.440  1.00  0.00    -0.121 NA
HETATM    6  C7  UNL     1       0.449   2.303   2.482  1.00  0.00     0.265 C 
HETATM    7  N2  UNL     1       0.213   2.091   1.099  1.00  0.00    -0.223 NA
HETATM    8  C8  UNL     1      -0.218   1.046   0.442  1.00  0.00     0.145 C 
HETATM    9  N3  UNL     1      -0.244   1.449  -0.943  1.00  0.00    -0.248 NA
HETATM   10  C9  UNL     1       0.411   1.018  -1.974  1.00  0.00     0.098 C 
HETATM   11  C10 UNL     1       1.436   0.029  -2.416  1.00  0.00     0.111 C 
HETATM   12  C11 UNL     1       2.138  -0.422  -1.158  1.00  0.00     0.046 C 
HETATM   13  C13 UNL     1       1.651  -0.874  -0.009  1.00  0.00     0.007 C 
HETATM   14  C14 UNL     1       0.554  -1.257   0.904  1.00  0.00     0.058 C 
HETATM   15  C15 UNL     1      -0.607  -0.290   0.930  1.00  0.00     0.114 A 
ENDROOT
BRANCH   1  16
HETATM   16  C2  UNL     1      -2.810  -0.011  -0.316  1.00  0.00     0.006 C 
HETATM   17  C1  UNL     1      -3.569   0.941   0.255  1.00  0.00     0.010 C 
ENDBRANCH   1  16
BRANCH   1  18
HETATM   18  O1  UNL     1      -1.851  -2.202  -0.025  1.00  0.00    -0.375 OA
HETATM   19  C4  UNL     1      -1.557  -2.235  -1.368  1.00  0.00     0.203 C 
ENDBRANCH   1  18
BRANCH  12  20
HETATM   20  O3  UNL     1       3.520  -0.333  -1.271  1.00  0.00    -0.360 OA
HETATM   21  C12 UNL     1       4.176   0.687  -0.544  1.00  0.00     0.209 C 
ENDBRANCH  12  20
TORSDOF 3
