REMARK  7 active torsions:
REMARK  status: ('A' for Active; 'I' for Inactive)
REMARK    1  A    between atoms: O1_2  and  C2_3 
REMARK    2  A    between atoms: C4_5  and  N1_6 
REMARK    3  A    between atoms: N1_6  and  C6_8 
REMARK    4  A    between atoms: C6_8  and  C7_9 
REMARK    5  A    between atoms: C7_9  and  N2_10 
REMARK    6  A    between atoms: C12_15  and  N3_16 
REMARK    7  A    between atoms: N3_16  and  C13_17 
ROOT
HETATM    1  C2  UNL     1       1.250  -0.267  -1.271  1.00  0.00     0.097 A 
HETATM    2  C3  UNL     1      -0.097  -0.505  -1.198  1.00  0.00     0.068 A 
HETATM    3  C4  UNL     1      -0.816  -0.615  -0.036  1.00  0.00     0.032 A 
HETATM    4  C10 UNL     1      -0.015  -0.456   1.075  1.00  0.00     0.031 A 
HETATM    5  C11 UNL     1       1.338  -0.215   1.106  1.00  0.00     0.035 A 
HETATM    6  C12 UNL     1       1.989  -0.117  -0.120  1.00  0.00     0.082 A 
ENDROOT
BRANCH   6   7
HETATM    7  N3  UNL     1       3.376   0.136  -0.251  1.00  0.00    -0.186 N 
HETATM    8  H20 UNL     1       3.808   0.168  -1.215  1.00  0.00     0.184 HD
BRANCH   7   9
HETATM    9  C13 UNL     1       4.359   0.368   0.744  1.00  0.00     0.722 A 
HETATM   10  N4  UNL     1       4.045   0.560   1.975  1.00  0.00    -0.100 NA
HETATM   11  C14 UNL     1       5.205   0.776   2.811  1.00  0.00     0.223 A 
HETATM   12  C15 UNL     1       6.297   0.669   1.782  1.00  0.00     0.048 A 
HETATM   13  C16 UNL     1       7.747   0.801   1.987  1.00  0.00     0.068 C 
HETATM   14  N5  UNL     1       5.756   0.437   0.634  1.00  0.00    -0.071 NA
ENDBRANCH   7   9
ENDBRANCH   6   7
BRANCH   1  15
HETATM   15  O1  UNL     1       1.888  -0.175  -2.500  1.00  0.00    -0.354 OA
HETATM   16  C1  UNL     1       1.275  -0.303  -3.749  1.00  0.00     0.210 C 
ENDBRANCH   1  15
BRANCH   3  17
HETATM   17  N1  UNL     1      -2.235  -0.835   0.053  1.00  0.00    -0.383 N 
HETATM   18  C5  UNL     1      -2.737  -0.974   1.386  1.00  0.00     0.149 C 
BRANCH  17  19
HETATM   19  C6  UNL     1      -3.055  -0.867  -1.151  1.00  0.00     0.152 C 
BRANCH  19  20
HETATM   20  C7  UNL     1      -3.948   0.361  -1.260  1.00  0.00     0.291 C 
BRANCH  20  21
HETATM   21  N2  UNL     1      -4.858   0.338  -0.129  1.00  0.00     0.081 N 
HETATM   22  C8  UNL     1      -5.578   1.614  -0.032  1.00  0.00     0.309 C 
HETATM   23  C9  UNL     1      -5.838  -0.721  -0.416  1.00  0.00     0.309 C 
ENDBRANCH  20  21
ENDBRANCH  19  20
ENDBRANCH  17  19
ENDBRANCH   3  17
TORSDOF 7
