REMARK  8 active torsions:
REMARK  status: ('A' for Active; 'I' for Inactive)
REMARK    1  A    between atoms: C2_2  and  C3_3 
REMARK    2  A    between atoms: C4_4  and  O1_5 
REMARK    3  A    between atoms: C6_7  and  O2_8 
REMARK    4  A    between atoms: C6_7  and  C7_9 
REMARK    5  A    between atoms: C7_9  and  O3_10 
REMARK    6  A    between atoms: N1_11  and  C8_12 
REMARK    7  A    between atoms: C11_17  and  C12_18 
REMARK    8  A    between atoms: C13_19  and  O4_20 
ROOT
HETATM    1  C3  UNL     1      -3.476  -0.918  -0.878  1.00  0.00    -0.023 A 
HETATM    2  C4  UNL     1      -2.957  -0.291   0.199  1.00  0.00     0.110 A 
HETATM    3  C6  UNL     1      -1.571   0.165   0.327  1.00  0.00     0.226 A 
HETATM    4  N1  UNL     1      -0.782  -0.065  -0.870  1.00  0.00    -0.150 N 
HETATM    5  C15 UNL     1      -1.279  -0.721  -2.026  1.00  0.00     0.113 A 
HETATM    6  C16 UNL     1      -2.542  -1.113  -2.011  1.00  0.00     0.027 A 
ENDROOT
BRANCH   4   7
HETATM    7  C8  UNL     1       0.581   0.415  -0.835  1.00  0.00     0.712 A 
HETATM    8  N2  UNL     1       1.001   1.378  -1.593  1.00  0.00    -0.057 NA
HETATM    9  C9  UNL     1       2.358   1.855  -1.558  1.00  0.00     0.255 A 
HETATM   10  N3  UNL     1       3.216   1.308  -0.736  1.00  0.00    -0.223 NA
HETATM   11  C10 UNL     1       2.850   0.258   0.123  1.00  0.00     0.144 A 
HETATM   12  C11 UNL     1       3.708  -0.301   0.955  1.00  0.00     0.053 C 
HETATM   13  N4  UNL     1       1.497  -0.213   0.083  1.00  0.00    -0.173 N 
HETATM   14  H20 UNL     1       1.251  -0.979   0.717  1.00  0.00     0.186 HD
BRANCH  12  15
HETATM   15  C12 UNL     1       5.086   0.174   0.999  1.00  0.00     0.028 C 
HETATM   16  C13 UNL     1       5.954  -0.379   1.831  1.00  0.00     0.134 C 
BRANCH  16  17
HETATM   17  O4  UNL     1       7.277  -0.101   2.041  1.00  0.00    -0.368 OA
HETATM   18  C14 UNL     1       8.225  -0.218   0.990  1.00  0.00     0.208 C 
ENDBRANCH  16  17
ENDBRANCH  12  15
ENDBRANCH   4   7
BRANCH   3  19
HETATM   19  O2  UNL     1      -0.931  -0.502   1.406  1.00  0.00    -0.363 OA
HETATM   20  H9  UNL     1      -1.519  -1.212   1.762  1.00  0.00     0.213 HD
ENDBRANCH   3  19
BRANCH   3  21
HETATM   21  C7  UNL     1      -1.424   1.636   0.642  1.00  0.00     0.233 C 
BRANCH  21  22
HETATM   22  O3  UNL     1      -0.035   1.845   0.819  1.00  0.00    -0.396 OA
HETATM   23  H12 UNL     1       0.247   1.681   1.741  1.00  0.00     0.209 HD
ENDBRANCH  21  22
ENDBRANCH   3  21
BRANCH   2  24
HETATM   24  O1  UNL     1      -3.868  -0.112   1.205  1.00  0.00    -0.355 OA
HETATM   25  C5  UNL     1      -4.692   1.033   1.214  1.00  0.00     0.209 C 
ENDBRANCH   2  24
BRANCH   1  26
HETATM   26  C2  UNL     1      -4.773  -1.480  -1.281  1.00  0.00     0.037 C 
HETATM   27  C1  UNL     1      -5.861  -1.443  -0.271  1.00  0.00     0.010 C 
ENDBRANCH   1  26
TORSDOF 8
