REMARK  4 active torsions:
REMARK  status: ('A' for Active; 'I' for Inactive)
REMARK    1  A    between atoms: O1_2  and  C2_3 
REMARK    2  A    between atoms: C7_10  and  N3_11 
REMARK    3  A    between atoms: N3_11  and  C8_12 
REMARK    4  A    between atoms: C12_17  and  O3_18 
ROOT
HETATM    1  C8  UNL     1      -0.966   0.569   1.274  1.00  0.00     0.038 A 
HETATM    2  C9  UNL     1      -1.989  -0.069   1.920  1.00  0.00     0.069 A 
HETATM    3  C10 UNL     1      -3.120  -0.664   1.460  1.00  0.00     0.106 A 
HETATM    4  O2  UNL     1      -4.180  -1.298   1.677  1.00  0.00    -0.353 OA
HETATM    5  C11 UNL     1      -5.256  -1.943   1.910  1.00  0.00     0.210 C 
HETATM    6  C12 UNL     1      -3.116  -0.518   0.026  1.00  0.00     0.133 A 
HETATM    7  C13 UNL     1      -2.203   0.090  -0.930  1.00  0.00     0.106 A 
HETATM    8  O4  UNL     1      -2.372   0.123  -2.166  1.00  0.00    -0.353 OA
HETATM    9  C14 UNL     1      -2.541   0.159  -3.445  1.00  0.00     0.210 C 
HETATM   10  C15 UNL     1      -1.206   0.568  -0.067  1.00  0.00     0.069 A 
ENDROOT
BRANCH   6  11
HETATM   11  O3  UNL     1      -4.210  -1.056  -0.769  1.00  0.00    -0.356 OA
HETATM   12  H12 UNL     1      -5.155  -0.722  -0.516  1.00  0.00     0.218 HD
ENDBRANCH   6  11
BRANCH   1  13
HETATM   13  N3  UNL     1       0.223   1.067   1.884  1.00  0.00    -0.343 N 
HETATM   14  H7  UNL     1       0.322   2.108   1.799  1.00  0.00     0.167 HD
BRANCH  13  15
HETATM   15  C7  UNL     1       1.241   0.366   2.551  1.00  0.00     0.126 A 
HETATM   16  N2  UNL     1       2.170  -0.263   3.135  1.00  0.00    -0.301 N 
HETATM   17  C6  UNL     1       2.838  -0.865   3.915  1.00  0.00     0.213 A 
HETATM   18  C16 UNL     1       2.307   0.340   1.590  1.00  0.00     0.163 A 
HETATM   19  N1  UNL     1       3.795  -0.857   2.928  1.00  0.00    -0.245 NA
HETATM   20  C5  UNL     1       3.579  -0.254   1.715  1.00  0.00     0.076 A 
HETATM   21  C4  UNL     1       4.641  -0.382   0.783  1.00  0.00     0.033 A 
HETATM   22  C3  UNL     1       4.383   0.164  -0.427  1.00  0.00     0.038 A 
HETATM   23  C2  UNL     1       3.239   0.803  -0.818  1.00  0.00     0.067 A 
HETATM   24  C17 UNL     1       2.306   0.826   0.243  1.00  0.00     0.056 A 
BRANCH  23  25
HETATM   25  O1  UNL     1       2.825   1.387  -1.963  1.00  0.00    -0.356 OA
HETATM   26  C1  UNL     1       3.516   1.499  -3.158  1.00  0.00     0.210 C 
ENDBRANCH  23  25
ENDBRANCH  13  15
ENDBRANCH   1  13
TORSDOF 4
