REMARK  5 active torsions:
REMARK  status: ('A' for Active; 'I' for Inactive)
REMARK    1  A    between atoms: C2_2  and  P1_3 
REMARK    2  A    between atoms: C5_6  and  N1_7 
REMARK    3  A    between atoms: N1_7  and  C6_8 
REMARK    4  A    between atoms: C10_14  and  O1_15 
REMARK    5  A    between atoms: C12_17  and  O2_18 
ROOT
HETATM    1  C6  UNL     1       0.075  -0.989  -0.953  1.00  0.00     0.142 A 
HETATM    2  N2  UNL     1       0.519  -0.742  -2.229  1.00  0.00    -0.224 NA
HETATM    3  C7  UNL     1      -0.265   0.033  -3.033  1.00  0.00     0.236 A 
HETATM    4  N3  UNL     1      -1.437   0.560  -2.639  1.00  0.00    -0.241 NA
HETATM    5  C8  UNL     1      -1.951   0.363  -1.390  1.00  0.00     0.075 A 
HETATM    6  C9  UNL     1      -3.143   0.870  -0.943  1.00  0.00     0.072 A 
HETATM    7  C10 UNL     1      -3.535   0.570   0.357  1.00  0.00     0.103 A 
HETATM    8  C12 UNL     1      -2.716  -0.217   1.135  1.00  0.00     0.102 A 
HETATM    9  C14 UNL     1      -1.506  -0.730   0.682  1.00  0.00     0.057 A 
HETATM   10  C15 UNL     1      -1.125  -0.417  -0.633  1.00  0.00     0.042 A 
ENDROOT
BRANCH   1  11
HETATM   11  N1  UNL     1       0.974  -1.797  -0.234  1.00  0.00    -0.340 N 
HETATM   12  H6  UNL     1       0.733  -2.774  -0.026  1.00  0.00     0.167 HD
BRANCH  11  13
HETATM   13  C5  UNL     1       2.198  -1.265   0.197  1.00  0.00     0.035 A 
HETATM   14  C4  UNL     1       3.214  -1.891   0.808  1.00  0.00     0.031 A 
HETATM   15  C3  UNL     1       4.422  -1.172   1.174  1.00  0.00     0.017 A 
HETATM   16  P1  UNL     1       4.063   0.539   0.591  1.00  0.00    -0.046 P 
HETATM   17  C16 UNL     1       2.446   0.194  -0.051  1.00  0.00     0.044 A 
BRANCH  16  18
HETATM   18  C2  UNL     1       5.321   1.665   0.006  1.00  0.00     0.004 C 
HETATM   19  C1  UNL     1       6.598   1.418  -0.097  1.00  0.00     0.012 C 
ENDBRANCH  16  18
ENDBRANCH  11  13
ENDBRANCH   1  11
BRANCH   8  20
HETATM   20  O2  UNL     1      -3.262  -0.415   2.404  1.00  0.00    -0.353 OA
HETATM   21  C13 UNL     1      -2.593  -1.185   3.378  1.00  0.00     0.210 C 
ENDBRANCH   8  20
BRANCH   7  22
HETATM   22  O1  UNL     1      -4.747   1.103   0.769  1.00  0.00    -0.353 OA
HETATM   23  C11 UNL     1      -5.540   1.909  -0.077  1.00  0.00     0.210 C 
ENDBRANCH   7  22
TORSDOF 5
