REMARK  5 active torsions:
REMARK  status: ('A' for Active; 'I' for Inactive)
REMARK    1  A    between atoms: O1_2  and  C2_3 
REMARK    2  A    between atoms: C2_3  and  C3_4 
REMARK    3  A    between atoms: C4_5  and  O2_6 
REMARK    4  A    between atoms: C7_9  and  N1_10 
REMARK    5  A    between atoms: C11_14  and  O3_15 
ROOT
HETATM    1  N1  UNL     1      -0.192  -1.253   0.554  1.00  0.00    -0.312 N 
HETATM    2  C8  UNL     1      -0.901  -0.364   1.455  1.00  0.00     0.182 C 
HETATM    3  C9  UNL     1      -2.285  -0.140   0.912  1.00  0.00    -0.029 A 
HETATM    4  C10 UNL     1      -3.110   0.867   1.340  1.00  0.00     0.046 A 
HETATM    5  C11 UNL     1      -4.365   0.989   0.779  1.00  0.00     0.068 A 
HETATM    6  C13 UNL     1      -4.790   0.107  -0.204  1.00  0.00     0.037 A 
HETATM    7  C14 UNL     1      -3.944  -0.914  -0.632  1.00  0.00     0.012 A 
HETATM    8  C15 UNL     1      -2.673  -1.036  -0.062  1.00  0.00    -0.035 A 
HETATM    9  C16 UNL     1      -1.909  -2.163  -0.625  1.00  0.00     0.149 C 
HETATM   10  N2  UNL     1      -0.831  -2.475   0.313  1.00  0.00    -0.234 NA
HETATM   11  H20 UNL     1      -0.182  -3.151  -0.099  1.00  0.00     0.147 HD
ENDROOT
BRANCH   1  12
HETATM   12  C7  UNL     1       1.054  -0.894  -0.030  1.00  0.00     0.030 A 
HETATM   13  C6  UNL     1       1.824  -1.729  -0.708  1.00  0.00     0.063 A 
HETATM   14  C4  UNL     1       3.014  -0.968  -1.140  1.00  0.00     0.074 A 
HETATM   15  C3  UNL     1       2.927   0.281  -0.715  1.00  0.00    -0.018 A 
HETATM   16  C17 UNL     1       1.644   0.458   0.050  1.00  0.00     0.097 A 
BRANCH  14  17
HETATM   17  O2  UNL     1       4.044  -1.551  -1.887  1.00  0.00    -0.356 OA
HETATM   18  C5  UNL     1       4.768  -2.667  -1.356  1.00  0.00     0.210 C 
ENDBRANCH  14  17
BRANCH  15  19
HETATM   19  C2  UNL     1       3.816   1.460  -0.854  1.00  0.00     0.204 C 
BRANCH  19  20
HETATM   20  O1  UNL     1       4.231   1.941   0.387  1.00  0.00    -0.392 OA
HETATM   21  C1  UNL     1       5.065   3.053   0.144  1.00  0.00     0.201 C 
ENDBRANCH  19  20
ENDBRANCH  15  19
ENDBRANCH   1  12
BRANCH   5  22
HETATM   22  O3  UNL     1      -5.206   1.987   1.190  1.00  0.00    -0.356 OA
HETATM   23  C12 UNL     1      -6.506   2.202   0.684  1.00  0.00     0.210 C 
ENDBRANCH   5  22
TORSDOF 5
