REMARK  4 active torsions:
REMARK  status: ('A' for Active; 'I' for Inactive)
REMARK    1  A    between atoms: O1_2  and  C2_3 
REMARK    2  A    between atoms: C2_3  and  C3_4 
REMARK    3  A    between atoms: N1_7  and  C6_8 
REMARK    4  A    between atoms: C11_15  and  O2_16 
ROOT
HETATM    1  C6  UNL     1      -0.865  -1.511  -1.334  1.00  0.00     0.141 A 
HETATM    2  N2  UNL     1      -0.995  -2.666  -2.049  1.00  0.00    -0.224 NA
HETATM    3  C7  UNL     1      -2.136  -3.323  -2.167  1.00  0.00     0.236 A 
HETATM    4  N3  UNL     1      -3.244  -2.881  -1.581  1.00  0.00    -0.241 NA
HETATM    5  C8  UNL     1      -3.182  -1.754  -0.866  1.00  0.00     0.072 A 
HETATM    6  C9  UNL     1      -4.332  -1.268  -0.240  1.00  0.00     0.035 A 
HETATM    7  C10 UNL     1      -4.243  -0.107   0.490  1.00  0.00     0.039 A 
HETATM    8  C11 UNL     1      -3.056   0.575   0.613  1.00  0.00     0.069 A 
HETATM    9  C13 UNL     1      -1.896   0.128   0.009  1.00  0.00     0.054 A 
HETATM   10  C14 UNL     1      -2.001  -1.032  -0.716  1.00  0.00     0.041 A 
ENDROOT
BRANCH   1  11
HETATM   11  N1  UNL     1       0.420  -0.891  -1.278  1.00  0.00    -0.349 N 
HETATM   12  C5  UNL     1       1.260   0.266  -1.544  1.00  0.00     0.163 C 
HETATM   13  C4  UNL     1       2.253  -0.149  -0.521  1.00  0.00    -0.027 C 
HETATM   14  C3  UNL     1       3.238  -0.048   0.362  1.00  0.00    -0.027 C 
HETATM   15  C15 UNL     1       1.626  -1.474  -0.757  1.00  0.00     0.141 C 
HETATM   16  C18 UNL     1       3.635  -1.285   1.048  1.00  0.00     0.021 C 
HETATM   17  C17 UNL     1       2.769  -2.264   1.131  1.00  0.00    -0.027 C 
HETATM   18  C16 UNL     1       1.596  -2.151   0.535  1.00  0.00     0.015 C 
BRANCH  14  19
HETATM   19  C2  UNL     1       3.932   1.229   0.671  1.00  0.00     0.206 C 
BRANCH  19  20
HETATM   20  O1  UNL     1       3.355   2.226  -0.119  1.00  0.00    -0.391 OA
HETATM   21  C1  UNL     1       4.003   3.424   0.170  1.00  0.00     0.201 C 
ENDBRANCH  19  20
ENDBRANCH  14  19
ENDBRANCH   1  11
BRANCH   8  22
HETATM   22  O2  UNL     1      -3.022   1.744   1.362  1.00  0.00    -0.356 OA
HETATM   23  C12 UNL     1      -4.175   2.241   1.997  1.00  0.00     0.210 C 
ENDBRANCH   8  22
TORSDOF 4
