REMARK  4 active torsions:
REMARK  status: ('A' for Active; 'I' for Inactive)
REMARK    1  A    between atoms: O1_2  and  C2_3 
REMARK    2  A    between atoms: C5_6  and  C6_7 
REMARK    3  A    between atoms: C10_13  and  N3_14 
REMARK    4  A    between atoms: C10_13  and  O2_15 
ROOT
HETATM    1  C6  UNL     1      -0.378  -0.454  -0.118  1.00  0.00     0.065 C 
HETATM    2  N1  UNL     1      -1.183  -0.692  -1.203  1.00  0.00    -0.282 NA
HETATM    3  C7  UNL     1      -2.291   0.149  -1.519  1.00  0.00     0.372 C 
HETATM    4  N2  UNL     1      -2.669   0.764  -0.515  1.00  0.00     0.048 NA
HETATM    5  C8  UNL     1      -3.578   1.671  -0.048  1.00  0.00     0.675 C 
HETATM    6  C9  UNL     1      -2.840   2.579   0.661  1.00  0.00     0.100 C 
HETATM    7  C10 UNL     1      -1.417   3.001   1.147  1.00  0.00     0.267 C 
HETATM    8  C12 UNL     1      -0.622   1.712   1.186  1.00  0.00     0.069 C 
HETATM    9  C13 UNL     1       0.026   0.519   1.107  1.00  0.00     0.107 C 
ENDROOT
BRANCH   1  10
HETATM   10  C5  UNL     1       0.655  -1.555  -0.131  1.00  0.00    -0.033 A 
HETATM   11  C4  UNL     1       1.616  -1.725   0.863  1.00  0.00     0.012 A 
HETATM   12  C3  UNL     1       2.618  -2.702   0.818  1.00  0.00     0.037 A 
HETATM   13  C2  UNL     1       2.739  -3.602  -0.252  1.00  0.00     0.068 A 
HETATM   14  C15 UNL     1       1.743  -3.374  -1.208  1.00  0.00     0.037 A 
HETATM   15  C14 UNL     1       0.787  -2.441  -1.159  1.00  0.00     0.012 A 
BRANCH  13  16
HETATM   16  O1  UNL     1       3.753  -4.414  -0.092  1.00  0.00    -0.356 OA
HETATM   17  C1  UNL     1       4.141  -5.433  -0.968  1.00  0.00     0.210 C 
ENDBRANCH  13  16
ENDBRANCH   1  10
BRANCH   7  18
HETATM   18  N3  UNL     1      -1.626   3.488   2.496  1.00  0.00     0.114 N 
HETATM   19  H9  UNL     1      -0.963   4.248   2.745  1.00  0.00     0.316 HD
HETATM   20  H10 UNL     1      -2.609   3.705   2.716  1.00  0.00     0.316 HD
ENDBRANCH   7  18
BRANCH   7  21
HETATM   21  O2  UNL     1      -0.873   3.950   0.397  1.00  0.00    -0.357 OA
HETATM   22  C11 UNL     1      -1.599   5.111   0.382  1.00  0.00     0.204 C 
ENDBRANCH   7  21
TORSDOF 4
