REMARK  5 active torsions:
REMARK  status: ('A' for Active; 'I' for Inactive)
REMARK    1  A    between atoms: O1_2  and  C2_3 
REMARK    2  A    between atoms: C6_9  and  N3_10 
REMARK    3  A    between atoms: N3_10  and  C7_11 
REMARK    4  A    between atoms: C9_13  and  O2_14 
REMARK    5  A    between atoms: C15_21  and  O4_22 
ROOT
HETATM    1  C2  UNL     1       4.241   0.040   0.818  1.00  0.00     0.103 A 
HETATM    2  C3  UNL     1       3.917   1.161   0.075  1.00  0.00     0.072 A 
HETATM    3  C4  UNL     1       2.632   1.376  -0.372  1.00  0.00     0.075 A 
HETATM    4  N1  UNL     1       2.299   2.467  -1.098  1.00  0.00    -0.241 NA
HETATM    5  C5  UNL     1       1.023   2.646  -1.521  1.00  0.00     0.236 A 
HETATM    6  N2  UNL     1       0.051   1.733  -1.225  1.00  0.00    -0.224 NA
HETATM    7  C6  UNL     1       0.352   0.657  -0.516  1.00  0.00     0.141 A 
HETATM    8  C13 UNL     1       1.644   0.459  -0.076  1.00  0.00     0.042 A 
HETATM    9  C14 UNL     1       1.962  -0.661   0.664  1.00  0.00     0.057 A 
HETATM   10  C15 UNL     1       3.249  -0.879   1.113  1.00  0.00     0.102 A 
ENDROOT
BRANCH   7  11
HETATM   11  N3  UNL     1      -0.701  -0.252  -0.242  1.00  0.00    -0.342 N 
HETATM   12  H6  UNL     1      -0.717  -1.153   0.284  1.00  0.00     0.167 HD
BRANCH  11  13
HETATM   13  C7  UNL     1      -2.002   0.042  -0.737  1.00  0.00     0.033 C 
HETATM   14  C8  UNL     1      -3.146  -0.285  -0.134  1.00  0.00     0.034 C 
HETATM   15  C9  UNL     1      -4.514   0.011  -0.631  1.00  0.00     0.169 C 
HETATM   16  C11 UNL     1      -4.431   0.762  -1.935  1.00  0.00     0.204 C 
HETATM   17  O3  UNL     1      -3.322   0.278  -2.644  1.00  0.00    -0.382 OA
HETATM   18  C12 UNL     1      -2.147   0.776  -2.036  1.00  0.00     0.224 C 
BRANCH  15  19
HETATM   19  O2  UNL     1      -5.291  -1.126  -0.715  1.00  0.00    -0.385 OA
HETATM   20  C10 UNL     1      -6.400  -1.147   0.090  1.00  0.00     0.202 C 
ENDBRANCH  15  19
ENDBRANCH  11  13
ENDBRANCH   7  11
BRANCH  10  21
HETATM   21  O4  UNL     1       3.551  -2.024   1.864  1.00  0.00    -0.353 OA
HETATM   22  C16 UNL     1       2.489  -2.926   2.132  1.00  0.00     0.210 C 
ENDBRANCH  10  21
BRANCH   1  23
HETATM   23  O1  UNL     1       5.503  -0.235   1.294  1.00  0.00    -0.353 OA
HETATM   24  C1  UNL     1       6.654   0.531   1.128  1.00  0.00     0.210 C 
ENDBRANCH   1  23
TORSDOF 5
