REMARK  4 active torsions:
REMARK  status: ('A' for Active; 'I' for Inactive)
REMARK    1  A    between atoms: O1_2  and  C2_3 
REMARK    2  A    between atoms: C5_6  and  N1_7 
REMARK    3  A    between atoms: N1_7  and  C6_8 
REMARK    4  A    between atoms: C10_14  and  O2_15 
ROOT
HETATM    1  C6  UNL     1      -0.173  -0.337  -0.696  1.00  0.00     0.142 A 
HETATM    2  N2  UNL     1      -0.015  -0.912  -1.891  1.00  0.00    -0.224 NA
HETATM    3  C7  UNL     1      -0.980  -1.281  -2.739  1.00  0.00     0.236 A 
HETATM    4  N3  UNL     1      -2.261  -1.068  -2.387  1.00  0.00    -0.241 NA
HETATM    5  C8  UNL     1      -2.537  -0.486  -1.184  1.00  0.00     0.074 A 
HETATM    6  C9  UNL     1      -3.866  -0.297  -0.885  1.00  0.00     0.070 A 
HETATM    7  C10 UNL     1      -4.226   0.285   0.311  1.00  0.00     0.076 A 
HETATM    8  C12 UNL     1      -3.225   0.663   1.181  1.00  0.00    -0.028 A 
HETATM    9  C13 UNL     1      -3.617   1.286   2.462  1.00  0.00     0.051 C 
HETATM   10  C14 UNL     1      -1.914   0.443   0.815  1.00  0.00     0.027 A 
HETATM   11  C15 UNL     1      -1.489  -0.131  -0.361  1.00  0.00     0.039 A 
ENDROOT
BRANCH   1  12
HETATM   12  N1  UNL     1       0.839   0.051   0.196  1.00  0.00    -0.340 N 
HETATM   13  H6  UNL     1       0.624   0.505   1.099  1.00  0.00     0.167 HD
BRANCH  12  14
HETATM   14  C5  UNL     1       2.234  -0.093   0.041  1.00  0.00     0.033 A 
HETATM   15  C4  UNL     1       2.808  -0.738  -1.013  1.00  0.00     0.032 A 
HETATM   16  C3  UNL     1       4.165  -0.891  -1.195  1.00  0.00     0.039 A 
HETATM   17  C2  UNL     1       5.050  -0.379  -0.279  1.00  0.00     0.068 A 
HETATM   18  C17 UNL     1       4.528   0.280   0.802  1.00  0.00     0.039 A 
HETATM   19  C16 UNL     1       3.165   0.401   0.928  1.00  0.00     0.032 A 
BRANCH  17  20
HETATM   20  O1  UNL     1       6.418  -0.484  -0.378  1.00  0.00    -0.356 OA
HETATM   21  C1  UNL     1       7.307   0.064   0.597  1.00  0.00     0.210 C 
ENDBRANCH  17  20
ENDBRANCH  12  14
ENDBRANCH   1  12
BRANCH   7  22
HETATM   22  O2  UNL     1      -5.544   0.480   0.625  1.00  0.00    -0.355 OA
HETATM   23  C11 UNL     1      -6.553   0.096  -0.257  1.00  0.00     0.210 C 
ENDBRANCH   7  22
TORSDOF 4
