REMARK  4 active torsions:
REMARK  status: ('A' for Active; 'I' for Inactive)
REMARK    1  A    between atoms: O1_2  and  C2_3 
REMARK    2  A    between atoms: C4_5  and  N1_6 
REMARK    3  A    between atoms: C12_15  and  N3_16 
REMARK    4  A    between atoms: N3_16  and  C13_17 
ROOT
HETATM    1  C2  UNL     1       0.770  -1.581  -0.800  1.00  0.00     0.096 A 
HETATM    2  C3  UNL     1       1.789  -1.499   0.122  1.00  0.00     0.068 A 
HETATM    3  C4  UNL     1       1.759  -0.794   1.305  1.00  0.00     0.033 A 
HETATM    4  C10 UNL     1       0.581  -0.126   1.547  1.00  0.00     0.031 A 
HETATM    5  C11 UNL     1      -0.468  -0.178   0.655  1.00  0.00     0.034 A 
HETATM    6  C12 UNL     1      -0.414  -0.888  -0.522  1.00  0.00     0.063 A 
ENDROOT
BRANCH   6   7
HETATM    7  N3  UNL     1      -1.473  -0.951  -1.457  1.00  0.00    -0.364 N 
HETATM    8  H18 UNL     1      -1.311  -1.536  -2.331  1.00  0.00     0.162 HD
BRANCH   7   9
HETATM    9  C13 UNL     1      -2.811  -0.239  -1.281  1.00  0.00     0.225 C 
HETATM   10  C14 UNL     1      -3.582  -0.576  -2.507  1.00  0.00     0.168 C 
HETATM   11  N4  UNL     1      -4.950  -0.233  -2.676  1.00  0.00    -0.386 N 
HETATM   12  C15 UNL     1      -5.400   1.087  -2.770  1.00  0.00     0.030 A 
HETATM   13  H22 UNL     1      -5.822  -0.795  -2.760  1.00  0.00     0.159 HD
HETATM   14  C16 UNL     1      -6.544   1.804  -2.978  1.00  0.00     0.029 A 
HETATM   15  C20 UNL     1      -4.527   2.110  -2.547  1.00  0.00     0.066 A 
HETATM   16  C17 UNL     1      -6.573   3.177  -2.927  1.00  0.00     0.005 A 
HETATM   17  C18 UNL     1      -5.501   3.992  -2.669  1.00  0.00     0.037 A 
HETATM   18  C19 UNL     1      -4.251   3.482  -2.428  1.00  0.00     0.079 A 
HETATM   19  O2  UNL     1      -2.859   3.389  -2.135  1.00  0.00    -0.304 OA
HETATM   20  C21 UNL     1      -2.588   2.266  -1.215  1.00  0.00     0.255 C 
HETATM   21  N5  UNL     1      -2.581   1.067  -0.957  1.00  0.00    -0.251 NA
ENDBRANCH   7   9
ENDBRANCH   6   7
BRANCH   1  22
HETATM   22  O1  UNL     1       0.893  -2.328  -1.980  1.00  0.00    -0.354 OA
HETATM   23  C1  UNL     1       2.101  -2.998  -2.201  1.00  0.00     0.210 C 
ENDBRANCH   1  22
BRANCH   3  24
HETATM   24  N1  UNL     1       2.877  -0.767   2.206  1.00  0.00    -0.378 N 
HETATM   25  C5  UNL     1       2.716   0.084   3.376  1.00  0.00     0.142 C 
HETATM   26  C6  UNL     1       3.860  -0.165   4.298  1.00  0.00     0.136 C 
HETATM   27  N2  UNL     1       5.103  -0.479   3.711  1.00  0.00    -0.414 N 
HETATM   28  C7  UNL     1       6.049   0.570   3.568  1.00  0.00     0.143 C 
HETATM   29  C8  UNL     1       5.154  -1.536   2.777  1.00  0.00     0.136 C 
HETATM   30  C9  UNL     1       4.024  -1.605   1.817  1.00  0.00     0.142 C 
ENDBRANCH   3  24
TORSDOF 4
