REMARK  4 active torsions:
REMARK  status: ('A' for Active; 'I' for Inactive)
REMARK    1  A    between atoms: O1_2  and  C2_3 
REMARK    2  A    between atoms: C6_9  and  N3_10 
REMARK    3  A    between atoms: C11_15  and  O2_16 
REMARK    4  A    between atoms: C15_20  and  O3_21 
ROOT
HETATM    1  C2  UNL     1       3.328  -0.176   0.102  1.00  0.00     0.103 A 
HETATM    2  C3  UNL     1       2.984  -1.438   0.547  1.00  0.00     0.072 A 
HETATM    3  C4  UNL     1       1.672  -1.798   0.570  1.00  0.00     0.075 A 
HETATM    4  N1  UNL     1       1.223  -3.003   0.984  1.00  0.00    -0.241 NA
HETATM    5  C5  UNL     1      -0.101  -3.299   0.982  1.00  0.00     0.236 A 
HETATM    6  N2  UNL     1      -1.074  -2.437   0.574  1.00  0.00    -0.224 NA
HETATM    7  C6  UNL     1      -0.635  -1.222   0.155  1.00  0.00     0.142 A 
HETATM    8  C13 UNL     1       0.707  -0.905   0.151  1.00  0.00     0.041 A 
HETATM    9  C14 UNL     1       1.065   0.348  -0.290  1.00  0.00     0.057 A 
HETATM   10  C15 UNL     1       2.398   0.748  -0.326  1.00  0.00     0.102 A 
ENDROOT
BRANCH   7  11
HETATM   11  N3  UNL     1      -1.684  -0.350  -0.263  1.00  0.00    -0.335 N 
HETATM   12  C7  UNL     1      -1.866   0.257  -1.592  1.00  0.00     0.154 C 
HETATM   13  C8  UNL     1      -3.209  -0.131  -2.137  1.00  0.00    -0.011 C 
HETATM   14  C9  UNL     1      -4.066  -0.551  -1.239  1.00  0.00    -0.025 C 
HETATM   15  C10 UNL     1      -3.974  -0.722   0.220  1.00  0.00     0.081 C 
HETATM   16  C11 UNL     1      -2.725   0.023   0.681  1.00  0.00     0.227 C 
BRANCH  16  17
HETATM   17  O2  UNL     1      -2.886   1.398   0.559  1.00  0.00    -0.371 OA
HETATM   18  C12 UNL     1      -2.689   2.098   1.741  1.00  0.00     0.204 C 
ENDBRANCH  16  17
ENDBRANCH   7  11
BRANCH  10  19
HETATM   19  O3  UNL     1       2.839   1.993  -0.756  1.00  0.00    -0.353 OA
HETATM   20  C16 UNL     1       1.999   3.009  -1.210  1.00  0.00     0.210 C 
ENDBRANCH  10  19
BRANCH   1  21
HETATM   21  O1  UNL     1       4.683   0.197   0.078  1.00  0.00    -0.353 OA
HETATM   22  C1  UNL     1       5.697  -0.689   0.498  1.00  0.00     0.210 C 
ENDBRANCH   1  21
TORSDOF 4
