REMARK  2 active torsions:
REMARK  status: ('A' for Active; 'I' for Inactive)
REMARK    1  A    between atoms: O1_2  and  C2_3 
REMARK    2  A    between atoms: C11_15  and  O3_16 
ROOT
HETATM    1  C2  UNL     1       2.236   1.448   0.818  1.00  0.00     0.071 C 
HETATM    2  C3  UNL     1       0.916   1.706   0.976  1.00  0.00     0.175 C 
HETATM    3  O2  UNL     1      -0.454   1.611   1.376  1.00  0.00    -0.317 OA
HETATM    4  C4  UNL     1      -1.146   0.656   0.621  1.00  0.00     0.109 A 
HETATM    5  C5  UNL     1      -0.534  -0.566   0.491  1.00  0.00     0.057 A 
HETATM    6  C6  UNL     1      -0.804  -1.757  -0.126  1.00  0.00     0.042 A 
HETATM    7  C7  UNL     1       0.040  -2.842  -0.091  1.00  0.00     0.141 A 
HETATM    8  N1  UNL     1      -0.424  -3.899  -0.775  1.00  0.00    -0.224 NA
HETATM    9  C8  UNL     1      -1.624  -3.835  -1.421  1.00  0.00     0.236 A 
HETATM   10  N2  UNL     1      -2.443  -2.749  -1.444  1.00  0.00    -0.241 NA
HETATM   11  C9  UNL     1      -2.017  -1.665  -0.770  1.00  0.00     0.075 A 
HETATM   12  C10 UNL     1      -2.758  -0.482  -0.727  1.00  0.00     0.072 A 
HETATM   13  C11 UNL     1      -2.344   0.648  -0.056  1.00  0.00     0.104 A 
HETATM   14  N3  UNL     1       1.281  -2.703   0.617  1.00  0.00    -0.350 N 
HETATM   15  C13 UNL     1       2.388  -1.873   0.269  1.00  0.00     0.086 C 
HETATM   16  C14 UNL     1       3.114  -0.778   0.451  1.00  0.00    -0.003 C 
HETATM   17  C15 UNL     1       2.771   0.213   1.492  1.00  0.00     0.095 C 
HETATM   18  H11 UNL     1       1.139  -3.353   1.411  1.00  0.00     0.166 HD
ENDROOT
BRANCH   1  19
HETATM   19  O1  UNL     1       3.128   2.224   0.094  1.00  0.00    -0.358 OA
HETATM   20  C1  UNL     1       2.671   3.138  -0.891  1.00  0.00     0.209 C 
ENDBRANCH   1  19
BRANCH  13  21
HETATM   21  O3  UNL     1      -2.973   1.856   0.058  1.00  0.00    -0.353 OA
HETATM   22  C12 UNL     1      -4.223   2.162  -0.527  1.00  0.00     0.210 C 
ENDBRANCH  13  21
TORSDOF 2
