REMARK  7 active torsions:
REMARK  status: ('A' for Active; 'I' for Inactive)
REMARK    1  A    between atoms: O1_2  and  C2_3 
REMARK    2  A    between atoms: C4_5  and  O2_6 
REMARK    3  A    between atoms: C4_5  and  C6_9 
REMARK    4  A    between atoms: O2_6  and  C5_7 
REMARK    5  A    between atoms: C5_7  and  N1_8 
REMARK    6  A    between atoms: C8_13  and  C9_14 
REMARK    7  A    between atoms: C12_17  and  O3_18 
ROOT
HETATM    1  C6  UNL     1      -0.248  -1.100  -1.566  1.00  0.00     0.221 A 
HETATM    2  N2  UNL     1      -0.746  -1.040  -2.904  1.00  0.00    -0.265 NA
HETATM    3  C7  UNL     1      -0.071  -0.201  -3.576  1.00  0.00     0.228 A 
HETATM    4  N3  UNL     1       0.942   0.388  -2.771  1.00  0.00    -0.243 NA
HETATM    5  C8  UNL     1       0.863  -0.125  -1.574  1.00  0.00     0.077 A 
ENDROOT
BRANCH   1   6
HETATM    6  C4  UNL     1      -1.373  -0.643  -0.697  1.00  0.00     0.108 C 
HETATM    7  C2  UNL     1      -1.949  -1.452   0.176  1.00  0.00     0.073 C 
HETATM    8  C3  UNL     1      -1.464  -2.849   0.293  1.00  0.00     0.079 C 
BRANCH   7   9
HETATM    9  O1  UNL     1      -2.978  -1.009   0.960  1.00  0.00    -0.358 OA
HETATM   10  C1  UNL     1      -4.344  -1.305   0.773  1.00  0.00     0.209 C 
ENDBRANCH   7   9
BRANCH   6  11
HETATM   11  O2  UNL     1      -1.635   0.661  -0.988  1.00  0.00    -0.321 OA
BRANCH  11  12
HETATM   12  C5  UNL     1      -2.874   1.299  -0.926  1.00  0.00     0.441 C 
BRANCH  12  13
HETATM   13  N1  UNL     1      -2.697   2.708  -1.304  1.00  0.00     0.101 N 
HETATM   14  H9  UNL     1      -3.459   3.300  -0.910  1.00  0.00     0.315 HD
HETATM   15  H10 UNL     1      -1.756   2.960  -0.908  1.00  0.00     0.315 HD
ENDBRANCH  12  13
ENDBRANCH  11  12
ENDBRANCH   6  11
ENDBRANCH   1   6
BRANCH   5  16
HETATM   16  C9  UNL     1       1.771   0.275  -0.504  1.00  0.00    -0.009 A 
HETATM   17  C10 UNL     1       1.723  -0.235   0.774  1.00  0.00     0.016 A 
HETATM   18  C11 UNL     1       2.567   0.123   1.802  1.00  0.00     0.037 A 
HETATM   19  C12 UNL     1       3.547   1.066   1.554  1.00  0.00     0.068 A 
HETATM   20  C14 UNL     1       3.643   1.614   0.287  1.00  0.00     0.037 A 
HETATM   21  C15 UNL     1       2.764   1.209  -0.695  1.00  0.00     0.016 A 
BRANCH  19  22
HETATM   22  O3  UNL     1       4.463   1.526   2.475  1.00  0.00    -0.356 OA
HETATM   23  C13 UNL     1       4.464   1.040   3.807  1.00  0.00     0.210 C 
ENDBRANCH  19  22
ENDBRANCH   5  16
TORSDOF 7
