REMARK  4 active torsions:
REMARK  status: ('A' for Active; 'I' for Inactive)
REMARK    1  A    between atoms: N1_2  and  C3_4 
REMARK    2  A    between atoms: C7_8  and  C8_9 
REMARK    3  A    between atoms: C8_9  and  C17_20 
REMARK    4  A    between atoms: C18_24  and  O2_25 
ROOT
HETATM    1  C8  UNL     1       0.142   1.043   0.489  1.00  0.00     0.072 C 
HETATM    2  C9  UNL     1       1.432   0.958   0.084  1.00  0.00     0.036 A 
HETATM    3  C10 UNL     1       2.473   0.426  -0.865  1.00  0.00     0.098 A 
HETATM    4  O1  UNL     1       3.887   0.637  -0.900  1.00  0.00     0.000 OA
HETATM    5  C11 UNL     1       4.806   0.001  -1.946  1.00  0.00    -0.013 A 
HETATM    6  C12 UNL     1       6.010   0.704  -1.160  1.00  0.00    -0.020 A 
HETATM    7  C13 UNL     1       6.517   1.550  -0.070  1.00  0.00    -0.002 A 
HETATM    8  C14 UNL     1       5.215   1.834   0.522  1.00  0.00     0.020 A 
HETATM    9  C15 UNL     1       4.064   1.253  -0.098  1.00  0.00     0.001 A 
HETATM   10  C16 UNL     1       4.226   0.445  -1.228  1.00  0.00     0.110 A 
HETATM   11  N2  UNL     1       2.702   1.290   0.232  1.00  0.00    -0.235 NA
ENDROOT
BRANCH   1  12
HETATM   12  C7  UNL     1      -0.674   0.329  -0.262  1.00  0.00    -0.029 C 
HETATM   13  C6  UNL     1      -0.471  -0.533  -1.438  1.00  0.00     0.064 C 
HETATM   14  C5  UNL     1      -0.643  -1.950  -0.890  1.00  0.00    -0.024 C 
HETATM   15  C4  UNL     1      -1.834  -2.090  -0.374  1.00  0.00    -0.003 C 
HETATM   16  C3  UNL     1      -2.812  -0.942  -0.380  1.00  0.00     0.134 C 
HETATM   17  C18 UNL     1      -2.063   0.283   0.182  1.00  0.00     0.174 C 
BRANCH  16  18
HETATM   18  N1  UNL     1      -3.902  -1.316   0.454  1.00  0.00    -0.411 N 
HETATM   19  C1  UNL     1      -4.995  -0.423   0.577  1.00  0.00     0.143 C 
HETATM   20  C2  UNL     1      -4.297  -2.677   0.286  1.00  0.00     0.143 C 
ENDBRANCH  16  18
BRANCH  17  21
HETATM   21  O2  UNL     1      -2.738   1.409  -0.243  1.00  0.00    -0.389 OA
HETATM   22  H17 UNL     1      -3.104   1.269  -1.146  1.00  0.00     0.210 HD
ENDBRANCH  17  21
ENDBRANCH   1  12
BRANCH   1  23
HETATM   23  C17 UNL     1      -0.046   1.913   1.670  1.00  0.00     0.419 C 
HETATM   24  F1  UNL     1       0.691   1.480   2.756  1.00  0.00    -0.166 F 
HETATM   25  F2  UNL     1       0.530   3.170   1.366  1.00  0.00    -0.166 F 
HETATM   26  F3  UNL     1      -1.339   2.152   1.924  1.00  0.00    -0.166 F 
ENDBRANCH   1  23
TORSDOF 4
