REMARK  4 active torsions:
REMARK  status: ('A' for Active; 'I' for Inactive)
REMARK    1  A    between atoms: O1_2  and  C2_3 
REMARK    2  A    between atoms: C5_6  and  N1_7 
REMARK    3  A    between atoms: N1_7  and  C6_8 
REMARK    4  A    between atoms: C9_11  and  O2_12 
ROOT
HETATM    1  C2  UNL     1      -3.078   0.068  -0.219  1.00  0.00     0.075 A 
HETATM    2  C3  UNL     1      -1.706  -0.056  -0.157  1.00  0.00     0.055 A 
HETATM    3  C4  UNL     1      -0.856   0.838   0.423  1.00  0.00     0.041 A 
HETATM    4  C5  UNL     1       0.513   0.720   0.488  1.00  0.00     0.142 A 
HETATM    5  N2  UNL     1       1.138   1.710   1.099  1.00  0.00    -0.224 NA
HETATM    6  C12 UNL     1       0.583   2.792   1.648  1.00  0.00     0.236 A 
HETATM    7  N3  UNL     1      -0.750   2.890   1.574  1.00  0.00    -0.241 NA
HETATM    8  C13 UNL     1      -1.478   1.936   0.974  1.00  0.00     0.072 A 
HETATM    9  C14 UNL     1      -2.844   2.112   0.941  1.00  0.00     0.042 A 
HETATM   10  C15 UNL     1      -3.669   1.181   0.343  1.00  0.00    -0.026 A 
HETATM   11  C16 UNL     1      -5.133   1.436   0.344  1.00  0.00     0.051 C 
ENDROOT
BRANCH   4  12
HETATM   12  N1  UNL     1       1.123  -0.422  -0.087  1.00  0.00    -0.340 N 
HETATM   13  H5  UNL     1       0.567  -1.166  -0.549  1.00  0.00     0.167 HD
BRANCH  12  14
HETATM   14  C6  UNL     1       2.492  -0.791  -0.165  1.00  0.00     0.033 A 
HETATM   15  C7  UNL     1       2.999  -1.940  -0.733  1.00  0.00     0.032 A 
HETATM   16  C8  UNL     1       4.329  -2.249  -0.783  1.00  0.00     0.039 A 
HETATM   17  C9  UNL     1       5.267  -1.397  -0.250  1.00  0.00     0.065 A 
HETATM   18  C10 UNL     1       4.815  -0.242   0.326  1.00  0.00     0.039 A 
HETATM   19  C11 UNL     1       3.467   0.032   0.356  1.00  0.00     0.032 A 
BRANCH  17  20
HETATM   20  O2  UNL     1       6.581  -1.811  -0.358  1.00  0.00    -0.361 OA
HETATM   21  H8  UNL     1       7.378  -1.370   0.056  1.00  0.00     0.217 HD
ENDBRANCH  17  20
ENDBRANCH  12  14
ENDBRANCH   4  12
BRANCH   1  22
HETATM   22  O1  UNL     1      -3.895  -0.879  -0.825  1.00  0.00    -0.355 OA
HETATM   23  C1  UNL     1      -3.488  -2.055  -1.440  1.00  0.00     0.210 C 
ENDBRANCH   1  22
TORSDOF 4
