REMARK  7 active torsions:
REMARK  status: ('A' for Active; 'I' for Inactive)
REMARK    1  A    between atoms: O1_2  and  C2_3 
REMARK    2  A    between atoms: N1_6  and  C5_7 
REMARK    3  A    between atoms: C7_11  and  C8_12 
REMARK    4  A    between atoms: C8_12  and  C9_13 
REMARK    5  A    between atoms: C9_13  and  C10_14 
REMARK    6  A    between atoms: C12_16  and  C13_17 
REMARK    7  A    between atoms: C13_17  and  O2_18 
ROOT
HETATM    1  C5  UNL     1      -1.174  -0.053  -0.844  1.00  0.00     0.145 A 
HETATM    2  N2  UNL     1      -2.010  -0.601  -1.761  1.00  0.00    -0.223 NA
HETATM    3  C6  UNL     1      -1.535  -0.762  -3.031  1.00  0.00     0.235 A 
HETATM    4  N3  UNL     1      -0.258  -0.367  -3.304  1.00  0.00    -0.246 NA
HETATM    5  C7  UNL     1       0.529   0.169  -2.355  1.00  0.00     0.048 A 
HETATM    6  C12 UNL     1       0.120   0.363  -1.062  1.00  0.00     0.036 A 
ENDROOT
BRANCH   1   7
HETATM    7  N1  UNL     1      -1.862   0.004   0.391  1.00  0.00    -0.317 N 
HETATM    8  C4  UNL     1      -1.505  -0.887   1.429  1.00  0.00     0.097 A 
HETATM    9  C3  UNL     1      -2.026  -1.017   2.615  1.00  0.00     0.026 A 
HETATM   10  C2  UNL     1      -3.156  -0.151   3.021  1.00  0.00     0.169 A 
HETATM   11  C16 UNL     1      -3.499   0.762   1.929  1.00  0.00     0.026 A 
HETATM   12  C15 UNL     1      -2.953   0.877   0.725  1.00  0.00     0.097 A 
BRANCH  10  13
HETATM   13  O1  UNL     1      -4.202  -1.004   3.375  1.00  0.00    -0.383 OA
HETATM   14  C1  UNL     1      -4.580  -0.893   4.691  1.00  0.00     0.202 C 
ENDBRANCH  10  13
ENDBRANCH   1   7
BRANCH   6  15
HETATM   15  C13 UNL     1       0.876   0.954   0.040  1.00  0.00     0.211 C 
BRANCH  15  16
HETATM   16  O2  UNL     1       0.504   2.289   0.318  1.00  0.00    -0.391 OA
HETATM   17  C14 UNL     1       1.245   2.797   1.375  1.00  0.00     0.201 C 
ENDBRANCH  15  16
ENDBRANCH   6  15
BRANCH   5  18
HETATM   18  C8  UNL     1       1.939   0.518  -2.748  1.00  0.00     0.060 C 
BRANCH  18  19
HETATM   19  C9  UNL     1       2.796  -0.646  -2.311  1.00  0.00     0.006 C 
BRANCH  19  20
HETATM   20  C10 UNL     1       4.256  -0.479  -2.626  1.00  0.00    -0.004 C 
HETATM   21  C11 UNL     1       4.932  -1.748  -2.113  1.00  0.00     0.005 C 
ENDBRANCH  19  20
ENDBRANCH  18  19
ENDBRANCH   5  18
TORSDOF 7
