REMARK  7 active torsions:
REMARK  status: ('A' for Active; 'I' for Inactive)
REMARK    1  A    between atoms: O1_2  and  C2_3 
REMARK    2  A    between atoms: C2_3  and  O2_4 
REMARK    3  A    between atoms: C2_3  and  C3_5 
REMARK    4  A    between atoms: C3_5  and  O3_6 
REMARK    5  A    between atoms: C3_5  and  C5_8 
REMARK    6  A    between atoms: C8_11  and  N1_12 
REMARK    7  A    between atoms: N1_12  and  C9_13 
ROOT
HETATM    1  C5  UNL     1      -1.816  -0.461   0.119  1.00  0.00    -0.025 A 
HETATM    2  C6  UNL     1      -1.277  -1.217   1.138  1.00  0.00     0.012 A 
HETATM    3  C7  UNL     1       0.076  -1.358   1.349  1.00  0.00     0.030 A 
HETATM    4  C8  UNL     1       0.989  -0.714   0.508  1.00  0.00     0.033 A 
HETATM    5  C14 UNL     1       0.421   0.034  -0.499  1.00  0.00     0.030 A 
HETATM    6  C15 UNL     1      -0.930   0.181  -0.719  1.00  0.00     0.012 A 
ENDROOT
BRANCH   4   7
HETATM    7  N1  UNL     1       2.391  -0.833   0.693  1.00  0.00    -0.341 N 
HETATM    8  H12 UNL     1       2.673  -1.447   1.515  1.00  0.00     0.167 HD
BRANCH   7   9
HETATM    9  C9  UNL     1       3.449  -0.256  -0.057  1.00  0.00     0.131 A 
HETATM   10  C10 UNL     1       4.748  -0.514   0.310  1.00  0.00     0.077 A 
HETATM   11  C11 UNL     1       5.834  -0.000  -0.354  1.00  0.00     0.035 A 
HETATM   12  C12 UNL     1       7.207  -0.298   0.068  1.00  0.00     0.070 C 
HETATM   13  N2  UNL     1       5.591   0.786  -1.406  1.00  0.00    -0.247 NA
HETATM   14  C13 UNL     1       4.345   1.079  -1.818  1.00  0.00     0.235 A 
HETATM   15  N3  UNL     1       3.348   0.535  -1.113  1.00  0.00    -0.224 NA
ENDBRANCH   7   9
ENDBRANCH   4   7
BRANCH   1  16
HETATM   16  C3  UNL     1      -3.295  -0.404   0.019  1.00  0.00     0.208 C 
BRANCH  16  17
HETATM   17  C2  UNL     1      -3.769   0.750  -0.844  1.00  0.00     0.289 C 
BRANCH  17  18
HETATM   18  O1  UNL     1      -3.244   1.920  -0.323  1.00  0.00    -0.363 OA
HETATM   19  C1  UNL     1      -4.290   2.702   0.196  1.00  0.00     0.204 C 
ENDBRANCH  17  18
BRANCH  17  20
HETATM   20  O2  UNL     1      -3.519   0.572  -2.186  1.00  0.00    -0.368 OA
HETATM   21  H5  UNL     1      -3.575  -0.360  -2.452  1.00  0.00     0.212 HD
ENDBRANCH  17  20
ENDBRANCH  16  17
BRANCH  16  22
HETATM   22  O3  UNL     1      -3.785  -0.185   1.327  1.00  0.00    -0.381 OA
HETATM   23  C4  UNL     1      -4.664  -1.164   1.727  1.00  0.00     0.202 C 
ENDBRANCH  16  22
ENDBRANCH   1  16
TORSDOF 7
