REMARK  7 active torsions:
REMARK  status: ('A' for Active; 'I' for Inactive)
REMARK    1  A    between atoms: O1_2  and  C2_3 
REMARK    2  A    between atoms: C7_8  and  O2_9 
REMARK    3  A    between atoms: C9_11  and  N1_12 
REMARK    4  A    between atoms: N1_12  and  C10_13 
REMARK    5  A    between atoms: C12_15  and  O3_16 
REMARK    6  A    between atoms: C14_18  and  O4_19 
REMARK    7  A    between atoms: C16_21  and  O5_22 
ROOT
HETATM    1  C2  UNL     1       4.402  -0.717   0.178  1.00  0.00     0.103 A 
HETATM    2  C3  UNL     1       3.866  -1.331   1.306  1.00  0.00     0.071 A 
HETATM    3  C4  UNL     1       2.615  -1.017   1.804  1.00  0.00     0.068 A 
HETATM    4  C5  UNL     1       1.917  -0.048   1.111  1.00  0.00     0.021 A 
HETATM    5  C6  UNL     1       2.386   0.603  -0.015  1.00  0.00     0.055 A 
HETATM    6  C7  UNL     1       3.637   0.249  -0.464  1.00  0.00     0.102 A 
HETATM    7  C9  UNL     1       0.743   0.151   1.695  1.00  0.00     0.062 A 
HETATM    8  C19 UNL     1       0.653  -0.756   2.868  1.00  0.00     0.255 A 
HETATM    9 CL1  UNL     1       0.654   0.263   4.319  1.00  0.00    -0.094 Cl
HETATM   10  N2  UNL     1       1.925  -1.441   2.809  1.00  0.00    -0.262 NA
ENDROOT
BRANCH   7  11
HETATM   11  N1  UNL     1      -0.359   0.981   1.458  1.00  0.00    -0.356 N 
HETATM   12  H9  UNL     1      -0.250   1.917   1.899  1.00  0.00     0.166 HD
BRANCH  11  13
HETATM   13  C10 UNL     1      -1.537   0.679   0.719  1.00  0.00     0.037 A 
HETATM   14  C11 UNL     1      -2.542   1.614   0.576  1.00  0.00     0.069 A 
HETATM   15  C12 UNL     1      -3.665   1.260  -0.156  1.00  0.00     0.106 A 
HETATM   16  C14 UNL     1      -3.792   0.013  -0.733  1.00  0.00     0.135 A 
HETATM   17  C16 UNL     1      -2.767  -0.928  -0.583  1.00  0.00     0.106 A 
HETATM   18  C18 UNL     1      -1.655  -0.572   0.145  1.00  0.00     0.069 A 
BRANCH  15  19
HETATM   19  O3  UNL     1      -4.713   2.153  -0.338  1.00  0.00    -0.353 OA
HETATM   20  C13 UNL     1      -4.752   3.457   0.176  1.00  0.00     0.210 C 
ENDBRANCH  15  19
BRANCH  16  21
HETATM   21  O4  UNL     1      -4.953  -0.297  -1.467  1.00  0.00    -0.351 OA
HETATM   22  C15 UNL     1      -5.048  -0.055  -2.849  1.00  0.00     0.210 C 
ENDBRANCH  16  21
BRANCH  17  23
HETATM   23  O5  UNL     1      -2.984  -2.154  -1.199  1.00  0.00    -0.353 OA
HETATM   24  C17 UNL     1      -1.972  -3.134  -1.071  1.00  0.00     0.210 C 
ENDBRANCH  17  23
ENDBRANCH  11  13
ENDBRANCH   7  11
BRANCH   6  25
HETATM   25  O2  UNL     1       4.234   0.807  -1.566  1.00  0.00    -0.353 OA
HETATM   26  C8  UNL     1       3.707   1.794  -2.401  1.00  0.00     0.210 C 
ENDBRANCH   6  25
BRANCH   1  27
HETATM   27  O1  UNL     1       5.676  -1.084  -0.271  1.00  0.00    -0.353 OA
HETATM   28  C1  UNL     1       6.332  -2.084   0.489  1.00  0.00     0.210 C 
ENDBRANCH   1  27
TORSDOF 7
