REMARK  5 active torsions:
REMARK  status: ('A' for Active; 'I' for Inactive)
REMARK    1  A    between atoms: O1_2  and  C2_3 
REMARK    2  A    between atoms: C7_10  and  N3_11 
REMARK    3  A    between atoms: N3_11  and  C8_12 
REMARK    4  A    between atoms: C11_15  and  O2_16 
REMARK    5  A    between atoms: S1_20  and  O3_21 
ROOT
HETATM    1  C2  UNL     1       1.724   1.047   0.166  1.00  0.00     0.124 A 
HETATM    2  C3  UNL     1       0.636   0.383   0.492  1.00  0.00     0.063 A 
HETATM    3  C4  UNL     1       0.529  -1.072   0.423  1.00  0.00     0.042 A 
HETATM    4  C5  UNL     1       1.503  -1.956   0.022  1.00  0.00     0.080 A 
HETATM    5  N1  UNL     1       1.237  -3.289   0.016  1.00  0.00    -0.241 NA
HETATM    6  C6  UNL     1       0.057  -3.811   0.385  1.00  0.00     0.236 A 
HETATM    7  N2  UNL     1      -0.912  -2.963   0.781  1.00  0.00    -0.224 NA
HETATM    8  C7  UNL     1      -0.700  -1.616   0.807  1.00  0.00     0.142 A 
HETATM    9  C14 UNL     1       2.840  -1.575  -0.411  1.00  0.00     0.102 A 
HETATM   10  S1  UNL     1       3.121   0.051  -0.389  1.00  0.00    -0.005 SA
ENDROOT
BRANCH   8  11
HETATM   11  N3  UNL     1      -1.777  -0.799   1.238  1.00  0.00    -0.340 N 
HETATM   12  H6  UNL     1      -1.629  -0.728   2.285  1.00  0.00     0.167 HD
BRANCH  11  13
HETATM   13  C8  UNL     1      -2.852  -0.159   0.601  1.00  0.00     0.033 A 
HETATM   14  C9  UNL     1      -3.742   0.583   1.355  1.00  0.00     0.032 A 
HETATM   15  C10 UNL     1      -4.765   1.173   0.640  1.00  0.00     0.039 A 
HETATM   16  C11 UNL     1      -4.920   1.054  -0.728  1.00  0.00     0.065 A 
HETATM   17  C12 UNL     1      -3.998   0.301  -1.419  1.00  0.00     0.039 A 
HETATM   18  C13 UNL     1      -2.966  -0.308  -0.777  1.00  0.00     0.032 A 
BRANCH  16  19
HETATM   19  O2  UNL     1      -6.011   1.711  -1.323  1.00  0.00    -0.361 OA
HETATM   20  H9  UNL     1      -6.939   1.302  -1.324  1.00  0.00     0.217 HD
ENDBRANCH  16  19
ENDBRANCH  11  13
ENDBRANCH   8  11
BRANCH   1  21
HETATM   21  O1  UNL     1       1.813   2.407   0.235  1.00  0.00    -0.348 OA
HETATM   22  C1  UNL     1       2.796   3.150  -0.461  1.00  0.00     0.211 C 
ENDBRANCH   1  21
BRANCH  10  23
HETATM   23  O3  UNL     1       4.647   0.727  -0.720  1.00  0.00    -0.326 OA
HETATM   24  C15 UNL     1       5.630  -0.180  -0.306  1.00  0.00     0.220 C 
ENDBRANCH  10  23
TORSDOF 5
