REMARK  1 active torsions:
REMARK  status: ('A' for Active; 'I' for Inactive)
REMARK    1  A    between atoms: C8_10  and  S1_11 
ROOT
HETATM    1  C1  UNL     1       2.966  -1.133   2.212  1.00  0.00     0.019 C 
HETATM    2  C2  UNL     1       2.122  -0.937   0.981  1.00  0.00    -0.004 C 
HETATM    3  C3  UNL     1       2.232   0.395   0.956  1.00  0.00     0.030 C 
HETATM    4  C4  UNL     1       2.198   1.820   0.723  1.00  0.00     0.019 C 
HETATM    5  C5  UNL     1       1.610   2.646  -0.079  1.00  0.00     0.110 C 
HETATM    6  F1  UNL     1       2.221   3.780   0.433  1.00  0.00    -0.209 F 
HETATM    7  C6  UNL     1       0.631   3.250  -0.987  1.00  0.00     0.156 A 
HETATM    8  C7  UNL     1      -0.612   2.912  -1.450  1.00  0.00     0.098 A 
HETATM    9 CL1  UNL     1       0.103   1.817  -0.344  1.00  0.00    -0.192 Cl
HETATM   10  C8  UNL     1      -1.872   2.190  -1.625  1.00  0.00     0.167 C 
HETATM   11  N1  UNL     1      -2.026   0.807  -1.497  1.00  0.00    -0.375 N 
HETATM   12  C9  UNL     1      -1.958  -0.332  -0.734  1.00  0.00     0.031 A 
HETATM   13  C10 UNL     1      -3.039  -1.051  -0.127  1.00  0.00     0.029 A 
HETATM   14  C11 UNL     1      -2.862  -2.170   0.630  1.00  0.00     0.005 A 
HETATM   15  C12 UNL     1      -1.673  -2.785   0.942  1.00  0.00     0.037 A 
HETATM   16  C13 UNL     1      -0.525  -2.154   0.393  1.00  0.00     0.070 A 
HETATM   17  C14 UNL     1      -0.941  -1.080  -0.309  1.00  0.00     0.065 A 
HETATM   18  O1  UNL     1       0.693  -2.853   0.746  1.00  0.00    -0.350 OA
HETATM   19  C15 UNL     1       1.844  -2.192   0.262  1.00  0.00     0.186 C 
HETATM   20  H9  UNL     1      -2.374   0.247  -2.325  1.00  0.00     0.161 HD
ENDROOT
BRANCH  10  21
HETATM   21  S1  UNL     1      -2.628   2.779  -3.182  1.00  0.00    -0.155 SA
HETATM   22  H8  UNL     1      -3.590   1.836  -3.622  1.00  0.00     0.103 HD
ENDBRANCH  10  21
TORSDOF 1
