REMARK  3 active torsions:
REMARK  status: ('A' for Active; 'I' for Inactive)
REMARK    1  A    between atoms: O1_2  and  C2_3 
REMARK    2  A    between atoms: C11_16  and  O3_17 
REMARK    3  A    between atoms: C18_25  and  O5_26 
ROOT
HETATM    1  C2  UNL     1       3.235   0.586   0.368  1.00  0.00     0.074 C 
HETATM    2  C3  UNL     1       2.155  -0.243   0.559  1.00  0.00    -0.010 C 
HETATM    3  B1  UNL     1       2.124  -1.776   0.800  1.00  0.00     0.217 B 
HETATM    4  C4  UNL     1       0.921  -2.705   0.338  1.00  0.00    -0.055 A 
HETATM    5  C5  UNL     1       1.481  -3.927   0.082  1.00  0.00     0.115 A 
HETATM    6  N1  UNL     1       0.826  -5.030  -0.306  1.00  0.00    -0.255 NA
HETATM    7  C6  UNL     1      -0.496  -4.960  -0.466  1.00  0.00     0.232 A 
HETATM    8  N2  UNL     1      -1.059  -3.767  -0.219  1.00  0.00    -0.246 NA
HETATM    9  C7  UNL     1      -0.422  -2.655   0.168  1.00  0.00     0.042 A 
HETATM   10  C8  UNL     1      -1.622  -1.870   0.164  1.00  0.00     0.088 A 
HETATM   11  C9  UNL     1      -2.411  -0.879   0.143  1.00  0.00    -0.007 A 
HETATM   12  O2  UNL     1      -3.231  -2.029   0.203  1.00  0.00     0.000 OA
HETATM   13  C10 UNL     1      -4.056  -2.424  -0.884  1.00  0.00     0.000 C 
HETATM   14  C11 UNL     1      -2.896   0.461   0.106  1.00  0.00     0.065 C 
HETATM   15  C13 UNL     1      -1.824   1.154   0.082  1.00  0.00     0.043 A 
HETATM   16  O4  UNL     1      -2.570   2.369   0.037  1.00  0.00     0.000 OA
HETATM   17  C14 UNL     1      -3.224   2.814  -1.135  1.00  0.00     0.000 C 
HETATM   18  C15 UNL     1      -0.961   2.278   0.035  1.00  0.00     0.016 A 
HETATM   19  C16 UNL     1       0.277   2.584   0.037  1.00  0.00     0.006 C 
HETATM   20  C17 UNL     1       1.697   2.730   0.054  1.00  0.00     0.035 C 
HETATM   21  C18 UNL     1       2.807   1.982   0.169  1.00  0.00     0.096 C 
HETATM   22  H5  UNL     1       2.456  -2.070   1.984  1.00  0.00    -0.015 HD
ENDROOT
BRANCH   1  23
HETATM   23  O1  UNL     1       4.665   0.608   0.285  1.00  0.00    -0.358 OA
HETATM   24  C1  UNL     1       5.468  -0.211   1.096  1.00  0.00     0.209 C 
ENDBRANCH   1  23
BRANCH  21  25
HETATM   25  O5  UNL     1       3.850   2.944   0.042  1.00  0.00    -0.353 OA
HETATM   26  C19 UNL     1       4.568   3.082  -1.165  1.00  0.00     0.210 C 
ENDBRANCH  21  25
BRANCH  14  27
HETATM   27  O3  UNL     1      -4.255   0.551   0.100  1.00  0.00    -0.359 OA
HETATM   28  C12 UNL     1      -5.059   0.910   1.210  1.00  0.00     0.209 C 
ENDBRANCH  14  27
TORSDOF 3
