REMARK  2 active torsions:
REMARK  status: ('A' for Active; 'I' for Inactive)
REMARK    1  A    between atoms: C6_7  and  O2_8 
REMARK    2  A    between atoms: C18_25  and  O4_26 
ROOT
HETATM    1  C1  UNL     1      -0.316   4.374   1.181  1.00  0.00     0.000 C 
HETATM    2  O1  UNL     1      -1.149   3.158   1.115  1.00  0.00     0.000 OA
HETATM    3  C2  UNL     1      -1.268   2.769  -0.131  1.00  0.00     0.024 A 
HETATM    4  C3  UNL     1      -0.393   2.059   0.868  1.00  0.00     0.080 A 
HETATM    5  C4  UNL     1      -0.569   0.538   1.345  1.00  0.00     0.019 C 
HETATM    6  C5  UNL     1      -1.533  -0.131   0.501  1.00  0.00     0.041 C 
HETATM    7  C6  UNL     1      -1.289  -0.172  -1.101  1.00  0.00     0.104 A 
HETATM    8  C8  UNL     1      -0.098   0.451  -1.999  1.00  0.00     0.137 A 
HETATM    9  P1  UNL     1      -0.289   0.857  -1.684  1.00  0.00    -0.078 P 
HETATM   10  C9  UNL     1      -0.814   1.909  -0.837  1.00  0.00    -0.058 A 
HETATM   11  C10 UNL     1       0.720  -1.036  -3.241  1.00  0.00     0.196 C 
HETATM   12  O3  UNL     1       1.816  -1.014  -2.396  1.00  0.00    -0.374 OA
HETATM   13  C11 UNL     1       1.383  -1.383  -1.075  1.00  0.00     0.100 A 
HETATM   14  C12 UNL     1       0.466  -2.552  -0.883  1.00  0.00     0.174 A 
HETATM   15  C13 UNL     1       0.063  -2.722   0.468  1.00  0.00     0.060 A 
HETATM   16  N1  UNL     1      -0.830  -3.494   1.044  1.00  0.00    -0.222 NA
HETATM   17  C14 UNL     1      -1.269  -3.278   2.361  1.00  0.00     0.225 A 
HETATM   18 CL1  UNL     1      -2.700  -4.371   2.432  1.00  0.00    -0.041 Cl
HETATM   19  N2  UNL     1      -0.625  -2.150   2.966  1.00  0.00    -0.200 NA
HETATM   20  C15 UNL     1       0.235  -1.617   2.002  1.00  0.00     0.143 A 
HETATM   21  C16 UNL     1       0.800  -1.647   0.756  1.00  0.00     0.038 A 
HETATM   22  C17 UNL     1       1.560  -0.560   0.978  1.00  0.00     0.052 A 
HETATM   23  C18 UNL     1       1.953  -0.400  -0.212  1.00  0.00     0.076 A 
HETATM   24  N3  UNL     1       0.108  -0.220   2.457  1.00  0.00    -0.343 N 
HETATM   25  H17 UNL     1       0.411   0.176   3.365  1.00  0.00     0.167 HD
ENDROOT
BRANCH   7  26
HETATM   26  O2  UNL     1      -2.453  -0.826  -0.726  1.00  0.00    -0.376 OA
HETATM   27  C7  UNL     1      -2.897  -1.796  -1.693  1.00  0.00     0.203 C 
ENDBRANCH   7  26
BRANCH  23  28
HETATM   28  O4  UNL     1       2.785   0.510  -0.733  1.00  0.00    -0.357 OA
HETATM   29  C19 UNL     1       3.420   1.552  -0.082  1.00  0.00     0.209 C 
ENDBRANCH  23  28
TORSDOF 2
