REMARK  6 active torsions:
REMARK  status: ('A' for Active; 'I' for Inactive)
REMARK    1  A    between atoms: C2_2  and  N1_3 
REMARK    2  A    between atoms: N1_3  and  C3_4 
REMARK    3  A    between atoms: C4_5  and  O1_6 
REMARK    4  A    between atoms: N2_9  and  C7_10 
REMARK    5  A    between atoms: C11_17  and  O2_18 
REMARK    6  A    between atoms: C13_20  and  O3_21 
ROOT
HETATM    1  C7  UNL     1       1.294  -0.725   0.176  1.00  0.00     0.142 A 
HETATM    2  N3  UNL     1       1.066  -1.486   1.260  1.00  0.00    -0.200 NA
HETATM    3  C8  UNL     1       2.139  -1.782   2.045  1.00  0.00     0.225 A 
HETATM    4 CL1  UNL     1       1.970  -2.775   3.500  1.00  0.00    -0.041 Cl
HETATM    5  N4  UNL     1       3.390  -1.331   1.751  1.00  0.00    -0.218 NA
HETATM    6  C9  UNL     1       3.609  -0.564   0.656  1.00  0.00     0.077 A 
HETATM    7  C10 UNL     1       4.830  -0.066   0.279  1.00  0.00     0.072 A 
HETATM    8  C11 UNL     1       4.963   0.703  -0.852  1.00  0.00     0.103 A 
HETATM    9  C13 UNL     1       3.855   1.000  -1.650  1.00  0.00     0.100 A 
HETATM   10  C14 UNL     1       2.599   0.515  -1.302  1.00  0.00     0.057 A 
HETATM   11  C15 UNL     1       2.544  -0.248  -0.156  1.00  0.00     0.042 A 
ENDROOT
BRANCH   1  12
HETATM   12  N2  UNL     1       0.054  -0.499  -0.529  1.00  0.00    -0.355 N 
HETATM   13  C6  UNL     1      -0.600   0.772  -0.736  1.00  0.00     0.191 C 
HETATM   14  C4  UNL     1      -1.912   0.862  -0.066  1.00  0.00     0.086 C 
HETATM   15  C3  UNL     1      -2.701   0.299   0.827  1.00  0.00     0.039 C 
HETATM   16  C19 UNL     1      -2.567  -0.870   1.681  1.00  0.00     0.086 C 
HETATM   17  C18 UNL     1      -1.796  -2.000   1.182  1.00  0.00    -0.023 C 
HETATM   18  C17 UNL     1      -0.961  -2.497   0.250  1.00  0.00    -0.011 C 
HETATM   19  C16 UNL     1      -0.366  -1.831  -0.966  1.00  0.00     0.152 C 
BRANCH  14  20
HETATM   20  O1  UNL     1      -2.557   1.996  -0.601  1.00  0.00    -0.357 OA
HETATM   21  C5  UNL     1      -3.378   1.752  -1.738  1.00  0.00     0.209 C 
ENDBRANCH  14  20
BRANCH  15  22
HETATM   22  N1  UNL     1      -3.952   1.008   0.973  1.00  0.00    -0.391 N 
HETATM   23  H6  UNL     1      -3.953   2.025   0.656  1.00  0.00     0.159 HD
BRANCH  22  24
HETATM   24  C2  UNL     1      -5.142   0.384   1.518  1.00  0.00     0.115 C 
HETATM   25  C1  UNL     1      -5.731  -0.678   0.650  1.00  0.00     0.026 C 
ENDBRANCH  22  24
ENDBRANCH  15  22
ENDBRANCH   1  12
BRANCH   9  26
HETATM   26  O3  UNL     1       3.989   1.787  -2.808  1.00  0.00    -0.358 OA
HETATM   27  H16 UNL     1       4.202   2.770  -2.642  1.00  0.00     0.217 HD
ENDBRANCH   9  26
BRANCH   8  28
HETATM   28  O2  UNL     1       6.170   1.227  -1.275  1.00  0.00    -0.353 OA
HETATM   29  C12 UNL     1       7.361   1.008  -0.569  1.00  0.00     0.210 C 
ENDBRANCH   8  28
TORSDOF 6
