REMARK  7 active torsions:
REMARK  status: ('A' for Active; 'I' for Inactive)
REMARK    1  A    between atoms: O1_2  and  C2_3 
REMARK    2  A    between atoms: C5_6  and  N1_7 
REMARK    3  A    between atoms: N1_7  and  C6_8 
REMARK    4  A    between atoms: C8_10  and  O2_11 
REMARK    5  A    between atoms: C10_13  and  O3_14 
REMARK    6  A    between atoms: C12_16  and  O4_17 
REMARK    7  A    between atoms: C17_25  and  O5_26 
ROOT
HETATM    1  C2  UNL     1      -3.580   0.300   0.789  1.00  0.00     0.081 A 
HETATM    2  C3  UNL     1      -2.434   0.621   0.167  1.00  0.00     0.052 A 
HETATM    3  C4  UNL     1      -1.905  -0.521  -0.606  1.00  0.00     0.040 A 
HETATM    4  C5  UNL     1      -0.819  -0.778  -1.416  1.00  0.00     0.143 A 
HETATM    5  N2  UNL     1      -0.651  -1.991  -1.992  1.00  0.00    -0.200 NA
HETATM    6  C15 UNL     1      -1.548  -2.979  -1.783  1.00  0.00     0.225 A 
HETATM    7 CL1  UNL     1      -1.244  -4.512  -2.569  1.00  0.00    -0.041 Cl
HETATM    8  N3  UNL     1      -2.626  -2.741  -0.984  1.00  0.00    -0.219 NA
HETATM    9  C16 UNL     1      -2.814  -1.536  -0.399  1.00  0.00     0.087 A 
HETATM   10  C17 UNL     1      -3.944  -1.112   0.493  1.00  0.00     0.230 A 
ENDROOT
BRANCH   4  11
HETATM   11  N1  UNL     1       0.047   0.365  -1.532  1.00  0.00    -0.340 N 
HETATM   12  H5  UNL     1      -0.223   1.170  -2.154  1.00  0.00     0.167 HD
BRANCH  11  13
HETATM   13  C6  UNL     1       1.278   0.454  -0.825  1.00  0.00     0.039 A 
HETATM   14  C7  UNL     1       1.863  -0.643  -0.228  1.00  0.00     0.069 A 
HETATM   15  C8  UNL     1       3.049  -0.649   0.472  1.00  0.00     0.106 A 
HETATM   16  C10 UNL     1       3.694   0.590   0.568  1.00  0.00     0.135 A 
HETATM   17  C12 UNL     1       3.136   1.729  -0.024  1.00  0.00     0.106 A 
HETATM   18  C14 UNL     1       1.946   1.646  -0.706  1.00  0.00     0.069 A 
BRANCH  15  19
HETATM   19  O2  UNL     1       3.589  -1.787   1.050  1.00  0.00    -0.353 OA
HETATM   20  C9  UNL     1       2.880  -3.000   0.906  1.00  0.00     0.210 C 
ENDBRANCH  15  19
BRANCH  16  21
HETATM   21  O3  UNL     1       4.901   0.562   1.286  1.00  0.00    -0.351 OA
HETATM   22  C11 UNL     1       6.149   0.305   0.683  1.00  0.00     0.210 C 
ENDBRANCH  16  21
BRANCH  17  23
HETATM   23  O4  UNL     1       3.897   2.869   0.164  1.00  0.00    -0.353 OA
HETATM   24  C13 UNL     1       3.473   4.101  -0.360  1.00  0.00     0.210 C 
ENDBRANCH  17  23
ENDBRANCH  11  13
ENDBRANCH   4  11
BRANCH   1  25
HETATM   25  O1  UNL     1      -4.220   1.260   1.565  1.00  0.00    -0.357 OA
HETATM   26  C1  UNL     1      -4.541   2.491   0.935  1.00  0.00     0.209 C 
ENDBRANCH   1  25
BRANCH  10  27
HETATM   27  O5  UNL     1      -5.127  -1.111  -0.248  1.00  0.00    -0.378 OA
HETATM   28  C18 UNL     1      -6.054  -1.905   0.419  1.00  0.00     0.203 C 
ENDBRANCH  10  27
TORSDOF 7
