REMARK  5 active torsions:
REMARK  status: ('A' for Active; 'I' for Inactive)
REMARK    1  A    between atoms: O1_2  and  C2_3 
REMARK    2  A    between atoms: C5_6  and  O2_7 
REMARK    3  A    between atoms: C7_9  and  O3_10 
REMARK    4  A    between atoms: C12_16  and  O4_17 
REMARK    5  A    between atoms: O4_17  and  C13_18 
ROOT
HETATM    1  C2  UNL     1       0.880   1.656   0.838  1.00  0.00     0.065 C 
HETATM    2  C3  UNL     1      -0.497   1.819   0.832  1.00  0.00     0.030 C 
HETATM    3  C4  UNL     1      -1.025   0.549   0.187  1.00  0.00     0.083 A 
HETATM    4  C5  UNL     1      -1.552   0.984  -0.974  1.00  0.00     0.095 A 
HETATM    5  C7  UNL     1      -1.579  -0.134  -1.817  1.00  0.00     0.096 A 
HETATM    6  C9  UNL     1      -1.080  -1.368  -1.304  1.00  0.00     0.031 A 
HETATM    7  C10 UNL     1      -0.726  -1.052  -0.088  1.00  0.00     0.082 A 
HETATM    8  C11 UNL     1       0.160  -1.958   0.531  1.00  0.00     0.171 A 
HETATM    9  N1  UNL     1       0.894  -2.221   1.646  1.00  0.00    -0.213 NA
HETATM   10  C12 UNL     1       0.825  -1.265   2.648  1.00  0.00     0.263 A 
HETATM   11  N2  UNL     1       0.024  -0.305   2.181  1.00  0.00    -0.231 NA
HETATM   12  C14 UNL     1      -0.487  -0.470   1.005  1.00  0.00     0.140 A 
HETATM   13  N3  UNL     1       1.025  -2.805  -0.373  1.00  0.00    -0.389 N 
HETATM   14  C15 UNL     1       1.465  -1.623  -1.061  1.00  0.00     0.144 C 
HETATM   15  C16 UNL     1       2.181  -0.558  -0.267  1.00  0.00    -0.005 C 
HETATM   16  C17 UNL     1       1.603   0.538   0.291  1.00  0.00     0.034 C 
HETATM   17  H14 UNL     1       1.219  -3.816  -0.460  1.00  0.00     0.156 HD
ENDROOT
BRANCH  10  18
HETATM   18  O4  UNL     1       1.438  -1.303   3.836  1.00  0.00    -0.305 OA
BRANCH  18  19
HETATM   19  C13 UNL     1       2.275  -2.422   4.189  1.00  0.00     0.293 C 
HETATM   20 CL1  UNL     1       1.386  -3.947   4.209  1.00  0.00    -0.101 Cl
ENDBRANCH  18  19
ENDBRANCH  10  18
BRANCH   4  21
HETATM   21  O2  UNL     1      -2.009   2.230  -1.383  1.00  0.00    -0.356 OA
HETATM   22  C6  UNL     1      -3.367   2.565  -1.180  1.00  0.00     0.209 C 
ENDBRANCH   4  21
BRANCH   5  23
HETATM   23  O3  UNL     1      -2.067  -0.089  -3.110  1.00  0.00    -0.354 OA
HETATM   24  C8  UNL     1      -2.098  -1.243  -3.933  1.00  0.00     0.210 C 
ENDBRANCH   5  23
BRANCH   1  25
HETATM   25  O1  UNL     1       1.214   2.819   1.450  1.00  0.00    -0.356 OA
HETATM   26  C1  UNL     1       1.256   4.106   0.861  1.00  0.00     0.210 C 
ENDBRANCH   1  25
TORSDOF 5
