REMARK  4 active torsions:
REMARK  status: ('A' for Active; 'I' for Inactive)
REMARK    1  A    between atoms: O1_2  and  C2_3 
REMARK    2  A    between atoms: C9_12  and  N3_13 
REMARK    3  A    between atoms: C11_15  and  O2_16 
REMARK    4  A    between atoms: C15_20  and  O3_21 
ROOT
HETATM    1  C2  UNL     1      -2.640   0.687  -1.226  1.00  0.00     0.069 C 
HETATM    2  C3  UNL     1      -1.479   0.186  -0.923  1.00  0.00     0.049 C 
HETATM    3  C4  UNL     1      -1.227  -0.786   0.117  1.00  0.00     0.141 C 
HETATM    4  N1  UNL     1       0.032  -1.566  -0.042  1.00  0.00    -0.368 N 
HETATM    5  C5  UNL     1       1.327  -1.136   0.428  1.00  0.00     0.026 C 
HETATM    6  C6  UNL     1       1.736  -0.366   1.475  1.00  0.00     0.016 C 
HETATM    7  C7  UNL     1       1.746   1.115   1.019  1.00  0.00     0.075 C 
HETATM    8  C8  UNL     1       0.675   1.611   1.758  1.00  0.00     0.098 C 
HETATM    9  N2  UNL     1      -0.579   1.139   1.643  1.00  0.00    -0.276 NA
HETATM   10  C9  UNL     1      -1.230  -0.121   1.467  1.00  0.00     0.237 C 
HETATM   11  C10 UNL     1       3.111   1.360   0.868  1.00  0.00     0.019 C 
HETATM   12  C11 UNL     1       3.973   0.708   0.012  1.00  0.00     0.044 C 
HETATM   13  C12 UNL     1       4.218  -0.330  -0.989  1.00  0.00     0.091 C 
HETATM   14  C13 UNL     1       3.223  -1.384  -1.232  1.00  0.00    -0.018 C 
HETATM   15  C14 UNL     1       2.060  -1.791  -0.676  1.00  0.00     0.025 C 
HETATM   16  C15 UNL     1      -2.244  -1.871   0.185  1.00  0.00     0.101 C 
HETATM   17  C16 UNL     1      -3.527  -1.867  -0.164  1.00  0.00     0.170 C 
HETATM   18  O4  UNL     1      -4.301  -0.868  -0.689  1.00  0.00    -0.354 OA
HETATM   19  C17 UNL     1      -4.024   0.512  -0.714  1.00  0.00     0.238 C 
HETATM   20  H5  UNL     1       0.256  -2.503  -0.482  1.00  0.00     0.161 HD
ENDROOT
BRANCH  10  21
HETATM   21  N3  UNL     1      -0.946  -1.075   2.519  1.00  0.00    -0.407 N 
HETATM   22  H10 UNL     1      -0.563  -1.969   2.220  1.00  0.00     0.152 HD
HETATM   23  H11 UNL     1      -0.507  -0.648   3.350  1.00  0.00     0.152 HD
ENDBRANCH  10  21
BRANCH  16  24
HETATM   24  O3  UNL     1      -1.883  -3.129   0.679  1.00  0.00    -0.360 OA
HETATM   25  H18 UNL     1      -2.257  -3.567   1.487  1.00  0.00     0.217 HD
ENDBRANCH  16  24
BRANCH   1  26
HETATM   26  O1  UNL     1      -2.477   1.596  -2.290  1.00  0.00    -0.358 OA
HETATM   27  C1  UNL     1      -2.368   2.961  -1.890  1.00  0.00     0.209 C 
ENDBRANCH   1  26
BRANCH  12  28
HETATM   28  O2  UNL     1       5.231   1.358   0.185  1.00  0.00    -0.365 OA
HETATM   29  H13 UNL     1       5.642   1.886  -0.566  1.00  0.00     0.217 HD
ENDBRANCH  12  28
TORSDOF 4
