REMARK  5 active torsions:
REMARK  status: ('A' for Active; 'I' for Inactive)
REMARK    1  A    between atoms: O1_2  and  C2_3 
REMARK    2  A    between atoms: C6_9  and  C7_10 
REMARK    3  A    between atoms: C7_10  and  N1_11 
REMARK    4  A    between atoms: N1_11  and  C8_12 
REMARK    5  A    between atoms: C13_18  and  O4_19 
ROOT
HETATM    1  C8  UNL     1       2.305  -0.192   0.065  1.00  0.00     0.031 A 
HETATM    2  C9  UNL     1       3.432  -0.393  -0.704  1.00  0.00     0.032 A 
HETATM    3  C10 UNL     1       4.630   0.005  -0.108  1.00  0.00     0.042 A 
HETATM    4  C11 UNL     1       4.721   0.564   1.158  1.00  0.00     0.101 A 
HETATM    5  O3  UNL     1       5.867   0.888   1.596  1.00  0.00    -0.353 OA
HETATM    6  C12 UNL     1       7.124   1.158   1.876  1.00  0.00     0.210 C 
HETATM    7  C13 UNL     1       3.554   0.737   1.875  1.00  0.00     0.103 A 
HETATM    8  C15 UNL     1       2.325   0.362   1.339  1.00  0.00     0.068 A 
ENDROOT
BRANCH   7   9
HETATM    9  O4  UNL     1       3.692   1.302   3.145  1.00  0.00    -0.353 OA
HETATM   10  C14 UNL     1       2.525   1.494   3.911  1.00  0.00     0.210 C 
ENDBRANCH   7   9
BRANCH   1  11
HETATM   11  N1  UNL     1       1.046  -0.560  -0.433  1.00  0.00    -0.384 N 
HETATM   12  H8  UNL     1       0.957  -1.006  -1.396  1.00  0.00     0.160 HD
BRANCH  11  13
HETATM   13  C7  UNL     1      -0.196  -0.370   0.295  1.00  0.00     0.179 C 
BRANCH  13  14
HETATM   14  C6  UNL     1      -1.371  -0.882  -0.470  1.00  0.00     0.054 A 
HETATM   15  C5  UNL     1      -2.779  -0.816  -0.102  1.00  0.00    -0.012 A 
HETATM   16  C4  UNL     1      -3.222  -0.203   0.995  1.00  0.00     0.085 C 
HETATM   17  C17 UNL     1      -3.556  -1.515  -1.124  1.00  0.00     0.100 A 
HETATM   18  S1  UNL     1      -4.913  -0.049   1.561  1.00  0.00     0.024 SA
HETATM   19  O2  UNL     1      -5.976  -0.173   0.188  1.00  0.00    -0.284 OA
HETATM   20  C3  UNL     1      -5.659  -0.076  -1.178  1.00  0.00     0.185 C 
HETATM   21  C2  UNL     1      -4.601  -0.664  -1.747  1.00  0.00     0.079 C 
HETATM   22  C16 UNL     1      -2.515  -1.894  -2.150  1.00  0.00     0.165 A 
HETATM   23  N2  UNL     1      -1.247  -1.480  -1.602  1.00  0.00    -0.291 NA
BRANCH  21  24
HETATM   24  O1  UNL     1      -4.463  -0.442  -3.133  1.00  0.00    -0.357 OA
HETATM   25  C1  UNL     1      -5.505  -0.765  -4.044  1.00  0.00     0.209 C 
ENDBRANCH  21  24
ENDBRANCH  13  14
ENDBRANCH  11  13
ENDBRANCH   1  11
TORSDOF 5
