REMARK  8 active torsions:
REMARK  status: ('A' for Active; 'I' for Inactive)
REMARK    1  A    between atoms: O1_2  and  C2_3 
REMARK    2  A    between atoms: C2_3  and  C3_4 
REMARK    3  A    between atoms: C5_6  and  N1_7 
REMARK    4  A    between atoms: N1_7  and  C6_8 
REMARK    5  A    between atoms: C10_14  and  O2_15 
REMARK    6  A    between atoms: O2_15  and  C11_16 
REMARK    7  A    between atoms: C11_16  and  O3_17 
REMARK    8  A    between atoms: C12_18  and  O4_19 
ROOT
HETATM    1  C6  UNL     1       0.089   0.640   0.781  1.00  0.00     0.138 A 
HETATM    2  N2  UNL     1       0.551   1.902   0.747  1.00  0.00    -0.224 NA
HETATM    3  C7  UNL     1      -0.245   2.989   0.728  1.00  0.00     0.235 A 
HETATM    4  N3  UNL     1      -1.602   2.848   0.743  1.00  0.00    -0.241 NA
HETATM    5  C8  UNL     1      -2.152   1.599   0.778  1.00  0.00     0.075 A 
HETATM    6  C9  UNL     1      -3.523   1.398   0.795  1.00  0.00     0.072 A 
HETATM    7  C10 UNL     1      -4.049   0.124   0.829  1.00  0.00     0.107 A 
HETATM    8  C12 UNL     1      -3.187  -0.952   0.847  1.00  0.00     0.102 A 
HETATM    9  C14 UNL     1      -1.828  -0.737   0.830  1.00  0.00     0.057 A 
HETATM   10  C15 UNL     1      -1.285   0.528   0.795  1.00  0.00     0.041 A 
ENDROOT
BRANCH   1  11
HETATM   11  N1  UNL     1       1.012  -0.439   0.798  1.00  0.00    -0.363 N 
HETATM   12  H8  UNL     1       0.773  -1.451   0.826  1.00  0.00     0.162 HD
BRANCH  11  13
HETATM   13  C5  UNL     1       2.418  -0.090   0.775  1.00  0.00     0.130 A 
HETATM   14  C4  UNL     1       2.805   0.676  -0.447  1.00  0.00     0.011 A 
HETATM   15  C3  UNL     1       3.739   0.036  -1.176  1.00  0.00    -0.036 A 
HETATM   16  C17 UNL     1       3.973  -1.185  -0.434  1.00  0.00     0.007 A 
HETATM   17  C16 UNL     1       3.253  -1.300   0.667  1.00  0.00     0.003 A 
BRANCH  15  18
HETATM   18  C2  UNL     1       4.335   0.518  -2.440  1.00  0.00     0.205 C 
BRANCH  18  19
HETATM   19  O1  UNL     1       5.684   0.710  -2.441  1.00  0.00    -0.391 OA
HETATM   20  C1  UNL     1       6.495  -0.347  -2.157  1.00  0.00     0.201 C 
ENDBRANCH  18  19
ENDBRANCH  15  18
ENDBRANCH  11  13
ENDBRANCH   1  11
BRANCH   8  21
HETATM   21  O4  UNL     1      -3.710  -2.249   0.882  1.00  0.00    -0.353 OA
HETATM   22  C13 UNL     1      -2.873  -3.373   0.901  1.00  0.00     0.210 C 
ENDBRANCH   8  21
BRANCH   7  23
HETATM   23  O2  UNL     1      -5.410  -0.131   0.848  1.00  0.00    -0.323 OA
BRANCH  23  24
HETATM   24  C11 UNL     1      -6.375   0.907   0.832  1.00  0.00     0.341 C 
BRANCH  24  25
HETATM   25  O3  UNL     1      -6.265   1.699  -0.307  1.00  0.00    -0.377 OA
HETATM   26  H13 UNL     1      -6.978   2.368  -0.283  1.00  0.00     0.212 HD
ENDBRANCH  24  25
ENDBRANCH  23  24
ENDBRANCH   7  23
TORSDOF 8
