REMARK  9 active torsions:
REMARK  status: ('A' for Active; 'I' for Inactive)
REMARK    1  A    between atoms: O1_2  and  C2_3 
REMARK    2  A    between atoms: C2_3  and  C16_21 
REMARK    3  A    between atoms: C3_4  and  C4_5 
REMARK    4  A    between atoms: C4_5  and  C5_6 
REMARK    5  A    between atoms: C5_6  and  N1_7 
REMARK    6  A    between atoms: N1_7  and  C6_8 
REMARK    7  A    between atoms: C10_13  and  C11_14 
REMARK    8  A    between atoms: C11_14  and  N3_15 
REMARK    9  A    between atoms: C12_16  and  O2_17 
ROOT
HETATM    1  C6  UNL     1      -2.564  -1.539   0.392  1.00  0.00     0.094 A 
HETATM    2  N2  UNL     1      -1.491  -1.891   1.598  1.00  0.00    -0.219 NA
HETATM    3  C7  UNL     1      -2.829  -2.278   2.353  1.00  0.00     0.125 A 
HETATM    4  C8  UNL     1      -3.448  -1.890   0.838  1.00  0.00     0.028 A 
HETATM    5  C9  UNL     1      -2.589  -0.519   0.580  1.00  0.00     0.075 A 
HETATM    6  C10 UNL     1      -2.384   0.507  -0.552  1.00  0.00    -0.013 C 
HETATM    7  C12 UNL     1      -3.212  -0.242  -1.344  1.00  0.00     0.064 C 
HETATM    8  C14 UNL     1      -3.804  -1.286  -0.827  1.00  0.00     0.069 C 
HETATM    9  C15 UNL     1      -4.284  -2.257  -0.144  1.00  0.00     0.026 C 
ENDROOT
BRANCH   1  10
HETATM   10  N1  UNL     1      -1.030  -1.617  -0.482  1.00  0.00    -0.394 N 
HETATM   11  H7  UNL     1      -0.964  -1.860  -1.534  1.00  0.00     0.155 HD
BRANCH  10  12
HETATM   12  C5  UNL     1       0.366  -1.516  -0.585  1.00  0.00     0.136 C 
BRANCH  12  13
HETATM   13  C4  UNL     1       1.172  -0.787   0.143  1.00  0.00     0.024 C 
BRANCH  13  14
HETATM   14  C3  UNL     1       1.983   0.081   1.032  1.00  0.00     0.015 C 
HETATM   15  C2  UNL     1       3.232   0.376   1.176  1.00  0.00     0.097 C 
BRANCH  15  16
HETATM   16  O1  UNL     1       3.284   1.260   2.209  1.00  0.00    -0.353 OA
HETATM   17  C1  UNL     1       2.915   2.624   2.005  1.00  0.00     0.210 C 
ENDBRANCH  15  16
BRANCH  15  18
HETATM   18  C16 UNL     1       4.256  -0.190   0.344  1.00  0.00     0.100 A 
HETATM   19  C17 UNL     1       5.527  -0.015   0.345  1.00  0.00     0.039 A 
HETATM   20  C18 UNL     1       5.709  -0.937  -0.773  1.00  0.00     0.206 A 
HETATM   21  O3  UNL     1       4.318  -1.066  -0.699  1.00  0.00    -0.345 OA
ENDBRANCH  15  18
ENDBRANCH  13  14
ENDBRANCH  12  13
ENDBRANCH  10  12
ENDBRANCH   1  10
BRANCH   7  22
HETATM   22  O2  UNL     1      -2.952   0.520  -2.299  1.00  0.00    -0.359 OA
HETATM   23  C13 UNL     1      -1.960   0.440  -3.309  1.00  0.00     0.209 C 
ENDBRANCH   7  22
BRANCH   6  24
HETATM   24  C11 UNL     1      -1.616   1.752  -0.481  1.00  0.00     0.304 C 
BRANCH  24  25
HETATM   25  N3  UNL     1      -2.524   2.864  -0.284  1.00  0.00     0.082 N 
HETATM   26  H13 UNL     1      -2.220   3.488   0.494  1.00  0.00     0.313 HD
HETATM   27  H14 UNL     1      -2.626   3.444  -1.143  1.00  0.00     0.313 HD
ENDBRANCH  24  25
ENDBRANCH   6  24
TORSDOF 9
