REMARK  6 active torsions:
REMARK  status: ('A' for Active; 'I' for Inactive)
REMARK    1  A    between atoms: O1_2  and  C2_3 
REMARK    2  A    between atoms: C5_6  and  C6_7 
REMARK    3  A    between atoms: C6_7  and  N1_8 
REMARK    4  A    between atoms: N1_8  and  C7_9 
REMARK    5  A    between atoms: C10_12  and  O2_13 
REMARK    6  A    between atoms: C12_15  and  O3_16 
ROOT
HETATM    1  C2  UNL     1      -3.993   1.742   0.560  1.00  0.00     0.057 A 
HETATM    2  C3  UNL     1      -3.466   1.709  -0.698  1.00  0.00     0.042 A 
HETATM    3  C4  UNL     1      -2.254   1.225  -0.392  1.00  0.00     0.089 A 
HETATM    4  C5  UNL     1      -1.044   0.742  -0.077  1.00  0.00    -0.043 A 
HETATM    5  C15 UNL     1      -1.628   0.796   1.164  1.00  0.00     0.070 A 
HETATM    6  C16 UNL     1      -2.856   1.261   1.032  1.00  0.00     0.053 A 
HETATM    7  C17 UNL     1      -3.462   0.557   2.245  1.00  0.00     0.049 C 
HETATM    8  C18 UNL     1      -4.161  -0.688   1.564  1.00  0.00     0.202 C 
HETATM    9  O4  UNL     1      -3.103  -1.280   0.845  1.00  0.00    -0.279 OA
HETATM   10  N2  UNL     1      -3.314  -0.944  -0.479  1.00  0.00    -0.261 N 
HETATM   11  C19 UNL     1      -2.676  -0.606  -1.755  1.00  0.00     0.225 C 
HETATM   12  N3  UNL     1      -2.071   0.621  -1.726  1.00  0.00    -0.265 NA
HETATM   13  H22 UNL     1      -4.314  -0.881  -0.754  1.00  0.00     0.195 HD
ENDROOT
BRANCH   4  14
HETATM   14  C6  UNL     1       0.277   0.351  -0.603  1.00  0.00     0.153 C 
BRANCH  14  15
HETATM   15  N1  UNL     1       0.763  -0.704   0.246  1.00  0.00    -0.386 N 
HETATM   16  H7  UNL     1       0.163  -1.257   0.883  1.00  0.00     0.160 HD
BRANCH  15  17
HETATM   17  C7  UNL     1       2.159  -0.918   0.123  1.00  0.00     0.031 A 
HETATM   18  C8  UNL     1       2.691  -1.886   0.994  1.00  0.00     0.032 A 
HETATM   19  C9  UNL     1       4.068  -2.052   0.954  1.00  0.00     0.042 A 
HETATM   20  C10 UNL     1       4.957  -1.363   0.149  1.00  0.00     0.101 A 
HETATM   21  C12 UNL     1       4.406  -0.402  -0.715  1.00  0.00     0.103 A 
HETATM   22  C14 UNL     1       3.016  -0.224  -0.689  1.00  0.00     0.068 A 
BRANCH  20  23
HETATM   23  O2  UNL     1       6.318  -1.529   0.116  1.00  0.00    -0.353 OA
HETATM   24  C11 UNL     1       7.068  -2.417   0.879  1.00  0.00     0.210 C 
ENDBRANCH  20  23
BRANCH  21  25
HETATM   25  O3  UNL     1       5.235   0.292  -1.516  1.00  0.00    -0.353 OA
HETATM   26  C13 UNL     1       5.014   1.199  -2.537  1.00  0.00     0.210 C 
ENDBRANCH  21  25
ENDBRANCH  15  17
ENDBRANCH  14  15
ENDBRANCH   4  14
BRANCH   1  27
HETATM   27  O1  UNL     1      -5.217   2.132   1.039  1.00  0.00    -0.359 OA
HETATM   28  C1  UNL     1      -6.228   2.613   0.207  1.00  0.00     0.209 C 
ENDBRANCH   1  27
TORSDOF 6
