REMARK  3 active torsions:
REMARK  status: ('A' for Active; 'I' for Inactive)
REMARK    1  A    between atoms: O1_2  and  C2_3 
REMARK    2  A    between atoms: C15_20  and  N3_21 
REMARK    3  A    between atoms: C17_23  and  O4_24 
ROOT
HETATM    1  C2  UNL     1      -1.525  -0.940   0.385  1.00  0.00     0.097 C 
HETATM    2  C3  UNL     1      -1.495  -2.038   1.386  1.00  0.00     0.016 C 
HETATM    3  C4  UNL     1      -0.133  -1.666   1.372  1.00  0.00     0.031 C 
HETATM    4  C5  UNL     1       1.106  -1.374   1.410  1.00  0.00     0.188 C 
HETATM    5  O2  UNL     1       2.631  -1.172   1.643  1.00  0.00    -0.361 OA
HETATM    6  C6  UNL     1       2.302   0.315   0.944  1.00  0.00     0.129 A 
HETATM    7  C7  UNL     1       2.541   0.564   2.192  1.00  0.00     0.027 A 
HETATM    8  C8  UNL     1       2.077   1.377   1.171  1.00  0.00     0.108 A 
HETATM    9  N1  UNL     1       2.192   2.758   1.646  1.00  0.00    -0.265 NA
HETATM   10  C9  UNL     1       1.797   3.765   0.708  1.00  0.00     0.228 A 
HETATM   11  N2  UNL     1       1.324   3.637  -0.572  1.00  0.00    -0.248 NA
HETATM   12  C10 UNL     1       1.183   2.336  -1.022  1.00  0.00     0.064 A 
HETATM   13  C11 UNL     1       1.684   1.977   0.214  1.00  0.00     0.067 A 
HETATM   14  C12 UNL     1       2.003   0.624   0.084  1.00  0.00     0.124 A 
HETATM   15  C13 UNL     1       2.356  -0.772   0.045  1.00  0.00     0.072 A 
HETATM   16  O3  UNL     1       2.627  -2.004  -0.160  1.00  0.00    -0.360 OA
HETATM   17  C14 UNL     1       2.878  -3.183  -0.398  1.00  0.00     0.209 C 
HETATM   18  C15 UNL     1       0.464   1.485  -2.074  1.00  0.00     0.292 C 
HETATM   19  C16 UNL     1      -0.625   0.718  -1.249  1.00  0.00     0.053 C 
HETATM   20  C17 UNL     1      -1.657   0.114  -0.577  1.00  0.00     0.099 C 
ENDROOT
BRANCH  18  21
HETATM   21  N3  UNL     1      -0.326   2.349  -2.900  1.00  0.00     0.092 N 
HETATM   22  H14 UNL     1      -1.340   2.284  -2.510  1.00  0.00     0.314 HD
HETATM   23  H15 UNL     1      -0.152   3.388  -2.716  1.00  0.00     0.314 HD
ENDBRANCH  18  21
BRANCH   1  24
HETATM   24  O1  UNL     1      -2.916  -1.165   0.366  1.00  0.00    -0.353 OA
HETATM   25  C1  UNL     1      -3.568  -2.032  -0.488  1.00  0.00     0.210 C 
ENDBRANCH   1  24
BRANCH  20  26
HETATM   26  O4  UNL     1      -2.941   0.695  -0.928  1.00  0.00    -0.353 OA
HETATM   27  C18 UNL     1      -3.728   1.215   0.132  1.00  0.00     0.210 C 
ENDBRANCH  20  26
TORSDOF 3
