REMARK  0 active torsions:
REMARK  status: ('A' for Active; 'I' for Inactive)
ROOT
HETATM    1  C1  UNL     1       2.744  -1.056   2.519  1.00  0.00     0.044 C 
HETATM    2  C2  UNL     1       1.683  -0.518   1.636  1.00  0.00    -0.073 C 
HETATM    3  C3  UNL     1       2.111   0.709   1.245  1.00  0.00     0.006 C 
HETATM    4  C4  UNL     1       1.836   1.944   0.450  1.00  0.00     0.160 C 
HETATM    5  N1  UNL     1       1.097   2.642  -0.338  1.00  0.00    -0.272 NA
HETATM    6  C5  UNL     1      -0.142   2.353  -0.909  1.00  0.00     0.223 C 
HETATM    7  N2  UNL     1      -0.980   2.317  -1.878  1.00  0.00    -0.264 NA
HETATM    8  C6  UNL     1      -2.295   1.736  -1.507  1.00  0.00     0.275 C 
HETATM    9  N3  UNL     1      -1.987   0.543  -0.697  1.00  0.00    -0.359 N 
HETATM   10  C7  UNL     1      -2.692   0.073   0.467  1.00  0.00     0.152 C 
HETATM   11  C8  UNL     1      -1.931  -0.030   1.699  1.00  0.00    -0.010 C 
HETATM   12  C9  UNL     1      -0.670  -0.277   1.936  1.00  0.00    -0.015 C 
HETATM   13  C10 UNL     1       0.367  -0.983   1.146  1.00  0.00     0.073 C 
HETATM   14  C11 UNL     1       0.148  -0.947  -0.291  1.00  0.00    -0.002 A 
HETATM   15  C12 UNL     1       1.057  -1.666  -1.028  1.00  0.00     0.020 A 
HETATM   16 BR1  UNL     1       2.467  -2.603  -0.152  1.00  0.00    -0.050 Br
HETATM   17  C13 UNL     1       1.056  -1.796  -2.401  1.00  0.00     0.020 A 
HETATM   18  C14 UNL     1       0.059  -1.155  -3.145  1.00  0.00     0.004 A 
HETATM   19  C15 UNL     1      -0.869  -0.424  -2.417  1.00  0.00     0.030 A 
HETATM   20  C16 UNL     1      -0.857  -0.302  -1.042  1.00  0.00     0.040 A 
ENDROOT
TORSDOF 0
