REMARK  7 active torsions:
REMARK  status: ('A' for Active; 'I' for Inactive)
REMARK    1  A    between atoms: O1_2  and  C2_3 
REMARK    2  A    between atoms: C6_9  and  N3_10 
REMARK    3  A    between atoms: N3_10  and  C7_11 
REMARK    4  A    between atoms: C9_13  and  O2_14 
REMARK    5  A    between atoms: C11_16  and  O3_17 
REMARK    6  A    between atoms: C13_19  and  O4_20 
REMARK    7  A    between atoms: C18_25  and  O5_26 
ROOT
HETATM    1  C2  UNL     1       4.863  -0.444  -0.864  1.00  0.00     0.103 A 
HETATM    2  C3  UNL     1       4.236  -1.573  -1.405  1.00  0.00     0.072 A 
HETATM    3  C4  UNL     1       2.879  -1.654  -1.190  1.00  0.00     0.075 A 
HETATM    4  N1  UNL     1       2.328  -2.778  -1.747  1.00  0.00    -0.241 NA
HETATM    5  C5  UNL     1       0.979  -2.967  -1.602  1.00  0.00     0.236 A 
HETATM    6  N2  UNL     1       0.275  -2.053  -0.929  1.00  0.00    -0.224 NA
HETATM    7  C6  UNL     1       0.756  -0.941  -0.365  1.00  0.00     0.142 A 
HETATM    8  C16 UNL     1       2.111  -0.740  -0.505  1.00  0.00     0.042 A 
HETATM    9  C17 UNL     1       2.799   0.338  -0.005  1.00  0.00     0.057 A 
HETATM   10  C18 UNL     1       4.156   0.509  -0.168  1.00  0.00     0.102 A 
ENDROOT
BRANCH   7  11
HETATM   11  N3  UNL     1      -0.010   0.000   0.332  1.00  0.00    -0.340 N 
HETATM   12  H6  UNL     1       0.391   0.814   0.804  1.00  0.00     0.167 HD
BRANCH  11  13
HETATM   13  C7  UNL     1      -1.420  -0.010   0.500  1.00  0.00     0.039 A 
HETATM   14  C8  UNL     1      -2.260  -0.766  -0.271  1.00  0.00     0.069 A 
HETATM   15  C9  UNL     1      -3.634  -0.802  -0.121  1.00  0.00     0.106 A 
HETATM   16  C11 UNL     1      -4.238  -0.038   0.860  1.00  0.00     0.135 A 
HETATM   17  C13 UNL     1      -3.444   0.745   1.667  1.00  0.00     0.106 A 
HETATM   18  C15 UNL     1      -2.088   0.730   1.460  1.00  0.00     0.069 A 
BRANCH  15  19
HETATM   19  O2  UNL     1      -4.481  -1.567  -0.901  1.00  0.00    -0.353 OA
HETATM   20  C10 UNL     1      -4.083  -2.404  -1.941  1.00  0.00     0.210 C 
ENDBRANCH  15  19
BRANCH  16  21
HETATM   21  O3  UNL     1      -5.617  -0.057   1.028  1.00  0.00    -0.351 OA
HETATM   22  C12 UNL     1      -6.367   0.902   0.277  1.00  0.00     0.210 C 
ENDBRANCH  16  21
BRANCH  17  23
HETATM   23  O4  UNL     1      -4.043   1.502   2.639  1.00  0.00    -0.353 OA
HETATM   24  C14 UNL     1      -3.336   2.331   3.519  1.00  0.00     0.210 C 
ENDBRANCH  17  23
ENDBRANCH  11  13
ENDBRANCH   7  11
BRANCH  10  25
HETATM   25  O5  UNL     1       4.871   1.587   0.327  1.00  0.00    -0.353 OA
HETATM   26  C19 UNL     1       4.203   2.599   1.051  1.00  0.00     0.210 C 
ENDBRANCH  10  25
BRANCH   1  27
HETATM   27  O1  UNL     1       6.247  -0.342  -1.072  1.00  0.00    -0.353 OA
HETATM   28  C1  UNL     1       6.967  -1.322  -1.782  1.00  0.00     0.210 C 
ENDBRANCH   1  27
TORSDOF 7
