REMARK  8 active torsions:
REMARK  status: ('A' for Active; 'I' for Inactive)
REMARK    1  A    between atoms: C2_2  and  C3_3 
REMARK    2  A    between atoms: C8_8  and  C9_9 
REMARK    3  A    between atoms: C9_9  and  O1_10 
REMARK    4  A    between atoms: C10_12  and  O2_13 
REMARK    5  A    between atoms: N2_14  and  C11_15 
REMARK    6  A    between atoms: C15_19  and  O3_20 
REMARK    7  A    between atoms: O3_20  and  O4_21 
REMARK    8  A    between atoms: C16_22  and  O5_23 
ROOT
HETATM    1  C3  UNL     1       3.378   0.263   1.591  1.00  0.00    -0.030 A 
HETATM    2  C4  UNL     1       2.004   0.243   1.638  1.00  0.00     0.027 A 
HETATM    3  C5  UNL     1       1.278  -0.176   0.543  1.00  0.00     0.009 A 
HETATM    4  C6  UNL     1       1.972  -0.568  -0.582  1.00  0.00     0.068 A 
HETATM    5  C7  UNL     1       3.373  -0.537  -0.601  1.00  0.00     0.042 A 
HETATM    6  C8  UNL     1       4.119  -0.116   0.498  1.00  0.00    -0.023 A 
HETATM    7  N1  UNL     1       1.453  -0.977  -1.688  1.00  0.00    -0.238 NA
HETATM    8  C10 UNL     1       0.032  -1.055  -1.828  1.00  0.00     0.352 A 
HETATM    9  N2  UNL     1      -0.689  -0.655  -0.616  1.00  0.00    -0.332 N 
HETATM   10  C18 UNL     1      -0.038  -0.205   0.566  1.00  0.00     0.104 A 
ENDROOT
BRANCH   9  11
HETATM   11  C11 UNL     1      -2.120  -0.715  -0.605  1.00  0.00     0.171 A 
HETATM   12  C12 UNL     1      -2.711  -0.281   0.684  1.00  0.00     0.015 A 
HETATM   13  C13 UNL     1      -3.571   0.720   0.570  1.00  0.00    -0.024 A 
HETATM   14  C14 UNL     1      -4.337   1.393   1.650  1.00  0.00     0.051 C 
HETATM   15  C15 UNL     1      -3.605   1.025  -0.872  1.00  0.00     0.143 A 
HETATM   16  C16 UNL     1      -2.781   0.212  -1.544  1.00  0.00     0.109 A 
BRANCH  15  17
HETATM   17  O3  UNL     1      -4.395   2.033  -1.459  1.00  0.00    -0.197 OA
BRANCH  17  18
HETATM   18  O4  UNL     1      -5.672   2.220  -1.043  1.00  0.00    -0.245 OA
HETATM   19  H16 UNL     1      -6.052   1.334  -0.795  1.00  0.00     0.254 HD
ENDBRANCH  17  18
ENDBRANCH  15  17
BRANCH  16  20
HETATM   20  O5  UNL     1      -2.561   0.212  -2.909  1.00  0.00    -0.355 OA
HETATM   21  C17 UNL     1      -3.219  -0.677  -3.795  1.00  0.00     0.209 C 
ENDBRANCH  16  20
ENDBRANCH   9  11
BRANCH   8  22
HETATM   22  O2  UNL     1      -0.312  -2.389  -2.060  1.00  0.00    -0.358 OA
HETATM   23  H10 UNL     1       0.218  -2.904  -1.379  1.00  0.00     0.214 HD
ENDBRANCH   8  22
BRANCH   1  24
HETATM   24  C2  UNL     1       4.149   0.704   2.742  1.00  0.00    -0.014 C 
HETATM   25  C1  UNL     1       4.007   1.147   3.974  1.00  0.00     0.032 C 
ENDBRANCH   1  24
BRANCH   6  26
HETATM   26  C9  UNL     1       5.594  -0.100   0.434  1.00  0.00     0.203 C 
BRANCH  26  27
HETATM   27  O1  UNL     1       6.180  -1.164   1.130  1.00  0.00    -0.396 OA
HETATM   28  H8  UNL     1       5.605  -1.550   1.823  1.00  0.00     0.209 HD
ENDBRANCH  26  27
ENDBRANCH   6  26
TORSDOF 8
