REMARK  7 active torsions:
REMARK  status: ('A' for Active; 'I' for Inactive)
REMARK    1  A    between atoms: C2_2  and  N1_3 
REMARK    2  A    between atoms: N1_3  and  C4_5 
REMARK    3  A    between atoms: C4_5  and  C5_6 
REMARK    4  A    between atoms: C5_6  and  N2_7 
REMARK    5  A    between atoms: N2_7  and  S1_8 
REMARK    6  A    between atoms: C9_12  and  N3_13 
REMARK    7  A    between atoms: C13_20  and  O1_21 
ROOT
HETATM    1  S1  UNL     1       0.082  -0.026  -0.290  1.00  0.00    -0.111 SA
HETATM    2  C6  UNL     1      -0.482  -0.869  -1.671  1.00  0.00     0.099 C 
HETATM    3  C7  UNL     1       0.187  -1.310   0.898  1.00  0.00     0.050 C 
HETATM    4  C8  UNL     1       1.569  -1.536   1.115  1.00  0.00     0.037 C 
HETATM    5  C9  UNL     1       2.349  -0.644   0.559  1.00  0.00     0.070 C 
HETATM    6  C13 UNL     1       1.704   0.453  -0.205  1.00  0.00     0.238 C 
ENDROOT
BRANCH   1   7
HETATM    7  N2  UNL     1      -0.988   0.842   0.370  1.00  0.00    -0.271 NA
BRANCH   7   8
HETATM    8  C5  UNL     1      -2.266   0.183   0.608  1.00  0.00     0.175 C 
BRANCH   8   9
HETATM    9  C4  UNL     1      -3.260   0.850  -0.299  1.00  0.00     0.138 C 
BRANCH   9  10
HETATM   10  N1  UNL     1      -4.575   0.341  -0.223  1.00  0.00    -0.415 N 
HETATM   11  C3  UNL     1      -4.825  -0.879  -0.898  1.00  0.00     0.143 C 
BRANCH  10  12
HETATM   12  C2  UNL     1      -5.303   0.560   0.980  1.00  0.00     0.112 C 
HETATM   13  C1  UNL     1      -6.764   0.742   0.597  1.00  0.00     0.026 C 
ENDBRANCH  10  12
ENDBRANCH   9  10
ENDBRANCH   8   9
ENDBRANCH   7   8
ENDBRANCH   1   7
BRANCH   6  14
HETATM   14  O1  UNL     1       2.350   0.748  -1.383  1.00  0.00    -0.374 OA
HETATM   15  C14 UNL     1       2.928   1.977  -1.484  1.00  0.00     0.203 C 
ENDBRANCH   6  14
BRANCH   5  16
HETATM   16  N3  UNL     1       3.794  -0.625   0.616  1.00  0.00    -0.274 N 
HETATM   17  C10 UNL     1       4.722  -0.064   1.599  1.00  0.00     0.290 C 
HETATM   18  N4  UNL     1       5.867   0.488   0.906  1.00  0.00    -0.280 N 
HETATM   19 CL1  UNL     1       6.632   1.985   1.410  1.00  0.00     0.014 Cl
HETATM   20  C11 UNL     1       6.408  -0.185  -0.223  1.00  0.00     0.125 C 
HETATM   21  C12 UNL     1       5.696  -1.055  -0.933  1.00  0.00     0.125 C 
HETATM   22  N5  UNL     1       4.350  -1.274  -0.492  1.00  0.00    -0.307 N 
HETATM   23  H22 UNL     1       3.832  -1.977  -1.095  1.00  0.00     0.186 HD
ENDBRANCH   5  16
TORSDOF 7
