REMARK  3 active torsions:
REMARK  status: ('A' for Active; 'I' for Inactive)
REMARK    1  A    between atoms: O1_2  and  C2_3 
REMARK    2  A    between atoms: N1_7  and  C6_8 
REMARK    3  A    between atoms: C16_20  and  O3_21 
ROOT
HETATM    1  C6  UNL     1      -1.348   0.850   0.526  1.00  0.00     0.263 C 
HETATM    2  N2  UNL     1      -2.467   1.296   1.467  1.00  0.00    -0.362 N 
HETATM    3  C7  UNL     1      -3.680   0.955   0.673  1.00  0.00     0.028 C 
HETATM    4  C8  UNL     1      -4.421   1.617  -0.320  1.00  0.00     0.029 C 
HETATM    5  C9  UNL     1      -3.443   2.227  -1.411  1.00  0.00     0.205 C 
HETATM    6  O2  UNL     1      -2.455   1.115  -1.778  1.00  0.00    -0.348 OA
HETATM    7  C10 UNL     1      -2.071   0.238  -0.664  1.00  0.00     0.091 C 
HETATM    8  C11 UNL     1      -2.509  -1.030  -0.974  1.00  0.00     0.043 C 
HETATM    9  C12 UNL     1      -3.595  -1.458   0.056  1.00  0.00    -0.057 C 
HETATM   10  C13 UNL     1      -3.889  -2.821   0.375  1.00  0.00     0.048 C 
HETATM   11  C14 UNL     1      -4.404  -0.431   0.624  1.00  0.00     0.035 C 
HETATM   12  H8  UNL     1      -2.083   1.683   2.336  1.00  0.00     0.162 HD
ENDROOT
BRANCH   1  13
HETATM   13  N1  UNL     1      -0.447  -0.015   1.176  1.00  0.00    -0.261 NA
HETATM   14  C5  UNL     1       0.803  -0.043   0.854  1.00  0.00     0.038 A 
HETATM   15  C4  UNL     1       1.463  -1.057   1.727  1.00  0.00     0.089 A 
HETATM   16  C15 UNL     1       1.528   0.726  -0.151  1.00  0.00     0.066 A 
HETATM   17  C3  UNL     1       2.922  -1.131   1.395  1.00  0.00     0.019 A 
HETATM   18  C2  UNL     1       3.578  -0.431   0.481  1.00  0.00     0.098 A 
HETATM   19  C16 UNL     1       2.824   0.532  -0.312  1.00  0.00     0.103 A 
BRANCH  18  20
HETATM   20  O1  UNL     1       4.932  -0.512   0.185  1.00  0.00    -0.353 OA
HETATM   21  C1  UNL     1       5.724  -1.659   0.254  1.00  0.00     0.210 C 
ENDBRANCH  18  20
BRANCH  19  22
HETATM   22  O3  UNL     1       3.424   1.323  -1.305  1.00  0.00    -0.353 OA
HETATM   23  C17 UNL     1       4.304   2.345  -0.855  1.00  0.00     0.210 C 
ENDBRANCH  19  22
ENDBRANCH   1  13
TORSDOF 3
