REMARK  8 active torsions:
REMARK  status: ('A' for Active; 'I' for Inactive)
REMARK    1  A    between atoms: O1_2  and  C2_3 
REMARK    2  A    between atoms: C4_5  and  C5_6 
REMARK    3  A    between atoms: C11_14  and  C12_15 
REMARK    4  A    between atoms: C12_15  and  O2_16 
REMARK    5  A    between atoms: C16_20  and  O3_21 
REMARK    6  A    between atoms: O3_21  and  C17_22 
REMARK    7  A    between atoms: C17_22  and  O4_23 
REMARK    8  A    between atoms: C18_24  and  O5_25 
ROOT
HETATM    1  C2  UNL     1       2.117  -0.092  -1.483  1.00  0.00     0.105 A 
HETATM    2  C3  UNL     1       0.905   0.374  -1.030  1.00  0.00     0.053 A 
HETATM    3  C4  UNL     1       0.700   0.573   0.318  1.00  0.00    -0.001 A 
HETATM    4  C15 UNL     1       1.738   0.295   1.198  1.00  0.00     0.053 A 
HETATM    5  C16 UNL     1       2.961  -0.173   0.750  1.00  0.00     0.108 A 
HETATM    6  C18 UNL     1       3.170  -0.376  -0.608  1.00  0.00     0.135 A 
ENDROOT
BRANCH   3   7
HETATM    7  C5  UNL     1      -0.552   1.036   0.897  1.00  0.00     0.081 A 
HETATM    8  N1  UNL     1      -0.373   2.099   1.736  1.00  0.00    -0.240 NA
HETATM    9  C6  UNL     1      -1.395   2.677   2.376  1.00  0.00     0.234 A 
HETATM   10  N2  UNL     1      -2.660   2.229   2.216  1.00  0.00    -0.241 NA
HETATM   11  C7  UNL     1      -2.889   1.187   1.403  1.00  0.00     0.071 A 
HETATM   12  C8  UNL     1      -4.127   0.621   1.161  1.00  0.00     0.040 A 
HETATM   13  C14 UNL     1      -1.835   0.594   0.747  1.00  0.00     0.023 A 
HETATM   14  C9  UNL     1      -4.301  -0.461   0.323  1.00  0.00    -0.051 A 
HETATM   15  C10 UNL     1      -5.713  -0.953   0.166  1.00  0.00     0.049 C 
HETATM   16  C11 UNL     1      -3.200  -1.031  -0.320  1.00  0.00    -0.028 A 
HETATM   17  C13 UNL     1      -1.948  -0.486  -0.097  1.00  0.00     0.026 A 
BRANCH  16  18
HETATM   18  C12 UNL     1      -3.467  -2.202  -1.209  1.00  0.00     0.203 C 
BRANCH  18  19
HETATM   19  O2  UNL     1      -4.023  -1.754  -2.410  1.00  0.00    -0.396 OA
HETATM   20  H12 UNL     1      -4.216  -0.785  -2.353  1.00  0.00     0.209 HD
ENDBRANCH  18  19
ENDBRANCH  16  18
ENDBRANCH   3   7
BRANCH   1  21
HETATM   21  O1  UNL     1       2.446  -0.332  -2.803  1.00  0.00    -0.353 OA
HETATM   22  C1  UNL     1       1.529  -0.110  -3.865  1.00  0.00     0.210 C 
ENDBRANCH   1  21
BRANCH   5  23
HETATM   23  O3  UNL     1       3.972  -0.438   1.664  1.00  0.00    -0.323 OA
BRANCH  23  24
HETATM   24  C17 UNL     1       3.732  -0.220   3.044  1.00  0.00     0.341 C 
BRANCH  24  25
HETATM   25  O4  UNL     1       4.861  -0.543   3.817  1.00  0.00    -0.377 OA
HETATM   26  H17 UNL     1       5.504   0.215   3.742  1.00  0.00     0.212 HD
ENDBRANCH  24  25
ENDBRANCH  23  24
ENDBRANCH   5  23
BRANCH   6  27
HETATM   27  O5  UNL     1       4.413  -0.844  -0.976  1.00  0.00    -0.351 OA
HETATM   28  C19 UNL     1       5.519  -0.055  -1.298  1.00  0.00     0.210 C 
ENDBRANCH   6  27
TORSDOF 8
