REMARK  7 active torsions:
REMARK  status: ('A' for Active; 'I' for Inactive)
REMARK    1  A    between atoms: O1_2  and  C2_3 
REMARK    2  A    between atoms: C2_3  and  O2_4 
REMARK    3  A    between atoms: O2_4  and  C3_5 
REMARK    4  A    between atoms: C3_5  and  O3_6 
REMARK    5  A    between atoms: C6_9  and  N1_10 
REMARK    6  A    between atoms: N1_10  and  C7_11 
REMARK    7  A    between atoms: C11_17  and  O4_18 
ROOT
HETATM    1  C7  UNL     1       0.754   0.172   0.066  1.00  0.00     0.141 A 
HETATM    2  N2  UNL     1       0.168   0.734  -0.990  1.00  0.00    -0.224 NA
HETATM    3  C8  UNL     1       0.899   1.217  -2.037  1.00  0.00     0.236 A 
HETATM    4  N3  UNL     1       2.259   1.123  -2.004  1.00  0.00    -0.241 NA
HETATM    5  C9  UNL     1       2.837   0.543  -0.912  1.00  0.00     0.074 A 
HETATM    6  C10 UNL     1       4.231   0.467  -0.919  1.00  0.00     0.070 A 
HETATM    7  C11 UNL     1       4.823  -0.123   0.193  1.00  0.00     0.076 A 
HETATM    8  C13 UNL     1       4.092  -0.621   1.271  1.00  0.00    -0.028 A 
HETATM    9  C14 UNL     1       4.753  -1.246   2.443  1.00  0.00     0.051 C 
HETATM   10  C15 UNL     1       2.715  -0.530   1.244  1.00  0.00     0.027 A 
HETATM   11  C16 UNL     1       2.123   0.049   0.157  1.00  0.00     0.039 A 
ENDROOT
BRANCH   1  12
HETATM   12  N1  UNL     1      -0.113  -0.289   1.086  1.00  0.00    -0.344 N 
HETATM   13  H10 UNL     1       0.081  -0.756   1.995  1.00  0.00     0.167 HD
BRANCH  12  14
HETATM   14  C6  UNL     1      -1.520  -0.136   0.940  1.00  0.00     0.018 A 
HETATM   15  C5  UNL     1      -2.246  -0.587  -0.036  1.00  0.00     0.066 A 
HETATM   16  C3  UNL     1      -3.462  -0.044   0.535  1.00  0.00     0.192 A 
HETATM   17  C17 UNL     1      -2.654   0.474   1.650  1.00  0.00     0.130 A 
BRANCH  16  18
HETATM   18  O2  UNL     1      -4.034   1.009  -0.220  1.00  0.00    -0.327 OA
BRANCH  18  19
HETATM   19  C2  UNL     1      -4.558   0.403  -1.359  1.00  0.00     0.341 C 
BRANCH  19  20
HETATM   20  O1  UNL     1      -5.167   1.308  -2.225  1.00  0.00    -0.372 OA
HETATM   21  C1  UNL     1      -6.211   1.976  -1.636  1.00  0.00     0.204 C 
ENDBRANCH  19  20
ENDBRANCH  18  19
ENDBRANCH  16  18
BRANCH  16  22
HETATM   22  O3  UNL     1      -4.475  -0.942   0.834  1.00  0.00    -0.356 OA
HETATM   23  C4  UNL     1      -4.094  -2.033   1.567  1.00  0.00     0.206 C 
ENDBRANCH  16  22
ENDBRANCH  12  14
ENDBRANCH   1  12
BRANCH   7  24
HETATM   24  O4  UNL     1       6.208  -0.243   0.274  1.00  0.00    -0.355 OA
HETATM   25  C12 UNL     1       7.031   0.241  -0.786  1.00  0.00     0.210 C 
ENDBRANCH   7  24
TORSDOF 7
