REMARK  6 active torsions:
REMARK  status: ('A' for Active; 'I' for Inactive)
REMARK    1  A    between atoms: C5_5  and  O1_6 
REMARK    2  A    between atoms: C8_9  and  O2_10 
REMARK    3  A    between atoms: O2_10  and  C9_11 
REMARK    4  A    between atoms: C9_11  and  O3_12 
REMARK    5  A    between atoms: C11_14  and  O4_15 
REMARK    6  A    between atoms: C13_17  and  O5_18 
ROOT
HETATM    1  C1  UNL     1      -2.036   2.736  -1.401  1.00  0.00     0.044 C 
HETATM    2  C2  UNL     1      -1.128   2.040  -0.749  1.00  0.00     0.036 C 
HETATM    3  C3  UNL     1      -0.166   2.960  -0.161  1.00  0.00     0.015 C 
HETATM    4  C4  UNL     1       0.514   1.999   0.343  1.00  0.00     0.082 C 
HETATM    5  C5  UNL     1       1.549   1.345   1.068  1.00  0.00     0.068 C 
HETATM    6  C7  UNL     1       1.286   0.062   0.912  1.00  0.00     0.042 C 
HETATM    7  C8  UNL     1       0.290  -0.055   0.058  1.00  0.00     0.107 C 
HETATM    8  C11 UNL     1      -0.872  -0.119   0.882  1.00  0.00     0.187 C 
HETATM    9  C13 UNL     1      -0.742  -1.702   0.839  1.00  0.00     0.088 C 
HETATM   10  C15 UNL     1      -1.614  -2.198  -0.123  1.00  0.00     0.056 C 
HETATM   11  C16 UNL     1      -2.800  -1.291  -0.522  1.00  0.00     0.256 A 
HETATM   12  N1  UNL     1      -3.140  -1.584  -1.858  1.00  0.00     0.349 N 
HETATM   13  C17 UNL     1      -2.421  -0.582  -2.890  1.00  0.00     0.429 C 
HETATM   14  N2  UNL     1      -1.598   0.510  -2.541  1.00  0.00    -0.095 NA
HETATM   15  N3  UNL     1      -1.711   0.716  -1.022  1.00  0.00    -0.277 N 
HETATM   16  C18 UNL     1      -2.304  -0.055   0.353  1.00  0.00     0.144 A 
HETATM   17  C19 UNL     1      -3.430   0.079  -0.248  1.00  0.00     0.081 A 
ENDROOT
BRANCH   7  18
HETATM   18  O2  UNL     1       0.635  -0.078  -1.239  1.00  0.00    -0.326 OA
BRANCH  18  19
HETATM   19  C9  UNL     1       1.920  -0.311  -1.742  1.00  0.00     0.343 C 
BRANCH  19  20
HETATM   20  O3  UNL     1       1.856  -0.255  -3.133  1.00  0.00    -0.371 OA
HETATM   21  C10 UNL     1       3.116  -0.481  -3.679  1.00  0.00     0.204 C 
ENDBRANCH  19  20
ENDBRANCH  18  19
ENDBRANCH   7  18
BRANCH   8  22
HETATM   22  O4  UNL     1      -0.906   0.183   2.168  1.00  0.00    -0.368 OA
HETATM   23  C12 UNL     1      -0.259  -0.422   3.160  1.00  0.00     0.204 C 
ENDBRANCH   8  22
BRANCH   5  24
HETATM   24  O1  UNL     1       2.670   0.976   1.843  1.00  0.00    -0.359 OA
HETATM   25  C6  UNL     1       3.197   1.872   2.809  1.00  0.00     0.209 C 
ENDBRANCH   5  24
BRANCH   9  26
HETATM   26  O5  UNL     1      -0.136  -2.758   1.352  1.00  0.00    -0.357 OA
HETATM   27  C14 UNL     1      -0.780  -3.859   1.907  1.00  0.00     0.209 C 
ENDBRANCH   9  26
TORSDOF 6
