REMARK  6 active torsions:
REMARK  status: ('A' for Active; 'I' for Inactive)
REMARK    1  A    between atoms: O1_2  and  C2_3 
REMARK    2  A    between atoms: C12_16  and  C13_17 
REMARK    3  A    between atoms: C13_17  and  O2_18 
REMARK    4  A    between atoms: O2_18  and  C14_19 
REMARK    5  A    between atoms: C18_23  and  N4_24 
REMARK    6  A    between atoms: N4_24  and  C19_25 
ROOT
HETATM    1  C2  UNL     1      -2.905   0.361  -0.436  1.00  0.00     0.146 A 
HETATM    2  C3  UNL     1      -2.904  -0.177   0.866  1.00  0.00     0.056 A 
HETATM    3  C4  UNL     1      -2.953  -0.876   2.000  1.00  0.00    -0.025 A 
HETATM    4  C5  UNL     1      -3.247  -1.893   1.057  1.00  0.00     0.062 A 
HETATM    5  C6  UNL     1      -3.221  -1.261  -0.144  1.00  0.00     0.104 A 
HETATM    6  C7  UNL     1      -3.193  -0.616  -1.355  1.00  0.00     0.053 A 
HETATM    7  N1  UNL     1      -3.401  -0.884  -2.733  1.00  0.00    -0.390 N 
HETATM    8  C8  UNL     1      -4.358  -1.999  -2.982  1.00  0.00     0.139 C 
HETATM    9  C9  UNL     1      -3.911  -3.047  -1.937  1.00  0.00     0.140 C 
HETATM   10  N2  UNL     1      -2.944  -2.339  -1.073  1.00  0.00    -0.369 N 
HETATM   11  C10 UNL     1      -1.487  -2.627  -1.073  1.00  0.00     0.338 C 
HETATM   12  N3  UNL     1      -0.679  -1.656  -0.662  1.00  0.00    -0.445 NA
HETATM   13  C11 UNL     1       0.134  -0.803  -0.467  1.00  0.00     0.162 C 
HETATM   14  C12 UNL     1      -0.091  -0.264   0.835  1.00  0.00     0.106 C 
HETATM   15  C21 UNL     1      -0.820   1.010   0.991  1.00  0.00     0.021 C 
HETATM   16 CL1  UNL     1       0.365   2.290   1.109  1.00  0.00    -0.088 Cl
HETATM   17  C22 UNL     1      -2.196   1.146   1.030  1.00  0.00     0.012 C 
HETATM   18  H6  UNL     1      -2.766  -0.150  -3.128  1.00  0.00     0.159 HD
ENDROOT
BRANCH  14  19
HETATM   19  C13 UNL     1       1.123  -0.360   1.790  1.00  0.00     0.192 C 
BRANCH  19  20
HETATM   20  O2  UNL     1       2.209   0.237   1.356  1.00  0.00    -0.350 OA
BRANCH  20  21
HETATM   21  C14 UNL     1       3.293   0.787   1.021  1.00  0.00     0.070 A 
HETATM   22  C15 UNL     1       3.460   1.360  -0.213  1.00  0.00     0.037 A 
HETATM   23  C16 UNL     1       4.604   1.996  -0.706  1.00  0.00     0.005 A 
HETATM   24  C17 UNL     1       5.640   2.001   0.234  1.00  0.00     0.029 A 
HETATM   25  C18 UNL     1       5.561   1.454   1.495  1.00  0.00     0.036 A 
HETATM   26  C20 UNL     1       4.380   0.851   1.871  1.00  0.00     0.066 A 
BRANCH  25  27
HETATM   27  N4  UNL     1       6.637   1.462   2.419  1.00  0.00    -0.334 N 
HETATM   28  H20 UNL     1       6.355   1.361   3.444  1.00  0.00     0.168 HD
BRANCH  27  29
HETATM   29  C19 UNL     1       8.058   1.586   2.247  1.00  0.00     0.353 C 
HETATM   30  O3  UNL     1       8.465   1.682   1.061  1.00  0.00    -0.283 OA
ENDBRANCH  27  29
ENDBRANCH  25  27
ENDBRANCH  20  21
ENDBRANCH  19  20
ENDBRANCH  14  19
BRANCH   1  31
HETATM   31  O1  UNL     1      -2.768   1.377  -1.327  1.00  0.00    -0.374 OA
HETATM   32  C1  UNL     1      -3.859   2.202  -1.714  1.00  0.00     0.203 C 
ENDBRANCH   1  31
TORSDOF 6
