REMARK  5 active torsions:
REMARK  status: ('A' for Active; 'I' for Inactive)
REMARK    1  A    between atoms: O1_2  and  C2_3 
REMARK    2  A    between atoms: N2_9  and  O2_10 
REMARK    3  A    between atoms: C8_12  and  O3_13 
REMARK    4  A    between atoms: C8_12  and  C9_14 
REMARK    5  A    between atoms: C9_14  and  O4_15 
ROOT
HETATM    1  C2  UNL     1      -3.198   0.338  -1.060  1.00  0.00     0.074 A 
HETATM    2  C3  UNL     1      -1.904   0.036  -1.087  1.00  0.00     0.048 A 
HETATM    3  C4  UNL     1      -1.191  -0.067   0.179  1.00  0.00    -0.006 A 
HETATM    4  C5  UNL     1       0.095  -0.369   0.118  1.00  0.00     0.131 C 
HETATM    5  N1  UNL     1       0.608  -0.553  -1.201  1.00  0.00    -0.224 NA
HETATM    6  C6  UNL     1       1.847  -0.714  -1.594  1.00  0.00     0.241 C 
HETATM    7  N2  UNL     1       3.003  -0.743  -0.759  1.00  0.00    -0.218 N 
HETATM    8  C7  UNL     1       3.178  -0.474   0.646  1.00  0.00     0.090 C 
HETATM    9  C8  UNL     1       4.273   0.179   0.968  1.00  0.00     0.093 C 
HETATM   10  C10 UNL     1       2.193  -0.891   1.651  1.00  0.00     0.183 C 
HETATM   11  N3  UNL     1       0.845  -0.484   1.322  1.00  0.00    -0.369 N 
HETATM   12  C11 UNL     1      -1.836   0.148   1.499  1.00  0.00     0.070 A 
HETATM   13  C12 UNL     1      -3.283   0.475   1.316  1.00  0.00    -0.013 A 
HETATM   14  C13 UNL     1      -3.935   0.571   0.180  1.00  0.00    -0.032 A 
HETATM   15  C14 UNL     1      -5.382   0.906   0.153  1.00  0.00     0.050 C 
HETATM   16  H13 UNL     1       0.223  -0.192   2.135  1.00  0.00     0.161 HD
ENDROOT
BRANCH   1  17
HETATM   17  O1  UNL     1      -3.910   0.444  -2.268  1.00  0.00    -0.355 OA
HETATM   18  C1  UNL     1      -4.613  -0.732  -2.666  1.00  0.00     0.210 C 
ENDBRANCH   1  17
BRANCH   7  19
HETATM   19  O2  UNL     1       4.152  -1.092  -1.425  1.00  0.00    -0.282 OA
HETATM   20  H6  UNL     1       4.066  -0.711  -2.350  1.00  0.00     0.245 HD
ENDBRANCH   7  19
BRANCH   9  21
HETATM   21  O3  UNL     1       4.295   0.360   2.372  1.00  0.00    -0.361 OA
HETATM   22  H7  UNL     1       3.846   1.164   2.790  1.00  0.00     0.217 HD
ENDBRANCH   9  21
BRANCH   9  23
HETATM   23  C9  UNL     1       5.535   0.848   0.612  1.00  0.00     0.230 C 
BRANCH  23  24
HETATM   24  O4  UNL     1       5.741   0.801  -0.777  1.00  0.00    -0.394 OA
HETATM   25  H10 UNL     1       6.637   0.516  -1.037  1.00  0.00     0.209 HD
ENDBRANCH  23  24
ENDBRANCH   9  23
TORSDOF 5
