REMARK  5 active torsions:
REMARK  status: ('A' for Active; 'I' for Inactive)
REMARK    1  A    between atoms: O1_2  and  C2_3 
REMARK    2  A    between atoms: N1_6  and  C5_7 
REMARK    3  A    between atoms: C16_20  and  O2_22 
REMARK    4  A    between atoms: O2_22  and  C18_23 
REMARK    5  A    between atoms: C18_23  and  O3_24 
ROOT
HETATM    1  C2  UNL     1      -2.695   0.337  -0.437  1.00  0.00     0.079 C 
HETATM    2  C3  UNL     1      -2.364   1.340   0.358  1.00  0.00     0.028 C 
HETATM    3  C4  UNL     1      -1.446   0.730   1.344  1.00  0.00     0.154 C 
HETATM    4  N1  UNL     1      -0.309   0.182   0.570  1.00  0.00    -0.358 N 
HETATM    5  C15 UNL     1      -0.726  -1.076  -0.016  1.00  0.00     0.169 C 
HETATM    6  C16 UNL     1      -2.232  -1.069  -0.334  1.00  0.00     0.124 C 
HETATM    7  C17 UNL     1      -2.419  -1.776  -1.645  1.00  0.00     0.055 C 
ENDROOT
BRANCH   4   8
HETATM    8  C5  UNL     1       0.860   0.986   0.542  1.00  0.00     0.140 A 
HETATM    9  N2  UNL     1       0.667   2.331   0.655  1.00  0.00    -0.224 NA
HETATM   10  C6  UNL     1       1.689   3.192   0.584  1.00  0.00     0.236 A 
HETATM   11  N3  UNL     1       2.959   2.803   0.400  1.00  0.00    -0.241 NA
HETATM   12  C7  UNL     1       3.241   1.500   0.280  1.00  0.00     0.078 A 
HETATM   13  C8  UNL     1       4.512   0.997   0.102  1.00  0.00    -0.032 A 
HETATM   14  C14 UNL     1       2.175   0.636   0.356  1.00  0.00     0.040 A 
HETATM   15  C9  UNL     1       5.658   1.942   0.020  1.00  0.00     0.050 C 
HETATM   16  C10 UNL     1       4.789  -0.361  -0.006  1.00  0.00     0.015 A 
HETATM   17  C11 UNL     1       3.689  -1.221   0.076  1.00  0.00    -0.060 A 
HETATM   18  C12 UNL     1       3.981  -2.684  -0.039  1.00  0.00     0.048 C 
HETATM   19  C13 UNL     1       2.428  -0.711   0.253  1.00  0.00     0.024 A 
ENDBRANCH   4   8
BRANCH   6  20
HETATM   20  O2  UNL     1      -2.939  -1.671   0.698  1.00  0.00    -0.348 OA
BRANCH  20  21
HETATM   21  C18 UNL     1      -4.295  -1.674   0.497  1.00  0.00     0.336 C 
BRANCH  21  22
HETATM   22  O3  UNL     1      -4.886  -2.312   1.612  1.00  0.00    -0.377 OA
HETATM   23  H23 UNL     1      -5.312  -1.627   2.187  1.00  0.00     0.212 HD
ENDBRANCH  21  22
ENDBRANCH  20  21
ENDBRANCH   6  20
BRANCH   1  24
HETATM   24  O1  UNL     1      -3.558   0.659  -1.455  1.00  0.00    -0.357 OA
HETATM   25  C1  UNL     1      -4.589   1.599  -1.426  1.00  0.00     0.209 C 
ENDBRANCH   1  24
TORSDOF 5
