REMARK  1 active torsions:
REMARK  status: ('A' for Active; 'I' for Inactive)
REMARK    1  A    between atoms: O1_2  and  C2_3 
ROOT
HETATM    1  C2  UNL     1       4.160  -0.280  -0.700  1.00  0.00     0.073 A 
HETATM    2  C3  UNL     1       3.509   0.311   0.379  1.00  0.00     0.066 A 
HETATM    3  C4  UNL     1       2.116   0.214   0.461  1.00  0.00     0.034 A 
HETATM    4  C5  UNL     1       1.486  -0.468  -0.548  1.00  0.00     0.066 A 
HETATM    5  C6  UNL     1       2.055  -1.073  -1.636  1.00  0.00     0.076 A 
HETATM    6  C7  UNL     1       3.451  -0.949  -1.674  1.00  0.00     0.073 A 
HETATM    7  O2  UNL     1       1.327  -1.741  -2.604  1.00  0.00    -0.326 OA
HETATM    8  C8  UNL     1       0.440  -2.816  -2.318  1.00  0.00     0.345 C 
HETATM    9  O3  UNL     1      -0.555  -2.352  -1.469  1.00  0.00    -0.358 OA
HETATM   10  C9  UNL     1      -1.399  -3.088  -0.657  1.00  0.00     0.162 C 
HETATM   11  C10 UNL     1      -2.055  -1.978  -0.261  1.00  0.00     0.056 C 
HETATM   12  C11 UNL     1      -3.157  -1.613   0.617  1.00  0.00    -0.079 C 
HETATM   13  C12 UNL     1      -4.276  -1.900   1.608  1.00  0.00     0.043 C 
HETATM   14  C13 UNL     1      -3.134  -0.281   0.398  1.00  0.00    -0.015 C 
HETATM   15  C14 UNL     1      -2.335   0.674  -0.427  1.00  0.00     0.042 C 
HETATM   16  C15 UNL     1      -3.349   1.348  -1.369  1.00  0.00     0.019 C 
HETATM   17  C16 UNL     1      -1.607   1.683   0.359  1.00  0.00    -0.011 C 
HETATM   18  S1  UNL     1      -1.229   1.327   1.957  1.00  0.00    -0.078 SA
HETATM   19  N1  UNL     1      -0.858   3.041   2.480  1.00  0.00    -0.333 N 
HETATM   20  C17 UNL     1      -0.010   2.855   1.289  1.00  0.00     0.211 A 
HETATM   21  N2  UNL     1      -0.276   3.652   0.272  1.00  0.00    -0.280 NA
HETATM   22  C18 UNL     1      -1.345   2.922  -0.511  1.00  0.00     0.188 C 
HETATM   23  C19 UNL     1       0.571   1.776   2.125  1.00  0.00     0.214 A 
HETATM   24  N3  UNL     1       1.408   0.805   1.535  1.00  0.00    -0.371 N 
HETATM   25  H19 UNL     1      -1.452   3.188   3.325  1.00  0.00     0.170 HD
HETATM   26  H23 UNL     1       1.708   0.096   2.275  1.00  0.00     0.161 HD
ENDROOT
BRANCH   1  27
HETATM   27  O1  UNL     1       5.520  -0.155  -0.730  1.00  0.00    -0.356 OA
HETATM   28  C1  UNL     1       6.291   0.506   0.221  1.00  0.00     0.210 C 
ENDBRANCH   1  27
TORSDOF 1
