REMARK  5 active torsions:
REMARK  status: ('A' for Active; 'I' for Inactive)
REMARK    1  A    between atoms: O1_2  and  C2_3 
REMARK    2  A    between atoms: C5_6  and  O2_7 
REMARK    3  A    between atoms: O2_7  and  C6_8 
REMARK    4  A    between atoms: C6_8  and  N1_9 
REMARK    5  A    between atoms: C7_10  and  C8_11 
ROOT
HETATM    1  C2  UNL     1      -2.438   1.684   0.087  1.00  0.00     0.073 A 
HETATM    2  C3  UNL     1      -2.997   0.573   0.502  1.00  0.00    -0.017 A 
HETATM    3  C4  UNL     1      -4.372   0.132   0.938  1.00  0.00     0.049 C 
HETATM    4  C5  UNL     1      -1.987  -0.543   0.544  1.00  0.00     0.190 A 
HETATM    5  C7  UNL     1      -0.718   0.075   0.096  1.00  0.00     0.007 A 
HETATM    6  C18 UNL     1      -1.068   1.310  -0.138  1.00  0.00     0.049 A 
ENDROOT
BRANCH   5   7
HETATM    7  C8  UNL     1       0.513  -0.691   0.076  1.00  0.00     0.080 A 
HETATM    8  N2  UNL     1       0.412  -2.021   0.097  1.00  0.00    -0.241 NA
HETATM    9  C9  UNL     1       1.452  -2.828   0.091  1.00  0.00     0.234 A 
HETATM   10  N3  UNL     1       2.717  -2.404   0.063  1.00  0.00    -0.241 NA
HETATM   11  C10 UNL     1       2.924  -1.077   0.043  1.00  0.00     0.076 A 
HETATM   12  C11 UNL     1       4.210  -0.597   0.042  1.00  0.00    -0.032 A 
HETATM   13  C17 UNL     1       1.815  -0.281   0.051  1.00  0.00     0.023 A 
HETATM   14  C12 UNL     1       5.344  -1.550   0.030  1.00  0.00     0.050 C 
HETATM   15  C13 UNL     1       4.459   0.780   0.051  1.00  0.00     0.015 A 
HETATM   16  C14 UNL     1       3.332   1.607   0.063  1.00  0.00    -0.060 A 
HETATM   17  C15 UNL     1       3.580   3.075   0.075  1.00  0.00     0.048 C 
HETATM   18  C16 UNL     1       2.081   1.048   0.063  1.00  0.00     0.023 A 
ENDBRANCH   5   7
BRANCH   4  19
HETATM   19  O2  UNL     1      -2.400  -1.545  -0.310  1.00  0.00    -0.348 OA
BRANCH  19  20
HETATM   20  C6  UNL     1      -2.753  -2.714   0.310  1.00  0.00     0.435 C 
BRANCH  20  21
HETATM   21  N1  UNL     1      -3.150  -3.679  -0.721  1.00  0.00     0.101 N 
HETATM   22  H10 UNL     1      -4.141  -3.434  -0.969  1.00  0.00     0.315 HD
HETATM   23  H11 UNL     1      -2.581  -3.521  -1.580  1.00  0.00     0.315 HD
ENDBRANCH  20  21
ENDBRANCH  19  20
ENDBRANCH   4  19
BRANCH   1  24
HETATM   24  O1  UNL     1      -3.167   2.843  -0.038  1.00  0.00    -0.356 OA
HETATM   25  C1  UNL     1      -3.550   3.440  -1.252  1.00  0.00     0.210 C 
ENDBRANCH   1  24
TORSDOF 5
