REMARK  7 active torsions:
REMARK  status: ('A' for Active; 'I' for Inactive)
REMARK    1  A    between atoms: O1_2  and  C2_3 
REMARK    2  A    between atoms: C6_9  and  N3_10 
REMARK    3  A    between atoms: N3_10  and  C7_11 
REMARK    4  A    between atoms: C9_13  and  O2_14 
REMARK    5  A    between atoms: C11_16  and  O3_17 
REMARK    6  A    between atoms: C13_19  and  O4_20 
REMARK    7  A    between atoms: C18_25  and  O5_26 
ROOT
HETATM    1  C2  UNL     1       5.182  -0.206   0.188  1.00  0.00     0.103 A 
HETATM    2  C3  UNL     1       4.597  -0.380   1.425  1.00  0.00     0.072 A 
HETATM    3  C4  UNL     1       3.226  -0.334   1.547  1.00  0.00     0.075 A 
HETATM    4  N1  UNL     1       2.746  -0.515   2.788  1.00  0.00    -0.241 NA
HETATM    5  C5  UNL     1       1.421  -0.485   2.997  1.00  0.00     0.236 A 
HETATM    6  N2  UNL     1       0.610  -0.275   1.957  1.00  0.00    -0.224 NA
HETATM    7  C6  UNL     1       0.996  -0.086   0.696  1.00  0.00     0.142 A 
HETATM    8  C16 UNL     1       2.357  -0.119   0.499  1.00  0.00     0.042 A 
HETATM    9  C17 UNL     1       2.987   0.048  -0.705  1.00  0.00     0.057 A 
HETATM   10  C18 UNL     1       4.351   0.012  -0.889  1.00  0.00     0.100 A 
ENDROOT
BRANCH   7  11
HETATM   11  N3  UNL     1       0.148   0.136  -0.407  1.00  0.00    -0.340 N 
HETATM   12  H6  UNL     1       0.530   0.282  -1.361  1.00  0.00     0.167 HD
BRANCH  11  13
HETATM   13  C7  UNL     1      -1.247   0.204  -0.472  1.00  0.00     0.039 A 
HETATM   14  C8  UNL     1      -2.005   0.452  -1.604  1.00  0.00     0.069 A 
HETATM   15  C9  UNL     1      -3.368   0.511  -1.633  1.00  0.00     0.106 A 
HETATM   16  C11 UNL     1      -4.106   0.318  -0.486  1.00  0.00     0.135 A 
HETATM   17  C13 UNL     1      -3.401   0.067   0.674  1.00  0.00     0.106 A 
HETATM   18  C15 UNL     1      -2.030   0.019   0.648  1.00  0.00     0.069 A 
BRANCH  15  19
HETATM   19  O2  UNL     1      -4.025   0.766  -2.824  1.00  0.00    -0.353 OA
HETATM   20  C10 UNL     1      -3.250   0.960  -3.988  1.00  0.00     0.210 C 
ENDBRANCH  15  19
BRANCH  16  21
HETATM   21  O3  UNL     1      -5.471   0.388  -0.570  1.00  0.00    -0.351 OA
HETATM   22  C12 UNL     1      -6.307  -0.720  -0.839  1.00  0.00     0.210 C 
ENDBRANCH  16  21
BRANCH  17  23
HETATM   23  O4  UNL     1      -4.189  -0.119   1.800  1.00  0.00    -0.353 OA
HETATM   24  C14 UNL     1      -3.528  -0.380   3.025  1.00  0.00     0.210 C 
ENDBRANCH  17  23
ENDBRANCH  11  13
ENDBRANCH   7  11
BRANCH  10  25
HETATM   25  O5  UNL     1       4.915   0.194  -2.162  1.00  0.00    -0.358 OA
HETATM   26  H19 UNL     1       4.453  -0.284  -2.941  1.00  0.00     0.217 HD
ENDBRANCH  10  25
BRANCH   1  27
HETATM   27  O1  UNL     1       6.542  -0.234  -0.041  1.00  0.00    -0.353 OA
HETATM   28  C1  UNL     1       7.533  -0.443   0.936  1.00  0.00     0.210 C 
ENDBRANCH   1  27
TORSDOF 7
