REMARK  4 active torsions:
REMARK  status: ('A' for Active; 'I' for Inactive)
REMARK    1  A    between atoms: O1_2  and  C2_3 
REMARK    2  A    between atoms: C6_9  and  N3_10 
REMARK    3  A    between atoms: N3_10  and  C7_11 
REMARK    4  A    between atoms: C14_18  and  O2_19 
ROOT
HETATM    1  C2  UNL     1       2.883  -0.856   0.240  1.00  0.00     0.103 A 
HETATM    2  C3  UNL     1       2.134  -2.006   0.239  1.00  0.00     0.072 A 
HETATM    3  C4  UNL     1       0.786  -1.854   0.006  1.00  0.00     0.075 A 
HETATM    4  N1  UNL     1       0.037  -2.977   0.003  1.00  0.00    -0.241 NA
HETATM    5  C5  UNL     1      -1.289  -2.830  -0.227  1.00  0.00     0.235 A 
HETATM    6  N2  UNL     1      -1.859  -1.609  -0.447  1.00  0.00    -0.224 NA
HETATM    7  C6  UNL     1      -1.155  -0.487  -0.451  1.00  0.00     0.138 A 
HETATM    8  C12 UNL     1       0.199  -0.624  -0.218  1.00  0.00     0.041 A 
HETATM    9  C13 UNL     1       1.001   0.486  -0.205  1.00  0.00     0.057 A 
HETATM   10  C14 UNL     1       2.369   0.422   0.022  1.00  0.00     0.102 A 
ENDROOT
BRANCH   7  11
HETATM   11  N3  UNL     1      -1.790   0.752  -0.684  1.00  0.00    -0.363 N 
HETATM   12  H6  UNL     1      -1.396   1.690  -0.719  1.00  0.00     0.162 HD
BRANCH  11  13
HETATM   13  C7  UNL     1      -3.237   0.689  -0.911  1.00  0.00     0.129 A 
HETATM   14  C8  UNL     1      -3.841   0.083   0.326  1.00  0.00     0.002 A 
HETATM   15  C9  UNL     1      -4.667   0.951   0.891  1.00  0.00    -0.002 A 
HETATM   16  C10 UNL     1      -4.714   2.196   0.129  1.00  0.00    -0.002 A 
HETATM   17  C11 UNL     1      -3.878   2.013  -0.904  1.00  0.00     0.002 A 
ENDBRANCH  11  13
ENDBRANCH   7  11
BRANCH  10  18
HETATM   18  O2  UNL     1       3.219   1.499   0.047  1.00  0.00    -0.353 OA
HETATM   19  C15 UNL     1       2.792   2.809  -0.160  1.00  0.00     0.210 C 
ENDBRANCH  10  18
BRANCH   1  20
HETATM   20  O1  UNL     1       4.243  -0.970   0.471  1.00  0.00    -0.353 OA
HETATM   21  C1  UNL     1       4.912  -2.167   0.705  1.00  0.00     0.210 C 
ENDBRANCH   1  20
TORSDOF 4
