REMARK  6 active torsions:
REMARK  status: ('A' for Active; 'I' for Inactive)
REMARK    1  A    between atoms: C2_2  and  C3_3 
REMARK    2  A    between atoms: C4_4  and  C6_6 
REMARK    3  A    between atoms: C10_12  and  C11_13 
REMARK    4  A    between atoms: C13_15  and  O1_16 
REMARK    5  A    between atoms: C15_18  and  O2_19 
REMARK    6  A    between atoms: C17_21  and  O3_22 
ROOT
HETATM    1  C6  UNL     1      -1.885   0.502   0.440  1.00  0.00     0.017 C 
HETATM    2  C7  UNL     1      -1.410   1.517   1.096  1.00  0.00    -0.008 C 
HETATM    3  C8  UNL     1      -2.534   2.354   1.539  1.00  0.00     0.191 C 
HETATM    4  N1  UNL     1      -2.028   3.289   2.543  1.00  0.00    -0.278 NA
HETATM    5  C9  UNL     1      -0.782   3.307   2.767  1.00  0.00     0.227 C 
HETATM    6  N2  UNL     1       0.267   2.553   2.221  1.00  0.00    -0.241 NA
HETATM    7  C10 UNL     1       0.013   1.638   1.347  1.00  0.00     0.076 C 
ENDROOT
BRANCH   7   8
HETATM    8  C11 UNL     1       1.094   0.882   0.767  1.00  0.00    -0.001 A 
HETATM    9  C12 UNL     1       1.265  -0.001  -0.235  1.00  0.00     0.053 A 
HETATM   10  C13 UNL     1       2.363  -0.734  -0.593  1.00  0.00     0.105 A 
HETATM   11  C15 UNL     1       3.490  -0.562   0.174  1.00  0.00     0.135 A 
HETATM   12  C17 UNL     1       3.469   0.311   1.233  1.00  0.00     0.105 A 
HETATM   13  C19 UNL     1       2.301   0.986   1.487  1.00  0.00     0.053 A 
BRANCH  10  14
HETATM   14  O1  UNL     1       2.358  -1.602  -1.658  1.00  0.00    -0.353 OA
HETATM   15  C14 UNL     1       1.263  -1.838  -2.488  1.00  0.00     0.210 C 
ENDBRANCH  10  14
BRANCH  11  16
HETATM   16  O2  UNL     1       4.649  -1.264  -0.115  1.00  0.00    -0.351 OA
HETATM   17  C16 UNL     1       5.629  -0.755  -0.994  1.00  0.00     0.210 C 
ENDBRANCH  11  16
BRANCH  12  18
HETATM   18  O3  UNL     1       4.620   0.459   1.979  1.00  0.00    -0.353 OA
HETATM   19  C18 UNL     1       4.723   1.325   3.091  1.00  0.00     0.210 C 
ENDBRANCH  12  18
ENDBRANCH   7   8
BRANCH   1  20
HETATM   20  C4  UNL     1      -3.029  -0.218  -0.084  1.00  0.00    -0.065 C 
HETATM   21  C3  UNL     1      -3.020  -1.364  -0.735  1.00  0.00    -0.020 C 
HETATM   22  C5  UNL     1      -4.385   0.340   0.086  1.00  0.00     0.048 C 
BRANCH  21  23
HETATM   23  C2  UNL     1      -3.600  -2.488  -1.437  1.00  0.00     0.023 C 
HETATM   24  C1  UNL     1      -5.131  -2.435  -1.551  1.00  0.00     0.009 C 
ENDBRANCH  21  23
ENDBRANCH   1  20
TORSDOF 6
