REMARK  1 active torsions:
REMARK  status: ('A' for Active; 'I' for Inactive)
REMARK    1  A    between atoms: C5_7  and  O3_9 
ROOT
HETATM    1  C1  UNL     1      -2.431   3.026   0.965  1.00  0.00     0.000 C 
HETATM    2  O1  UNL     1      -2.214   1.799   0.355  1.00  0.00     0.000 OA
HETATM    3  C2  UNL     1      -0.936   1.317   0.147  1.00  0.00     0.004 A 
HETATM    4  C3  UNL     1      -1.029   0.022  -0.132  1.00  0.00     0.005 A 
HETATM    5  O2  UNL     1      -2.334   0.442   0.061  1.00  0.00     0.000 OA
HETATM    6  C4  UNL     1      -3.410   0.330  -0.815  1.00  0.00     0.000 C 
HETATM    7  C5  UNL     1      -0.657  -1.376  -0.468  1.00  0.00     0.130 C 
HETATM    8  C6  UNL     1      -1.327  -1.760  -1.774  1.00  0.00     0.058 C 
HETATM    9  C8  UNL     1       0.785  -1.585  -0.717  1.00  0.00     0.087 A 
HETATM   10  N1  UNL     1       1.203  -2.583  -1.516  1.00  0.00    -0.242 NA
HETATM   11  C9  UNL     1       2.508  -2.795  -1.777  1.00  0.00     0.234 A 
HETATM   12  N2  UNL     1       3.512  -2.028  -1.263  1.00  0.00    -0.242 NA
HETATM   13  C10 UNL     1       3.135  -0.993  -0.439  1.00  0.00     0.067 A 
HETATM   14  C11 UNL     1       1.759  -0.798  -0.183  1.00  0.00     0.025 A 
HETATM   15  C12 UNL     1       1.690   0.234   0.638  1.00  0.00    -0.044 C 
HETATM   16  C13 UNL     1       1.238   0.315   2.034  1.00  0.00     0.046 C 
HETATM   17  C14 UNL     1       2.230   1.414  -0.144  1.00  0.00     0.140 C 
HETATM   18  C15 UNL     1       3.687   1.370   0.158  1.00  0.00     0.061 C 
HETATM   19  C16 UNL     1       4.027  -0.124   0.113  1.00  0.00     0.008 C 
HETATM   20  N3  UNL     1       1.448   2.527   0.206  1.00  0.00    -0.291 NA
HETATM   21  C17 UNL     1       0.159   2.266   0.269  1.00  0.00     0.124 C 
ENDROOT
BRANCH   7  22
HETATM   22  O3  UNL     1      -0.979  -2.224   0.568  1.00  0.00    -0.374 OA
HETATM   23  C7  UNL     1      -2.249  -2.337   0.979  1.00  0.00     0.203 C 
ENDBRANCH   7  22
TORSDOF 1
