REMARK  8 active torsions:
REMARK  status: ('A' for Active; 'I' for Inactive)
REMARK    1  A    between atoms: O1_2  and  C2_3 
REMARK    2  A    between atoms: C3_4  and  C4_5 
REMARK    3  A    between atoms: C3_4  and  C9_11 
REMARK    4  A    between atoms: C4_5  and  C5_6 
REMARK    5  A    between atoms: C6_7  and  C7_8 
REMARK    6  A    between atoms: C8_9  and  O2_10 
REMARK    7  A    between atoms: C9_11  and  N1_12 
REMARK    8  A    between atoms: N1_12  and  C10_13 
ROOT
HETATM    1  N1  UNL     1      -0.424   0.217  -0.851  1.00  0.00    -0.370 N 
HETATM    2  H12 UNL     1      -0.560   1.236  -0.939  1.00  0.00     0.161 HD
ENDROOT
BRANCH   1   3
HETATM    3  C9  UNL     1      -1.606  -0.574  -1.175  1.00  0.00     0.157 C 
BRANCH   3   4
HETATM    4  C3  UNL     1      -2.029  -1.386  -0.002  1.00  0.00    -0.037 C 
HETATM    5  C2  UNL     1      -2.109  -2.707   0.031  1.00  0.00     0.138 C 
BRANCH   5   6
HETATM    6  O1  UNL     1      -1.911  -3.818  -0.760  1.00  0.00    -0.368 OA
HETATM    7  C1  UNL     1      -2.956  -4.711  -1.115  1.00  0.00     0.208 C 
ENDBRANCH   5   6
BRANCH   4   8
HETATM    8  C4  UNL     1      -2.355  -0.481   1.149  1.00  0.00     0.065 C 
BRANCH   8   9
HETATM    9  C5  UNL     1      -3.456   0.458   0.810  1.00  0.00    -0.013 C 
HETATM   10  C6  UNL     1      -3.298   1.760   0.838  1.00  0.00     0.063 C 
BRANCH  10  11
HETATM   11  C7  UNL     1      -4.319   2.719   0.522  1.00  0.00    -0.049 C 
HETATM   12  C8  UNL     1      -5.186   3.515   0.264  1.00  0.00     0.056 C 
BRANCH  12  13
HETATM   13  O2  UNL     1      -6.181   4.418  -0.051  1.00  0.00    -0.314 OA
HETATM   14  H9  UNL     1      -6.032   5.047  -0.842  1.00  0.00     0.230 HD
ENDBRANCH  12  13
ENDBRANCH  10  11
ENDBRANCH   8   9
ENDBRANCH   4   8
ENDBRANCH   3   4
ENDBRANCH   1   3
BRANCH   1  15
HETATM   15  C10 UNL     1       0.763  -0.467  -0.456  1.00  0.00     0.137 A 
HETATM   16  N2  UNL     1       0.790  -1.791  -0.386  1.00  0.00    -0.224 NA
HETATM   17  C11 UNL     1       1.889  -2.467  -0.018  1.00  0.00     0.236 A 
HETATM   18  N3  UNL     1       3.040  -1.842   0.305  1.00  0.00    -0.241 NA
HETATM   19  C12 UNL     1       3.080  -0.496   0.254  1.00  0.00     0.078 A 
HETATM   20  C13 UNL     1       4.235   0.182   0.576  1.00  0.00    -0.032 A 
HETATM   21  C19 UNL     1       1.946   0.156  -0.123  1.00  0.00     0.039 A 
HETATM   22  C14 UNL     1       5.414  -0.644   0.975  1.00  0.00     0.050 C 
HETATM   23  C15 UNL     1       4.295   1.567   0.529  1.00  0.00     0.015 A 
HETATM   24  C16 UNL     1       3.155   2.229   0.150  1.00  0.00    -0.060 A 
HETATM   25  C17 UNL     1       3.251   3.710   0.110  1.00  0.00     0.048 C 
HETATM   26  C18 UNL     1       2.012   1.530  -0.167  1.00  0.00     0.024 A 
ENDBRANCH   1  15
TORSDOF 8
