REMARK  6 active torsions:
REMARK  status: ('A' for Active; 'I' for Inactive)
REMARK    1  A    between atoms: C2_2  and  O1_3 
REMARK    2  A    between atoms: C2_2  and  C4_5 
REMARK    3  A    between atoms: C4_5  and  O2_19 
REMARK    4  A    between atoms: C5_6  and  C6_7 
REMARK    5  A    between atoms: C8_11  and  N3_12 
REMARK    6  A    between atoms: N3_12  and  C9_13 
ROOT
HETATM    1  C6  UNL     1      -0.312  -0.147   1.501  1.00  0.00     0.069 A 
HETATM    2  N1  UNL     1      -0.099   0.123   2.816  1.00  0.00    -0.246 NA
HETATM    3  C7  UNL     1      -0.007   1.485   3.006  1.00  0.00     0.229 A 
HETATM    4  N2  UNL     1      -0.152   2.075   1.932  1.00  0.00    -0.251 NA
HETATM    5  C8  UNL     1      -0.370   1.145   0.795  1.00  0.00     0.256 A 
ENDROOT
BRANCH   1   6
HETATM    6  C5  UNL     1      -0.525  -1.266   0.472  1.00  0.00     0.113 C 
HETATM    7  C4  UNL     1      -0.694  -2.547   0.009  1.00  0.00     0.089 C 
BRANCH   7   8
HETATM    8  C2  UNL     1      -0.714  -3.742   0.986  1.00  0.00     0.088 C 
HETATM    9  C1  UNL     1      -0.864  -5.036   0.938  1.00  0.00     0.053 C 
BRANCH   8  10
HETATM   10  O1  UNL     1      -0.559  -3.520   2.367  1.00  0.00    -0.354 OA
HETATM   11  C3  UNL     1       0.775  -3.522   2.867  1.00  0.00     0.210 C 
ENDBRANCH   8  10
ENDBRANCH   7   8
BRANCH   7  12
HETATM   12  O2  UNL     1      -0.741  -1.968  -1.062  1.00  0.00    -0.357 OA
HETATM   13  C15 UNL     1      -1.032  -0.999  -1.968  1.00  0.00     0.209 C 
ENDBRANCH   7  12
ENDBRANCH   1   6
BRANCH   5  14
HETATM   14  N3  UNL     1       0.742   1.466  -0.079  1.00  0.00    -0.362 N 
HETATM   15  H9  UNL     1       1.642   0.948   0.065  1.00  0.00     0.162 HD
BRANCH  14  16
HETATM   16  C9  UNL     1       0.728   2.404  -1.145  1.00  0.00     0.029 A 
HETATM   17  C10 UNL     1       1.820   2.703  -1.921  1.00  0.00     0.029 A 
HETATM   18  C11 UNL     1       1.655   3.547  -2.971  1.00  0.00     0.002 A 
HETATM   19  C12 UNL     1       0.478   4.202  -3.425  1.00  0.00     0.000 A 
HETATM   20  C13 UNL     1      -0.619   3.876  -2.605  1.00  0.00     0.002 A 
HETATM   21  C14 UNL     1      -0.465   2.995  -1.501  1.00  0.00     0.029 A 
ENDBRANCH  14  16
ENDBRANCH   5  14
TORSDOF 6
