REMARK  3 active torsions:
REMARK  status: ('A' for Active; 'I' for Inactive)
REMARK    1  A    between atoms: C2_2  and  O1_3 
REMARK    2  A    between atoms: O1_3  and  C3_4 
REMARK    3  A    between atoms: C14_19  and  O3_20 
ROOT
HETATM    1  C3  UNL     1       1.278   0.860   0.175  1.00  0.00     0.325 C 
HETATM    2  O2  UNL     1       0.262   1.226  -0.816  1.00  0.00    -0.299 OA
HETATM    3  C4  UNL     1      -0.384   0.036  -1.320  1.00  0.00     0.157 A 
HETATM    4  C5  UNL     1      -1.318  -0.311  -0.514  1.00  0.00     0.147 A 
HETATM    5  N1  UNL     1      -1.718   0.399   0.634  1.00  0.00    -0.397 N 
HETATM    6  C6  UNL     1      -3.160   0.220   1.029  1.00  0.00     0.075 C 
HETATM    7  C7  UNL     1      -3.915   1.359   0.443  1.00  0.00     0.032 C 
HETATM    8  C8  UNL     1      -3.575  -1.147   0.372  1.00  0.00     0.044 C 
HETATM    9  C9  UNL     1      -2.247  -1.620  -0.170  1.00  0.00     0.047 A 
HETATM   10  C10 UNL     1      -1.532  -1.570  -1.219  1.00  0.00     0.063 A 
HETATM   11  N2  UNL     1      -1.003  -2.095  -2.339  1.00  0.00    -0.249 NA
HETATM   12  C11 UNL     1      -0.097  -1.496  -3.031  1.00  0.00     0.208 A 
HETATM   13  N3  UNL     1       0.337  -0.260  -2.485  1.00  0.00    -0.333 N 
HETATM   14  C12 UNL     1      -1.123  -2.366   0.648  1.00  0.00     0.049 C 
HETATM   15  C13 UNL     1       0.039  -1.453   0.697  1.00  0.00     0.012 C 
HETATM   16  C14 UNL     1       1.074  -0.550   0.702  1.00  0.00     0.097 C 
HETATM   17  H7  UNL     1      -1.152   1.027   1.193  1.00  0.00     0.155 HD
HETATM   18  H15 UNL     1       1.090   0.219  -3.010  1.00  0.00     0.168 HD
ENDROOT
BRANCH   1  19
HETATM   19  O1  UNL     1       2.519   0.938  -0.366  1.00  0.00    -0.355 OA
BRANCH  19  20
HETATM   20  C2  UNL     1       3.357   1.840   0.258  1.00  0.00     0.167 C 
HETATM   21  C1  UNL     1       2.872   3.255   0.268  1.00  0.00     0.033 C 
ENDBRANCH  19  20
ENDBRANCH   1  19
BRANCH  16  22
HETATM   22  O3  UNL     1       2.332  -0.640   1.222  1.00  0.00    -0.355 OA
HETATM   23  C15 UNL     1       3.385  -1.418   0.722  1.00  0.00     0.209 C 
ENDBRANCH  16  22
TORSDOF 3
