REMARK  2 active torsions:
REMARK  status: ('A' for Active; 'I' for Inactive)
REMARK    1  A    between atoms: N1_1  and  C1_2 
REMARK    2  A    between atoms: C4_5  and  C5_6 
ROOT
HETATM    1  C1  UNL     1       0.866   2.369  -0.232  1.00  0.00     0.118 C 
HETATM    2  C2  UNL     1      -0.347   1.939   0.159  1.00  0.00     0.024 C 
HETATM    3  C3  UNL     1      -0.681   1.268   1.405  1.00  0.00     0.044 C 
HETATM    4  C4  UNL     1      -1.190  -0.131   1.297  1.00  0.00     0.044 C 
HETATM    5  C11 UNL     1      -0.147  -1.110   0.943  1.00  0.00    -0.021 C 
HETATM    6  C12 UNL     1       0.745  -1.466   0.049  1.00  0.00    -0.028 C 
HETATM    7  C13 UNL     1       1.816  -2.391  -0.409  1.00  0.00     0.053 C 
HETATM    8  C14 UNL     1       3.123  -1.598  -0.599  1.00  0.00     0.180 C 
HETATM    9  O1  UNL     1       3.411  -1.019   0.653  1.00  0.00    -0.344 OA
HETATM   10  C15 UNL     1       4.461  -0.152   0.790  1.00  0.00     0.252 C 
HETATM   11  N2  UNL     1       4.343   1.140   0.639  1.00  0.00    -0.230 NA
HETATM   12  C16 UNL     1       3.023   1.608   0.314  1.00  0.00     0.237 C 
HETATM   13  N3  UNL     1       1.881   2.077   0.723  1.00  0.00    -0.225 NA
ENDROOT
BRANCH   4  14
HETATM   14  C5  UNL     1      -2.390  -0.351   0.516  1.00  0.00    -0.050 A 
HETATM   15  C6  UNL     1      -2.475  -0.211  -0.855  1.00  0.00     0.008 A 
HETATM   16  C7  UNL     1      -3.612  -0.415  -1.606  1.00  0.00     0.001 A 
HETATM   17  C8  UNL     1      -4.779  -0.791  -0.974  1.00  0.00     0.000 A 
HETATM   18  C9  UNL     1      -4.790  -0.955   0.381  1.00  0.00     0.001 A 
HETATM   19  C10 UNL     1      -3.622  -0.734   1.069  1.00  0.00     0.008 A 
ENDBRANCH   4  14
BRANCH   1  20
HETATM   20  N1  UNL     1       1.363   3.035  -1.398  1.00  0.00    -0.384 N 
HETATM   21  H1  UNL     1       1.502   4.069  -1.477  1.00  0.00     0.157 HD
HETATM   22  H2  UNL     1       1.613   2.476  -2.243  1.00  0.00     0.157 HD
ENDBRANCH   1  20
TORSDOF 2
