REMARK  5 active torsions:
REMARK  status: ('A' for Active; 'I' for Inactive)
REMARK    1  A    between atoms: O1_1  and  P1_2 
REMARK    2  A    between atoms: P1_2  and  C1_3 
REMARK    3  A    between atoms: C3_5  and  O2_6 
REMARK    4  A    between atoms: C5_9  and  N2_10 
REMARK    5  A    between atoms: N2_10  and  C6_11 
ROOT
HETATM    1  C1  UNL     1      -2.836   0.257  -0.132  1.00  0.00     0.053 C 
HETATM    2  C2  UNL     1      -2.598  -0.924  -0.974  1.00  0.00     0.052 C 
HETATM    3  C3  UNL     1      -2.171  -2.198  -0.156  1.00  0.00     0.190 C 
HETATM    4  C4  UNL     1      -1.035  -1.573   0.634  1.00  0.00     0.156 C 
HETATM    5  N1  UNL     1       0.216  -1.412   0.192  1.00  0.00    -0.214 NA
HETATM    6  C5  UNL     1       0.496  -0.067  -0.466  1.00  0.00     0.127 C 
HETATM    7  C12 UNL     1      -0.407   0.958  -0.333  1.00  0.00     0.034 C 
HETATM    8  C13 UNL     1      -1.695   1.064   0.410  1.00  0.00     0.063 C 
HETATM    9  C14 UNL     1      -1.459   0.462   1.805  1.00  0.00     0.101 C 
HETATM   10  N3  UNL     1      -1.168  -0.870   1.927  1.00  0.00    -0.246 NA
ENDROOT
BRANCH   6  11
HETATM   11  N2  UNL     1       1.679   0.099  -1.213  1.00  0.00    -0.341 N 
HETATM   12  H8  UNL     1       1.516   0.097  -2.247  1.00  0.00     0.167 HD
BRANCH  11  13
HETATM   13  C6  UNL     1       3.015   0.267  -0.754  1.00  0.00     0.033 A 
HETATM   14  C7  UNL     1       3.536   1.532  -0.589  1.00  0.00     0.029 A 
HETATM   15  C8  UNL     1       4.854   1.592  -0.125  1.00  0.00     0.002 A 
HETATM   16  C9  UNL     1       5.542   0.404   0.135  1.00  0.00     0.000 A 
HETATM   17  C10 UNL     1       4.983  -0.842  -0.045  1.00  0.00     0.002 A 
HETATM   18  C11 UNL     1       3.670  -0.921  -0.507  1.00  0.00     0.029 A 
ENDBRANCH  11  13
ENDBRANCH   6  11
BRANCH   3  19
HETATM   19  O2  UNL     1      -3.127  -2.622   0.689  1.00  0.00    -0.388 OA
HETATM   20  H7  UNL     1      -3.026  -2.342   1.643  1.00  0.00     0.210 HD
ENDBRANCH   3  19
BRANCH   1  21
HETATM   21  P1  UNL     1      -3.977   1.476  -1.009  1.00  0.00     0.013 P 
HETATM   22  H2  UNL     1      -4.146   1.106  -2.401  1.00  0.00     0.087 HD
BRANCH  21  23
HETATM   23  O1  UNL     1      -5.464   1.689  -0.186  1.00  0.00    -0.376 OA
HETATM   24  H1  UNL     1      -5.653   0.910   0.399  1.00  0.00     0.214 HD
ENDBRANCH  21  23
ENDBRANCH   1  21
TORSDOF 5
