REMARK  1 active torsions:
REMARK  status: ('A' for Active; 'I' for Inactive)
REMARK    1  A    between atoms: O1_2  and  C2_3 
ROOT
HETATM    1  C2  UNL     1      -1.665  -0.414  -0.266  1.00  0.00     0.076 A 
HETATM    2  C3  UNL     1      -0.351  -0.881  -0.312  1.00  0.00     0.066 A 
HETATM    3  C4  UNL     1       0.226  -0.090  -1.270  1.00  0.00     0.033 A 
HETATM    4  C5  UNL     1      -0.120   0.934  -2.118  1.00  0.00     0.030 A 
HETATM    5  C6  UNL     1      -1.436   1.344  -2.016  1.00  0.00     0.012 A 
HETATM    6  C7  UNL     1      -2.109   0.618  -1.071  1.00  0.00    -0.024 A 
HETATM    7  C8  UNL     1      -3.470   1.126  -0.700  1.00  0.00     0.046 C 
HETATM    8  C9  UNL     1      -3.230   2.343   0.251  1.00  0.00     0.051 C 
HETATM    9  C10 UNL     1      -2.250   1.776   1.245  1.00  0.00     0.089 C 
HETATM   10  N1  UNL     1      -1.100   2.062   0.802  1.00  0.00    -0.277 NA
HETATM   11  C11 UNL     1       0.169   1.706   1.424  1.00  0.00     0.114 C 
HETATM   12  C12 UNL     1       1.239   1.084   0.793  1.00  0.00     0.019 C 
HETATM   13  C13 UNL     1       2.277   0.416  -0.055  1.00  0.00     0.137 C 
HETATM   14  C14 UNL     1       3.188  -0.424   0.809  1.00  0.00     0.298 C 
HETATM   15  N2  UNL     1       3.100  -1.836   0.542  1.00  0.00     0.087 N 
HETATM   16  C15 UNL     1       3.439  -2.017  -0.864  1.00  0.00     0.289 C 
HETATM   17  C16 UNL     1       2.409  -1.426  -1.767  1.00  0.00     0.154 C 
HETATM   18  N3  UNL     1       1.633  -0.424  -1.087  1.00  0.00    -0.369 N 
HETATM   19  H17 UNL     1       3.897  -2.272   1.080  1.00  0.00     0.316 HD
ENDROOT
BRANCH   1  20
HETATM   20  O1  UNL     1      -2.513  -1.047   0.640  1.00  0.00    -0.355 OA
HETATM   21  C1  UNL     1      -2.112  -2.090   1.473  1.00  0.00     0.210 C 
ENDBRANCH   1  20
TORSDOF 1
