REMARK  6 active torsions:
REMARK  status: ('A' for Active; 'I' for Inactive)
REMARK    1  A    between atoms: N1_2  and  C2_3 
REMARK    2  A    between atoms: C2_3  and  N2_4 
REMARK    3  A    between atoms: N2_4  and  C3_5 
REMARK    4  A    between atoms: C3_5  and  C4_6 
REMARK    5  A    between atoms: C11_14  and  O1_15 
REMARK    6  A    between atoms: C13_17  and  O2_18 
ROOT
HETATM    1  C2  UNL     1       0.238   0.051   0.477  1.00  0.00     0.135 C 
HETATM    2  C9  UNL     1      -0.920   0.336  -0.093  1.00  0.00     0.040 A 
HETATM    3  C10 UNL     1      -2.100   0.106   0.725  1.00  0.00     0.057 A 
HETATM    4  C11 UNL     1      -3.239   0.413   0.092  1.00  0.00     0.102 A 
HETATM    5  C13 UNL     1      -3.359   0.927  -1.267  1.00  0.00     0.103 A 
HETATM    6  C15 UNL     1      -2.286   1.140  -2.020  1.00  0.00     0.071 A 
HETATM    7  C16 UNL     1      -0.972   0.847  -1.455  1.00  0.00     0.065 A 
HETATM    8  N3  UNL     1       0.067   1.051  -2.179  1.00  0.00    -0.299 NA
HETATM    9  H18 UNL     1       0.997   0.840  -1.768  1.00  0.00     0.187 HD
ENDROOT
BRANCH   1  10
HETATM   10  N1  UNL     1       0.253  -0.449   1.818  1.00  0.00    -0.254 NA
HETATM   11  C1  UNL     1       0.283   0.426   2.788  1.00  0.00     0.151 C 
ENDBRANCH   1  10
BRANCH   1  12
HETATM   12  N2  UNL     1       1.637   0.011   0.349  1.00  0.00    -0.370 N 
HETATM   13  H3  UNL     1       2.238   0.831   0.587  1.00  0.00     0.161 HD
BRANCH  12  14
HETATM   14  C3  UNL     1       2.169  -1.249  -0.136  1.00  0.00     0.161 C 
BRANCH  14  15
HETATM   15  C4  UNL     1       3.647  -1.094  -0.201  1.00  0.00    -0.027 A 
HETATM   16  C5  UNL     1       4.438  -1.419   0.904  1.00  0.00     0.010 A 
HETATM   17  C6  UNL     1       5.791  -1.312   0.939  1.00  0.00     0.001 A 
HETATM   18  C7  UNL     1       6.635  -0.881  -0.054  1.00  0.00     0.001 A 
HETATM   19  C8  UNL     1       6.248  -0.460  -1.327  1.00  0.00     0.016 A 
HETATM   20  P1  UNL     1       4.527  -0.515  -1.600  1.00  0.00    -0.026 P 
ENDBRANCH  14  15
ENDBRANCH  12  14
ENDBRANCH   1  12
BRANCH   4  21
HETATM   21  O1  UNL     1      -4.423   0.214   0.827  1.00  0.00    -0.353 OA
HETATM   22  C12 UNL     1      -4.805  -1.142   0.995  1.00  0.00     0.210 C 
ENDBRANCH   4  21
BRANCH   5  23
HETATM   23  O2  UNL     1      -4.566   1.216  -1.839  1.00  0.00    -0.353 OA
HETATM   24  C14 UNL     1      -5.454   2.121  -1.216  1.00  0.00     0.210 C 
ENDBRANCH   5  23
TORSDOF 6
