REMARK  4 active torsions:
REMARK  status: ('A' for Active; 'I' for Inactive)
REMARK    1  A    between atoms: C7_9  and  N3_10 
REMARK    2  A    between atoms: C14_17  and  O1_18 
REMARK    3  A    between atoms: O1_18  and  C15_19 
REMARK    4  A    between atoms: C15_19  and  O2_20 
ROOT
HETATM    1  C1  UNL     1       3.031  -0.629   2.113  1.00  0.00     0.046 C 
HETATM    2  C2  UNL     1       2.097  -0.502   0.945  1.00  0.00    -0.048 A 
HETATM    3  C3  UNL     1       0.828  -0.142   1.069  1.00  0.00     0.023 A 
HETATM    4  C4  UNL     1       0.313  -0.152  -0.294  1.00  0.00     0.038 A 
HETATM    5  C5  UNL     1       1.277  -0.516  -1.210  1.00  0.00     0.083 A 
HETATM    6  N1  UNL     1       0.962  -0.571  -2.512  1.00  0.00    -0.242 NA
HETATM    7  C6  UNL     1      -0.309  -0.265  -2.908  1.00  0.00     0.235 A 
HETATM    8  N2  UNL     1      -1.262   0.095  -1.999  1.00  0.00    -0.223 NA
HETATM    9  C7  UNL     1      -0.969   0.156  -0.695  1.00  0.00     0.144 A 
HETATM   10  C14 UNL     1       2.527  -0.775  -0.451  1.00  0.00     0.205 A 
ENDROOT
BRANCH   9  11
HETATM   11  N3  UNL     1      -2.078   0.541   0.102  1.00  0.00    -0.333 N 
HETATM   12  C8  UNL     1      -2.548   1.851  -0.221  1.00  0.00     0.093 A 
HETATM   13  C9  UNL     1      -3.575   2.396   0.409  1.00  0.00     0.017 A 
HETATM   14  C10 UNL     1      -4.286   1.690   1.469  1.00  0.00    -0.001 A 
HETATM   15  C11 UNL     1      -3.818   0.483   1.734  1.00  0.00    -0.002 A 
HETATM   16  C12 UNL     1      -2.691  -0.271   1.133  1.00  0.00     0.109 A 
HETATM   17  C13 UNL     1      -3.288  -1.474   0.386  1.00  0.00     0.037 C 
ENDBRANCH   9  11
BRANCH  10  18
HETATM   18  O1  UNL     1       3.438   0.195  -0.874  1.00  0.00    -0.351 OA
BRANCH  18  19
HETATM   19  C15 UNL     1       4.620  -0.307  -1.355  1.00  0.00     0.336 C 
BRANCH  19  20
HETATM   20  O2  UNL     1       5.487   0.733  -1.762  1.00  0.00    -0.377 OA
HETATM   21  H17 UNL     1       5.751   1.281  -0.957  1.00  0.00     0.212 HD
ENDBRANCH  19  20
ENDBRANCH  18  19
ENDBRANCH  10  18
TORSDOF 4
