REMARK  3 active torsions:
REMARK  status: ('A' for Active; 'I' for Inactive)
REMARK    1  A    between atoms: C5_6  and  S1_7 
REMARK    2  A    between atoms: S1_7  and  C6_8 
REMARK    3  A    between atoms: C15_20  and  O2_21 
ROOT
HETATM    1  C1  UNL     1      -4.619   0.137   0.821  1.00  0.00     0.000 C 
HETATM    2  O1  UNL     1      -3.406   0.882   0.615  1.00  0.00     0.000 OA
HETATM    3  C2  UNL     1      -2.208   0.262   0.894  1.00  0.00    -0.001 A 
HETATM    4  C3  UNL     1      -2.338   1.469   1.339  1.00  0.00     0.047 A 
HETATM    5  C4  UNL     1      -1.269   2.200   1.129  1.00  0.00     0.093 A 
HETATM    6  C5  UNL     1      -0.301   1.628   0.479  1.00  0.00     0.130 A 
HETATM    7  N1  UNL     1      -0.136   1.731   1.875  1.00  0.00    -0.238 NA
HETATM    8  C12 UNL     1       0.542   1.038   2.663  1.00  0.00     0.180 C 
HETATM    9  N2  UNL     1       1.401  -0.110   2.481  1.00  0.00    -0.261 NA
HETATM   10  C13 UNL     1       0.983  -1.117   1.788  1.00  0.00     0.120 C 
HETATM   11  C14 UNL     1      -0.180  -1.529   1.047  1.00  0.00     0.056 C 
HETATM   12  C15 UNL     1      -1.118  -0.647   1.001  1.00  0.00     0.077 C 
ENDROOT
BRANCH   6  13
HETATM   13  S1  UNL     1      -0.052   1.301  -1.227  1.00  0.00    -0.098 SA
BRANCH  13  14
HETATM   14  C6  UNL     1       1.571   0.645  -1.567  1.00  0.00     0.004 A 
HETATM   15  C7  UNL     1       2.036  -0.648  -1.637  1.00  0.00     0.018 A 
HETATM   16  C8  UNL     1       3.355  -0.888  -1.911  1.00  0.00     0.003 A 
HETATM   17  C9  UNL     1       4.271   0.125  -2.128  1.00  0.00     0.024 A 
HETATM   18  C10 UNL     1       3.814   1.418  -2.060  1.00  0.00     0.035 A 
HETATM   19 CL1  UNL     1       5.017   2.678  -2.341  1.00  0.00    -0.084 Cl
HETATM   20  C11 UNL     1       2.475   1.677  -1.781  1.00  0.00     0.042 A 
ENDBRANCH  13  14
ENDBRANCH   6  13
BRANCH  12  21
HETATM   21  O2  UNL     1      -2.077  -1.356   0.244  1.00  0.00    -0.355 OA
HETATM   22  C16 UNL     1      -1.919  -1.732  -1.079  1.00  0.00     0.210 C 
ENDBRANCH  12  21
TORSDOF 3
