REMARK  4 active torsions:
REMARK  status: ('A' for Active; 'I' for Inactive)
REMARK    1  A    between atoms: O1_2  and  C2_3 
REMARK    2  A    between atoms: C6_9  and  N3_10 
REMARK    3  A    between atoms: N3_10  and  C7_11 
REMARK    4  A    between atoms: C16_20  and  O2_21 
ROOT
HETATM    1  C2  UNL     1      -3.910  -0.271  -0.428  1.00  0.00     0.103 A 
HETATM    2  C3  UNL     1      -3.381   0.865   0.152  1.00  0.00     0.072 A 
HETATM    3  C4  UNL     1      -2.031   1.003   0.308  1.00  0.00     0.075 A 
HETATM    4  N1  UNL     1      -1.572   2.131   0.880  1.00  0.00    -0.241 NA
HETATM    5  C5  UNL     1      -0.225   2.268   1.035  1.00  0.00     0.236 A 
HETATM    6  N2  UNL     1       0.662   1.311   0.635  1.00  0.00    -0.224 NA
HETATM    7  C6  UNL     1       0.166   0.215   0.076  1.00  0.00     0.141 A 
HETATM    8  C14 UNL     1      -1.176   0.003  -0.115  1.00  0.00     0.042 A 
HETATM    9  C15 UNL     1      -1.672  -1.143  -0.697  1.00  0.00     0.057 A 
HETATM   10  C16 UNL     1      -3.054  -1.290  -0.860  1.00  0.00     0.100 A 
ENDROOT
BRANCH   7  11
HETATM   11  N3  UNL     1       1.108  -0.753  -0.326  1.00  0.00    -0.344 N 
HETATM   12  H6  UNL     1       1.035  -1.687  -0.779  1.00  0.00     0.167 HD
BRANCH  11  13
HETATM   13  C7  UNL     1       2.503  -0.544  -0.133  1.00  0.00     0.014 C 
HETATM   14  C8  UNL     1       3.103  -1.351   0.726  1.00  0.00     0.025 C 
HETATM   15  C9  UNL     1       4.504  -1.387   1.132  1.00  0.00     0.002 C 
HETATM   16  C10 UNL     1       5.415  -0.431   1.023  1.00  0.00    -0.000 C 
HETATM   17  C11 UNL     1       5.195   0.900   0.456  1.00  0.00    -0.004 C 
HETATM   18  C12 UNL     1       4.195   1.256  -0.355  1.00  0.00    -0.021 C 
HETATM   19  C13 UNL     1       3.030   0.569  -0.957  1.00  0.00     0.084 C 
ENDBRANCH  11  13
ENDBRANCH   7  11
BRANCH  10  20
HETATM   20  O2  UNL     1      -3.443  -2.485  -1.459  1.00  0.00    -0.358 OA
HETATM   21  H15 UNL     1      -3.529  -3.355  -0.932  1.00  0.00     0.217 HD
ENDBRANCH  10  20
BRANCH   1  22
HETATM   22  O1  UNL     1      -5.232  -0.609  -0.678  1.00  0.00    -0.353 OA
HETATM   23  C1  UNL     1      -6.333   0.196  -0.364  1.00  0.00     0.210 C 
ENDBRANCH   1  22
TORSDOF 4
