REMARK  4 active torsions:
REMARK  status: ('A' for Active; 'I' for Inactive)
REMARK    1  A    between atoms: O1_2  and  C2_3 
REMARK    2  A    between atoms: C6_9  and  S1_10 
REMARK    3  A    between atoms: S1_10  and  C7_11 
REMARK    4  A    between atoms: C14_19  and  O2_20 
ROOT
HETATM    1  C2  UNL     1      -2.738   0.997   0.133  1.00  0.00     0.103 A 
HETATM    2  C3  UNL     1      -2.153   1.461   1.293  1.00  0.00     0.072 A 
HETATM    3  C4  UNL     1      -0.784   1.446   1.471  1.00  0.00     0.074 A 
HETATM    4  N1  UNL     1      -0.171   1.887   2.583  1.00  0.00    -0.241 NA
HETATM    5  C5  UNL     1       1.185   1.852   2.715  1.00  0.00     0.234 A 
HETATM    6  N2  UNL     1       1.895   1.357   1.685  1.00  0.00    -0.234 NA
HETATM    7  C6  UNL     1       1.368   0.903   0.556  1.00  0.00     0.108 A 
HETATM    8  C12 UNL     1      -0.007   0.945   0.439  1.00  0.00     0.031 A 
HETATM    9  C13 UNL     1      -0.589   0.480  -0.724  1.00  0.00     0.056 A 
HETATM   10  C14 UNL     1      -1.962   0.501  -0.891  1.00  0.00     0.102 A 
ENDROOT
BRANCH   7  11
HETATM   11  S1  UNL     1       2.348   0.251  -0.793  1.00  0.00    -0.097 SA
BRANCH  11  12
HETATM   12  C7  UNL     1       2.523  -1.536  -0.468  1.00  0.00     0.101 A 
HETATM   13  C8  UNL     1       3.311  -2.230  -1.493  1.00  0.00    -0.006 A 
HETATM   14  C9  UNL     1       4.451  -2.682  -0.963  1.00  0.00     0.021 A 
HETATM   15  C10 UNL     1       4.501  -2.316   0.469  1.00  0.00     0.031 A 
HETATM   16 CL1  UNL     1       5.823  -2.713   1.549  1.00  0.00    -0.085 Cl
HETATM   17  C11 UNL     1       3.377  -1.651   0.745  1.00  0.00     0.016 A 
ENDBRANCH  11  12
ENDBRANCH   7  11
BRANCH  10  18
HETATM   18  O2  UNL     1      -2.658   0.062  -2.010  1.00  0.00    -0.353 OA
HETATM   19  C15 UNL     1      -1.901  -0.457  -3.088  1.00  0.00     0.210 C 
ENDBRANCH  10  18
BRANCH   1  20
HETATM   20  O1  UNL     1      -4.116   1.053   0.046  1.00  0.00    -0.353 OA
HETATM   21  C1  UNL     1      -4.872   1.566   1.111  1.00  0.00     0.210 C 
ENDBRANCH   1  20
TORSDOF 4
