REMARK  6 active torsions:
REMARK  status: ('A' for Active; 'I' for Inactive)
REMARK    1  A    between atoms: C3_3  and  C4_4 
REMARK    2  A    between atoms: C5_5  and  S1_6 
REMARK    3  A    between atoms: S1_6  and  C6_7 
REMARK    4  A    between atoms: C10_11  and  O1_12 
REMARK    5  A    between atoms: C11_13  and  C12_14 
REMARK    6  A    between atoms: C12_14  and  O2_15 
ROOT
HETATM    1  C6  UNL     1       0.631   0.777  -1.059  1.00  0.00     0.085 C 
HETATM    2  C7  UNL     1      -0.338   1.239  -1.872  1.00  0.00     0.015 C 
HETATM    3  C8  UNL     1      -1.484   0.333  -1.835  1.00  0.00     0.060 C 
HETATM    4  C9  UNL     1      -2.647   0.782  -1.058  1.00  0.00     0.014 C 
HETATM    5  C10 UNL     1      -2.860   0.483   0.226  1.00  0.00     0.075 C 
HETATM    6  C11 UNL     1      -2.297  -0.204   1.365  1.00  0.00     0.031 C 
HETATM    7  C14 UNL     1      -1.012  -0.898   1.663  1.00  0.00     0.106 C 
HETATM    8  N1  UNL     1      -0.362  -0.824   0.610  1.00  0.00    -0.158 NA
HETATM    9  C15 UNL     1       0.904  -1.291   0.294  1.00  0.00     0.201 A 
HETATM   10  N2  UNL     1       0.584  -0.289  -0.264  1.00  0.00    -0.258 N 
ENDROOT
BRANCH   1  11
HETATM   11  S1  UNL     1       2.189   1.651  -0.874  1.00  0.00    -0.110 SA
BRANCH  11  12
HETATM   12  C5  UNL     1       3.260   0.812   0.269  1.00  0.00     0.046 C 
HETATM   13  C4  UNL     1       3.952  -0.068  -0.489  1.00  0.00     0.068 C 
BRANCH  13  14
HETATM   14  C3  UNL     1       4.978  -1.062  -0.230  1.00  0.00    -0.024 C 
HETATM   15  C2  UNL     1       5.091  -1.463  -1.509  1.00  0.00    -0.034 C 
HETATM   16  C1  UNL     1       4.167  -0.713  -2.399  1.00  0.00     0.036 C 
ENDBRANCH  13  14
ENDBRANCH  11  12
ENDBRANCH   1  11
BRANCH   5  17
HETATM   17  O1  UNL     1      -4.087   1.093   0.571  1.00  0.00    -0.360 OA
HETATM   18  H12 UNL     1      -4.115   2.093   0.738  1.00  0.00     0.217 HD
ENDBRANCH   5  17
BRANCH   6  19
HETATM   19  C12 UNL     1      -2.978  -0.223   2.475  1.00  0.00     0.149 C 
BRANCH  19  20
HETATM   20  O2  UNL     1      -3.884  -0.110   3.544  1.00  0.00    -0.367 OA
HETATM   21  C13 UNL     1      -5.122   0.586   3.355  1.00  0.00     0.208 C 
ENDBRANCH  19  20
ENDBRANCH   6  19
TORSDOF 6
