REMARK  6 active torsions:
REMARK  status: ('A' for Active; 'I' for Inactive)
REMARK    1  A    between atoms: O1_2  and  C2_3 
REMARK    2  A    between atoms: C4_5  and  C5_6 
REMARK    3  A    between atoms: C4_5  and  O2_21 
REMARK    4  A    between atoms: C6_7  and  C7_8 
REMARK    5  A    between atoms: C7_8  and  N1_9 
REMARK    6  A    between atoms: N1_9  and  C8_10 
ROOT
HETATM    1  N1  UNL     1       1.460  -0.275   0.293  1.00  0.00    -0.371 N 
HETATM    2  H11 UNL     1       1.300   0.260  -0.573  1.00  0.00     0.161 HD
ENDROOT
BRANCH   1   3
HETATM    3  C7  UNL     1       0.284  -0.856   0.919  1.00  0.00     0.148 C 
BRANCH   3   4
HETATM    4  C6  UNL     1      -0.938  -0.538   0.140  1.00  0.00    -0.005 C 
HETATM    5  C5  UNL     1      -2.128   0.045   0.156  1.00  0.00     0.037 C 
BRANCH   5   6
HETATM    6  C4  UNL     1      -3.123   0.147  -0.925  1.00  0.00     0.096 C 
HETATM    7  C2  UNL     1      -4.127   0.823  -0.388  1.00  0.00     0.075 C 
HETATM    8  C3  UNL     1      -5.236   1.020  -1.357  1.00  0.00     0.079 C 
BRANCH   7   9
HETATM    9  O1  UNL     1      -3.880   1.165   0.920  1.00  0.00    -0.358 OA
HETATM   10  C1  UNL     1      -4.672   0.850   2.032  1.00  0.00     0.209 C 
ENDBRANCH   7   9
BRANCH   6  11
HETATM   11  O2  UNL     1      -2.672  -0.479  -2.076  1.00  0.00    -0.353 OA
HETATM   12  C16 UNL     1      -3.438  -1.501  -2.690  1.00  0.00     0.210 C 
ENDBRANCH   6  11
ENDBRANCH   5   6
ENDBRANCH   3   4
ENDBRANCH   1   3
BRANCH   1  13
HETATM   13  C8  UNL     1       2.720  -0.491   0.923  1.00  0.00     0.137 A 
HETATM   14  N2  UNL     1       2.811  -1.207   2.054  1.00  0.00    -0.224 NA
HETATM   15  C9  UNL     1       3.992  -1.417   2.654  1.00  0.00     0.235 A 
HETATM   16  N3  UNL     1       5.159  -0.933   2.177  1.00  0.00    -0.241 NA
HETATM   17  C10 UNL     1       5.149  -0.194   1.029  1.00  0.00     0.072 A 
HETATM   18  C11 UNL     1       6.312   0.324   0.499  1.00  0.00     0.034 A 
HETATM   19  C15 UNL     1       3.915  -0.001   0.444  1.00  0.00     0.040 A 
HETATM   20  C12 UNL     1       6.294   1.068  -0.658  1.00  0.00     0.026 A 
HETATM   21  C13 UNL     1       5.072   1.279  -1.270  1.00  0.00     0.035 A 
HETATM   22 CL1  UNL     1       5.035   2.231  -2.754  1.00  0.00    -0.084 Cl
HETATM   23  C14 UNL     1       3.931   0.745  -0.709  1.00  0.00     0.041 A 
ENDBRANCH   1  13
TORSDOF 6
