REMARK  6 active torsions:
REMARK  status: ('A' for Active; 'I' for Inactive)
REMARK    1  A    between atoms: C2_2  and  C3_3 
REMARK    2  A    between atoms: C3_3  and  C4_4 
REMARK    3  A    between atoms: C4_4  and  C5_5 
REMARK    4  A    between atoms: C4_4  and  S1_9 
REMARK    5  A    between atoms: C5_5  and  C6_6 
REMARK    6  A    between atoms: C9_12  and  O1_13 
ROOT
HETATM    1  S1  UNL     1      -0.420  -0.124  -0.243  1.00  0.00    -0.146 SA
HETATM    2  C7  UNL     1       1.098  -0.429   0.174  1.00  0.00     0.021 C 
HETATM    3  C8  UNL     1       1.970  -0.611  -0.994  1.00  0.00     0.098 C 
HETATM    4  C9  UNL     1       2.189   0.685  -1.663  1.00  0.00     0.047 C 
HETATM    5  C11 UNL     1       1.673   1.201  -2.716  1.00  0.00     0.029 C 
HETATM    6  C12 UNL     1       1.050   1.716  -3.904  1.00  0.00     0.261 C 
HETATM    7  N1  UNL     1       0.117   0.841  -4.263  1.00  0.00    -0.295 NA
HETATM    8  C13 UNL     1      -0.028  -0.301  -3.434  1.00  0.00     0.163 C 
HETATM    9  N2  UNL     1      -0.242  -1.264  -2.609  1.00  0.00    -0.281 NA
HETATM   10  C14 UNL     1      -1.109  -1.216  -1.445  1.00  0.00     0.221 C 
ENDROOT
BRANCH   1  11
HETATM   11  C4  UNL     1      -1.347   0.066   1.224  1.00  0.00    -0.007 C 
BRANCH  11  12
HETATM   12  C3  UNL     1      -1.928   1.136   1.789  1.00  0.00    -0.004 C 
BRANCH  12  13
HETATM   13  C2  UNL     1      -2.485   0.497   2.959  1.00  0.00     0.035 C 
HETATM   14  C1  UNL     1      -3.187   0.721   4.051  1.00  0.00    -0.008 C 
ENDBRANCH  12  13
ENDBRANCH  11  12
BRANCH  11  15
HETATM   15  C5  UNL     1      -1.621  -1.033   2.096  1.00  0.00     0.055 C 
BRANCH  15  16
HETATM   16  C6  UNL     1      -1.144  -2.215   1.761  1.00  0.00     0.246 A 
HETATM   17  F1  UNL     1      -0.835  -3.533   1.753  1.00  0.00    -0.277 F 
HETATM   18 CL1  UNL     1      -0.977  -3.912   2.125  1.00  0.00    -0.005 Cl
ENDBRANCH  15  16
ENDBRANCH  11  15
ENDBRANCH   1  11
BRANCH   4  19
HETATM   19  O1  UNL     1       3.144   1.527  -1.038  1.00  0.00    -0.360 OA
HETATM   20  C10 UNL     1       3.173   1.560   0.357  1.00  0.00     0.209 C 
ENDBRANCH   4  19
TORSDOF 6
