REMARK  6 active torsions:
REMARK  status: ('A' for Active; 'I' for Inactive)
REMARK    1  A    between atoms: O1_2  and  C2_3 
REMARK    2  A    between atoms: C6_9  and  S1_10 
REMARK    3  A    between atoms: S1_10  and  C7_11 
REMARK    4  A    between atoms: C15_20  and  O2_21 
REMARK    5  A    between atoms: O2_21  and  C16_22 
REMARK    6  A    between atoms: C16_22  and  N3_23 
ROOT
HETATM    1  C2  UNL     1      -3.392  -0.634  -0.279  1.00  0.00     0.103 A 
HETATM    2  C3  UNL     1      -2.806  -1.879  -0.182  1.00  0.00     0.072 A 
HETATM    3  C4  UNL     1      -1.455  -1.900  -0.076  1.00  0.00     0.074 A 
HETATM    4  N1  UNL     1      -0.886  -3.136   0.018  1.00  0.00    -0.241 NA
HETATM    5  C5  UNL     1       0.457  -3.231   0.127  1.00  0.00     0.234 A 
HETATM    6  N2  UNL     1       1.304  -2.193   0.151  1.00  0.00    -0.234 NA
HETATM    7  C6  UNL     1       0.800  -0.954   0.061  1.00  0.00     0.112 A 
HETATM    8  C13 UNL     1      -0.584  -0.829  -0.052  1.00  0.00     0.031 A 
HETATM    9  C14 UNL     1      -1.248   0.395  -0.154  1.00  0.00     0.056 A 
HETATM   10  C15 UNL     1      -2.616   0.506  -0.265  1.00  0.00     0.105 A 
ENDROOT
BRANCH   7  11
HETATM   11  S1  UNL     1       1.636   0.600   0.063  1.00  0.00    -0.070 SA
BRANCH  11  12
HETATM   12  C7  UNL     1       3.389   0.351   0.210  1.00  0.00     0.008 A 
HETATM   13  C8  UNL     1       4.161  -0.782   0.316  1.00  0.00     0.019 A 
HETATM   14  C9  UNL     1       5.529  -0.691   0.419  1.00  0.00     0.003 A 
HETATM   15  C10 UNL     1       6.204   0.526   0.422  1.00  0.00     0.024 A 
HETATM   16  C11 UNL     1       5.430   1.687   0.314  1.00  0.00     0.035 A 
HETATM   17 CL1  UNL     1       6.349   3.155   0.326  1.00  0.00    -0.084 Cl
HETATM   18  C12 UNL     1       4.039   1.572   0.210  1.00  0.00     0.042 A 
ENDBRANCH  11  12
ENDBRANCH   7  11
BRANCH  10  19
HETATM   19  O2  UNL     1      -3.261   1.727  -0.364  1.00  0.00    -0.319 OA
BRANCH  19  20
HETATM   20  C16 UNL     1      -2.574   2.962  -0.360  1.00  0.00     0.441 C 
BRANCH  20  21
HETATM   21  N3  UNL     1      -1.855   3.063   0.893  1.00  0.00     0.101 N 
HETATM   22  H13 UNL     1      -0.915   3.504   0.785  1.00  0.00     0.315 HD
HETATM   23  H14 UNL     1      -2.429   3.509   1.641  1.00  0.00     0.315 HD
ENDBRANCH  20  21
ENDBRANCH  19  20
ENDBRANCH  10  19
BRANCH   1  24
HETATM   24  O1  UNL     1      -4.771  -0.519  -0.391  1.00  0.00    -0.353 OA
HETATM   25  C1  UNL     1      -5.561  -1.694  -0.404  1.00  0.00     0.210 C 
ENDBRANCH   1  24
TORSDOF 6
