REMARK  3 active torsions:
REMARK  status: ('A' for Active; 'I' for Inactive)
REMARK    1  A    between atoms: C1_2  and  C2_3 
REMARK       I    between atoms: C1_2  and  N1_8 
REMARK    2  A    between atoms: C3_4  and  C4_5 
REMARK    3  A    between atoms: N1_8  and  C7_9 
ROOT
HETATM    1  C7  UNL     1       1.100   0.338  -0.395  1.00  0.00     0.101 A 
HETATM    2  C8  UNL     1       1.328   0.311  -1.751  1.00  0.00     0.021 A 
HETATM    3  C9  UNL     1       1.886   1.430  -1.302  1.00  0.00     0.101 A 
HETATM    4  C10 UNL     1       2.345   2.475  -0.570  1.00  0.00     0.065 A 
HETATM    5  C11 UNL     1       2.154   2.569   0.784  1.00  0.00    -0.025 A 
HETATM    6  C12 UNL     1       1.596   1.428   0.292  1.00  0.00     0.052 A 
HETATM    7  C13 UNL     1       1.570   0.617   1.549  1.00  0.00     0.011 C 
HETATM    8  C14 UNL     1       2.863   0.107   1.505  1.00  0.00     0.111 C 
HETATM    9  N2  UNL     1       3.951   0.242   0.618  1.00  0.00    -0.254 NA
HETATM   10  C15 UNL     1       3.977   0.403  -0.632  1.00  0.00     0.260 A 
HETATM   11 CL1  UNL     1       5.746   0.443  -0.609  1.00  0.00    -0.073 Cl
HETATM   12  N3  UNL     1       4.398   0.625  -1.993  1.00  0.00    -0.158 NA
HETATM   13  C16 UNL     1       3.644   1.162  -2.879  1.00  0.00     0.260 C 
HETATM   14  O2  UNL     1       2.306   1.614  -2.664  1.00  0.00    -0.349 OA
ENDROOT
BRANCH   1  15
HETATM   15  N1  UNL     1       0.332  -0.791   0.023  1.00  0.00    -0.340 N 
HETATM   16  C1  UNL     1      -1.010  -0.391  -0.032  1.00  0.00     0.241 C 
HETATM   17  O1  UNL     1      -1.378   0.752  -0.395  1.00  0.00    -0.269 OA
HETATM   18  H8  UNL     1       0.459  -1.772   0.337  1.00  0.00     0.164 HD
BRANCH  16  19
HETATM   19  C2  UNL     1      -2.251  -1.091   0.277  1.00  0.00     0.070 C 
HETATM   20  C3  UNL     1      -3.329  -0.345   0.090  1.00  0.00    -0.017 C 
BRANCH  20  21
HETATM   21  C4  UNL     1      -4.699  -0.793   0.325  1.00  0.00     0.008 A 
HETATM   22  C5  UNL     1      -5.260  -0.936   1.697  1.00  0.00     0.009 A 
HETATM   23  C6  UNL     1      -5.031  -2.161   0.822  1.00  0.00     0.009 A 
ENDBRANCH  20  21
ENDBRANCH  16  19
ENDBRANCH   1  15
TORSDOF 3
