REMARK  5 active torsions:
REMARK  status: ('A' for Active; 'I' for Inactive)
REMARK    1  A    between atoms: O1_2  and  C2_3 
REMARK    2  A    between atoms: C4_5  and  N1_6 
REMARK    3  A    between atoms: N1_6  and  C5_7 
REMARK    4  A    between atoms: C13_18  and  O2_19 
REMARK    5  A    between atoms: C15_21  and  O3_22 
ROOT
HETATM    1  N1  UNL     1       0.811  -0.485  -1.711  1.00  0.00    -0.338 N 
HETATM    2  H5  UNL     1       1.110  -0.284  -2.694  1.00  0.00     0.167 HD
ENDROOT
BRANCH   1   3
HETATM    3  C4  UNL     1      -0.495  -0.262  -1.194  1.00  0.00     0.068 A 
HETATM    4  C3  UNL     1      -1.236  -1.483  -0.833  1.00  0.00     0.067 A 
HETATM    5  C2  UNL     1      -2.426  -1.106  -0.370  1.00  0.00     0.083 A 
HETATM    6  C15 UNL     1      -2.566   0.380  -0.388  1.00  0.00     0.236 A 
HETATM    7  C13 UNL     1      -1.252   0.794  -0.941  1.00  0.00     0.107 A 
BRANCH   5   8
HETATM    8  O1  UNL     1      -3.557  -1.708   0.118  1.00  0.00    -0.357 OA
HETATM    9  C1  UNL     1      -3.959  -2.962  -0.430  1.00  0.00     0.209 C 
ENDBRANCH   5   8
BRANCH   6  10
HETATM   10  O3  UNL     1      -2.825   0.903   0.869  1.00  0.00    -0.377 OA
HETATM   11  C16 UNL     1      -4.007   1.612   0.825  1.00  0.00     0.203 C 
ENDBRANCH   6  10
BRANCH   7  12
HETATM   12  O2  UNL     1      -0.751   2.069  -1.208  1.00  0.00    -0.355 OA
HETATM   13  C14 UNL     1      -0.647   3.056  -0.185  1.00  0.00     0.209 C 
ENDBRANCH   7  12
ENDBRANCH   1   3
BRANCH   1  14
HETATM   14  C5  UNL     1       1.927  -1.016  -0.996  1.00  0.00     0.142 A 
HETATM   15  N2  UNL     1       2.024  -2.374  -1.051  1.00  0.00    -0.224 NA
HETATM   16  C6  UNL     1       3.031  -3.021  -0.421  1.00  0.00     0.236 A 
HETATM   17  N3  UNL     1       3.957  -2.335   0.274  1.00  0.00    -0.241 NA
HETATM   18  C7  UNL     1       3.898  -0.993   0.354  1.00  0.00     0.072 A 
HETATM   19  C8  UNL     1       4.789  -0.194   1.035  1.00  0.00     0.034 A 
HETATM   20  C12 UNL     1       2.876  -0.325  -0.285  1.00  0.00     0.040 A 
HETATM   21  C9  UNL     1       4.659   1.176   1.069  1.00  0.00     0.026 A 
HETATM   22  C10 UNL     1       3.625   1.819   0.419  1.00  0.00     0.035 A 
HETATM   23 CL1  UNL     1       3.459   3.559   0.462  1.00  0.00    -0.084 Cl
HETATM   24  C11 UNL     1       2.716   1.042  -0.272  1.00  0.00     0.041 A 
ENDBRANCH   1  14
TORSDOF 5
