REMARK  5 active torsions:
REMARK  status: ('A' for Active; 'I' for Inactive)
REMARK    1  A    between atoms: C2_2  and  C3_3 
REMARK    2  A    between atoms: N1_6  and  C6_7 
REMARK    3  A    between atoms: C15_19  and  O1_20 
REMARK    4  A    between atoms: O1_20  and  C16_21 
REMARK    5  A    between atoms: C16_21  and  O2_22 
ROOT
HETATM    1  C3  UNL     1      -1.430   1.471   0.184  1.00  0.00    -0.052 C 
HETATM    2  C4  UNL     1      -0.524   2.286   0.693  1.00  0.00    -0.002 C 
HETATM    3  C5  UNL     1       0.610   1.963   1.603  1.00  0.00     0.152 C 
HETATM    4  N1  UNL     1       0.767   0.504   1.713  1.00  0.00    -0.359 N 
HETATM    5  C14 UNL     1      -0.564  -0.101   1.884  1.00  0.00     0.161 C 
HETATM    6  C15 UNL     1      -1.288   0.043   0.580  1.00  0.00     0.171 C 
ENDROOT
BRANCH   4   7
HETATM    7  C6  UNL     1       1.949  -0.288   1.674  1.00  0.00     0.140 A 
HETATM    8  N2  UNL     1       2.120  -0.982   2.836  1.00  0.00    -0.224 NA
HETATM    9  C7  UNL     1       3.198  -1.795   2.989  1.00  0.00     0.236 A 
HETATM   10  N3  UNL     1       4.094  -1.913   1.994  1.00  0.00    -0.241 NA
HETATM   11  C8  UNL     1       3.967  -1.249   0.827  1.00  0.00     0.072 A 
HETATM   12  C9  UNL     1       4.836  -1.315  -0.240  1.00  0.00     0.034 A 
HETATM   13  C13 UNL     1       2.877  -0.422   0.663  1.00  0.00     0.040 A 
HETATM   14  C10 UNL     1       4.595  -0.581  -1.388  1.00  0.00     0.026 A 
HETATM   15  C11 UNL     1       3.481   0.248  -1.524  1.00  0.00     0.035 A 
HETATM   16 CL1  UNL     1       3.208   1.161  -2.992  1.00  0.00    -0.084 Cl
HETATM   17  C12 UNL     1       2.598   0.325  -0.461  1.00  0.00     0.041 A 
ENDBRANCH   4   7
BRANCH   6  18
HETATM   18  O1  UNL     1      -2.497  -0.590   0.526  1.00  0.00    -0.356 OA
BRANCH  18  19
HETATM   19  C16 UNL     1      -2.647  -1.579  -0.405  1.00  0.00     0.338 C 
BRANCH  19  20
HETATM   20  O2  UNL     1      -3.967  -2.062  -0.253  1.00  0.00    -0.372 OA
HETATM   21  C17 UNL     1      -4.238  -3.080  -1.154  1.00  0.00     0.204 C 
ENDBRANCH  19  20
ENDBRANCH  18  19
ENDBRANCH   6  18
BRANCH   1  22
HETATM   22  C2  UNL     1      -2.538   1.838  -0.716  1.00  0.00     0.032 C 
HETATM   23  C1  UNL     1      -2.587   3.290  -1.047  1.00  0.00     0.010 C 
ENDBRANCH   1  22
TORSDOF 5
