REMARK  3 active torsions:
REMARK  status: ('A' for Active; 'I' for Inactive)
REMARK    1  A    between atoms: O1_2  and  C2_3 
REMARK    2  A    between atoms: N1_6  and  C5_7 
REMARK    3  A    between atoms: C13_19  and  O2_20 
ROOT
HETATM    1  C2  UNL     1      -3.124  -1.028   0.329  1.00  0.00     0.047 C 
HETATM    2  C3  UNL     1      -2.011  -1.697   0.068  1.00  0.00     0.026 C 
HETATM    3  C4  UNL     1      -0.823  -1.346  -0.711  1.00  0.00     0.171 C 
HETATM    4  N1  UNL     1      -0.091  -0.201  -0.203  1.00  0.00    -0.206 N 
HETATM    5  C12 UNL     1      -0.584   0.976   0.513  1.00  0.00     0.205 C 
HETATM    6  C13 UNL     1      -1.648   1.685  -0.271  1.00  0.00     0.060 C 
HETATM    7  C15 UNL     1      -2.905   1.333  -0.390  1.00  0.00     0.013 C 
HETATM    8  C16 UNL     1      -3.811   0.264   0.078  1.00  0.00     0.093 C 
ENDROOT
BRANCH   4   9
HETATM    9  C5  UNL     1       1.310  -0.229  -0.436  1.00  0.00     0.709 A 
HETATM   10  N2  UNL     1       2.211  -0.383   0.433  1.00  0.00    -0.063 NA
HETATM   11  C6  UNL     1       3.591  -0.411   0.208  1.00  0.00     0.094 A 
HETATM   12  C7  UNL     1       4.311  -0.595   1.369  1.00  0.00     0.035 A 
HETATM   13  C11 UNL     1       4.221  -0.276  -1.008  1.00  0.00     0.053 A 
HETATM   14  C8  UNL     1       5.709  -0.652   1.354  1.00  0.00     0.026 A 
HETATM   15  C9  UNL     1       6.345  -0.518   0.138  1.00  0.00     0.035 A 
HETATM   16 CL1  UNL     1       8.103  -0.571  -0.018  1.00  0.00    -0.084 Cl
HETATM   17  C10 UNL     1       5.563  -0.336  -0.982  1.00  0.00     0.046 A 
HETATM   18  S1  UNL     1       3.196  -0.042  -2.453  1.00  0.00     0.004 SA
HETATM   19  N3  UNL     1       1.530  -0.058  -1.802  1.00  0.00    -0.158 N 
HETATM   20  H10 UNL     1       1.045   0.081  -2.696  1.00  0.00     0.193 HD
ENDBRANCH   4   9
BRANCH   6  21
HETATM   21  O2  UNL     1      -1.346   2.852  -0.977  1.00  0.00    -0.359 OA
HETATM   22  C14 UNL     1      -1.673   4.077  -0.365  1.00  0.00     0.209 C 
ENDBRANCH   6  21
BRANCH   1  23
HETATM   23  O1  UNL     1      -3.981  -1.800   1.135  1.00  0.00    -0.360 OA
HETATM   24  C1  UNL     1      -4.809  -2.712   0.405  1.00  0.00     0.209 C 
ENDBRANCH   1  23
TORSDOF 3
