REMARK  6 active torsions:
REMARK  status: ('A' for Active; 'I' for Inactive)
REMARK    1  A    between atoms: O1_2  and  C2_3 
REMARK    2  A    between atoms: C2_3  and  C3_4 
REMARK    3  A    between atoms: C5_6  and  N1_7 
REMARK    4  A    between atoms: N1_7  and  C6_8 
REMARK    5  A    between atoms: C10_14  and  O2_15 
REMARK    6  A    between atoms: C12_17  and  O3_18 
ROOT
HETATM    1  C6  UNL     1      -0.162  -0.020   0.059  1.00  0.00     0.138 A 
HETATM    2  N2  UNL     1      -0.846  -1.152   0.255  1.00  0.00    -0.224 NA
HETATM    3  C7  UNL     1      -0.307  -2.343   0.559  1.00  0.00     0.235 A 
HETATM    4  N3  UNL     1       1.047  -2.464   0.690  1.00  0.00    -0.241 NA
HETATM    5  C8  UNL     1       1.834  -1.368   0.510  1.00  0.00     0.075 A 
HETATM    6  C9  UNL     1       3.201  -1.486   0.642  1.00  0.00     0.072 A 
HETATM    7  C10 UNL     1       4.010  -0.384   0.463  1.00  0.00     0.103 A 
HETATM    8  C12 UNL     1       3.421   0.825   0.151  1.00  0.00     0.102 A 
HETATM    9  C14 UNL     1       2.050   0.884   0.032  1.00  0.00     0.057 A 
HETATM   10  C15 UNL     1       1.197  -0.185   0.201  1.00  0.00     0.041 A 
ENDROOT
BRANCH   1  11
HETATM   11  N1  UNL     1      -0.772   1.205  -0.258  1.00  0.00    -0.366 N 
HETATM   12  H8  UNL     1      -0.264   2.097  -0.425  1.00  0.00     0.161 HD
BRANCH  11  13
HETATM   13  C5  UNL     1      -2.220   1.290  -0.375  1.00  0.00     0.110 A 
HETATM   14  C4  UNL     1      -2.788   0.360  -1.347  1.00  0.00     0.003 A 
HETATM   15  C3  UNL     1      -3.509  -0.249  -0.461  1.00  0.00    -0.056 A 
HETATM   16  C16 UNL     1      -3.046   0.604   0.631  1.00  0.00     0.065 A 
BRANCH  15  17
HETATM   17  C2  UNL     1      -4.498  -1.383  -0.347  1.00  0.00     0.201 C 
BRANCH  17  18
HETATM   18  O1  UNL     1      -5.714  -0.900   0.138  1.00  0.00    -0.392 OA
HETATM   19  C1  UNL     1      -6.194   0.068  -0.764  1.00  0.00     0.201 C 
ENDBRANCH  17  18
ENDBRANCH  15  17
ENDBRANCH  11  13
ENDBRANCH   1  11
BRANCH   8  20
HETATM   20  O3  UNL     1       4.248   1.923  -0.026  1.00  0.00    -0.353 OA
HETATM   21  C13 UNL     1       3.757   3.207  -0.347  1.00  0.00     0.210 C 
ENDBRANCH   8  20
BRANCH   7  22
HETATM   22  O2  UNL     1       5.390  -0.465   0.588  1.00  0.00    -0.353 OA
HETATM   23  C11 UNL     1       5.989  -1.708   0.908  1.00  0.00     0.210 C 
ENDBRANCH   7  22
TORSDOF 6
