REMARK  8 active torsions:
REMARK  status: ('A' for Active; 'I' for Inactive)
REMARK    1  A    between atoms: N1_2  and  C2_3 
REMARK    2  A    between atoms: C2_3  and  O1_4 
REMARK    3  A    between atoms: O1_4  and  C3_5 
REMARK    4  A    between atoms: C3_5  and  C4_6 
REMARK    5  A    between atoms: C4_6  and  C5_7 
REMARK    6  A    between atoms: C5_7  and  N2_8 
REMARK    7  A    between atoms: N2_8  and  C6_9 
REMARK    8  A    between atoms: C14_20  and  O2_22 
ROOT
HETATM    1  N2  UNL     1      -2.225   0.645  -1.707  1.00  0.00    -0.370 N 
HETATM    2  H9  UNL     1      -2.783   0.538  -2.564  1.00  0.00     0.161 HD
ENDROOT
BRANCH   1   3
HETATM    3  C5  UNL     1      -0.837   1.056  -1.857  1.00  0.00     0.150 C 
BRANCH   3   4
HETATM    4  C4  UNL     1       0.092   0.041  -1.301  1.00  0.00     0.017 C 
BRANCH   4   5
HETATM    5  C3  UNL     1       0.917   0.393  -0.300  1.00  0.00     0.142 C 
BRANCH   5   6
HETATM    6  O1  UNL     1       1.823   0.653   0.748  1.00  0.00    -0.304 OA
BRANCH   6   7
HETATM    7  C2  UNL     1       2.972  -0.136   0.790  1.00  0.00     0.171 C 
HETATM    8  C14 UNL     1       3.879   0.573   0.121  1.00  0.00     0.092 C 
HETATM    9  C15 UNL     1       3.906   1.883  -0.578  1.00  0.00     0.081 C 
BRANCH   7  10
HETATM   10  N1  UNL     1       3.109  -1.420   1.421  1.00  0.00    -0.373 N 
HETATM   11  C1  UNL     1       3.983  -1.405   2.588  1.00  0.00     0.148 C 
HETATM   12  H4  UNL     1       2.624  -2.279   1.070  1.00  0.00     0.161 HD
ENDBRANCH   7  10
BRANCH   8  13
HETATM   13  O2  UNL     1       5.090  -0.102   0.082  1.00  0.00    -0.356 OA
HETATM   14  C16 UNL     1       5.512  -0.870  -1.024  1.00  0.00     0.209 C 
ENDBRANCH   8  13
ENDBRANCH   6   7
ENDBRANCH   5   6
ENDBRANCH   4   5
ENDBRANCH   3   4
ENDBRANCH   1   3
BRANCH   1  15
HETATM   15  C6  UNL     1      -2.699   0.424  -0.382  1.00  0.00     0.137 A 
HETATM   16  N3  UNL     1      -1.899   0.587   0.686  1.00  0.00    -0.224 NA
HETATM   17  C7  UNL     1      -2.303   0.390   1.954  1.00  0.00     0.235 A 
HETATM   18  N4  UNL     1      -3.561   0.008   2.238  1.00  0.00    -0.241 NA
HETATM   19  C8  UNL     1      -4.427  -0.178   1.221  1.00  0.00     0.072 A 
HETATM   20  C9  UNL     1      -5.722  -0.570   1.495  1.00  0.00     0.034 A 
HETATM   21  C13 UNL     1      -3.981   0.033  -0.063  1.00  0.00     0.040 A 
HETATM   22  C10 UNL     1      -6.623  -0.766   0.466  1.00  0.00     0.026 A 
HETATM   23  C11 UNL     1      -6.189  -0.558  -0.834  1.00  0.00     0.035 A 
HETATM   24 CL1  UNL     1      -7.396  -0.828  -2.085  1.00  0.00    -0.084 Cl
HETATM   25  C12 UNL     1      -4.885  -0.166  -1.056  1.00  0.00     0.041 A 
ENDBRANCH   1  15
TORSDOF 8
