REMARK  5 active torsions:
REMARK  status: ('A' for Active; 'I' for Inactive)
REMARK    1  A    between atoms: O1_2  and  C2_3 
REMARK    2  A    between atoms: C4_5  and  N1_6 
REMARK    3  A    between atoms: N1_6  and  C5_7 
REMARK    4  A    between atoms: C14_19  and  P1_20 
REMARK    5  A    between atoms: C16_22  and  O2_23 
ROOT
HETATM    1  C2  UNL     1      -2.114  -0.411   0.757  1.00  0.00     0.104 A 
HETATM    2  C3  UNL     1      -0.748  -0.472   0.586  1.00  0.00     0.069 A 
HETATM    3  C4  UNL     1      -0.045   0.316  -0.295  1.00  0.00     0.037 A 
HETATM    4  C13 UNL     1      -0.855   1.181  -0.996  1.00  0.00     0.044 A 
HETATM    5  C14 UNL     1      -2.218   1.285  -0.867  1.00  0.00     0.004 A 
HETATM    6  C16 UNL     1      -2.872   0.473   0.029  1.00  0.00     0.112 A 
ENDROOT
BRANCH   3   7
HETATM    7  N1  UNL     1       1.361   0.234  -0.441  1.00  0.00    -0.340 N 
HETATM    8  H5  UNL     1       1.657   0.808  -1.245  1.00  0.00     0.167 HD
BRANCH   7   9
HETATM    9  C5  UNL     1       2.276  -0.487   0.337  1.00  0.00     0.142 A 
HETATM   10  N2  UNL     1       1.969  -1.226   1.403  1.00  0.00    -0.224 NA
HETATM   11  C6  UNL     1       2.887  -1.893   2.106  1.00  0.00     0.236 A 
HETATM   12  N3  UNL     1       4.196  -1.880   1.802  1.00  0.00    -0.241 NA
HETATM   13  C7  UNL     1       4.562  -1.139   0.720  1.00  0.00     0.072 A 
HETATM   14  C8  UNL     1       5.907  -1.149   0.438  1.00  0.00     0.034 A 
HETATM   15  C12 UNL     1       3.600  -0.462   0.012  1.00  0.00     0.040 A 
HETATM   16  C9  UNL     1       6.375  -0.429  -0.641  1.00  0.00     0.026 A 
HETATM   17  C10 UNL     1       5.460   0.279  -1.400  1.00  0.00     0.035 A 
HETATM   18 CL1  UNL     1       6.064   1.189  -2.765  1.00  0.00    -0.084 Cl
HETATM   19  C11 UNL     1       4.139   0.234  -1.048  1.00  0.00     0.041 A 
ENDBRANCH   7   9
ENDBRANCH   3   7
BRANCH   1  20
HETATM   20  O1  UNL     1      -2.824  -1.206   1.646  1.00  0.00    -0.353 OA
HETATM   21  C1  UNL     1      -2.084  -2.132   2.419  1.00  0.00     0.210 C 
ENDBRANCH   1  20
BRANCH   5  22
HETATM   22  P1  UNL     1      -3.126   2.503  -1.890  1.00  0.00    -0.096 P 
HETATM   23  C15 UNL     1      -4.762   2.951  -1.189  1.00  0.00     0.046 C 
HETATM   24  H11 UNL     1      -2.305   3.669  -2.173  1.00  0.00     0.062 HD
ENDBRANCH   5  22
BRANCH   6  25
HETATM   25  O2  UNL     1      -4.244   0.563   0.173  1.00  0.00    -0.352 OA
HETATM   26  C17 UNL     1      -5.044  -0.276  -0.665  1.00  0.00     0.210 C 
ENDBRANCH   6  25
TORSDOF 5
