REMARK  2 active torsions:
REMARK  status: ('A' for Active; 'I' for Inactive)
REMARK    1  A    between atoms: C14_18  and  O2_19 
REMARK    2  A    between atoms: C16_21  and  O3_22 
ROOT
HETATM    1  C1  UNL     1      -2.910   3.588  -1.031  1.00  0.00     0.210 C 
HETATM    2  O1  UNL     1      -2.382   2.409  -0.904  1.00  0.00    -0.353 OA
HETATM    3  C2  UNL     1      -1.862   1.245  -0.778  1.00  0.00     0.104 A 
HETATM    4  C3  UNL     1      -0.495   1.098  -0.684  1.00  0.00     0.053 A 
HETATM    5  C4  UNL     1       0.046  -0.187  -0.542  1.00  0.00    -0.001 A 
HETATM    6  C5  UNL     1       1.411  -0.631  -0.383  1.00  0.00     0.081 A 
HETATM    7  N1  UNL     1       1.949  -1.580  -1.143  1.00  0.00    -0.240 NA
HETATM    8  C6  UNL     1       3.168  -2.074  -1.085  1.00  0.00     0.234 A 
HETATM    9  N2  UNL     1       3.984  -1.549  -0.125  1.00  0.00    -0.241 NA
HETATM   10  C7  UNL     1       3.496  -0.591   0.672  1.00  0.00     0.070 A 
HETATM   11  C8  UNL     1       4.389  -0.121   1.624  1.00  0.00     0.034 A 
HETATM   12  C9  UNL     1       3.888   0.867   2.462  1.00  0.00     0.026 A 
HETATM   13  C10 UNL     1       2.626   1.423   2.456  1.00  0.00     0.035 A 
HETATM   14 CL1  UNL     1       2.121   2.660   3.564  1.00  0.00    -0.084 Cl
HETATM   15  C11 UNL     1       1.787   0.902   1.473  1.00  0.00     0.040 A 
HETATM   16  C12 UNL     1       2.204  -0.070   0.609  1.00  0.00     0.024 A 
HETATM   17  C13 UNL     1      -0.822  -1.278  -0.504  1.00  0.00     0.053 A 
HETATM   18  C14 UNL     1      -2.215  -1.163  -0.599  1.00  0.00     0.104 A 
HETATM   19  C16 UNL     1      -2.720   0.137  -0.738  1.00  0.00     0.133 A 
ENDROOT
BRANCH  19  20
HETATM   20  O3  UNL     1      -4.089   0.363  -0.841  1.00  0.00    -0.356 OA
HETATM   21  H13 UNL     1      -4.430   1.299  -0.578  1.00  0.00     0.218 HD
ENDBRANCH  19  20
BRANCH  18  22
HETATM   22  O2  UNL     1      -3.102  -2.206  -0.566  1.00  0.00    -0.353 OA
HETATM   23  C15 UNL     1      -2.735  -3.548  -0.434  1.00  0.00     0.210 C 
ENDBRANCH  18  22
TORSDOF 2
