REMARK  5 active torsions:
REMARK  status: ('A' for Active; 'I' for Inactive)
REMARK    1  A    between atoms: C2_2  and  C3_3 
REMARK    2  A    between atoms: C2_2  and  N1_8 
REMARK    3  A    between atoms: C3_3  and  C4_4 
REMARK    4  A    between atoms: N1_8  and  C7_9 
REMARK    5  A    between atoms: C21_28  and  O3_29 
ROOT
HETATM    1  C7  UNL     1      -1.177   0.074   0.076  1.00  0.00     0.107 C 
HETATM    2  C8  UNL     1      -1.345  -1.186   0.780  1.00  0.00     0.014 C 
HETATM    3  C9  UNL     1      -1.580  -2.219   1.618  1.00  0.00     0.001 C 
HETATM    4  C10 UNL     1      -1.367  -3.673   1.357  1.00  0.00     0.024 C 
HETATM    5  C11 UNL     1      -0.879  -3.852   0.121  1.00  0.00     0.144 C 
HETATM    6  O2  UNL     1      -0.399  -3.731  -1.152  1.00  0.00    -0.306 OA
HETATM    7  C12 UNL     1       0.618  -2.888  -1.573  1.00  0.00     0.161 C 
HETATM    8  N2  UNL     1       1.546  -3.426  -0.868  1.00  0.00    -0.249 NA
HETATM    9  C13 UNL     1       2.927  -3.045  -0.805  1.00  0.00     0.273 C 
HETATM   10  N3  UNL     1       3.177  -1.630  -0.746  1.00  0.00    -0.372 N 
HETATM   11  C14 UNL     1       2.782  -0.687   0.236  1.00  0.00     0.051 C 
HETATM   12  C15 UNL     1       1.839  -0.854   1.202  1.00  0.00     0.029 C 
HETATM   13  C16 UNL     1       0.758   0.088   1.636  1.00  0.00     0.009 C 
HETATM   14  C17 UNL     1       0.031   0.739   0.694  1.00  0.00    -0.029 C 
HETATM   15  C18 UNL     1       0.508   2.069   0.321  1.00  0.00     0.145 C 
HETATM   16  N4  UNL     1       1.786   2.041  -0.370  1.00  0.00    -0.242 NA
HETATM   17  C19 UNL     1       2.294   3.409  -0.428  1.00  0.00     0.124 A 
HETATM   18  C20 UNL     1       3.552   2.973   0.337  1.00  0.00     0.127 A 
HETATM   19  N5  UNL     1       2.872   1.727   0.400  1.00  0.00    -0.214 NA
HETATM   20  C21 UNL     1       3.619   0.555  -0.017  1.00  0.00     0.260 C 
HETATM   21  C23 UNL     1       0.566  -1.763  -2.526  1.00  0.00     0.234 C 
HETATM   22  N6  UNL     1      -0.317  -0.725  -2.319  1.00  0.00    -0.294 NA
HETATM   23  C24 UNL     1      -0.881  -0.138  -1.392  1.00  0.00     0.123 C 
HETATM   24  H15 UNL     1       3.732  -1.173  -1.520  1.00  0.00     0.161 HD
ENDROOT
BRANCH   1  25
HETATM   25  N1  UNL     1      -2.311   0.938   0.209  1.00  0.00    -0.373 N 
HETATM   26  H8  UNL     1      -2.209   1.876   0.654  1.00  0.00     0.161 HD
BRANCH  25  27
HETATM   27  C2  UNL     1      -3.592   0.533  -0.258  1.00  0.00    -0.003 C 
HETATM   28  C1  UNL     1      -3.766  -0.716  -0.724  1.00  0.00     0.037 C 
BRANCH  27  29
HETATM   29  C3  UNL     1      -4.736   1.482  -0.236  1.00  0.00     0.068 C 
BRANCH  29  30
HETATM   30  C4  UNL     1      -4.959   1.864   1.233  1.00  0.00     0.068 A 
HETATM   31  C5  UNL     1      -6.043   2.810   1.580  1.00  0.00     0.091 A 
HETATM   32  C6  UNL     1      -6.292   1.319   1.762  1.00  0.00     0.132 A 
HETATM   33  O1  UNL     1      -6.820   0.231   2.025  1.00  0.00    -0.298 OA
ENDBRANCH  29  30
ENDBRANCH  27  29
ENDBRANCH  25  27
ENDBRANCH   1  25
BRANCH  20  34
HETATM   34  O3  UNL     1       4.794   0.423   0.702  1.00  0.00    -0.369 OA
HETATM   35  C22 UNL     1       5.921   0.426  -0.075  1.00  0.00     0.204 C 
ENDBRANCH  20  34
TORSDOF 5
