REMARK  9 active torsions:
REMARK  status: ('A' for Active; 'I' for Inactive)
REMARK    1  A    between atoms: O1_2  and  C2_3 
REMARK    2  A    between atoms: C2_3  and  O2_4 
REMARK    3  A    between atoms: O2_4  and  C3_5 
REMARK    4  A    between atoms: C3_5  and  C11_16 
REMARK    5  A    between atoms: C4_6  and  O3_7 
REMARK    6  A    between atoms: C6_9  and  C7_10 
REMARK    7  A    between atoms: C8_11  and  N1_12 
REMARK    8  A    between atoms: N2_14  and  C10_15 
REMARK    9  A    between atoms: C14_20  and  O4_21 
ROOT
HETATM    1  C3  UNL     1      -1.358  -1.064   0.130  1.00  0.00     0.123 A 
HETATM    2  C4  UNL     1      -2.269  -1.825  -0.243  1.00  0.00     0.135 A 
HETATM    3  C6  UNL     1      -1.433  -1.468  -1.353  1.00  0.00     0.082 A 
ENDROOT
BRANCH   1   4
HETATM    4  O2  UNL     1      -1.764  -1.011   1.516  1.00  0.00    -0.351 OA
BRANCH   4   5
HETATM    5  C2  UNL     1      -2.704  -0.234   2.113  1.00  0.00     0.338 C 
BRANCH   5   6
HETATM    6  O1  UNL     1      -2.770   1.107   1.948  1.00  0.00    -0.372 OA
HETATM    7  C1  UNL     1      -3.040   1.506   0.664  1.00  0.00     0.204 C 
ENDBRANCH   5   6
ENDBRANCH   4   5
ENDBRANCH   1   4
BRANCH   1   8
HETATM    8  C11 UNL     1      -0.207  -0.386  -0.597  1.00  0.00     0.089 A 
HETATM    9  C10 UNL     1       0.273  -0.346  -2.040  1.00  0.00     0.116 A 
HETATM   10  C7  UNL     1      -0.482  -0.806  -1.589  1.00  0.00     0.062 A 
HETATM   11  C8  UNL     1       0.649  -0.143  -1.426  1.00  0.00     0.127 A 
HETATM   12  N3  UNL     1       1.341   0.470  -0.119  1.00  0.00    -0.367 N 
HETATM   13  C12 UNL     1       0.193   0.019   0.858  1.00  0.00    -0.042 A 
HETATM   14  C16 UNL     1       2.361   1.237   0.520  1.00  0.00     0.186 C 
HETATM   15  B1  UNL     1       0.336   0.471   2.459  1.00  0.00     0.232 B 
HETATM   16  C13 UNL     1       2.281   0.425   2.645  1.00  0.00    -0.046 C 
HETATM   17  C14 UNL     1       3.042   0.792   1.668  1.00  0.00     0.049 C 
BRANCH   9  18
HETATM   18  N2  UNL     1       1.261   0.251  -2.424  1.00  0.00    -0.302 N 
HETATM   19  C9  UNL     1       2.189   0.821  -3.084  1.00  0.00     0.234 A 
HETATM   20  N1  UNL     1       1.734   0.513  -1.911  1.00  0.00    -0.173 NA
ENDBRANCH   9  18
BRANCH  17  21
HETATM   21  O4  UNL     1       4.446   0.753   1.766  1.00  0.00    -0.360 OA
HETATM   22  C15 UNL     1       5.224   1.745   1.118  1.00  0.00     0.209 C 
ENDBRANCH  17  21
ENDBRANCH   1   8
BRANCH   2  23
HETATM   23  O3  UNL     1      -3.235  -2.651  -0.727  1.00  0.00    -0.378 OA
HETATM   24  C5  UNL     1      -3.589  -3.135  -1.947  1.00  0.00     0.202 C 
ENDBRANCH   2  23
TORSDOF 9
