REMARK  3 active torsions:
REMARK  status: ('A' for Active; 'I' for Inactive)
REMARK    1  A    between atoms: O1_2  and  C2_3 
REMARK    2  A    between atoms: C3_4  and  O2_5 
REMARK    3  A    between atoms: O2_5  and  C4_6 
ROOT
HETATM    1  C2  UNL     1      -1.670  -0.467   0.351  1.00  0.00     0.187 C 
HETATM    2  C3  UNL     1      -1.786   0.714  -0.582  1.00  0.00     0.086 C 
HETATM    3  C5  UNL     1      -0.745   1.527  -0.829  1.00  0.00     0.066 C 
HETATM    4  C6  UNL     1       0.580   0.925  -0.727  1.00  0.00     0.055 C 
HETATM    5  C7  UNL     1       0.568  -0.381  -0.400  1.00  0.00     0.014 C 
HETATM    6  C8  UNL     1      -0.247  -0.453   0.870  1.00  0.00     0.080 C 
HETATM    7  C9  UNL     1       0.175  -1.716   1.504  1.00  0.00     0.246 C 
HETATM    8  N2  UNL     1       1.408  -2.075   1.571  1.00  0.00     0.034 NA
HETATM    9  C10 UNL     1       2.469  -1.310   1.051  1.00  0.00     0.728 C 
HETATM   10  C11 UNL     1       3.650  -0.827   0.749  1.00  0.00     0.131 C 
HETATM   11  F1  UNL     1       4.770  -1.449   1.273  1.00  0.00    -0.208 F 
HETATM   12  C12 UNL     1       3.805   0.307  -0.102  1.00  0.00     0.041 C 
HETATM   13  C13 UNL     1       3.776   1.338  -0.885  1.00  0.00     0.022 C 
HETATM   14  C14 UNL     1       2.610   1.992  -1.441  1.00  0.00     0.117 C 
HETATM   15  N3  UNL     1       1.958   1.113  -0.803  1.00  0.00    -0.261 NA
ENDROOT
BRANCH   2  16
HETATM   16  O2  UNL     1      -2.879   1.168  -1.310  1.00  0.00    -0.306 OA
BRANCH  16  17
HETATM   17  C4  UNL     1      -4.000   1.742  -0.758  1.00  0.00     0.249 C 
HETATM   18  N1  UNL     1      -3.397   2.864  -0.590  1.00  0.00    -0.289 NA
HETATM   19  H6  UNL     1      -3.906   3.678  -0.160  1.00  0.00     0.188 HD
ENDBRANCH  16  17
ENDBRANCH   2  16
BRANCH   1  20
HETATM   20  O1  UNL     1      -1.799  -1.667  -0.375  1.00  0.00    -0.383 OA
HETATM   21  C1  UNL     1      -2.826  -2.399   0.205  1.00  0.00     0.202 C 
ENDBRANCH   1  20
TORSDOF 3
