REMARK  8 active torsions:
REMARK  status: ('A' for Active; 'I' for Inactive)
REMARK    1  A    between atoms: O1_2  and  C2_3 
REMARK    2  A    between atoms: C2_3  and  C3_4 
REMARK    3  A    between atoms: C3_4  and  C4_5 
REMARK    4  A    between atoms: C7_8  and  O2_9 
REMARK    5  A    between atoms: C10_14  and  N2_15 
REMARK    6  A    between atoms: N2_15  and  C11_16 
REMARK    7  A    between atoms: C13_18  and  O3_19 
REMARK    8  A    between atoms: C16_22  and  O4_23 
ROOT
HETATM    1  C4  UNL     1      -1.561   0.618  -0.466  1.00  0.00     0.006 C 
HETATM    2  C5  UNL     1      -2.682  -0.217  -0.132  1.00  0.00     0.165 A 
HETATM    3  C6  UNL     1      -3.918  -0.695   0.148  1.00  0.00     0.316 A 
HETATM    4  C7  UNL     1      -3.715  -2.196   0.303  1.00  0.00     0.369 A 
HETATM    5  C9  UNL     1      -2.191  -2.235   0.275  1.00  0.00     0.286 A 
HETATM    6  N1  UNL     1      -3.121  -1.492   0.219  1.00  0.00     0.030 N 
HETATM    7  S1  UNL     1      -0.483  -1.706   0.182  1.00  0.00    -0.091 SA
HETATM    8  C10 UNL     1      -0.298  -0.110  -0.664  1.00  0.00     0.182 C 
ENDROOT
BRANCH   8   9
HETATM    9  N2  UNL     1       0.808   0.566   0.028  1.00  0.00    -0.372 N 
HETATM   10  H13 UNL     1       0.570   1.464   0.550  1.00  0.00     0.161 HD
BRANCH   9  11
HETATM   11  C11 UNL     1       2.160   0.118   0.057  1.00  0.00     0.034 A 
HETATM   12  C12 UNL     1       3.129   0.837   0.739  1.00  0.00     0.066 A 
HETATM   13  C13 UNL     1       4.416   0.341   0.726  1.00  0.00     0.073 A 
HETATM   14  C15 UNL     1       4.748  -0.823   0.065  1.00  0.00     0.073 A 
HETATM   15  C16 UNL     1       3.793  -1.544  -0.616  1.00  0.00     0.073 A 
HETATM   16  C18 UNL     1       2.501  -1.045  -0.602  1.00  0.00     0.066 A 
BRANCH  13  17
HETATM   17  O3  UNL     1       5.440   1.004   1.386  1.00  0.00    -0.356 OA
HETATM   18  C14 UNL     1       5.255   2.199   2.101  1.00  0.00     0.210 C 
ENDBRANCH  13  17
BRANCH  15  19
HETATM   19  O4  UNL     1       3.999  -2.721  -1.315  1.00  0.00    -0.356 OA
HETATM   20  C17 UNL     1       5.236  -3.382  -1.442  1.00  0.00     0.210 C 
ENDBRANCH  15  19
ENDBRANCH   9  11
ENDBRANCH   8   9
BRANCH   1  21
HETATM   21  C3  UNL     1      -2.042   1.819  -0.489  1.00  0.00     0.011 C 
BRANCH  21  22
HETATM   22  C2  UNL     1      -2.992   2.916  -0.397  1.00  0.00     0.195 C 
BRANCH  22  23
HETATM   23  O1  UNL     1      -3.116   3.630  -1.595  1.00  0.00    -0.392 OA
HETATM   24  C1  UNL     1      -4.047   4.634  -1.343  1.00  0.00     0.201 C 
ENDBRANCH  22  23
ENDBRANCH  21  22
ENDBRANCH   1  21
BRANCH   4  25
HETATM   25  O2  UNL     1      -4.152  -2.662   1.542  1.00  0.00    -0.362 OA
HETATM   26  C8  UNL     1      -5.030  -3.731   1.255  1.00  0.00     0.204 C 
ENDBRANCH   4  25
TORSDOF 8
