REMARK  4 active torsions:
REMARK  status: ('A' for Active; 'I' for Inactive)
REMARK    1  A    between atoms: O1_2  and  C2_3 
REMARK    2  A    between atoms: C6_9  and  N3_10 
REMARK    3  A    between atoms: N3_10  and  C7_11 
REMARK    4  A    between atoms: C14_20  and  O2_21 
ROOT
HETATM    1  C2  UNL     1      -3.179   0.396  -0.170  1.00  0.00     0.104 A 
HETATM    2  C3  UNL     1      -2.739   1.630  -0.261  1.00  0.00     0.078 A 
HETATM    3  C4  UNL     1      -1.281   1.904  -0.254  1.00  0.00     0.099 A 
HETATM    4  N1  UNL     1      -0.601   3.010  -0.330  1.00  0.00    -0.235 NA
HETATM    5  C5  UNL     1       0.846   2.904  -0.293  1.00  0.00     0.237 A 
HETATM    6  N2  UNL     1       1.726   1.953  -0.199  1.00  0.00    -0.218 NA
HETATM    7  C6  UNL     1       1.312   0.571  -0.096  1.00  0.00     0.168 A 
HETATM    8  S1  UNL     1      -0.303   0.398  -0.114  1.00  0.00    -0.071 SA
HETATM    9  C13 UNL     1      -1.254  -1.124  -0.009  1.00  0.00     0.088 A 
HETATM   10  C14 UNL     1      -2.592  -0.913  -0.052  1.00  0.00     0.107 A 
ENDROOT
BRANCH   7  11
HETATM   11  N3  UNL     1       2.077  -0.612   0.008  1.00  0.00    -0.335 N 
HETATM   12  H6  UNL     1       1.664  -1.536   0.074  1.00  0.00     0.168 HD
BRANCH  11  13
HETATM   13  C7  UNL     1       3.493  -0.678   0.037  1.00  0.00     0.036 A 
HETATM   14  C8  UNL     1       4.230  -0.693  -1.152  1.00  0.00     0.029 A 
HETATM   15  C9  UNL     1       5.604  -0.764  -1.052  1.00  0.00     0.005 A 
HETATM   16  C10 UNL     1       6.286  -0.819   0.150  1.00  0.00     0.042 A 
HETATM   17  C11 UNL     1       5.528  -0.802   1.305  1.00  0.00     0.118 A 
HETATM   18  F1  UNL     1       6.161  -0.857   2.510  1.00  0.00    -0.206 F 
HETATM   19  C12 UNL     1       4.151  -0.732   1.245  1.00  0.00     0.071 A 
ENDBRANCH  11  13
ENDBRANCH   7  11
BRANCH  10  20
HETATM   20  O2  UNL     1      -3.253  -2.122   0.034  1.00  0.00    -0.353 OA
HETATM   21  C15 UNL     1      -4.471  -2.177   0.743  1.00  0.00     0.210 C 
ENDBRANCH  10  20
BRANCH   1  22
HETATM   22  O1  UNL     1      -4.560   0.338  -0.193  1.00  0.00    -0.353 OA
HETATM   23  C1  UNL     1      -5.455   1.336  -0.535  1.00  0.00     0.210 C 
ENDBRANCH   1  22
TORSDOF 4
