REMARK  5 active torsions:
REMARK  status: ('A' for Active; 'I' for Inactive)
REMARK    1  A    between atoms: C6_8  and  N3_9 
REMARK    2  A    between atoms: N3_9  and  C7_10 
REMARK    3  A    between atoms: C14_18  and  O1_19 
REMARK    4  A    between atoms: O1_19  and  C15_20 
REMARK    5  A    between atoms: C15_20  and  O2_21 
ROOT
HETATM    1  C1  UNL     1      -4.516  -0.943  -0.062  1.00  0.00     0.046 C 
HETATM    2  C2  UNL     1      -3.076  -1.311   0.041  1.00  0.00    -0.048 A 
HETATM    3  C3  UNL     1      -2.560  -2.528   0.123  1.00  0.00     0.037 A 
HETATM    4  C4  UNL     1      -1.103  -2.415   0.207  1.00  0.00     0.071 A 
HETATM    5  N1  UNL     1      -0.157  -3.367   0.304  1.00  0.00    -0.241 NA
HETATM    6  C5  UNL     1       1.161  -3.069   0.373  1.00  0.00     0.235 A 
HETATM    7  N2  UNL     1       1.526  -1.753   0.342  1.00  0.00    -0.224 NA
HETATM    8  C6  UNL     1       0.568  -0.816   0.244  1.00  0.00     0.140 A 
HETATM    9  C13 UNL     1      -0.778  -1.074   0.171  1.00  0.00     0.050 A 
HETATM   10  C14 UNL     1      -2.008  -0.259   0.061  1.00  0.00     0.192 A 
ENDROOT
BRANCH   8  11
HETATM   11  N3  UNL     1       1.074   0.498   0.222  1.00  0.00    -0.344 N 
HETATM   12  H6  UNL     1       0.847   1.510   0.167  1.00  0.00     0.167 HD
BRANCH  11  13
HETATM   13  C7  UNL     1       2.449   0.786   0.295  1.00  0.00     0.017 C 
HETATM   14  C8  UNL     1       3.122   0.394  -0.800  1.00  0.00     0.026 C 
HETATM   15  C9  UNL     1       4.580   0.611  -0.910  1.00  0.00     0.017 C 
HETATM   16  C10 UNL     1       5.104   1.560  -0.154  1.00  0.00     0.012 C 
HETATM   17  C11 UNL     1       4.333   2.240   0.673  1.00  0.00     0.110 C 
HETATM   18  F1  UNL     1       4.584   3.564   0.799  1.00  0.00    -0.209 F 
HETATM   19  C12 UNL     1       3.284   1.441   1.355  1.00  0.00     0.128 C 
ENDBRANCH  11  13
ENDBRANCH   8  11
BRANCH  10  20
HETATM   20  O1  UNL     1      -1.969   0.448  -1.115  1.00  0.00    -0.353 OA
BRANCH  20  21
HETATM   21  C15 UNL     1      -2.123   1.817  -0.936  1.00  0.00     0.336 C 
BRANCH  21  22
HETATM   22  O2  UNL     1      -3.390   1.971  -0.325  1.00  0.00    -0.377 OA
HETATM   23  H14 UNL     1      -3.789   2.844  -0.555  1.00  0.00     0.212 HD
ENDBRANCH  21  22
ENDBRANCH  20  21
ENDBRANCH  10  20
TORSDOF 5
