REMARK  6 active torsions:
REMARK  status: ('A' for Active; 'I' for Inactive)
REMARK    1  A    between atoms: O1_2  and  C2_3 
REMARK    2  A    between atoms: C2_3  and  C14_18 
REMARK    3  A    between atoms: C3_4  and  C4_5 
REMARK    4  A    between atoms: C6_7  and  N1_8 
REMARK    5  A    between atoms: N1_8  and  C7_9 
REMARK    6  A    between atoms: C7_9  and  C8_10 
ROOT
HETATM    1  C4  UNL     1      -1.648  -1.353  -0.551  1.00  0.00     0.135 A 
HETATM    2  C5  UNL     1      -0.495  -1.652   0.339  1.00  0.00     0.050 A 
HETATM    3  C6  UNL     1       0.163  -0.483   0.247  1.00  0.00     0.096 A 
HETATM    4  N2  UNL     1      -0.907  -0.085  -0.634  1.00  0.00    -0.365 N 
HETATM    5  H16 UNL     1      -0.959   0.861  -1.093  1.00  0.00     0.162 HD
ENDROOT
BRANCH   3   6
HETATM    6  N1  UNL     1       1.379   0.056   0.803  1.00  0.00    -0.373 N 
HETATM    7  H7  UNL     1       0.995   0.576   1.601  1.00  0.00     0.161 HD
BRANCH   6   8
HETATM    8  C7  UNL     1       2.458  -0.413  -0.040  1.00  0.00     0.158 C 
BRANCH   8   9
HETATM    9  C8  UNL     1       3.796   0.061   0.403  1.00  0.00    -0.024 A 
HETATM   10  C9  UNL     1       3.992   0.822   1.442  1.00  0.00     0.120 A 
HETATM   11  F1  UNL     1       3.051   1.302   2.276  1.00  0.00    -0.206 F 
HETATM   12  C10 UNL     1       5.346   1.219   1.772  1.00  0.00     0.038 A 
HETATM   13  C11 UNL     1       6.325   0.778   0.986  1.00  0.00    -0.023 A 
HETATM   14  C12 UNL     1       6.215  -0.078  -0.202  1.00  0.00     0.031 A 
HETATM   15  C13 UNL     1       4.816  -0.477  -0.526  1.00  0.00     0.043 A 
ENDBRANCH   8   9
ENDBRANCH   6   8
ENDBRANCH   3   6
BRANCH   1  16
HETATM   16  C3  UNL     1      -2.920  -1.130   0.165  1.00  0.00     0.042 C 
HETATM   17  C2  UNL     1      -3.703  -0.102  -0.110  1.00  0.00     0.099 C 
BRANCH  17  18
HETATM   18  O1  UNL     1      -3.294   0.776  -1.104  1.00  0.00    -0.353 OA
HETATM   19  C1  UNL     1      -3.972   0.762  -2.351  1.00  0.00     0.210 C 
ENDBRANCH  17  18
BRANCH  17  20
HETATM   20  C14 UNL     1      -4.952   0.086   0.618  1.00  0.00     0.100 A 
HETATM   21  C15 UNL     1      -5.895   0.980   0.563  1.00  0.00     0.039 A 
HETATM   22  C16 UNL     1      -6.655   0.329   1.621  1.00  0.00     0.206 A 
HETATM   23  O2  UNL     1      -5.606  -0.588   1.619  1.00  0.00    -0.345 OA
ENDBRANCH  17  20
ENDBRANCH   1  16
TORSDOF 6
