REMARK  2 active torsions:
REMARK  status: ('A' for Active; 'I' for Inactive)
REMARK    1  A    between atoms: O1_2  and  C2_3 
REMARK    2  A    between atoms: C14_19  and  O2_20 
ROOT
HETATM    1  C2  UNL     1      -1.902   1.136  -0.138  1.00  0.00     0.097 C 
HETATM    2  C3  UNL     1      -0.848   1.961  -0.017  1.00  0.00     0.015 C 
HETATM    3  C4  UNL     1       0.345   1.159  -0.334  1.00  0.00     0.059 C 
HETATM    4  C5  UNL     1       1.097   0.601   0.838  1.00  0.00     0.108 C 
HETATM    5  C6  UNL     1       2.284   1.456   1.090  1.00  0.00    -0.003 C 
HETATM    6  C7  UNL     1       3.587   1.226   0.991  1.00  0.00     0.009 C 
HETATM    7  C8  UNL     1       3.848  -0.177   0.535  1.00  0.00     0.210 C 
HETATM    8  F1  UNL     1       3.703  -0.254  -0.832  1.00  0.00    -0.243 F 
HETATM    9  C9  UNL     1       2.787  -1.042   1.169  1.00  0.00     0.161 C 
HETATM   10  N1  UNL     1       1.518  -0.741   0.601  1.00  0.00    -0.375 N 
HETATM   11  C10 UNL     1       1.293  -1.324  -0.649  1.00  0.00     0.258 A 
HETATM   12  N2  UNL     1       2.240  -2.416  -0.915  1.00  0.00    -0.251 NA
HETATM   13  C11 UNL     1       1.546  -3.428  -1.244  1.00  0.00     0.230 A 
HETATM   14  N3  UNL     1       0.163  -3.164  -1.234  1.00  0.00    -0.243 NA
HETATM   15  C12 UNL     1      -0.040  -1.936  -0.885  1.00  0.00     0.082 A 
HETATM   16  C13 UNL     1      -1.434  -1.427  -0.737  1.00  0.00     0.071 C 
HETATM   17  C14 UNL     1      -1.990  -0.272  -0.457  1.00  0.00     0.103 C 
ENDROOT
BRANCH   1  18
HETATM   18  O1  UNL     1      -2.873   2.048   0.161  1.00  0.00    -0.353 OA
HETATM   19  C1  UNL     1      -3.566   2.843  -0.781  1.00  0.00     0.210 C 
ENDBRANCH   1  18
BRANCH  17  20
HETATM   20  O2  UNL     1      -3.408  -0.370  -0.439  1.00  0.00    -0.353 OA
HETATM   21  C15 UNL     1      -3.942  -1.091   0.666  1.00  0.00     0.210 C 
ENDBRANCH  17  20
TORSDOF 2
