REMARK  8 active torsions:
REMARK  status: ('A' for Active; 'I' for Inactive)
REMARK    1  A    between atoms: C2_2  and  C3_3 
REMARK    2  A    between atoms: C2_2  and  C4_5 
REMARK    3  A    between atoms: C3_3  and  O1_4 
REMARK    4  A    between atoms: C4_5  and  C16_21 
REMARK    5  A    between atoms: C5_6  and  C6_7 
REMARK    6  A    between atoms: C8_9  and  N1_10 
REMARK    7  A    between atoms: N1_10  and  C9_11 
REMARK    8  A    between atoms: C16_21  and  O2_22 
ROOT
HETATM    1  C6  UNL     1      -0.340  -0.491   0.558  1.00  0.00     0.062 A 
HETATM    2  C7  UNL     1       0.761   0.075  -0.076  1.00  0.00     0.082 A 
HETATM    3  C8  UNL     1       1.836  -0.599  -0.600  1.00  0.00     0.131 A 
HETATM    4  N2  UNL     1       1.774  -1.921  -0.466  1.00  0.00    -0.224 NA
HETATM    5  C15 UNL     1       0.743  -2.520   0.132  1.00  0.00     0.235 A 
HETATM    6  N3  UNL     1      -0.288  -1.835   0.632  1.00  0.00    -0.242 NA
ENDROOT
BRANCH   1   7
HETATM    7  C5  UNL     1      -1.419   0.335   1.093  1.00  0.00     0.041 C 
HETATM    8  C4  UNL     1      -2.769   0.257   1.011  1.00  0.00    -0.025 C 
BRANCH   8   9
HETATM    9  C2  UNL     1      -3.434   1.348   1.734  1.00  0.00    -0.036 C 
HETATM   10  C1  UNL     1      -4.755   1.462   1.838  1.00  0.00     0.021 C 
BRANCH   9  11
HETATM   11  C3  UNL     1      -2.644   2.450   2.387  1.00  0.00     0.202 C 
BRANCH  11  12
HETATM   12  O1  UNL     1      -1.898   3.066   1.388  1.00  0.00    -0.396 OA
HETATM   13  H5  UNL     1      -2.515   3.416   0.704  1.00  0.00     0.209 HD
ENDBRANCH  11  12
ENDBRANCH   9  11
ENDBRANCH   8   9
BRANCH   8  14
HETATM   14  C16 UNL     1      -3.284  -0.882   0.256  1.00  0.00     0.206 C 
BRANCH  14  15
HETATM   15  O2  UNL     1      -4.023  -0.713  -0.840  1.00  0.00    -0.391 OA
HETATM   16  C17 UNL     1      -5.175  -0.071  -0.957  1.00  0.00     0.201 C 
ENDBRANCH  14  15
ENDBRANCH   8  14
ENDBRANCH   1   7
BRANCH   3  17
HETATM   17  N1  UNL     1       2.862   0.160  -1.213  1.00  0.00    -0.341 N 
HETATM   18  H8  UNL     1       2.751   1.211  -1.247  1.00  0.00     0.167 HD
BRANCH  17  19
HETATM   19  C9  UNL     1       4.056  -0.307  -1.803  1.00  0.00     0.036 A 
HETATM   20  C10 UNL     1       4.934   0.565  -2.456  1.00  0.00     0.029 A 
HETATM   21  C11 UNL     1       6.097   0.113  -3.025  1.00  0.00     0.005 A 
HETATM   22  C12 UNL     1       6.477  -1.206  -2.996  1.00  0.00     0.042 A 
HETATM   23  C13 UNL     1       5.638  -2.072  -2.364  1.00  0.00     0.118 A 
HETATM   24  F1  UNL     1       6.000  -3.376  -2.322  1.00  0.00    -0.206 F 
HETATM   25  C14 UNL     1       4.471  -1.610  -1.795  1.00  0.00     0.071 A 
ENDBRANCH  17  19
ENDBRANCH   3  17
TORSDOF 8
