REMARK  7 active torsions:
REMARK  status: ('A' for Active; 'I' for Inactive)
REMARK    1  A    between atoms: C2_2  and  C3_4 
REMARK    2  A    between atoms: C3_4  and  C4_5 
REMARK    3  A    between atoms: C4_5  and  C5_6 
REMARK    4  A    between atoms: C5_6  and  N1_7 
REMARK    5  A    between atoms: N1_7  and  C6_8 
REMARK    6  A    between atoms: C10_14  and  O1_15 
REMARK    7  A    between atoms: C12_17  and  O2_18 
ROOT
HETATM    1  C6  UNL     1       0.815  -0.355   0.001  1.00  0.00     0.141 A 
HETATM    2  N2  UNL     1       1.431  -1.549  -0.224  1.00  0.00    -0.224 NA
HETATM    3  C7  UNL     1       0.720  -2.682  -0.426  1.00  0.00     0.236 A 
HETATM    4  N3  UNL     1      -0.636  -2.677  -0.412  1.00  0.00    -0.241 NA
HETATM    5  C8  UNL     1      -1.273  -1.512  -0.192  1.00  0.00     0.075 A 
HETATM    6  C9  UNL     1      -2.646  -1.439  -0.173  1.00  0.00     0.072 A 
HETATM    7  C10 UNL     1      -3.324  -0.257   0.045  1.00  0.00     0.103 A 
HETATM    8  C12 UNL     1      -2.607   0.925   0.256  1.00  0.00     0.102 A 
HETATM    9  C14 UNL     1      -1.230   0.843   0.235  1.00  0.00     0.057 A 
HETATM   10  C15 UNL     1      -0.575  -0.346   0.016  1.00  0.00     0.042 A 
ENDROOT
BRANCH   1  11
HETATM   11  N1  UNL     1       1.557   0.860   0.192  1.00  0.00    -0.349 N 
HETATM   12  H5  UNL     1       1.340   1.530   0.970  1.00  0.00     0.167 HD
BRANCH  11  13
HETATM   13  C5  UNL     1       2.580   1.091  -0.718  1.00  0.00     0.102 C 
BRANCH  13  14
HETATM   14  C4  UNL     1       3.538   0.215  -0.433  1.00  0.00    -0.006 C 
BRANCH  14  15
HETATM   15  C3  UNL     1       4.758  -0.308  -0.348  1.00  0.00     0.055 C 
BRANCH  15  16
HETATM   16  C2  UNL     1       5.692   0.291   0.553  1.00  0.00     0.107 C 
HETATM   17  C1  UNL     1       6.904  -0.243   0.624  1.00  0.00     0.056 C 
HETATM   18  F1  UNL     1       5.403   1.345   1.319  1.00  0.00    -0.207 F 
ENDBRANCH  15  16
ENDBRANCH  14  15
ENDBRANCH  13  14
ENDBRANCH  11  13
ENDBRANCH   1  11
BRANCH   8  19
HETATM   19  O2  UNL     1      -3.446   1.979   0.453  1.00  0.00    -0.353 OA
HETATM   20  C13 UNL     1      -3.093   3.312   0.695  1.00  0.00     0.210 C 
ENDBRANCH   8  19
BRANCH   7  21
HETATM   21  O1  UNL     1      -4.706  -0.361   0.030  1.00  0.00    -0.353 OA
HETATM   22  C11 UNL     1      -5.345  -1.567  -0.197  1.00  0.00     0.210 C 
ENDBRANCH   7  21
TORSDOF 7
