REMARK  0 active torsions:
REMARK  status: ('A' for Active; 'I' for Inactive)
ROOT
HETATM    1  C1  UNL     1      -3.178  -0.543   2.015  1.00  0.00     0.046 C 
HETATM    2  C2  UNL     1      -1.960  -0.942   1.225  1.00  0.00    -0.056 C 
HETATM    3  C3  UNL     1      -1.187   0.079   0.879  1.00  0.00    -0.060 C 
HETATM    4  C4  UNL     1      -1.651   1.424   1.328  1.00  0.00     0.081 C 
HETATM    5  C5  UNL     1      -2.031   2.177   0.117  1.00  0.00     0.088 C 
HETATM    6  N1  UNL     1      -1.059   2.178  -0.709  1.00  0.00    -0.295 NA
HETATM    7  C6  UNL     1       0.197   1.520  -0.438  1.00  0.00     0.145 C 
HETATM    8  C7  UNL     1       1.100   2.446   0.353  1.00  0.00     0.039 C 
HETATM    9  C8  UNL     1       2.382   1.962   0.250  1.00  0.00     0.101 C 
HETATM   10  F1  UNL     1       3.499   2.528   0.836  1.00  0.00    -0.210 F 
HETATM   11  C9  UNL     1       3.400   0.994  -0.261  1.00  0.00     0.086 C 
HETATM   12  C10 UNL     1       3.552  -0.097  -1.040  1.00  0.00     0.005 C 
HETATM   13  C11 UNL     1       3.183  -1.229  -1.958  1.00  0.00     0.107 C 
HETATM   14  N2  UNL     1       2.053  -1.560  -2.459  1.00  0.00    -0.298 NA
HETATM   15  C12 UNL     1       0.782  -0.907  -2.270  1.00  0.00     0.185 C 
HETATM   16  C13 UNL     1       0.221  -0.949  -0.907  1.00  0.00    -0.028 C 
HETATM   17  C14 UNL     1      -0.141  -2.231  -0.768  1.00  0.00     0.140 C 
HETATM   18  O1  UNL     1      -0.714  -2.712   0.362  1.00  0.00    -0.359 OA
HETATM   19  C15 UNL     1      -1.886  -2.407   1.016  1.00  0.00     0.208 C 
HETATM   20  C16 UNL     1       0.086   0.149   0.114  1.00  0.00     0.076 C 
ENDROOT
TORSDOF 0
