REMARK  7 active torsions:
REMARK  status: ('A' for Active; 'I' for Inactive)
REMARK    1  A    between atoms: O1_2  and  C2_3 
REMARK    2  A    between atoms: C10_14  and  N3_15 
REMARK    3  A    between atoms: N3_15  and  C11_16 
REMARK    4  A    between atoms: C12_17  and  C13_18 
REMARK    5  A    between atoms: C13_18  and  C14_19 
REMARK    6  A    between atoms: C14_19  and  P1_20 
REMARK    7  A    between atoms: P1_20  and  C15_21 
ROOT
HETATM    1  C2  UNL     1      -2.664   0.794  -1.017  1.00  0.00     0.108 A 
HETATM    2  C3  UNL     1      -1.477   0.775  -0.395  1.00  0.00    -0.012 A 
HETATM    3  C4  UNL     1      -0.388   1.734  -0.279  1.00  0.00     0.052 C 
HETATM    4  C5  UNL     1      -1.507  -0.563   0.175  1.00  0.00     0.021 A 
HETATM    5  C6  UNL     1      -2.612  -1.343  -0.083  1.00  0.00     0.056 A 
HETATM    6  C7  UNL     1      -3.322  -0.428  -0.832  1.00  0.00     0.111 A 
HETATM    7  O2  UNL     1      -4.269  -1.376  -0.887  1.00  0.00    -0.301 OA
HETATM    8  C8  UNL     1      -4.667  -1.656   0.478  1.00  0.00     0.260 C 
HETATM    9  N1  UNL     1      -4.033  -1.090   1.587  1.00  0.00    -0.230 NA
HETATM   10  C9  UNL     1      -2.818  -1.496   2.096  1.00  0.00     0.237 C 
HETATM   11  N2  UNL     1      -1.522  -1.931   2.011  1.00  0.00    -0.224 NA
HETATM   12  C10 UNL     1      -0.699  -1.168   1.181  1.00  0.00     0.139 C 
ENDROOT
BRANCH  12  13
HETATM   13  N3  UNL     1       0.658  -0.886   1.204  1.00  0.00    -0.350 N 
HETATM   14  H10 UNL     1       0.255  -0.285   1.997  1.00  0.00     0.166 HD
BRANCH  13  15
HETATM   15  C11 UNL     1       1.983  -0.607   1.231  1.00  0.00     0.090 C 
HETATM   16  C12 UNL     1       3.146  -1.077   0.905  1.00  0.00     0.025 C 
BRANCH  16  17
HETATM   17  C13 UNL     1       4.419  -0.423   1.150  1.00  0.00     0.057 C 
BRANCH  17  18
HETATM   18  C14 UNL     1       5.377  -1.005   0.459  1.00  0.00    -0.117 C 
BRANCH  18  19
HETATM   19  P1  UNL     1       6.659  -1.254  -0.615  1.00  0.00     0.028 P 
BRANCH  19  20
HETATM   20  C15 UNL     1       6.701  -0.264  -2.189  1.00  0.00     0.274 C 
HETATM   21  F1  UNL     1       5.457  -0.280  -2.792  1.00  0.00    -0.249 F 
ENDBRANCH  19  20
ENDBRANCH  18  19
ENDBRANCH  17  18
ENDBRANCH  16  17
ENDBRANCH  13  15
ENDBRANCH  12  13
BRANCH   1  22
HETATM   22  O1  UNL     1      -3.142   1.858  -1.726  1.00  0.00    -0.353 OA
HETATM   23  C1  UNL     1      -3.673   3.025  -1.061  1.00  0.00     0.210 C 
ENDBRANCH   1  22
TORSDOF 7
