REMARK  4 active torsions:
REMARK  status: ('A' for Active; 'I' for Inactive)
REMARK    1  A    between atoms: C5_6  and  N1_7 
REMARK    2  A    between atoms: N1_7  and  C6_8 
REMARK    3  A    between atoms: C6_8  and  C7_9 
REMARK    4  A    between atoms: C16_20  and  O2_21 
ROOT
HETATM    1  C1  UNL     1      -3.960  -1.324  -1.086  1.00  0.00     0.000 C 
HETATM    2  O1  UNL     1      -2.607  -0.818  -0.613  1.00  0.00     0.000 OA
HETATM    3  C2  UNL     1      -2.579   0.575  -0.979  1.00  0.00     0.056 C 
HETATM    4  C3  UNL     1      -2.534   1.903  -0.802  1.00  0.00    -0.021 C 
HETATM    5  C4  UNL     1      -1.209   2.177  -0.803  1.00  0.00     0.032 C 
HETATM    6  C5  UNL     1      -0.587   1.109  -1.382  1.00  0.00     0.137 C 
HETATM    7  N2  UNL     1      -0.998   0.577  -2.630  1.00  0.00    -0.224 NA
HETATM    8  C13 UNL     1      -1.147  -0.650  -2.937  1.00  0.00     0.234 C 
HETATM    9  N3  UNL     1      -1.007  -1.941  -2.302  1.00  0.00    -0.258 NA
HETATM   10  C14 UNL     1      -1.376  -2.079  -1.081  1.00  0.00     0.099 C 
HETATM   11  C15 UNL     1      -1.986  -1.198  -0.013  1.00  0.00     0.077 C 
HETATM   12  C16 UNL     1      -2.567   0.001   0.331  1.00  0.00     0.116 C 
ENDROOT
BRANCH   6  13
HETATM   13  N1  UNL     1       0.543   0.655  -0.592  1.00  0.00    -0.370 N 
HETATM   14  H4  UNL     1       1.158   1.233  -1.233  1.00  0.00     0.161 HD
BRANCH  13  15
HETATM   15  C6  UNL     1       1.152  -0.078   0.467  1.00  0.00     0.160 C 
BRANCH  15  16
HETATM   16  C7  UNL     1       2.619   0.137   0.446  1.00  0.00    -0.041 A 
HETATM   17  C8  UNL     1       3.500  -0.650  -0.257  1.00  0.00     0.009 A 
HETATM   18  C9  UNL     1       4.867  -0.447  -0.275  1.00  0.00     0.001 A 
HETATM   19  C10 UNL     1       5.408   0.604   0.449  1.00  0.00     0.000 A 
HETATM   20  C11 UNL     1       4.519   1.412   1.168  1.00  0.00     0.001 A 
HETATM   21  C12 UNL     1       3.156   1.190   1.171  1.00  0.00     0.009 A 
ENDBRANCH  15  16
ENDBRANCH  13  15
ENDBRANCH   6  13
BRANCH  12  22
HETATM   22  O2  UNL     1      -2.951   0.371   1.595  1.00  0.00    -0.380 OA
HETATM   23  C17 UNL     1      -2.228   1.203   2.453  1.00  0.00     0.202 C 
ENDBRANCH  12  22
TORSDOF 4
