REMARK  2 active torsions:
REMARK  status: ('A' for Active; 'I' for Inactive)
REMARK    1  A    between atoms: O1_1  and  C1_2 
REMARK    2  A    between atoms: C4_5  and  C5_6 
ROOT
HETATM    1  C5  UNL     1       0.674   0.189  -0.865  1.00  0.00     0.032 C 
HETATM    2  C6  UNL     1      -0.434  -0.028  -0.205  1.00  0.00     0.122 C 
HETATM    3  N1  UNL     1      -0.562  -0.741   1.013  1.00  0.00    -0.227 NA
HETATM    4  C7  UNL     1      -0.490  -2.018   1.123  1.00  0.00     0.214 C 
HETATM    5  N2  UNL     1      -0.702  -1.926   2.547  1.00  0.00    -0.341 N 
HETATM    6  S1  UNL     1      -2.220  -1.804   3.467  1.00  0.00    -0.147 SA
HETATM    7  C8  UNL     1      -3.167  -0.405   2.966  1.00  0.00     0.233 C 
HETATM    8  C9  UNL     1      -3.920   0.511   3.518  1.00  0.00    -0.008 C 
HETATM    9  C10 UNL     1      -4.342   1.323   2.388  1.00  0.00    -0.001 C 
HETATM   10  C11 UNL     1      -4.186   1.384   1.072  1.00  0.00     0.019 C 
HETATM   11  C12 UNL     1      -4.297   1.824  -0.315  1.00  0.00     0.112 C 
HETATM   12  N3  UNL     1      -3.785   1.357  -1.395  1.00  0.00    -0.282 NA
HETATM   13  C13 UNL     1      -2.921   0.186  -1.386  1.00  0.00     0.271 C 
HETATM   14  N4  UNL     1      -1.690   0.453  -0.666  1.00  0.00    -0.357 N 
HETATM   15  H7  UNL     1       0.129  -1.925   3.210  1.00  0.00     0.173 HD
HETATM   16  H15 UNL     1      -1.540   1.405  -0.245  1.00  0.00     0.162 HD
ENDROOT
BRANCH   1  17
HETATM   17  C4  UNL     1       1.970  -0.315  -0.383  1.00  0.00     0.039 A 
HETATM   18  C3  UNL     1       2.986   0.739  -0.089  1.00  0.00     0.054 A 
HETATM   19  C2  UNL     1       4.157   0.368  -0.923  1.00  0.00    -0.021 A 
HETATM   20  C1  UNL     1       5.348   0.354  -1.500  1.00  0.00     0.054 A 
HETATM   21  C15 UNL     1       3.830  -0.840  -1.664  1.00  0.00    -0.046 A 
HETATM   22  C16 UNL     1       5.161  -0.864  -2.321  1.00  0.00     0.103 A 
HETATM   23  C14 UNL     1       2.603  -1.237  -1.371  1.00  0.00    -0.010 A 
BRANCH  20  24
HETATM   24  O1  UNL     1       6.560   1.021  -1.577  1.00  0.00    -0.364 OA
HETATM   25  H1  UNL     1       6.959   1.556  -0.807  1.00  0.00     0.217 HD
ENDBRANCH  20  24
ENDBRANCH   1  17
TORSDOF 2
