REMARK  4 active torsions:
REMARK  status: ('A' for Active; 'I' for Inactive)
REMARK    1  A    between atoms: O1_2  and  C2_3 
REMARK    2  A    between atoms: C6_9  and  N3_10 
REMARK    3  A    between atoms: N3_10  and  C7_11 
REMARK    4  A    between atoms: C15_19  and  O2_20 
ROOT
HETATM    1  C2  UNL     1      -3.492  -0.584  -0.067  1.00  0.00     0.103 A 
HETATM    2  C3  UNL     1      -2.724  -1.729  -0.057  1.00  0.00     0.072 A 
HETATM    3  C4  UNL     1      -1.348  -1.624  -0.084  1.00  0.00     0.075 A 
HETATM    4  N1  UNL     1      -0.564  -2.733  -0.076  1.00  0.00    -0.241 NA
HETATM    5  C5  UNL     1       0.788  -2.573  -0.102  1.00  0.00     0.235 A 
HETATM    6  N2  UNL     1       1.441  -1.373  -0.138  1.00  0.00    -0.224 NA
HETATM    7  C6  UNL     1       0.674  -0.271  -0.146  1.00  0.00     0.138 A 
HETATM    8  C13 UNL     1      -0.698  -0.408  -0.119  1.00  0.00     0.041 A 
HETATM    9  C14 UNL     1      -1.505   0.703  -0.127  1.00  0.00     0.057 A 
HETATM   10  C15 UNL     1      -2.885   0.657  -0.102  1.00  0.00     0.102 A 
ENDROOT
BRANCH   7  11
HETATM   11  N3  UNL     1       1.332   0.984  -0.183  1.00  0.00    -0.363 N 
HETATM   12  H6  UNL     1       0.916   1.939  -0.195  1.00  0.00     0.162 HD
BRANCH  11  13
HETATM   13  C7  UNL     1       2.779   0.972  -0.208  1.00  0.00     0.129 C 
HETATM   14  C8  UNL     1       3.325   0.284   1.020  1.00  0.00    -0.002 C 
HETATM   15  C9  UNL     1       4.644   0.114   1.055  1.00  0.00    -0.025 C 
HETATM   16  C10 UNL     1       5.377   0.635  -0.135  1.00  0.00     0.054 C 
HETATM   17  C11 UNL     1       4.674   0.109  -1.338  1.00  0.00    -0.025 C 
HETATM   18  C12 UNL     1       3.351   0.279  -1.377  1.00  0.00    -0.002 C 
ENDBRANCH  11  13
ENDBRANCH   7  11
BRANCH  10  19
HETATM   19  O2  UNL     1      -3.715   1.768  -0.110  1.00  0.00    -0.353 OA
HETATM   20  C16 UNL     1      -3.274   3.099  -0.144  1.00  0.00     0.210 C 
ENDBRANCH  10  19
BRANCH   1  21
HETATM   21  O1  UNL     1      -4.870  -0.677  -0.041  1.00  0.00    -0.353 OA
HETATM   22  C1  UNL     1      -5.554  -1.895  -0.004  1.00  0.00     0.210 C 
ENDBRANCH   1  21
TORSDOF 4
