REMARK  5 active torsions:
REMARK  status: ('A' for Active; 'I' for Inactive)
REMARK    1  A    between atoms: O1_1  and  C1_2 
REMARK    2  A    between atoms: C4_5  and  C5_6 
REMARK    3  A    between atoms: C5_6  and  N1_7 
REMARK    4  A    between atoms: N1_7  and  C6_8 
REMARK    5  A    between atoms: C6_8  and  C7_9 
ROOT
HETATM    1  C1  UNL     1      -4.504  -1.267  -0.585  1.00  0.00     0.088 A 
HETATM    2  C2  UNL     1      -3.161  -1.195  -0.294  1.00  0.00     0.054 A 
HETATM    3  C3  UNL     1      -2.723  -0.066   0.345  1.00  0.00     0.022 A 
HETATM    4  C4  UNL     1      -1.367  -0.005   0.663  1.00  0.00     0.065 A 
HETATM    5  N2  UNL     1      -0.934   1.080   1.306  1.00  0.00    -0.244 NA
HETATM    6  C13 UNL     1      -1.691   2.122   1.675  1.00  0.00     0.234 A 
HETATM    7  N3  UNL     1      -3.015   2.033   1.348  1.00  0.00    -0.241 NA
HETATM    8  C14 UNL     1      -3.539   0.985   0.706  1.00  0.00     0.072 A 
HETATM    9  C15 UNL     1      -4.900   0.899   0.404  1.00  0.00     0.059 A 
HETATM   10  C16 UNL     1      -5.384  -0.243  -0.249  1.00  0.00     0.069 A 
HETATM   11 CL1  UNL     1      -7.090  -0.306  -0.603  1.00  0.00    -0.081 Cl
ENDROOT
BRANCH   4  12
HETATM   12  C5  UNL     1      -0.328  -1.017   0.310  1.00  0.00     0.174 C 
BRANCH  12  13
HETATM   13  N1  UNL     1       0.897  -0.342   0.075  1.00  0.00    -0.412 N 
HETATM   14  H5  UNL     1       0.975   0.648   0.222  1.00  0.00     0.153 HD
BRANCH  13  15
HETATM   15  C6  UNL     1       1.997  -1.088  -0.396  1.00  0.00     0.153 C 
BRANCH  15  16
HETATM   16  C7  UNL     1       3.244  -0.285  -0.318  1.00  0.00    -0.041 A 
HETATM   17  C8  UNL     1       3.657   0.616  -1.301  1.00  0.00     0.009 A 
HETATM   18  C9  UNL     1       4.798   1.381  -1.321  1.00  0.00     0.001 A 
HETATM   19  C10 UNL     1       5.642   1.231  -0.209  1.00  0.00     0.000 A 
HETATM   20  C11 UNL     1       5.280   0.356   0.785  1.00  0.00     0.001 A 
HETATM   21  C12 UNL     1       4.118  -0.405   0.772  1.00  0.00     0.009 A 
ENDBRANCH  15  16
ENDBRANCH  13  15
ENDBRANCH  12  13
ENDBRANCH   4  12
BRANCH   1  22
HETATM   22  O1  UNL     1      -5.043  -2.392  -1.242  1.00  0.00    -0.359 OA
HETATM   23  H1  UNL     1      -5.164  -2.357  -2.251  1.00  0.00     0.217 HD
ENDBRANCH   1  22
TORSDOF 5
