REMARK  7 active torsions:
REMARK  status: ('A' for Active; 'I' for Inactive)
REMARK    1  A    between atoms: C2_2  and  O1_3 
REMARK    2  A    between atoms: O1_3  and  C3_4 
REMARK    3  A    between atoms: C5_6  and  S1_7 
REMARK    4  A    between atoms: S1_7  and  C6_8 
REMARK    5  A    between atoms: C11_15  and  O2_16 
REMARK    6  A    between atoms: C13_18  and  O3_19 
REMARK    7  A    between atoms: C17_23  and  O4_24 
ROOT
HETATM    1  C6  UNL     1       1.145   1.909   0.405  1.00  0.00     0.112 A 
HETATM    2  N1  UNL     1       0.778   2.916  -0.408  1.00  0.00    -0.234 NA
HETATM    3  C7  UNL     1       1.515   3.316  -1.458  1.00  0.00     0.234 A 
HETATM    4  N2  UNL     1       2.700   2.709  -1.761  1.00  0.00    -0.241 NA
HETATM    5  C8  UNL     1       3.135   1.679  -0.980  1.00  0.00     0.073 A 
HETATM    6  C9  UNL     1       2.346   1.321   0.066  1.00  0.00     0.028 A 
HETATM    7  C10 UNL     1       2.683   0.337   0.881  1.00  0.00     0.025 A 
HETATM    8  C11 UNL     1       3.761  -0.656   1.093  1.00  0.00     0.167 A 
HETATM    9  C12 UNL     1       4.849  -0.578   0.108  1.00  0.00     0.045 A 
HETATM   10  C13 UNL     1       5.107   0.181  -0.946  1.00  0.00     0.067 A 
HETATM   11  C14 UNL     1       4.288   1.248  -1.452  1.00  0.00     0.069 A 
ENDROOT
BRANCH   1  12
HETATM   12  S1  UNL     1       0.205   1.336   1.811  1.00  0.00    -0.070 SA
BRANCH  12  13
HETATM   13  C5  UNL     1      -0.916   0.064   1.238  1.00  0.00     0.009 A 
HETATM   14  C4  UNL     1      -2.178   0.457   0.805  1.00  0.00     0.058 A 
HETATM   15  C3  UNL     1      -3.167  -0.402   0.330  1.00  0.00     0.103 A 
HETATM   16  C17 UNL     1      -2.848  -1.760   0.293  1.00  0.00     0.101 A 
HETATM   17  C16 UNL     1      -1.604  -2.167   0.718  1.00  0.00     0.041 A 
HETATM   18  C15 UNL     1      -0.659  -1.275   1.180  1.00  0.00     0.022 A 
BRANCH  15  19
HETATM   19  O1  UNL     1      -4.389  -0.023  -0.090  1.00  0.00    -0.349 OA
BRANCH  19  20
HETATM   20  C2  UNL     1      -4.969   1.220  -0.165  1.00  0.00     0.171 C 
HETATM   21  C1  UNL     1      -5.024   1.835   1.213  1.00  0.00     0.034 C 
ENDBRANCH  19  20
ENDBRANCH  15  19
BRANCH  16  22
HETATM   22  O4  UNL     1      -3.774  -2.689  -0.166  1.00  0.00    -0.353 OA
HETATM   23  C18 UNL     1      -3.382  -4.048  -0.175  1.00  0.00     0.210 C 
ENDBRANCH  16  22
ENDBRANCH  12  13
ENDBRANCH   1  12
BRANCH   8  24
HETATM   24  O2  UNL     1       4.268  -0.398   2.387  1.00  0.00    -0.388 OA
HETATM   25  H10 UNL     1       4.639  -1.237   2.756  1.00  0.00     0.210 HD
ENDBRANCH   8  24
BRANCH  10  26
HETATM   26  O3  UNL     1       6.306  -0.128  -1.593  1.00  0.00    -0.361 OA
HETATM   27  H12 UNL     1       7.023  -0.645  -1.101  1.00  0.00     0.217 HD
ENDBRANCH  10  26
TORSDOF 7
