REMARK  5 active torsions:
REMARK  status: ('A' for Active; 'I' for Inactive)
REMARK    1  A    between atoms: O1_2  and  C2_3 
REMARK    2  A    between atoms: C3_5  and  N2_6 
REMARK    3  A    between atoms: N2_6  and  C4_7 
REMARK    4  A    between atoms: C7_10  and  N3_11 
REMARK    5  A    between atoms: C14_19  and  O2_20 
ROOT
HETATM    1  C4  UNL     1      -2.039   0.759   0.376  1.00  0.00     0.063 A 
HETATM    2  C5  UNL     1      -1.600   0.063  -0.736  1.00  0.00     0.034 A 
HETATM    3  C6  UNL     1      -0.255  -0.308  -0.853  1.00  0.00     0.031 A 
HETATM    4  C7  UNL     1       0.671  -0.000   0.120  1.00  0.00     0.033 A 
HETATM    5  C13 UNL     1       0.177   0.693   1.203  1.00  0.00     0.068 A 
HETATM    6  C14 UNL     1      -1.131   1.091   1.387  1.00  0.00     0.096 A 
ENDROOT
BRANCH   1   7
HETATM    7  N2  UNL     1      -3.392   1.127   0.480  1.00  0.00    -0.352 N 
HETATM    8  H5  UNL     1      -3.712   1.662   1.341  1.00  0.00     0.162 HD
BRANCH   7   9
HETATM    9  C3  UNL     1      -4.508   0.892  -0.441  1.00  0.00     0.441 A 
HETATM   10  C2  UNL     1      -4.836  -0.446  -0.749  1.00  0.00     0.419 A 
HETATM   11  N1  UNL     1      -5.606   0.219   0.217  1.00  0.00     0.384 N 
BRANCH  10  12
HETATM   12  O1  UNL     1      -4.986  -1.747  -1.197  1.00  0.00    -0.348 OA
HETATM   13  C1  UNL     1      -6.201  -2.368  -1.472  1.00  0.00     0.205 C 
ENDBRANCH  10  12
ENDBRANCH   7   9
ENDBRANCH   1   7
BRANCH   6  14
HETATM   14  O2  UNL     1      -1.628   1.777   2.454  1.00  0.00    -0.354 OA
HETATM   15  C15 UNL     1      -0.961   2.231   3.587  1.00  0.00     0.210 C 
ENDBRANCH   6  14
BRANCH   4  16
HETATM   16  N3  UNL     1       2.023  -0.386  -0.016  1.00  0.00    -0.377 N 
HETATM   17  C8  UNL     1       2.312  -1.147  -1.240  1.00  0.00     0.153 C 
HETATM   18  C9  UNL     1       3.699  -1.655  -1.149  1.00  0.00     0.291 C 
HETATM   19  N4  UNL     1       4.698  -0.791  -0.648  1.00  0.00     0.087 N 
HETATM   20  C10 UNL     1       5.233   0.009  -1.734  1.00  0.00     0.310 C 
HETATM   21  C11 UNL     1       4.412  -0.006   0.476  1.00  0.00     0.291 C 
HETATM   22  C12 UNL     1       3.012  -0.035   0.995  1.00  0.00     0.153 C 
ENDBRANCH   4  16
TORSDOF 5
