REMARK  5 active torsions:
REMARK  status: ('A' for Active; 'I' for Inactive)
REMARK    1  A    between atoms: O1_2  and  C2_3 
REMARK    2  A    between atoms: C5_6  and  C6_7 
REMARK    3  A    between atoms: C6_7  and  C7_8 
REMARK    4  A    between atoms: C12_13  and  N1_14 
REMARK    5  A    between atoms: C15_18  and  O2_19 
ROOT
HETATM    1  C2  UNL     1      -2.177   1.226   0.696  1.00  0.00     0.104 C 
HETATM    2  C3  UNL     1      -0.809   1.298   0.514  1.00  0.00     0.047 C 
HETATM    3  C4  UNL     1      -0.223  -0.036   0.457  1.00  0.00    -0.045 C 
HETATM    4  C5  UNL     1       0.426  -0.760  -0.437  1.00  0.00    -0.051 C 
HETATM    5  C13 UNL     1      -0.036  -2.232  -0.519  1.00  0.00     0.154 C 
HETATM    6  N2  UNL     1      -1.526  -2.167  -0.239  1.00  0.00    -0.387 N 
HETATM    7  C14 UNL     1      -1.889  -1.108   0.654  1.00  0.00     0.046 C 
HETATM    8  C15 UNL     1      -2.819  -0.157   0.769  1.00  0.00     0.124 C 
HETATM    9  C17 UNL     1      -0.679  -0.921   1.664  1.00  0.00     0.098 C 
HETATM   10  H15 UNL     1      -2.521  -2.563  -0.423  1.00  0.00     0.159 HD
ENDROOT
BRANCH   4  11
HETATM   11  C6  UNL     1       1.358   0.225  -1.069  1.00  0.00     0.077 C 
BRANCH  11  12
HETATM   12  C7  UNL     1       2.770  -0.049  -0.859  1.00  0.00    -0.028 A 
HETATM   13  C8  UNL     1       3.675  -0.572  -1.764  1.00  0.00     0.010 A 
HETATM   14  C9  UNL     1       4.993  -0.770  -1.399  1.00  0.00     0.001 A 
HETATM   15  C10 UNL     1       5.464  -0.468  -0.156  1.00  0.00     0.002 A 
HETATM   16  C11 UNL     1       4.553   0.061   0.762  1.00  0.00     0.029 A 
HETATM   17  C12 UNL     1       3.255   0.260   0.416  1.00  0.00     0.032 A 
BRANCH  17  18
HETATM   18  N1  UNL     1       2.430   0.800   1.431  1.00  0.00    -0.399 N 
HETATM   19  H11 UNL     1       2.097   1.799   1.335  1.00  0.00     0.156 HD
HETATM   20  H12 UNL     1       2.176   0.193   2.243  1.00  0.00     0.156 HD
ENDBRANCH  17  18
ENDBRANCH  11  12
ENDBRANCH   4  11
BRANCH   1  21
HETATM   21  O1  UNL     1      -3.005   2.284   0.814  1.00  0.00    -0.353 OA
HETATM   22  C1  UNL     1      -3.534   3.096  -0.189  1.00  0.00     0.210 C 
ENDBRANCH   1  21
BRANCH   8  23
HETATM   23  O2  UNL     1      -3.989  -0.824   0.897  1.00  0.00    -0.351 OA
HETATM   24  C16 UNL     1      -4.982  -0.570  -0.104  1.00  0.00     0.210 C 
ENDBRANCH   8  23
TORSDOF 5
