REMARK  9 active torsions:
REMARK  status: ('A' for Active; 'I' for Inactive)
REMARK    1  A    between atoms: O1_2  and  C2_3 
REMARK    2  A    between atoms: C4_5  and  N1_6 
REMARK    3  A    between atoms: C7_9  and  O2_10 
REMARK    4  A    between atoms: O2_10  and  C8_11 
REMARK    5  A    between atoms: C9_12  and  C10_13 
REMARK    6  A    between atoms: C9_12  and  N3_15 
REMARK    7  A    between atoms: C10_13  and  N2_14 
REMARK    8  A    between atoms: N3_15  and  C11_16 
REMARK    9  A    between atoms: C16_21  and  N4_22 
ROOT
HETATM    1  C8  UNL     1       0.247  -0.502  -0.513  1.00  0.00     0.169 C 
HETATM    2  C9  UNL     1      -0.875  -0.825   0.113  1.00  0.00     0.056 C 
ENDROOT
BRANCH   2   3
HETATM    3  C10 UNL     1      -0.824  -1.449   1.440  1.00  0.00     0.325 C 
BRANCH   3   4
HETATM    4  N2  UNL     1      -1.464  -2.773   1.440  1.00  0.00     0.083 N 
HETATM    5  H14 UNL     1      -2.237  -2.742   2.121  1.00  0.00     0.313 HD
HETATM    6  H15 UNL     1      -1.828  -2.926   0.493  1.00  0.00     0.313 HD
ENDBRANCH   3   4
ENDBRANCH   2   3
BRANCH   2   7
HETATM    7  N3  UNL     1      -2.061  -0.520  -0.601  1.00  0.00    -0.380 N 
HETATM    8  H16 UNL     1      -2.285  -1.056  -1.458  1.00  0.00     0.160 HD
BRANCH   7   9
HETATM    9  C11 UNL     1      -2.984   0.509  -0.194  1.00  0.00     0.134 A 
HETATM   10  C12 UNL     1      -3.594   0.310   1.140  1.00  0.00     0.058 A 
HETATM   11  C13 UNL     1      -5.063   0.415   1.045  1.00  0.00    -0.024 A 
HETATM   12  C14 UNL     1      -5.962   0.633   0.105  1.00  0.00    -0.002 A 
HETATM   13  C15 UNL     1      -5.371   0.827  -1.213  1.00  0.00     0.026 A 
HETATM   14  C16 UNL     1      -4.054   0.744  -1.182  1.00  0.00     0.026 A 
BRANCH  14  15
HETATM   15  N4  UNL     1      -3.390   0.923  -2.452  1.00  0.00    -0.401 N 
HETATM   16  H23 UNL     1      -2.762   1.439  -3.096  1.00  0.00     0.156 HD
HETATM   17  H24 UNL     1      -2.940   1.004  -3.379  1.00  0.00     0.156 HD
ENDBRANCH  14  15
ENDBRANCH   7   9
ENDBRANCH   2   7
BRANCH   1  18
HETATM   18  O2  UNL     1       1.299  -0.859   0.299  1.00  0.00    -0.318 OA
BRANCH  18  19
HETATM   19  C7  UNL     1       2.600  -0.450   0.145  1.00  0.00     0.112 A 
HETATM   20  C2  UNL     1       3.127   0.413  -0.926  1.00  0.00     0.101 A 
HETATM   21  C3  UNL     1       4.415   0.543  -0.683  1.00  0.00     0.052 A 
HETATM   22  C4  UNL     1       4.838  -0.190   0.520  1.00  0.00     0.275 A 
HETATM   23  C5  UNL     1       3.554  -0.801   0.973  1.00  0.00    -0.011 A 
HETATM   24  C6  UNL     1       3.500  -1.642   2.170  1.00  0.00     0.049 C 
BRANCH  20  25
HETATM   25  O1  UNL     1       2.404   0.969  -1.973  1.00  0.00    -0.353 OA
HETATM   26  C1  UNL     1       3.001   2.037  -2.705  1.00  0.00     0.210 C 
ENDBRANCH  20  25
BRANCH  22  27
HETATM   27  N1  UNL     1       5.310   0.737   1.531  1.00  0.00     0.090 N 
HETATM   28  H6  UNL     1       6.175   1.199   1.202  1.00  0.00     0.314 HD
HETATM   29  H7  UNL     1       4.570   1.414   1.772  1.00  0.00     0.314 HD
ENDBRANCH  22  27
ENDBRANCH  18  19
ENDBRANCH   1  18
TORSDOF 9
