REMARK  4 active torsions:
REMARK  status: ('A' for Active; 'I' for Inactive)
REMARK    1  A    between atoms: C10_12  and  N3_13 
REMARK    2  A    between atoms: N3_13  and  C11_14 
REMARK    3  A    between atoms: C13_17  and  O1_18 
REMARK    4  A    between atoms: C14_19  and  O2_20 
ROOT
HETATM    1  O2  UNL     1       5.728  -2.055  -0.528  1.00  0.00    -0.216 OA
HETATM    2  C15 UNL     1       5.006  -2.615  -1.524  1.00  0.00     0.235 C 
HETATM    3  N5  UNL     1       4.385  -3.091  -2.403  1.00  0.00    -0.164 NA
ENDROOT
BRANCH   1   4
HETATM    4  C14 UNL     1       5.210  -1.147   0.363  1.00  0.00     0.234 A 
HETATM    5  C13 UNL     1       6.042  -0.647   1.333  1.00  0.00     0.139 A 
HETATM    6  C12 UNL     1       5.571   0.259   2.243  1.00  0.00     0.177 A 
HETATM    7  N4  UNL     1       4.299   0.607   2.125  1.00  0.00    -0.072 NA
HETATM    8  C11 UNL     1       3.423   0.172   1.215  1.00  0.00     0.729 A 
HETATM    9  N6  UNL     1       3.952  -0.708   0.362  1.00  0.00    -0.034 NA
BRANCH   5  10
HETATM   10  O1  UNL     1       7.363  -1.056   1.398  1.00  0.00    -0.355 OA
HETATM   11  H16 UNL     1       7.949  -0.844   2.191  1.00  0.00     0.218 HD
ENDBRANCH   5  10
BRANCH   8  12
HETATM   12  N3  UNL     1       2.069   0.544   1.077  1.00  0.00    -0.188 N 
HETATM   13  H14 UNL     1       1.874   1.243   1.807  1.00  0.00     0.184 HD
BRANCH  12  14
HETATM   14  C10 UNL     1       1.126   0.076   0.141  1.00  0.00     0.057 A 
HETATM   15  C5  UNL     1      -0.075   0.705   0.318  1.00  0.00    -0.003 A 
HETATM   16  C4  UNL     1      -0.694   1.689   1.262  1.00  0.00     0.310 C 
HETATM   17  C6  UNL     1      -0.981   0.230  -0.603  1.00  0.00     0.018 A 
HETATM   18  N2  UNL     1      -2.121   1.720   1.043  1.00  0.00     0.089 N 
HETATM   19  C3  UNL     1      -2.871   0.533   1.484  1.00  0.00     0.289 C 
HETATM   20  H8  UNL     1      -2.472   2.596   1.441  1.00  0.00     0.316 HD
HETATM   21  C2  UNL     1      -4.158   0.494   0.663  1.00  0.00     0.146 C 
HETATM   22  N1  UNL     1      -3.926   0.214  -0.705  1.00  0.00    -0.415 N 
HETATM   23  C1  UNL     1      -4.882   0.715  -1.660  1.00  0.00     0.143 C 
HETATM   24  C17 UNL     1      -3.426  -1.010  -1.149  1.00  0.00     0.121 C 
HETATM   25  C16 UNL     1      -2.352  -0.958  -2.255  1.00  0.00     0.058 C 
HETATM   26  C7  UNL     1      -1.033  -0.674  -1.615  1.00  0.00    -0.056 A 
HETATM   27  C8  UNL     1       0.222  -1.241  -1.703  1.00  0.00     0.009 A 
HETATM   28  C9  UNL     1       1.236  -0.862  -0.850  1.00  0.00     0.031 A 
ENDBRANCH  12  14
ENDBRANCH   8  12
ENDBRANCH   1   4
TORSDOF 4
