REMARK  4 active torsions:
REMARK  status: ('A' for Active; 'I' for Inactive)
REMARK    1  A    between atoms: O1_2  and  C2_3 
REMARK    2  A    between atoms: C6_9  and  N3_10 
REMARK    3  A    between atoms: N3_10  and  C7_11 
REMARK    4  A    between atoms: C18_22  and  P1_23 
ROOT
HETATM    1  C2  UNL     1      -4.350   1.091  -0.066  1.00  0.00     0.081 A 
HETATM    2  C3  UNL     1      -3.572   1.968  -0.791  1.00  0.00     0.070 A 
HETATM    3  C4  UNL     1      -2.208   1.790  -0.870  1.00  0.00     0.074 A 
HETATM    4  N1  UNL     1      -1.517   2.698  -1.604  1.00  0.00    -0.241 NA
HETATM    5  C5  UNL     1      -0.182   2.587  -1.724  1.00  0.00     0.236 A 
HETATM    6  N2  UNL     1       0.429   1.571  -1.108  1.00  0.00    -0.224 NA
HETATM    7  C6  UNL     1      -0.168   0.633  -0.368  1.00  0.00     0.142 A 
HETATM    8  C16 UNL     1      -1.532   0.763  -0.256  1.00  0.00     0.040 A 
HETATM    9  C17 UNL     1      -2.353  -0.075   0.449  1.00  0.00     0.032 A 
HETATM   10  C18 UNL     1      -3.718   0.043   0.569  1.00  0.00     0.000 A 
ENDROOT
BRANCH   7  11
HETATM   11  N3  UNL     1       0.471  -0.443   0.285  1.00  0.00    -0.340 N 
HETATM   12  H6  UNL     1      -0.061  -1.146   0.829  1.00  0.00     0.167 HD
BRANCH  11  13
HETATM   13  C7  UNL     1       1.844  -0.767   0.335  1.00  0.00     0.034 A 
HETATM   14  C8  UNL     1       2.366  -1.931   0.886  1.00  0.00     0.030 A 
HETATM   15  C9  UNL     1       3.700  -2.246   0.939  1.00  0.00     0.010 A 
HETATM   16  C10 UNL     1       4.621  -1.372   0.420  1.00  0.00    -0.052 A 
HETATM   17  C11 UNL     1       4.185  -0.188  -0.149  1.00  0.00    -0.050 A 
HETATM   18  C15 UNL     1       6.101  -1.482   0.358  1.00  0.00     0.039 C 
HETATM   19  C12 UNL     1       2.824   0.059  -0.165  1.00  0.00     0.037 A 
HETATM   20  C13 UNL     1       5.377   0.591  -0.643  1.00  0.00     0.039 C 
HETATM   21  C14 UNL     1       6.550  -0.076   0.006  1.00  0.00     0.009 C 
ENDBRANCH  11  13
ENDBRANCH   7  11
BRANCH  10  22
HETATM   22  P1  UNL     1      -4.748  -1.104   1.520  1.00  0.00    -0.096 P 
HETATM   23  C19 UNL     1      -4.720  -2.826   0.834  1.00  0.00     0.046 C 
HETATM   24  H17 UNL     1      -4.347  -1.173   2.914  1.00  0.00     0.062 HD
ENDBRANCH  10  22
BRANCH   1  25
HETATM   25  O1  UNL     1      -5.706   1.297  -0.008  1.00  0.00    -0.355 OA
HETATM   26  C1  UNL     1      -6.322   2.397  -0.681  1.00  0.00     0.210 C 
ENDBRANCH   1  25
TORSDOF 4
