REMARK  2 active torsions:
REMARK  status: ('A' for Active; 'I' for Inactive)
REMARK    1  A    between atoms: O1_2  and  C2_3 
REMARK    2  A    between atoms: C6_7  and  O2_8 
ROOT
HETATM    1  C2  UNL     1      -0.921   1.336  -1.071  1.00  0.00     0.051 C 
HETATM    2  C3  UNL     1       0.147   1.617  -0.284  1.00  0.00     0.010 C 
HETATM    3  C4  UNL     1       0.796   1.221   0.998  1.00  0.00     0.059 C 
HETATM    4  C5  UNL     1       2.187   0.795   0.662  1.00  0.00     0.011 C 
HETATM    5  C6  UNL     1       3.375   0.317   0.409  1.00  0.00     0.066 C 
HETATM    6  C8  UNL     1       3.219  -1.069   0.855  1.00  0.00     0.238 C 
HETATM    7  O3  UNL     1       1.905  -1.344   1.365  1.00  0.00    -0.357 OA
HETATM    8  C9  UNL     1       1.549  -2.665   1.630  1.00  0.00     0.131 C 
HETATM    9  C10 UNL     1       0.388  -3.301   1.663  1.00  0.00    -0.002 C 
HETATM   10  C11 UNL     1      -1.091  -3.219   1.504  1.00  0.00     0.007 C 
HETATM   11  C12 UNL     1      -1.410  -1.909   1.184  1.00  0.00     0.084 C 
HETATM   12  C13 UNL     1      -2.760  -1.303   0.923  1.00  0.00     0.046 C 
HETATM   13  N1  UNL     1      -3.868  -0.885   1.401  1.00  0.00    -0.246 NA
HETATM   14  C14 UNL     1      -4.977  -0.375   0.723  1.00  0.00     0.227 C 
HETATM   15  N2  UNL     1      -5.062  -0.271  -0.588  1.00  0.00    -0.279 NA
HETATM   16  C15 UNL     1      -3.892  -0.757  -1.363  1.00  0.00     0.187 C 
HETATM   17  C16 UNL     1      -2.750  -0.557  -0.394  1.00  0.00    -0.024 C 
HETATM   18  C17 UNL     1      -1.646   0.253  -0.332  1.00  0.00     0.089 C 
ENDROOT
BRANCH   1  19
HETATM   19  O1  UNL     1      -0.887   2.176  -2.229  1.00  0.00    -0.360 OA
HETATM   20  C1  UNL     1      -1.555   3.434  -2.046  1.00  0.00     0.209 C 
ENDBRANCH   1  19
BRANCH   5  21
HETATM   21  O2  UNL     1       4.684   0.373  -0.039  1.00  0.00    -0.358 OA
HETATM   22  C7  UNL     1       5.247   1.641  -0.302  1.00  0.00     0.209 C 
ENDBRANCH   5  21
TORSDOF 2
