REMARK  7 active torsions:
REMARK  status: ('A' for Active; 'I' for Inactive)
REMARK    1  A    between atoms: O1_2  and  C2_3 
REMARK    2  A    between atoms: C5_6  and  C6_7 
REMARK    3  A    between atoms: C6_7  and  C7_8 
REMARK    4  A    between atoms: C7_8  and  C8_9 
REMARK    5  A    between atoms: C12_13  and  C13_14 
REMARK    6  A    between atoms: C13_14  and  C14_15 
REMARK    7  A    between atoms: C14_15  and  O2_16 
ROOT
HETATM    1  C2  UNL     1       3.767   0.246  -0.598  1.00  0.00     0.075 A 
HETATM    2  C3  UNL     1       2.444   0.178  -0.232  1.00  0.00     0.053 A 
HETATM    3  C4  UNL     1       1.525   1.021  -0.820  1.00  0.00     0.020 A 
HETATM    4  C5  UNL     1       0.224   0.855  -0.363  1.00  0.00     0.052 A 
HETATM    5  N1  UNL     1      -0.724   1.663  -0.908  1.00  0.00    -0.245 NA
HETATM    6  C15 UNL     1      -0.343   2.570  -1.853  1.00  0.00     0.234 A 
HETATM    7  N2  UNL     1       0.916   2.731  -2.297  1.00  0.00    -0.241 NA
HETATM    8  C16 UNL     1       1.896   1.946  -1.781  1.00  0.00     0.071 A 
HETATM    9  C17 UNL     1       3.227   2.011  -2.146  1.00  0.00     0.042 A 
HETATM   10  C18 UNL     1       4.159   1.163  -1.555  1.00  0.00    -0.026 A 
HETATM   11  C19 UNL     1       5.534   1.369  -2.064  1.00  0.00     0.051 C 
ENDROOT
BRANCH   4  12
HETATM   12  C6  UNL     1      -0.139  -0.150   0.669  1.00  0.00     0.088 C 
BRANCH  12  13
HETATM   13  C7  UNL     1      -1.579  -0.027   0.994  1.00  0.00    -0.013 C 
BRANCH  13  14
HETATM   14  C8  UNL     1      -2.525  -0.936   0.874  1.00  0.00    -0.048 C 
HETATM   15  C9  UNL     1      -2.391  -2.334   0.377  1.00  0.00     0.040 C 
HETATM   16  C10 UNL     1      -3.545  -3.038   1.078  1.00  0.00     0.010 C 
HETATM   17  C11 UNL     1      -4.638  -2.000   1.220  1.00  0.00     0.048 C 
HETATM   18  C12 UNL     1      -3.896  -0.759   1.208  1.00  0.00    -0.009 C 
BRANCH  18  19
HETATM   19  C13 UNL     1      -4.538   0.333   1.489  1.00  0.00    -0.113 C 
BRANCH  19  20
HETATM   20  C14 UNL     1      -5.012   1.546   1.565  1.00  0.00     0.229 C 
BRANCH  20  21
HETATM   21  O2  UNL     1      -5.454   2.131   0.408  1.00  0.00    -0.380 OA
HETATM   22  H15 UNL     1      -6.445   2.046   0.178  1.00  0.00     0.211 HD
ENDBRANCH  20  21
ENDBRANCH  19  20
ENDBRANCH  18  19
ENDBRANCH  13  14
ENDBRANCH  12  13
ENDBRANCH   4  12
BRANCH   1  23
HETATM   23  O1  UNL     1       4.842  -0.499  -0.136  1.00  0.00    -0.355 OA
HETATM   24  C1  UNL     1       4.585  -1.483   0.850  1.00  0.00     0.210 C 
ENDBRANCH   1  23
TORSDOF 7
