REMARK  7 active torsions:
REMARK  status: ('A' for Active; 'I' for Inactive)
REMARK    1  A    between atoms: C2_2  and  C3_3 
REMARK    2  A    between atoms: C2_2  and  O1_21 
REMARK    3  A    between atoms: C3_3  and  C4_4 
REMARK    4  A    between atoms: C5_5  and  C6_6 
REMARK    5  A    between atoms: C8_8  and  C9_9 
REMARK    6  A    between atoms: O1_21  and  C19_22 
REMARK    7  A    between atoms: C19_22  and  N3_23 
ROOT
HETATM    1  C6  UNL     1       0.923  -0.644   0.108  1.00  0.00     0.060 A 
HETATM    2  C7  UNL     1      -0.304  -0.085   0.356  1.00  0.00     0.064 A 
HETATM    3  C8  UNL     1      -1.443  -0.403  -0.356  1.00  0.00     0.070 A 
HETATM    4  N1  UNL     1      -1.325  -1.315  -1.347  1.00  0.00    -0.241 NA
HETATM    5  C18 UNL     1      -0.115  -1.855  -1.579  1.00  0.00     0.234 A 
HETATM    6  N2  UNL     1       1.009  -1.552  -0.888  1.00  0.00    -0.242 NA
ENDROOT
BRANCH   1   7
HETATM    7  C5  UNL     1       2.109  -0.288   0.876  1.00  0.00     0.028 C 
HETATM    8  C4  UNL     1       3.301  -0.817   0.653  1.00  0.00    -0.018 C 
BRANCH   8   9
HETATM    9  C3  UNL     1       4.490  -0.412   1.478  1.00  0.00     0.090 C 
BRANCH   9  10
HETATM   10  C2  UNL     1       5.461   0.150   0.510  1.00  0.00     0.042 C 
HETATM   11  C1  UNL     1       5.863   1.385   0.627  1.00  0.00     0.046 C 
BRANCH  10  12
HETATM   12  O1  UNL     1       5.985  -0.562  -0.537  1.00  0.00    -0.327 OA
BRANCH  12  13
HETATM   13  C19 UNL     1       7.051  -1.468  -0.213  1.00  0.00     0.441 C 
BRANCH  13  14
HETATM   14  N3  UNL     1       7.489  -2.131  -1.412  1.00  0.00     0.101 N 
HETATM   15  H20 UNL     1       8.509  -2.218  -1.489  1.00  0.00     0.315 HD
HETATM   16  H21 UNL     1       6.977  -3.042  -1.471  1.00  0.00     0.315 HD
ENDBRANCH  13  14
ENDBRANCH  12  13
ENDBRANCH  10  12
ENDBRANCH   9  10
ENDBRANCH   8   9
ENDBRANCH   1   7
BRANCH   3  17
HETATM   17  C9  UNL     1      -2.726   0.219  -0.055  1.00  0.00    -0.007 A 
HETATM   18  C10 UNL     1      -2.967   1.147   0.916  1.00  0.00     0.014 A 
HETATM   19  C11 UNL     1      -4.211   1.698   1.149  1.00  0.00     0.008 A 
HETATM   20  C12 UNL     1      -5.275   1.323   0.395  1.00  0.00    -0.052 A 
HETATM   21  C13 UNL     1      -5.091   0.376  -0.614  1.00  0.00    -0.051 A 
HETATM   22  C17 UNL     1      -6.694   1.793   0.485  1.00  0.00     0.039 C 
HETATM   23  C14 UNL     1      -3.829  -0.147  -0.810  1.00  0.00     0.021 A 
HETATM   24  C15 UNL     1      -6.423   0.163  -1.270  1.00  0.00     0.039 C 
HETATM   25  C16 UNL     1      -7.149   1.472  -0.937  1.00  0.00     0.009 C 
ENDBRANCH   3  17
TORSDOF 7
