REMARK  6 active torsions:
REMARK  status: ('A' for Active; 'I' for Inactive)
REMARK    1  A    between atoms: O1_2  and  C2_3 
REMARK    2  A    between atoms: C2_3  and  C3_4 
REMARK    3  A    between atoms: C3_4  and  C4_5 
REMARK    4  A    between atoms: C10_13  and  O2_14 
REMARK    5  A    between atoms: C13_17  and  O3_18 
REMARK    6  A    between atoms: P1_21  and  O4_23 
ROOT
HETATM    1  C4  UNL     1       2.971   0.259  -0.777  1.00  0.00     0.069 A 
HETATM    2  N1  UNL     1       3.357  -0.345  -1.911  1.00  0.00    -0.241 NA
HETATM    3  C5  UNL     1       2.692  -1.448  -2.371  1.00  0.00     0.234 A 
HETATM    4  N2  UNL     1       1.645  -1.937  -1.689  1.00  0.00    -0.234 NA
HETATM    5  C6  UNL     1       1.197  -1.392  -0.549  1.00  0.00     0.112 A 
HETATM    6  C7  UNL     1       1.889  -0.301  -0.133  1.00  0.00     0.025 A 
HETATM    7  C8  UNL     1       1.705   0.456   0.936  1.00  0.00    -0.004 C 
HETATM    8  C9  UNL     1       0.794   0.517   2.078  1.00  0.00     0.093 C 
HETATM    9  C10 UNL     1      -0.618   0.782   1.695  1.00  0.00     0.058 C 
HETATM   10  C11 UNL     1      -1.566   0.094   1.038  1.00  0.00     0.015 C 
HETATM   11  C12 UNL     1      -2.737   0.962   1.019  1.00  0.00     0.048 C 
HETATM   12  C13 UNL     1      -3.842   0.538   0.428  1.00  0.00     0.052 C 
HETATM   13  C15 UNL     1      -4.134  -0.738  -0.266  1.00  0.00     0.126 C 
HETATM   14  P1  UNL     1      -2.901  -2.002   0.048  1.00  0.00     0.015 P 
HETATM   15  C16 UNL     1      -2.666  -2.984  -1.435  1.00  0.00     0.074 C 
HETATM   16  C17 UNL     1      -1.517  -1.250   0.435  1.00  0.00     0.044 C 
HETATM   17  S1  UNL     1      -0.186  -2.363  -0.017  1.00  0.00    -0.066 SA
ENDROOT
BRANCH   1  18
HETATM   18  C3  UNL     1       3.680   1.336  -0.397  1.00  0.00     0.031 C 
BRANCH  18  19
HETATM   19  C2  UNL     1       4.764   1.616  -1.357  1.00  0.00     0.196 C 
BRANCH  19  20
HETATM   20  O1  UNL     1       5.407   0.413  -1.743  1.00  0.00    -0.392 OA
HETATM   21  C1  UNL     1       5.947  -0.173  -0.603  1.00  0.00     0.201 C 
ENDBRANCH  19  20
ENDBRANCH  18  19
ENDBRANCH   1  18
BRANCH   9  22
HETATM   22  O2  UNL     1      -1.145   2.023   2.078  1.00  0.00    -0.364 OA
HETATM   23  H11 UNL     1      -0.791   2.843   1.592  1.00  0.00     0.217 HD
ENDBRANCH   9  22
BRANCH  14  24
HETATM   24  O4  UNL     1      -3.319  -2.960   1.392  1.00  0.00    -0.374 OA
HETATM   25  H21 UNL     1      -4.189  -2.628   1.781  1.00  0.00     0.214 HD
ENDBRANCH  14  24
BRANCH  12  26
HETATM   26  O3  UNL     1      -4.952   1.365   0.412  1.00  0.00    -0.360 OA
HETATM   27  C14 UNL     1      -5.168   2.454  -0.427  1.00  0.00     0.209 C 
ENDBRANCH  12  26
TORSDOF 6
