REMARK  2 active torsions:
REMARK  status: ('A' for Active; 'I' for Inactive)
REMARK    1  A    between atoms: C8_11  and  O1_12 
REMARK    2  A    between atoms: C10_14  and  O2_15 
ROOT
HETATM    1  C1  UNL     1      -4.619  -2.379  -1.619  1.00  0.00     0.038 C 
HETATM    2  C2  UNL     1      -3.829  -1.119  -1.843  1.00  0.00    -0.004 C 
HETATM    3  C3  UNL     1      -2.746  -0.973  -1.099  1.00  0.00     0.029 C 
HETATM    4  N1  UNL     1      -2.230  -1.847  -0.115  1.00  0.00    -0.343 N 
HETATM    5  C4  UNL     1      -0.938  -1.428   0.312  1.00  0.00     0.137 C 
HETATM    6  N2  UNL     1       0.044  -1.780   1.160  1.00  0.00    -0.224 NA
HETATM    7  C5  UNL     1       1.216  -2.295   0.756  1.00  0.00     0.234 C 
HETATM    8  N3  UNL     1       2.418  -2.063   1.314  1.00  0.00    -0.254 NA
HETATM    9  C6  UNL     1       2.404  -1.267   2.423  1.00  0.00     0.121 C 
HETATM   10  C7  UNL     1       2.669   0.051   2.032  1.00  0.00     0.059 C 
HETATM   11  C8  UNL     1       2.604   0.708   0.798  1.00  0.00     0.102 C 
HETATM   12  C10 UNL     1       1.434   1.143   0.172  1.00  0.00     0.102 C 
HETATM   13  C12 UNL     1       0.507   0.401  -0.516  1.00  0.00     0.052 C 
HETATM   14  C13 UNL     1      -0.666  -0.287  -0.419  1.00  0.00     0.015 C 
HETATM   15  C14 UNL     1      -1.820   0.213  -1.169  1.00  0.00     0.083 C 
HETATM   16  C15 UNL     1      -2.478   1.412  -0.532  1.00  0.00     0.039 C 
HETATM   17  I1  UNL     1      -1.314   0.498  -3.198  1.00  0.00    -0.067 I 
HETATM   18  H5  UNL     1      -2.677  -2.689   0.280  1.00  0.00     0.167 HD
ENDROOT
BRANCH  12  19
HETATM   19  O2  UNL     1       1.546   2.489   0.477  1.00  0.00    -0.353 OA
HETATM   20  C11 UNL     1       0.653   3.495   0.122  1.00  0.00     0.210 C 
ENDBRANCH  12  19
BRANCH  11  21
HETATM   21  O1  UNL     1       3.818   0.944   0.146  1.00  0.00    -0.353 OA
HETATM   22  C9  UNL     1       4.980   0.483   0.822  1.00  0.00     0.210 C 
ENDBRANCH  11  21
TORSDOF 2
