REMARK  8 active torsions:
REMARK  status: ('A' for Active; 'I' for Inactive)
REMARK    1  A    between atoms: C2_3  and  N2_4 
REMARK    2  A    between atoms: C2_3  and  C12_17 
REMARK    3  A    between atoms: N2_4  and  C3_5 
REMARK    4  A    between atoms: C5_7  and  O1_8 
REMARK    5  A    between atoms: C7_10  and  O2_11 
REMARK    6  A    between atoms: C9_13  and  O3_14 
REMARK    7  A    between atoms: C14_19  and  O4_20 
REMARK    8  A    between atoms: C16_22  and  O5_23 
ROOT
HETATM    1  C1  UNL     1       0.203   3.122   0.918  1.00  0.00     0.180 C 
HETATM    2  N1  UNL     1       0.435   1.722   1.006  1.00  0.00    -0.276 NA
HETATM    3  C2  UNL     1      -0.368   0.749   0.813  1.00  0.00     0.150 C 
ENDROOT
BRANCH   3   4
HETATM    4  N2  UNL     1       0.378  -0.474   1.035  1.00  0.00    -0.339 N 
HETATM    5  H4  UNL     1      -0.059  -1.310   1.532  1.00  0.00     0.167 HD
BRANCH   4   6
HETATM    6  C3  UNL     1       1.739  -0.595   0.590  1.00  0.00     0.039 A 
HETATM    7  C4  UNL     1       2.243  -1.319  -0.451  1.00  0.00     0.069 A 
HETATM    8  C5  UNL     1       3.593  -1.274  -0.719  1.00  0.00     0.106 A 
HETATM    9  C7  UNL     1       4.476  -0.518   0.028  1.00  0.00     0.135 A 
HETATM   10  C9  UNL     1       4.040   0.230   1.082  1.00  0.00     0.106 A 
HETATM   11  C11 UNL     1       2.662   0.158   1.323  1.00  0.00     0.069 A 
BRANCH   8  12
HETATM   12  O1  UNL     1       4.143  -1.993  -1.762  1.00  0.00    -0.353 OA
HETATM   13  C6  UNL     1       3.334  -2.803  -2.585  1.00  0.00     0.210 C 
ENDBRANCH   8  12
BRANCH   9  14
HETATM   14  O2  UNL     1       5.841  -0.452  -0.219  1.00  0.00    -0.351 OA
HETATM   15  C8  UNL     1       6.369   0.556  -1.096  1.00  0.00     0.210 C 
ENDBRANCH   9  14
BRANCH  10  16
HETATM   16  O3  UNL     1       4.794   1.048   1.937  1.00  0.00    -0.353 OA
HETATM   17  C10 UNL     1       4.241   1.753   2.997  1.00  0.00     0.210 C 
ENDBRANCH  10  16
ENDBRANCH   4   6
ENDBRANCH   3   4
BRANCH   3  18
HETATM   18  C12 UNL     1      -1.771   0.665   0.462  1.00  0.00     0.087 C 
HETATM   19  C13 UNL     1      -2.346  -0.508   0.312  1.00  0.00     0.073 C 
HETATM   20  C14 UNL     1      -3.705  -0.879  -0.029  1.00  0.00     0.100 C 
HETATM   21  C16 UNL     1      -4.640  -0.064  -0.430  1.00  0.00     0.084 C 
HETATM   22  C18 UNL     1      -4.830   1.368  -0.709  1.00  0.00     0.126 C 
HETATM   23  C19 UNL     1      -3.739   2.221  -0.186  1.00  0.00     0.038 A 
HETATM   24  C20 UNL     1      -2.980   3.228   0.217  1.00  0.00     0.123 A 
HETATM   25  N3  UNL     1      -2.445   1.905   0.307  1.00  0.00    -0.319 N 
BRANCH  20  26
HETATM   26  O4  UNL     1      -4.020  -2.222   0.088  1.00  0.00    -0.353 OA
HETATM   27  C15 UNL     1      -3.656  -3.152  -0.891  1.00  0.00     0.210 C 
ENDBRANCH  20  26
BRANCH  21  28
HETATM   28  O5  UNL     1      -5.847  -0.699  -0.685  1.00  0.00    -0.357 OA
HETATM   29  C17 UNL     1      -6.741  -1.138   0.297  1.00  0.00     0.209 C 
ENDBRANCH  21  28
ENDBRANCH   3  18
TORSDOF 8
