REMARK  4 active torsions:
REMARK  status: ('A' for Active; 'I' for Inactive)
REMARK    1  A    between atoms: O1_2  and  C2_3 
REMARK    2  A    between atoms: C6_9  and  N3_10 
REMARK    3  A    between atoms: N3_10  and  C7_11 
REMARK    4  A    between atoms: C18_22  and  O2_23 
ROOT
HETATM    1  C2  UNL     1      -4.621   0.371  -0.146  1.00  0.00     0.103 A 
HETATM    2  C3  UNL     1      -4.336  -0.948  -0.431  1.00  0.00     0.072 A 
HETATM    3  C4  UNL     1      -3.052  -1.384  -0.467  1.00  0.00     0.075 A 
HETATM    4  N1  UNL     1      -2.865  -2.688  -0.754  1.00  0.00    -0.241 NA
HETATM    5  C5  UNL     1      -1.616  -3.218  -0.814  1.00  0.00     0.236 A 
HETATM    6  N2  UNL     1      -0.588  -2.399  -0.578  1.00  0.00    -0.224 NA
HETATM    7  C6  UNL     1      -0.667  -1.099  -0.286  1.00  0.00     0.142 A 
HETATM    8  C16 UNL     1      -1.941  -0.590  -0.232  1.00  0.00     0.042 A 
HETATM    9  C17 UNL     1      -2.263   0.706   0.046  1.00  0.00     0.057 A 
HETATM   10  C18 UNL     1      -3.549   1.204   0.095  1.00  0.00     0.102 A 
ENDROOT
BRANCH   7  11
HETATM   11  N3  UNL     1       0.423  -0.240  -0.039  1.00  0.00    -0.340 N 
HETATM   12  H6  UNL     1       0.287   0.752   0.205  1.00  0.00     0.167 HD
BRANCH  11  13
HETATM   13  C7  UNL     1       1.803  -0.540  -0.075  1.00  0.00     0.034 A 
HETATM   14  C8  UNL     1       2.280  -1.745  -0.540  1.00  0.00     0.030 A 
HETATM   15  C9  UNL     1       3.625  -2.073  -0.581  1.00  0.00     0.010 A 
HETATM   16  C10 UNL     1       4.583  -1.170  -0.141  1.00  0.00    -0.051 A 
HETATM   17  C11 UNL     1       4.146   0.022   0.322  1.00  0.00    -0.046 A 
HETATM   18  C15 UNL     1       5.977  -0.833   0.096  1.00  0.00     0.048 A 
HETATM   19  C12 UNL     1       2.805   0.309   0.347  1.00  0.00     0.037 A 
HETATM   20  C13 UNL     1       5.493   0.484   0.606  1.00  0.00     0.019 A 
HETATM   21  C14 UNL     1       5.984   1.646  -0.242  1.00  0.00     0.015 C 
ENDBRANCH  11  13
ENDBRANCH   7  11
BRANCH  10  22
HETATM   22  O2  UNL     1      -3.790   2.543   0.387  1.00  0.00    -0.353 OA
HETATM   23  C19 UNL     1      -2.763   3.467   0.646  1.00  0.00     0.210 C 
ENDBRANCH  10  22
BRANCH   1  24
HETATM   24  O1  UNL     1      -5.890   0.911  -0.086  1.00  0.00    -0.353 OA
HETATM   25  C1  UNL     1      -7.020   0.112  -0.323  1.00  0.00     0.210 C 
ENDBRANCH   1  24
TORSDOF 4
