REMARK  9 active torsions:
REMARK  status: ('A' for Active; 'I' for Inactive)
REMARK    1  A    between atoms: C2_2  and  O1_3 
REMARK    2  A    between atoms: O1_3  and  C3_4 
REMARK    3  A    between atoms: C6_7  and  N1_8 
REMARK    4  A    between atoms: N1_8  and  C7_9 
REMARK    5  A    between atoms: C9_11  and  O2_12 
REMARK    6  A    between atoms: C11_14  and  O3_15 
REMARK    7  A    between atoms: C13_17  and  O4_18 
REMARK    8  A    between atoms: C17_24  and  O5_25 
REMARK    9  A    between atoms: C19_27  and  O6_28 
ROOT
HETATM    1  C3  UNL     1      -3.234  -0.749  -0.227  1.00  0.00     0.105 A 
HETATM    2  C4  UNL     1      -1.857  -0.697  -0.084  1.00  0.00     0.057 A 
HETATM    3  C5  UNL     1      -1.247   0.531  -0.214  1.00  0.00     0.044 A 
HETATM    4  C6  UNL     1       0.112   0.540  -0.066  1.00  0.00     0.142 A 
HETATM    5  N2  UNL     1       0.749   1.721  -0.187  1.00  0.00    -0.224 NA
HETATM    6  C15 UNL     1       0.123   2.872  -0.441  1.00  0.00     0.236 A 
HETATM    7  N3  UNL     1      -1.217   2.864  -0.587  1.00  0.00    -0.238 NA
HETATM    8  C16 UNL     1      -1.899   1.708  -0.476  1.00  0.00     0.108 A 
HETATM    9  C17 UNL     1      -3.268   1.617  -0.612  1.00  0.00     0.134 A 
HETATM   10  C19 UNL     1      -3.957   0.417  -0.494  1.00  0.00     0.137 A 
ENDROOT
BRANCH   4  11
HETATM   11  N1  UNL     1       0.966  -0.566   0.205  1.00  0.00    -0.341 N 
HETATM   12  H7  UNL     1       0.720  -1.571   0.340  1.00  0.00     0.167 HD
BRANCH  11  13
HETATM   13  C7  UNL     1       2.388  -0.493   0.350  1.00  0.00     0.049 A 
HETATM   14  C8  UNL     1       2.824   0.523   1.105  1.00  0.00     0.067 A 
HETATM   15  C9  UNL     1       4.281   0.466   1.159  1.00  0.00     0.102 A 
HETATM   16  C11 UNL     1       4.683  -0.589   0.429  1.00  0.00     0.114 A 
HETATM   17  C13 UNL     1       3.511  -1.297  -0.154  1.00  0.00     0.230 A 
BRANCH  15  18
HETATM   18  O2  UNL     1       5.205   1.299   1.815  1.00  0.00    -0.353 OA
HETATM   19  C10 UNL     1       5.052   2.718   1.719  1.00  0.00     0.210 C 
ENDBRANCH  15  18
BRANCH  16  20
HETATM   20  O3  UNL     1       5.996  -0.990   0.227  1.00  0.00    -0.354 OA
HETATM   21  C12 UNL     1       6.836  -0.061  -0.463  1.00  0.00     0.209 C 
ENDBRANCH  16  20
BRANCH  17  22
HETATM   22  O4  UNL     1       3.566  -1.336  -1.541  1.00  0.00    -0.378 OA
HETATM   23  C14 UNL     1       3.598  -2.680  -1.903  1.00  0.00     0.203 C 
ENDBRANCH  17  22
ENDBRANCH  11  13
ENDBRANCH   4  11
BRANCH   1  24
HETATM   24  O1  UNL     1      -3.965  -1.901  -0.122  1.00  0.00    -0.349 OA
BRANCH  24  25
HETATM   25  C2  UNL     1      -3.489  -3.185   0.137  1.00  0.00     0.171 C 
HETATM   26  C1  UNL     1      -4.651  -4.175   0.168  1.00  0.00     0.034 C 
ENDBRANCH  24  25
ENDBRANCH   1  24
BRANCH   9  27
HETATM   27  O5  UNL     1      -3.973   2.793  -0.878  1.00  0.00    -0.351 OA
HETATM   28  C18 UNL     1      -4.487   3.625   0.128  1.00  0.00     0.210 C 
ENDBRANCH   9  27
BRANCH  10  29
HETATM   29  O6  UNL     1      -5.335   0.447  -0.651  1.00  0.00    -0.351 OA
HETATM   30  C20 UNL     1      -6.190   0.650   0.433  1.00  0.00     0.210 C 
ENDBRANCH  10  29
TORSDOF 9
