REMARK  5 active torsions:
REMARK  status: ('A' for Active; 'I' for Inactive)
REMARK    1  A    between atoms: O1_2  and  C2_3 
REMARK    2  A    between atoms: C2_3  and  C3_4 
REMARK    3  A    between atoms: C9_13  and  O2_14 
REMARK    4  A    between atoms: C11_16  and  O3_17 
REMARK    5  A    between atoms: C13_19  and  O4_20 
ROOT
HETATM    1  C3  UNL     1      -1.505  -2.227  -1.139  1.00  0.00     0.171 C 
HETATM    2  C4  UNL     1      -1.394  -0.781  -0.826  1.00  0.00     0.020 C 
HETATM    3  C5  UNL     1      -1.810   0.328  -0.282  1.00  0.00     0.006 A 
HETATM    4  C6  UNL     1      -3.056   0.005   0.380  1.00  0.00     0.192 A 
HETATM    5  N1  UNL     1      -3.702   1.046   1.133  1.00  0.00    -0.278 NA
HETATM    6  C7  UNL     1      -3.351   2.241   1.303  1.00  0.00     0.229 A 
HETATM    7  N2  UNL     1      -2.153   2.466   0.622  1.00  0.00    -0.224 NA
HETATM    8  C8  UNL     1      -1.450   1.673  -0.077  1.00  0.00     0.138 A 
HETATM    9  N3  UNL     1      -0.486   2.708  -0.332  1.00  0.00    -0.321 N 
HETATM   10  C9  UNL     1       0.480   3.675  -0.369  1.00  0.00     0.144 C 
HETATM   11  C10 UNL     1       1.532   3.057  -0.016  1.00  0.00     0.095 C 
HETATM   12  C11 UNL     1       2.815   2.475   0.375  1.00  0.00     0.105 C 
HETATM   13  C13 UNL     1       2.937   1.244   0.687  1.00  0.00     0.098 C 
HETATM   14  C15 UNL     1       1.701   0.479   0.728  1.00  0.00     0.044 C 
HETATM   15  C16 UNL     1       1.690  -0.903   0.967  1.00  0.00     0.026 C 
HETATM   16  C17 UNL     1       0.636  -1.993   1.095  1.00  0.00     0.175 C 
HETATM   17  O5  UNL     1       0.809  -2.894   0.065  1.00  0.00    -0.367 OA
HETATM   18  C18 UNL     1      -0.300  -3.748   0.117  1.00  0.00     0.338 C 
HETATM   19  O6  UNL     1      -1.409  -2.980   0.019  1.00  0.00    -0.356 OA
HETATM   20  H11 UNL     1      -0.708   2.713  -1.386  1.00  0.00     0.169 HD
ENDROOT
BRANCH   1  21
HETATM   21  C2  UNL     1      -2.820  -2.591  -1.775  1.00  0.00     0.203 C 
BRANCH  21  22
HETATM   22  O1  UNL     1      -2.785  -3.959  -2.099  1.00  0.00    -0.393 OA
HETATM   23  C1  UNL     1      -3.970  -4.365  -2.711  1.00  0.00     0.201 C 
ENDBRANCH  21  22
ENDBRANCH   1  21
BRANCH  10  24
HETATM   24  O2  UNL     1       0.194   4.979  -0.728  1.00  0.00    -0.346 OA
HETATM   25  H12 UNL     1      -0.624   5.135  -1.302  1.00  0.00     0.219 HD
ENDBRANCH  10  24
BRANCH  12  26
HETATM   26  O3  UNL     1       4.140   2.844   0.548  1.00  0.00    -0.353 OA
HETATM   27  C12 UNL     1       4.604   4.085   0.964  1.00  0.00     0.210 C 
ENDBRANCH  12  26
BRANCH  13  28
HETATM   28  O4  UNL     1       3.899   0.350   1.058  1.00  0.00    -0.353 OA
HETATM   29  C14 UNL     1       4.288   0.299   2.460  1.00  0.00     0.210 C 
ENDBRANCH  13  28
TORSDOF 5
