REMARK  7 active torsions:
REMARK  status: ('A' for Active; 'I' for Inactive)
REMARK    1  A    between atoms: C2_2  and  C3_3 
REMARK       I    between atoms: C3_3  and  N1_5 
REMARK    2  A    between atoms: N1_5  and  C4_6 
REMARK    3  A    between atoms: C8_10  and  O2_11 
REMARK    4  A    between atoms: O2_11  and  C9_12 
REMARK    5  A    between atoms: C10_14  and  N3_15 
REMARK    6  A    between atoms: N3_15  and  C11_16 
REMARK    7  A    between atoms: C12_17  and  C13_18 
ROOT
HETATM    1  C9  UNL     1       1.143   0.796  -0.458  1.00  0.00     0.212 A 
HETATM    2  N2  UNL     1       2.443   0.382  -0.458  1.00  0.00    -0.036 NA
HETATM    3  C10 UNL     1       3.370   1.036   0.294  1.00  0.00     0.728 A 
HETATM    4  N4  UNL     1       3.002   2.098   1.042  1.00  0.00    -0.073 NA
HETATM    5  C14 UNL     1       1.735   2.544   1.076  1.00  0.00     0.164 A 
HETATM    6  C15 UNL     1       0.795   1.884   0.317  1.00  0.00     0.105 A 
HETATM    7 CL1  UNL     1      -0.890   2.347   0.258  1.00  0.00    -0.078 Cl
ENDROOT
BRANCH   1   8
HETATM    8  O2  UNL     1       0.324   0.035  -1.267  1.00  0.00    -0.290 OA
BRANCH   8   9
HETATM    9  C8  UNL     1      -1.019   0.280  -1.411  1.00  0.00     0.080 A 
HETATM   10  C7  UNL     1      -1.433   1.133  -2.407  1.00  0.00     0.037 A 
HETATM   11  C6  UNL     1      -2.773   1.364  -2.534  1.00  0.00     0.005 A 
HETATM   12  C5  UNL     1      -3.668   0.772  -1.706  1.00  0.00     0.029 A 
HETATM   13  C4  UNL     1      -3.319  -0.090  -0.691  1.00  0.00     0.037 A 
HETATM   14  C16 UNL     1      -1.961  -0.291  -0.603  1.00  0.00     0.066 A 
BRANCH  13  15
HETATM   15  N1  UNL     1      -4.312  -0.669   0.132  1.00  0.00    -0.324 N 
HETATM   16  C3  UNL     1      -4.215  -1.559   1.209  1.00  0.00     0.244 C 
HETATM   17  O1  UNL     1      -3.068  -1.942   1.544  1.00  0.00    -0.268 OA
HETATM   18  H4  UNL     1      -5.313  -0.405  -0.074  1.00  0.00     0.169 HD
BRANCH  16  19
HETATM   19  C2  UNL     1      -5.365  -2.056   1.952  1.00  0.00     0.064 C 
HETATM   20  C1  UNL     1      -6.640  -1.766   1.745  1.00  0.00     0.017 C 
ENDBRANCH  16  19
ENDBRANCH  13  15
ENDBRANCH   8   9
ENDBRANCH   1   8
BRANCH   3  21
HETATM   21  N3  UNL     1       4.727   0.578   0.271  1.00  0.00    -0.198 N 
HETATM   22  H8  UNL     1       5.420   1.081   0.846  1.00  0.00     0.183 HD
BRANCH  21  23
HETATM   23  C11 UNL     1       4.985  -0.544  -0.554  1.00  0.00     0.104 C 
HETATM   24  C12 UNL     1       5.957  -1.395  -0.275  1.00  0.00     0.021 C 
BRANCH  24  25
HETATM   25  C13 UNL     1       6.881  -1.317   0.882  1.00  0.00     0.251 C 
HETATM   26  F1  UNL     1       8.199  -1.217   0.463  1.00  0.00    -0.251 F 
ENDBRANCH  24  25
ENDBRANCH  21  23
ENDBRANCH   3  21
TORSDOF 7
