REMARK  6 active torsions:
REMARK  status: ('A' for Active; 'I' for Inactive)
REMARK    1  A    between atoms: C2_2  and  O1_3 
REMARK    2  A    between atoms: O1_3  and  C3_4 
REMARK    3  A    between atoms: C3_4  and  C4_5 
REMARK    4  A    between atoms: C4_5  and  O2_6 
REMARK    5  A    between atoms: O2_6  and  C5_7 
REMARK    6  A    between atoms: C14_20  and  O5_21 
ROOT
HETATM    1  C5  UNL     1       2.688  -0.458  -0.126  1.00  0.00     0.215 A 
HETATM    2  O3  UNL     1       2.777   0.236   0.995  1.00  0.00    -0.298 OA
HETATM    3  C6  UNL     1       1.665   0.911   1.135  1.00  0.00     0.158 A 
HETATM    4  C7  UNL     1       0.815   0.641   0.051  1.00  0.00     0.020 A 
HETATM    5  C8  UNL     1       1.481  -0.242  -0.756  1.00  0.00     0.128 A 
HETATM    6  N1  UNL     1       1.302  -0.939  -1.962  1.00  0.00    -0.236 NA
HETATM    7  C9  UNL     1       0.328  -1.649  -2.337  1.00  0.00     0.235 C 
HETATM    8  N2  UNL     1      -0.683  -1.707  -1.366  1.00  0.00    -0.230 NA
HETATM    9  C10 UNL     1      -0.587  -2.178  -0.178  1.00  0.00     0.252 C 
HETATM   10  O4  UNL     1      -1.613  -2.235   0.809  1.00  0.00    -0.341 OA
HETATM   11  C11 UNL     1      -2.959  -2.110   0.305  1.00  0.00     0.204 C 
HETATM   12  C12 UNL     1      -3.946  -1.787   1.338  1.00  0.00     0.002 C 
HETATM   13  C13 UNL     1      -4.784  -0.775   1.514  1.00  0.00     0.034 C 
HETATM   14  C14 UNL     1      -5.224   0.480   0.927  1.00  0.00     0.065 C 
HETATM   15  C16 UNL     1      -4.912   1.217  -0.161  1.00  0.00     0.029 C 
HETATM   16  C17 UNL     1      -4.112   1.461  -1.419  1.00  0.00     0.144 C 
HETATM   17  N3  UNL     1      -3.423   2.700  -1.380  1.00  0.00    -0.415 N 
HETATM   18  C18 UNL     1      -2.394   2.911  -0.464  1.00  0.00     0.141 C 
HETATM   19  C19 UNL     1      -1.131   2.194  -0.595  1.00  0.00    -0.007 C 
HETATM   20  C20 UNL     1      -0.422   1.362   0.135  1.00  0.00     0.013 C 
HETATM   21  H23 UNL     1      -3.528   3.292  -2.198  1.00  0.00     0.153 HD
ENDROOT
BRANCH   1  22
HETATM   22  O2  UNL     1       3.810  -1.236  -0.409  1.00  0.00    -0.326 OA
BRANCH  22  23
HETATM   23  C4  UNL     1       4.959  -1.283   0.391  1.00  0.00     0.204 C 
BRANCH  23  24
HETATM   24  C3  UNL     1       5.663   0.050   0.511  1.00  0.00     0.194 C 
BRANCH  24  25
HETATM   25  O1  UNL     1       6.802   0.010   1.307  1.00  0.00    -0.389 OA
BRANCH  25  26
HETATM   26  C2  UNL     1       7.764  -0.864   0.869  1.00  0.00     0.163 C 
HETATM   27  C1  UNL     1       8.189  -0.446  -0.539  1.00  0.00     0.033 C 
ENDBRANCH  25  26
ENDBRANCH  24  25
ENDBRANCH  23  24
ENDBRANCH  22  23
ENDBRANCH   1  22
BRANCH  14  28
HETATM   28  O5  UNL     1      -6.245   1.098   1.690  1.00  0.00    -0.356 OA
HETATM   29  C15 UNL     1      -7.595   0.688   1.585  1.00  0.00     0.210 C 
ENDBRANCH  14  28
TORSDOF 6
