REMARK  10 active torsions:
REMARK  status: ('A' for Active; 'I' for Inactive)
REMARK    1  A    between atoms: O1_2  and  C2_3 
REMARK    2  A    between atoms: C4_6  and  C5_7 
REMARK    3  A    between atoms: C5_7  and  C6_8 
REMARK    4  A    between atoms: C5_7  and  O6_28 
REMARK    5  A    between atoms: C6_8  and  C7_9 
REMARK    6  A    between atoms: C10_14  and  N2_15 
REMARK    7  A    between atoms: N2_15  and  C11_16 
REMARK    8  A    between atoms: C13_18  and  O3_19 
REMARK    9  A    between atoms: C15_21  and  O4_22 
REMARK   10  A    between atoms: C17_24  and  O5_25 
ROOT
HETATM    1  C7  UNL     1       1.579   0.119  -1.094  1.00  0.00    -0.006 C 
HETATM    2  C8  UNL     1       2.293   1.202  -1.827  1.00  0.00     0.075 C 
HETATM    3  P1  UNL     1       2.236   0.651  -3.615  1.00  0.00    -0.104 P 
HETATM    4  C9  UNL     1       0.470   0.178  -3.914  1.00  0.00     0.182 C 
HETATM    5  N1  UNL     1      -0.188  -0.273  -2.734  1.00  0.00    -0.268 NA
HETATM    6  C10 UNL     1       0.271  -0.302  -1.547  1.00  0.00     0.130 C 
HETATM    7  H8  UNL     1       2.541   1.776  -4.493  1.00  0.00     0.059 HD
ENDROOT
BRANCH   6   8
HETATM    8  N2  UNL     1      -0.692  -0.837  -0.613  1.00  0.00    -0.341 N 
HETATM    9  H11 UNL     1      -0.331  -1.582   0.061  1.00  0.00     0.167 HD
BRANCH   8  10
HETATM   10  C11 UNL     1      -2.070  -0.438  -0.520  1.00  0.00     0.039 A 
HETATM   11  C12 UNL     1      -2.587   0.577  -1.292  1.00  0.00     0.069 A 
HETATM   12  C13 UNL     1      -3.925   0.923  -1.149  1.00  0.00     0.106 A 
HETATM   13  C15 UNL     1      -4.742   0.256  -0.238  1.00  0.00     0.135 A 
HETATM   14  C17 UNL     1      -4.189  -0.770   0.530  1.00  0.00     0.106 A 
HETATM   15  C19 UNL     1      -2.879  -1.090   0.373  1.00  0.00     0.069 A 
BRANCH  12  16
HETATM   16  O3  UNL     1      -4.528   1.933  -1.886  1.00  0.00    -0.353 OA
HETATM   17  C14 UNL     1      -3.701   2.619  -2.819  1.00  0.00     0.210 C 
ENDBRANCH  12  16
BRANCH  13  18
HETATM   18  O4  UNL     1      -6.082   0.609  -0.101  1.00  0.00    -0.351 OA
HETATM   19  C16 UNL     1      -6.387   1.605   0.856  1.00  0.00     0.210 C 
ENDBRANCH  13  18
BRANCH  14  20
HETATM   20  O5  UNL     1      -5.061  -1.390   1.411  1.00  0.00    -0.353 OA
HETATM   21  C18 UNL     1      -4.611  -2.453   2.249  1.00  0.00     0.210 C 
ENDBRANCH  14  20
ENDBRANCH   8  10
ENDBRANCH   6   8
BRANCH   1  22
HETATM   22  C6  UNL     1       2.050  -0.493  -0.064  1.00  0.00     0.051 C 
BRANCH  22  23
HETATM   23  C5  UNL     1       3.278  -0.409   0.702  1.00  0.00     0.105 C 
BRANCH  23  24
HETATM   24  C4  UNL     1       3.810  -0.891   1.768  1.00  0.00     0.143 A 
HETATM   25  C2  UNL     1       4.624  -1.258   2.874  1.00  0.00     0.127 A 
HETATM   26  C3  UNL     1       3.776  -2.065   3.408  1.00  0.00     0.182 A 
HETATM   27  O2  UNL     1       2.916  -1.777   2.377  1.00  0.00    -0.314 OA
BRANCH  25  28
HETATM   28  O1  UNL     1       5.855  -0.657   2.913  1.00  0.00    -0.351 OA
HETATM   29  C1  UNL     1       6.398  -0.250   4.139  1.00  0.00     0.210 C 
ENDBRANCH  25  28
ENDBRANCH  23  24
BRANCH  23  30
HETATM   30  O6  UNL     1       4.321   0.411   0.286  1.00  0.00    -0.353 OA
HETATM   31  C20 UNL     1       5.427  -0.109  -0.462  1.00  0.00     0.210 C 
ENDBRANCH  23  30
ENDBRANCH  22  23
ENDBRANCH   1  22
TORSDOF 10
