REMARK  6 active torsions:
REMARK  status: ('A' for Active; 'I' for Inactive)
REMARK    1  A    between atoms: C2_2  and  C3_3 
REMARK       I    between atoms: C3_3  and  N1_5 
REMARK    2  A    between atoms: N1_5  and  C4_6 
REMARK    3  A    between atoms: C9_14  and  C10_15 
REMARK    4  A    between atoms: N4_17  and  C11_18 
REMARK    5  A    between atoms: C14_21  and  N5_22 
REMARK    6  A    between atoms: C21_30  and  O3_31 
ROOT
HETATM    1  C4  UNL     1      -3.425   0.628   0.953  1.00  0.00     0.219 C 
HETATM    2  C5  UNL     1      -4.432   1.615   1.346  1.00  0.00     0.044 C 
HETATM    3  C6  UNL     1      -4.907   2.895   1.386  1.00  0.00     0.142 C 
HETATM    4  O2  UNL     1      -4.264   3.994   0.725  1.00  0.00    -0.322 OA
HETATM    5  C7  UNL     1      -2.949   4.369   0.655  1.00  0.00     0.112 A 
HETATM    6  N2  UNL     1      -1.942   3.580   0.667  1.00  0.00     0.000 N 
HETATM    7  C8  UNL     1      -1.755   2.376   0.735  1.00  0.00     0.143 A 
HETATM    8  N3  UNL     1      -0.623   3.073   0.649  1.00  0.00    -0.182 NA
HETATM    9  C9  UNL     1      -0.620   4.436   0.566  1.00  0.00     0.137 A 
HETATM   10  C10 UNL     1      -1.854   5.142   0.568  1.00  0.00     0.137 A 
HETATM   11 CL1  UNL     1      -2.962   6.533   0.535  1.00  0.00    -0.107 Cl
HETATM   12  N4  UNL     1      -2.070   1.070   0.838  1.00  0.00    -0.306 N 
ENDROOT
BRANCH  12  13
HETATM   13  C11 UNL     1      -0.744   0.587   0.777  1.00  0.00     0.071 A 
HETATM   14  C12 UNL     1       0.185   0.705   1.757  1.00  0.00     0.035 A 
HETATM   15  C13 UNL     1       1.424   0.144   1.565  1.00  0.00     0.032 A 
HETATM   16  C14 UNL     1       1.681  -0.514   0.395  1.00  0.00     0.033 A 
HETATM   17  C20 UNL     1       0.758  -0.640  -0.598  1.00  0.00     0.068 A 
HETATM   18  C21 UNL     1      -0.512  -0.081  -0.432  1.00  0.00     0.097 A 
BRANCH  16  19
HETATM   19  N5  UNL     1       3.002  -1.072   0.281  1.00  0.00    -0.377 N 
HETATM   20  C15 UNL     1       3.932  -0.946   1.387  1.00  0.00     0.153 C 
HETATM   21  C16 UNL     1       5.072  -1.908   1.244  1.00  0.00     0.291 C 
HETATM   22  N6  UNL     1       5.626  -1.763  -0.087  1.00  0.00     0.087 N 
HETATM   23  C17 UNL     1       6.126  -0.426  -0.323  1.00  0.00     0.310 C 
HETATM   24  C18 UNL     1       4.713  -2.236  -1.075  1.00  0.00     0.291 C 
HETATM   25  C19 UNL     1       3.315  -1.737  -0.971  1.00  0.00     0.153 C 
ENDBRANCH  16  19
BRANCH  18  26
HETATM   26  O3  UNL     1      -1.332  -0.284  -1.506  1.00  0.00    -0.354 OA
HETATM   27  C22 UNL     1      -1.048  -0.958  -2.689  1.00  0.00     0.210 C 
ENDBRANCH  18  26
ENDBRANCH  12  13
BRANCH   1  28
HETATM   28  N1  UNL     1      -3.817  -0.078  -0.232  1.00  0.00    -0.333 N 
HETATM   29  C3  UNL     1      -4.061  -1.480  -0.219  1.00  0.00     0.239 C 
HETATM   30  O1  UNL     1      -3.976  -2.259   0.762  1.00  0.00    -0.269 OA
HETATM   31  H4  UNL     1      -3.937   0.429  -1.137  1.00  0.00     0.165 HD
BRANCH  29  32
HETATM   32  C2  UNL     1      -4.458  -2.182  -1.434  1.00  0.00     0.047 C 
HETATM   33  C1  UNL     1      -4.523  -3.339  -0.819  1.00  0.00     0.037 C 
ENDBRANCH  29  32
ENDBRANCH   1  28
TORSDOF 6
