REMARK  4 active torsions:
REMARK  status: ('A' for Active; 'I' for Inactive)
REMARK    1  A    between atoms: C3_3  and  C4_4 
REMARK    2  A    between atoms: C11_14  and  O1_15 
REMARK    3  A    between atoms: C13_17  and  O2_18 
REMARK    4  A    between atoms: C15_20  and  O3_21 
ROOT
HETATM    1  C1  UNL     1      -1.543   1.292   0.750  1.00  0.00     0.022 C 
HETATM    2  C2  UNL     1      -1.671   0.104   0.218  1.00  0.00    -0.028 C 
HETATM    3  C3  UNL     1      -2.976  -0.536   0.233  1.00  0.00    -0.033 C 
HETATM    4  C6  UNL     1      -3.221  -1.715  -0.265  1.00  0.00     0.125 C 
HETATM    5  N1  UNL     1      -3.330  -2.980  -0.838  1.00  0.00    -0.254 NA
HETATM    6  C7  UNL     1      -2.889  -3.308  -2.007  1.00  0.00     0.233 C 
HETATM    7  N2  UNL     1      -2.222  -2.325  -2.831  1.00  0.00    -0.237 NA
HETATM    8  C8  UNL     1      -1.239  -1.623  -2.317  1.00  0.00     0.205 C 
HETATM    9  N3  UNL     1      -0.586  -1.554  -1.057  1.00  0.00    -0.367 N 
HETATM   10  C9  UNL     1      -0.373  -0.368  -0.319  1.00  0.00     0.084 A 
HETATM   11  C10 UNL     1       0.203   0.740  -1.128  1.00  0.00     0.049 A 
HETATM   12  C11 UNL     1       1.347   1.410  -0.989  1.00  0.00     0.103 A 
HETATM   13  C13 UNL     1       2.198   1.019   0.129  1.00  0.00     0.130 A 
HETATM   14  C15 UNL     1       1.772   0.040   0.909  1.00  0.00     0.085 A 
HETATM   15  C17 UNL     1       0.542  -0.752   0.841  1.00  0.00     0.108 A 
HETATM   16  H11 UNL     1      -0.411  -2.574  -1.015  1.00  0.00     0.161 HD
ENDROOT
BRANCH   3  17
HETATM   17  C4  UNL     1      -4.090   0.236   0.871  1.00  0.00     0.036 C 
HETATM   18  C5  UNL     1      -3.719   0.493   2.304  1.00  0.00     0.010 C 
ENDBRANCH   3  17
BRANCH  12  19
HETATM   19  O1  UNL     1       1.588   2.397  -1.925  1.00  0.00    -0.353 OA
HETATM   20  C12 UNL     1       2.828   3.077  -1.848  1.00  0.00     0.210 C 
ENDBRANCH  12  19
BRANCH  14  21
HETATM   21  O3  UNL     1       2.607  -0.307   1.964  1.00  0.00    -0.357 OA
HETATM   22  C16 UNL     1       3.292  -1.540   1.848  1.00  0.00     0.209 C 
ENDBRANCH  14  21
BRANCH  13  23
HETATM   23  O2  UNL     1       3.372   1.705   0.273  1.00  0.00    -0.351 OA
HETATM   24  C14 UNL     1       4.568   1.275   0.831  1.00  0.00     0.210 C 
ENDBRANCH  13  23
TORSDOF 4
