REMARK  12 active torsions:
REMARK  status: ('A' for Active; 'I' for Inactive)
REMARK    1  A    between atoms: C2_2  and  O1_3 
REMARK    2  A    between atoms: O1_3  and  C3_4 
REMARK    3  A    between atoms: C4_5  and  C5_6 
REMARK    4  A    between atoms: C4_5  and  C6_8 
REMARK    5  A    between atoms: C5_6  and  O2_7 
REMARK    6  A    between atoms: C6_8  and  N1_9 
REMARK    7  A    between atoms: C9_12  and  O3_13 
REMARK    8  A    between atoms: C11_17  and  N4_18 
REMARK    9  A    between atoms: N4_18  and  C12_19 
REMARK   10  A    between atoms: C14_21  and  O4_22 
REMARK   11  A    between atoms: C16_24  and  O5_25 
REMARK   12  A    between atoms: C18_27  and  O6_28 
ROOT
HETATM    1  N1  UNL     1      -1.745  -1.278   0.487  1.00  0.00    -0.279 NA
HETATM    2  C7  UNL     1      -0.761  -1.802   1.026  1.00  0.00     0.128 A 
HETATM    3  C8  UNL     1      -1.088  -2.640   2.210  1.00  0.00     0.112 A 
HETATM    4  C9  UNL     1      -2.331  -2.788   2.615  1.00  0.00     0.165 C 
HETATM    5  N2  UNL     1      -0.087  -3.316   2.957  1.00  0.00    -0.238 NA
HETATM    6  C10 UNL     1       1.144  -3.197   2.595  1.00  0.00     0.236 A 
HETATM    7  N3  UNL     1       1.556  -2.409   1.462  1.00  0.00    -0.222 NA
HETATM    8  C11 UNL     1       0.656  -1.776   0.755  1.00  0.00     0.160 A 
ENDROOT
BRANCH   8   9
HETATM    9  N4  UNL     1       1.091  -1.019  -0.359  1.00  0.00    -0.339 N 
HETATM   10  H15 UNL     1       0.464  -1.065  -1.170  1.00  0.00     0.167 HD
BRANCH   9  11
HETATM   11  C12 UNL     1       2.289  -0.258  -0.365  1.00  0.00     0.039 A 
HETATM   12  C13 UNL     1       2.626   0.401  -1.528  1.00  0.00     0.069 A 
HETATM   13  C14 UNL     1       3.764   1.178  -1.662  1.00  0.00     0.106 A 
HETATM   14  C16 UNL     1       4.623   1.318  -0.592  1.00  0.00     0.135 A 
HETATM   15  C18 UNL     1       4.321   0.675   0.591  1.00  0.00     0.106 A 
HETATM   16  C20 UNL     1       3.176  -0.084   0.666  1.00  0.00     0.069 A 
BRANCH  13  17
HETATM   17  O4  UNL     1       4.143   1.854  -2.800  1.00  0.00    -0.353 OA
HETATM   18  C15 UNL     1       3.464   1.884  -4.019  1.00  0.00     0.210 C 
ENDBRANCH  13  17
BRANCH  14  19
HETATM   19  O5  UNL     1       5.795   2.072  -0.606  1.00  0.00    -0.351 OA
HETATM   20  C17 UNL     1       6.994   1.389  -1.004  1.00  0.00     0.210 C 
ENDBRANCH  14  19
BRANCH  15  21
HETATM   21  O6  UNL     1       5.161   0.792   1.691  1.00  0.00    -0.353 OA
HETATM   22  C19 UNL     1       4.823   0.119   2.890  1.00  0.00     0.210 C 
ENDBRANCH  15  21
ENDBRANCH   9  11
ENDBRANCH   8   9
BRANCH   1  23
HETATM   23  C6  UNL     1      -1.943  -0.431  -0.620  1.00  0.00     0.188 C 
BRANCH  23  24
HETATM   24  C4  UNL     1      -3.323   0.197  -0.593  1.00  0.00    -0.015 C 
HETATM   25  C3  UNL     1      -4.256   0.065  -1.515  1.00  0.00     0.141 C 
BRANCH  25  26
HETATM   26  O1  UNL     1      -5.352   0.801  -1.098  1.00  0.00    -0.363 OA
BRANCH  26  27
HETATM   27  C2  UNL     1      -6.687   0.354  -1.212  1.00  0.00     0.170 C 
HETATM   28  C1  UNL     1      -7.693   1.358  -0.683  1.00  0.00     0.034 C 
ENDBRANCH  26  27
ENDBRANCH  25  26
BRANCH  24  29
HETATM   29  C5  UNL     1      -3.428   0.987   0.659  1.00  0.00     0.202 C 
BRANCH  29  30
HETATM   30  O2  UNL     1      -4.663   1.619   0.796  1.00  0.00    -0.397 OA
HETATM   31  H9  UNL     1      -5.117   1.384   1.651  1.00  0.00     0.209 HD
ENDBRANCH  29  30
ENDBRANCH  24  29
ENDBRANCH  23  24
ENDBRANCH   1  23
BRANCH   4  32
HETATM   32  O3  UNL     1      -3.493  -2.275   2.114  1.00  0.00    -0.370 OA
HETATM   33  H13 UNL     1      -3.972  -1.541   2.624  1.00  0.00     0.216 HD
ENDBRANCH   4  32
TORSDOF 12
