REMARK  9 active torsions:
REMARK  status: ('A' for Active; 'I' for Inactive)
REMARK    1  A    between atoms: O1_2  and  C2_3 
REMARK    2  A    between atoms: C2_3  and  C3_4 
REMARK    3  A    between atoms: C3_4  and  O2_5 
REMARK    4  A    between atoms: C5_7  and  O3_8 
REMARK    5  A    between atoms: C5_7  and  C7_10 
REMARK    6  A    between atoms: C10_15  and  N3_16 
REMARK    7  A    between atoms: N3_16  and  C11_17 
REMARK    8  A    between atoms: C15_21  and  O4_22 
REMARK    9  A    between atoms: C17_24  and  O5_25 
ROOT
HETATM    1  C7  UNL     1      -1.582  -1.572   0.453  1.00  0.00     0.134 A 
HETATM    2  C8  UNL     1      -2.106  -2.216   1.689  1.00  0.00     0.169 A 
HETATM    3  N1  UNL     1      -1.119  -2.357   2.695  1.00  0.00    -0.282 NA
HETATM    4  C9  UNL     1       0.105  -2.060   2.756  1.00  0.00     0.228 A 
HETATM    5  N2  UNL     1       0.661  -1.453   1.598  1.00  0.00    -0.228 NA
HETATM    6  C10 UNL     1      -0.161  -1.262   0.590  1.00  0.00     0.118 A 
ENDROOT
BRANCH   6   7
HETATM    7  N3  UNL     1       0.543  -0.663  -0.510  1.00  0.00    -0.343 N 
HETATM    8  H16 UNL     1       0.356  -0.974  -1.514  1.00  0.00     0.167 HD
BRANCH   7   9
HETATM    9  C11 UNL     1       1.540   0.374  -0.398  1.00  0.00     0.043 A 
HETATM   10  C12 UNL     1       1.275   1.629  -0.063  1.00  0.00     0.008 A 
HETATM   11  C13 UNL     1       2.480   2.490  -0.021  1.00  0.00     0.072 A 
HETATM   12  C14 UNL     1       3.552   1.530  -0.395  1.00  0.00    -0.003 A 
HETATM   13  C15 UNL     1       4.734   1.050  -0.669  1.00  0.00     0.110 A 
HETATM   14  C19 UNL     1       2.987   0.188  -0.638  1.00  0.00     0.036 A 
HETATM   15  C17 UNL     1       4.189  -0.287  -0.914  1.00  0.00     0.115 A 
BRANCH  13  16
HETATM   16  O4  UNL     1       6.052   1.477  -0.746  1.00  0.00    -0.352 OA
HETATM   17  C16 UNL     1       6.804   1.487   0.465  1.00  0.00     0.210 C 
ENDBRANCH  13  16
BRANCH  15  18
HETATM   18  O5  UNL     1       4.663  -1.561  -1.282  1.00  0.00    -0.352 OA
HETATM   19  C18 UNL     1       5.487  -2.297  -0.382  1.00  0.00     0.210 C 
ENDBRANCH  15  18
ENDBRANCH   7   9
ENDBRANCH   6   7
BRANCH   1  20
HETATM   20  C5  UNL     1      -2.385  -0.400  -0.003  1.00  0.00     0.090 C 
HETATM   21  C3  UNL     1      -3.418   0.388   0.374  1.00  0.00     0.099 C 
BRANCH  21  22
HETATM   22  C2  UNL     1      -4.476   0.755   1.352  1.00  0.00     0.234 C 
BRANCH  22  23
HETATM   23  O1  UNL     1      -5.757   0.692   0.834  1.00  0.00    -0.389 OA
HETATM   24  C1  UNL     1      -6.079  -0.589   0.386  1.00  0.00     0.201 C 
ENDBRANCH  22  23
ENDBRANCH  21  22
BRANCH  21  25
HETATM   25  O2  UNL     1      -3.682   1.382  -0.597  1.00  0.00    -0.355 OA
HETATM   26  C4  UNL     1      -3.186   2.686  -0.524  1.00  0.00     0.209 C 
ENDBRANCH  21  25
BRANCH  20  27
HETATM   27  O3  UNL     1      -1.753  -0.128  -1.243  1.00  0.00    -0.357 OA
HETATM   28  C6  UNL     1      -2.359  -0.530  -2.460  1.00  0.00     0.209 C 
ENDBRANCH  20  27
ENDBRANCH   1  20
TORSDOF 9
