REMARK  8 active torsions:
REMARK  status: ('A' for Active; 'I' for Inactive)
REMARK    1  A    between atoms: C2_2  and  C3_3 
REMARK    2  A    between atoms: N1_6  and  C6_7 
REMARK    3  A    between atoms: C8_11  and  O1_12 
REMARK    4  A    between atoms: O1_12  and  C9_13 
REMARK    5  A    between atoms: C9_13  and  O2_14 
REMARK    6  A    between atoms: C16_22  and  C17_23 
REMARK    7  A    between atoms: C17_23  and  O4_24 
REMARK    8  A    between atoms: C18_25  and  O5_26 
ROOT
HETATM    1  C6  UNL     1       0.286   0.897  -1.101  1.00  0.00     0.143 A 
HETATM    2  N2  UNL     1       0.111   1.501  -2.250  1.00  0.00    -0.224 NA
HETATM    3  C7  UNL     1      -0.314   2.875  -2.282  1.00  0.00     0.233 A 
HETATM    4  N3  UNL     1      -0.555   3.605  -1.260  1.00  0.00    -0.237 NA
HETATM    5  C8  UNL     1      -0.432   3.130   0.075  1.00  0.00     0.211 A 
HETATM    6  C10 UNL     1       0.467   3.890   0.980  1.00  0.00     0.243 C 
HETATM    7  O3  UNL     1       0.017   3.669   2.329  1.00  0.00    -0.357 OA
HETATM    8  C11 UNL     1       0.149   2.492   3.094  1.00  0.00     0.141 C 
HETATM    9  C12 UNL     1       0.305   1.286   2.527  1.00  0.00    -0.039 C 
HETATM   10  C13 UNL     1       0.426   0.168   3.517  1.00  0.00     0.050 C 
HETATM   11  C14 UNL     1       0.371   0.921   1.115  1.00  0.00     0.024 C 
HETATM   12  C15 UNL     1       0.059   1.700   0.091  1.00  0.00     0.048 A 
ENDROOT
BRANCH   1  13
HETATM   13  N1  UNL     1       0.701  -0.458  -1.196  1.00  0.00    -0.327 N 
HETATM   14  C5  UNL     1       2.126  -0.619  -1.380  1.00  0.00     0.159 A 
HETATM   15  C4  UNL     1       2.560  -2.015  -1.512  1.00  0.00     0.007 A 
HETATM   16  C3  UNL     1       1.637  -2.951  -1.422  1.00  0.00    -0.004 A 
HETATM   17  C18 UNL     1       0.221  -2.809  -1.222  1.00  0.00     0.103 A 
HETATM   18  C16 UNL     1      -0.193  -1.562  -1.118  1.00  0.00     0.071 A 
BRANCH  16  19
HETATM   19  C2  UNL     1       2.255  -4.247  -1.578  1.00  0.00     0.004 C 
HETATM   20  C1  UNL     1       1.555  -5.373  -1.530  1.00  0.00     0.012 C 
ENDBRANCH  16  19
BRANCH  17  21
HETATM   21  O5  UNL     1      -0.651  -3.881  -1.141  1.00  0.00    -0.353 OA
HETATM   22  C19 UNL     1      -1.036  -4.462   0.085  1.00  0.00     0.210 C 
ENDBRANCH  17  21
BRANCH  18  23
HETATM   23  C17 UNL     1      -1.625  -1.226  -0.942  1.00  0.00     0.224 C 
BRANCH  23  24
HETATM   24  O4  UNL     1      -1.993  -0.426  -2.033  1.00  0.00    -0.395 OA
HETATM   25  H20 UNL     1      -2.280  -0.970  -2.801  1.00  0.00     0.209 HD
ENDBRANCH  23  24
ENDBRANCH  18  23
ENDBRANCH   1  13
BRANCH   5  26
HETATM   26  O1  UNL     1      -1.715   3.093   0.627  1.00  0.00    -0.328 OA
BRANCH  26  27
HETATM   27  C9  UNL     1      -2.301   4.324   0.590  1.00  0.00     0.338 C 
BRANCH  27  28
HETATM   28  O2  UNL     1      -1.677   5.342   1.258  1.00  0.00    -0.377 OA
HETATM   29  H10 UNL     1      -2.267   5.978   1.712  1.00  0.00     0.212 HD
ENDBRANCH  27  28
ENDBRANCH  26  27
ENDBRANCH   5  26
TORSDOF 8
