REMARK  4 active torsions:
REMARK  status: ('A' for Active; 'I' for Inactive)
REMARK    1  A    between atoms: N1_5  and  C5_6 
REMARK    2  A    between atoms: C5_6  and  N2_7 
REMARK       I    between atoms: N2_7  and  C6_8 
REMARK    3  A    between atoms: C6_8  and  C7_10 
REMARK    4  A    between atoms: C9_14  and  C10_15 
ROOT
HETATM    1  C7  UNL     1      -0.211  -0.396   1.599  1.00  0.00     0.155 A 
HETATM    2  N3  UNL     1      -0.380  -1.237   2.624  1.00  0.00    -0.229 NA
HETATM    3  C8  UNL     1      -1.687  -1.625   2.649  1.00  0.00     0.259 A 
HETATM    4  O2  UNL     1      -2.303  -1.032   1.659  1.00  0.00    -0.306 OA
HETATM    5  C9  UNL     1      -1.430  -0.275   1.000  1.00  0.00     0.087 A 
ENDROOT
BRANCH   1   6
HETATM    6  C6  UNL     1       1.081   0.162   1.351  1.00  0.00     0.274 C 
HETATM    7  N2  UNL     1       1.690   0.931   0.363  1.00  0.00    -0.339 N 
HETATM    8  H7  UNL     1       1.068   1.169  -0.417  1.00  0.00     0.164 HD
HETATM    9  O1  UNL     1       1.955  -0.078   2.244  1.00  0.00    -0.266 OA
BRANCH   7  10
HETATM   10  C5  UNL     1       3.040   1.409   0.283  1.00  0.00     0.254 C 
BRANCH  10  11
HETATM   11  N1  UNL     1       3.998   0.331   0.213  1.00  0.00    -0.341 N 
HETATM   12  C2  UNL     1       4.944  -0.049  -0.797  1.00  0.00     0.027 A 
HETATM   13  C1  UNL     1       5.264   0.455  -2.001  1.00  0.00     0.043 C 
HETATM   14  C3  UNL     1       5.415  -1.183  -0.016  1.00  0.00     0.046 A 
HETATM   15  C4  UNL     1       4.535  -0.798   0.881  1.00  0.00     0.095 A 
ENDBRANCH  10  11
ENDBRANCH   7  10
ENDBRANCH   1   6
BRANCH   5  16
HETATM   16  C10 UNL     1      -1.847   0.516  -0.165  1.00  0.00     0.025 C 
HETATM   17  B1  UNL     1      -2.018  -0.523  -1.537  1.00  0.00     0.200 B 
HETATM   18  C11 UNL     1      -3.654   0.369  -2.627  1.00  0.00    -0.105 C 
HETATM   19  C12 UNL     1      -4.538   0.200  -1.656  1.00  0.00    -0.068 C 
HETATM   20  C13 UNL     1      -5.746  -0.701  -1.650  1.00  0.00     0.047 C 
HETATM   21  C14 UNL     1      -4.302   0.994  -0.451  1.00  0.00     0.002 C 
HETATM   22  C15 UNL     1      -3.176   1.153   0.210  1.00  0.00    -0.025 C 
ENDBRANCH   5  16
TORSDOF 4
