REMARK  8 active torsions:
REMARK  status: ('A' for Active; 'I' for Inactive)
REMARK    1  A    between atoms: C2_3  and  N2_4 
REMARK    2  A    between atoms: C2_3  and  C12_17 
REMARK    3  A    between atoms: N2_4  and  C3_5 
REMARK    4  A    between atoms: C5_7  and  O1_8 
REMARK    5  A    between atoms: C7_10  and  O2_11 
REMARK    6  A    between atoms: C10_14  and  O3_15 
REMARK    7  A    between atoms: C14_19  and  O4_20 
REMARK    8  A    between atoms: C16_22  and  O5_23 
ROOT
HETATM    1  C1  UNL     1       0.063   3.231  -0.652  1.00  0.00     0.180 C 
HETATM    2  N1  UNL     1      -0.417   2.065   0.025  1.00  0.00    -0.276 NA
HETATM    3  C2  UNL     1       0.280   1.117   0.526  1.00  0.00     0.145 C 
ENDROOT
BRANCH   3   4
HETATM    4  N2  UNL     1      -0.513   0.088   1.140  1.00  0.00    -0.337 N 
HETATM    5  H4  UNL     1      -0.147  -0.440   1.987  1.00  0.00     0.167 HD
BRANCH   4   6
HETATM    6  C3  UNL     1      -1.795  -0.216   0.593  1.00  0.00     0.070 A 
HETATM    7  C4  UNL     1      -2.862   0.562   1.050  1.00  0.00     0.072 A 
HETATM    8  C5  UNL     1      -4.125   0.301   0.549  1.00  0.00     0.103 A 
HETATM    9  C7  UNL     1      -4.321  -0.707  -0.380  1.00  0.00     0.104 A 
HETATM   10  C9  UNL     1      -3.230  -1.441  -0.792  1.00  0.00     0.078 A 
HETATM   11  C10 UNL     1      -1.942  -1.235  -0.335  1.00  0.00     0.097 A 
BRANCH   8  12
HETATM   12  O1  UNL     1      -5.200   1.059   0.985  1.00  0.00    -0.353 OA
HETATM   13  C6  UNL     1      -5.004   2.081   1.924  1.00  0.00     0.210 C 
ENDBRANCH   8  12
BRANCH   9  14
HETATM   14  O2  UNL     1      -5.577  -0.990  -0.898  1.00  0.00    -0.353 OA
HETATM   15  C8  UNL     1      -5.662  -2.047  -1.846  1.00  0.00     0.210 C 
ENDBRANCH   9  14
BRANCH  11  16
HETATM   16  O3  UNL     1      -0.847  -1.975  -0.752  1.00  0.00    -0.354 OA
HETATM   17  C11 UNL     1      -1.076  -2.996  -1.701  1.00  0.00     0.210 C 
ENDBRANCH  11  16
ENDBRANCH   4   6
ENDBRANCH   3   4
BRANCH   3  18
HETATM   18  C12 UNL     1       1.734   1.000   0.534  1.00  0.00     0.068 A 
HETATM   19  C13 UNL     1       2.340  -0.033   1.081  1.00  0.00     0.068 A 
HETATM   20  C14 UNL     1       3.789  -0.167   1.100  1.00  0.00     0.105 A 
HETATM   21  C16 UNL     1       4.577   0.752   0.562  1.00  0.00     0.124 A 
HETATM   22  C18 UNL     1       3.884   1.878  -0.033  1.00  0.00     0.067 A 
HETATM   23  C19 UNL     1       3.403   3.017  -0.643  1.00  0.00     0.099 A 
HETATM   24  N3  UNL     1       2.465   2.075  -0.086  1.00  0.00    -0.217 NA
BRANCH  20  25
HETATM   25  O4  UNL     1       4.413  -1.263   1.680  1.00  0.00    -0.353 OA
HETATM   26  C15 UNL     1       4.577  -2.521   1.117  1.00  0.00     0.210 C 
ENDBRANCH  20  25
BRANCH  21  27
HETATM   27  O5  UNL     1       5.962   0.741   0.515  1.00  0.00    -0.351 OA
HETATM   28  C17 UNL     1       6.564   0.420  -0.737  1.00  0.00     0.210 C 
ENDBRANCH  21  27
ENDBRANCH   3  18
TORSDOF 8
