REMARK  6 active torsions:
REMARK  status: ('A' for Active; 'I' for Inactive)
REMARK    1  A    between atoms: O1_2  and  C2_3 
REMARK    2  A    between atoms: C5_6  and  C6_7 
REMARK    3  A    between atoms: C6_7  and  O2_8 
REMARK    4  A    between atoms: C7_9  and  C8_10 
REMARK    5  A    between atoms: N2_13  and  C10_14 
REMARK    6  A    between atoms: C10_14  and  C11_15 
ROOT
HETATM    1  C6  UNL     1       1.177  -0.577  -0.339  1.00  0.00     0.074 C 
HETATM    2  C7  UNL     1       0.121  -0.012  -0.895  1.00  0.00     0.042 C 
ENDROOT
BRANCH   2   3
HETATM    3  C8  UNL     1      -1.239  -0.525  -1.131  1.00  0.00     0.172 A 
HETATM    4  C9  UNL     1      -1.310  -1.938  -0.651  1.00  0.00     0.142 A 
HETATM    5  N1  UNL     1      -2.192  -1.765   0.275  1.00  0.00    -0.190 NA
HETATM    6  N2  UNL     1      -2.206  -0.395  -0.097  1.00  0.00    -0.288 N 
BRANCH   6   7
HETATM    7  C10 UNL     1      -3.057   0.566   0.571  1.00  0.00     0.184 C 
BRANCH   7   8
HETATM    8  C11 UNL     1      -4.492   0.151   0.412  1.00  0.00    -0.036 A 
HETATM    9  C12 UNL     1      -5.137   0.652  -0.705  1.00  0.00     0.028 A 
HETATM   10  C13 UNL     1      -6.440   0.346  -0.957  1.00  0.00     0.116 A 
HETATM   11  N3  UNL     1      -7.125  -0.454  -0.120  1.00  0.00    -0.273 NA
HETATM   12  C14 UNL     1      -6.520  -0.954   0.973  1.00  0.00     0.116 A 
HETATM   13  C15 UNL     1      -5.204  -0.666   1.260  1.00  0.00     0.028 A 
ENDBRANCH   7   8
ENDBRANCH   6   7
ENDBRANCH   2   3
BRANCH   1  14
HETATM   14  C5  UNL     1       2.476   0.020  -0.155  1.00  0.00    -0.003 A 
HETATM   15  C4  UNL     1       2.670   1.303  -0.590  1.00  0.00     0.017 A 
HETATM   16  C3  UNL     1       3.947   1.836  -0.389  1.00  0.00     0.037 A 
HETATM   17  C2  UNL     1       4.961   1.095   0.222  1.00  0.00     0.068 A 
HETATM   18  C17 UNL     1       4.694  -0.191   0.635  1.00  0.00     0.037 A 
HETATM   19  C16 UNL     1       3.438  -0.755   0.453  1.00  0.00     0.017 A 
BRANCH  17  20
HETATM   20  O1  UNL     1       6.187   1.727   0.370  1.00  0.00    -0.356 OA
HETATM   21  C1  UNL     1       7.220   0.977   0.990  1.00  0.00     0.210 C 
ENDBRANCH  17  20
ENDBRANCH   1  14
BRANCH   1  22
HETATM   22  O2  UNL     1       0.856  -1.875   0.062  1.00  0.00    -0.360 OA
HETATM   23  H6  UNL     1       1.333  -2.356   0.794  1.00  0.00     0.217 HD
ENDBRANCH   1  22
TORSDOF 6
