REMARK  6 active torsions:
REMARK  status: ('A' for Active; 'I' for Inactive)
REMARK    1  A    between atoms: C1_2  and  C2_3 
REMARK    2  A    between atoms: C2_3  and  N1_4 
REMARK    3  A    between atoms: N1_4  and  C3_5 
REMARK    4  A    between atoms: C3_5  and  C4_6 
REMARK    5  A    between atoms: C8_11  and  O2_12 
REMARK    6  A    between atoms: C10_15  and  C11_16 
ROOT
HETATM    1  C2  UNL     1      -0.113  -0.609  -0.334  1.00  0.00     0.289 C 
HETATM    2  C8  UNL     1      -0.275  -1.720   0.644  1.00  0.00     0.114 C 
HETATM    3  C9  UNL     1      -0.575  -1.198   1.826  1.00  0.00     0.170 C 
HETATM    4  O3  UNL     1      -0.631   0.202   1.731  1.00  0.00    -0.347 OA
HETATM    5  C10 UNL     1      -0.751   0.542   0.363  1.00  0.00     0.213 C 
ENDROOT
BRANCH   1   6
HETATM    6  C1  UNL     1      -0.811  -0.968  -1.600  1.00  0.00     0.283 C 
HETATM    7  O1  UNL     1      -1.967  -1.231  -1.774  1.00  0.00    -0.304 OA
ENDBRANCH   1   6
BRANCH   1   8
HETATM    8  N1  UNL     1       1.307  -0.364  -0.572  1.00  0.00     0.113 N 
HETATM    9  H2  UNL     1       1.743  -1.137  -1.090  1.00  0.00     0.318 HD
BRANCH   8  10
HETATM   10  C3  UNL     1       1.971  -0.024   0.647  1.00  0.00     0.307 C 
BRANCH  10  11
HETATM   11  C4  UNL     1       3.432   0.222   0.376  1.00  0.00    -0.031 A 
HETATM   12  C5  UNL     1       4.433  -0.454   0.917  1.00  0.00     0.025 A 
HETATM   13  C6  UNL     1       5.598   0.187   0.319  1.00  0.00     0.111 A 
HETATM   14  N2  UNL     1       5.328   1.148  -0.497  1.00  0.00    -0.297 NA
HETATM   15  C7  UNL     1       3.886   1.284  -0.557  1.00  0.00     0.184 A 
ENDBRANCH  10  11
ENDBRANCH   8  10
ENDBRANCH   1   8
BRANCH   2  16
HETATM   16  O2  UNL     1      -0.145  -3.085   0.407  1.00  0.00    -0.360 OA
HETATM   17  H9  UNL     1      -0.641  -3.495  -0.361  1.00  0.00     0.217 HD
ENDBRANCH   2  16
BRANCH   5  18
HETATM   18  C11 UNL     1      -2.191   0.734   0.035  1.00  0.00    -0.026 A 
HETATM   19  C12 UNL     1      -3.156  -0.150   0.470  1.00  0.00     0.010 A 
HETATM   20  C13 UNL     1      -4.501  -0.013   0.191  1.00  0.00     0.001 A 
HETATM   21  C14 UNL     1      -4.932   1.055  -0.561  1.00  0.00     0.000 A 
HETATM   22  C15 UNL     1      -4.007   1.957  -1.014  1.00  0.00     0.001 A 
HETATM   23  C16 UNL     1      -2.674   1.803  -0.726  1.00  0.00     0.010 A 
ENDBRANCH   5  18
TORSDOF 6
