REMARK  8 active torsions:
REMARK  status: ('A' for Active; 'I' for Inactive)
REMARK    1  A    between atoms: O1_2  and  C2_3 
REMARK    2  A    between atoms: C5_8  and  N3_9 
REMARK    3  A    between atoms: N3_9  and  C6_10 
REMARK    4  A    between atoms: C8_12  and  O2_13 
REMARK    5  A    between atoms: C10_15  and  O3_16 
REMARK    6  A    between atoms: C12_18  and  O4_19 
REMARK    7  A    between atoms: C17_24  and  O5_25 
REMARK    8  A    between atoms: C17_24  and  O6_27 
ROOT
HETATM    1  C2  UNL     1       4.130  -0.170   0.439  1.00  0.00     0.142 A 
HETATM    2  C3  UNL     1       2.934  -0.182   1.055  1.00  0.00     0.107 A 
HETATM    3  N1  UNL     1       2.553  -0.241   2.343  1.00  0.00    -0.238 NA
HETATM    4  C4  UNL     1       1.294  -0.245   2.775  1.00  0.00     0.236 A 
HETATM    5  N2  UNL     1       0.341  -0.185   1.841  1.00  0.00    -0.224 NA
HETATM    6  C5  UNL     1       0.564  -0.123   0.526  1.00  0.00     0.142 A 
HETATM    7  C15 UNL     1       1.892  -0.123   0.157  1.00  0.00     0.043 A 
HETATM    8  C16 UNL     1       2.418  -0.071  -1.057  1.00  0.00     0.066 A 
HETATM    9  C17 UNL     1       3.932  -0.093  -1.021  1.00  0.00     0.237 A 
ENDROOT
BRANCH   6  10
HETATM   10  N3  UNL     1      -0.434  -0.059  -0.475  1.00  0.00    -0.340 N 
HETATM   11  H5  UNL     1      -0.129  -0.020  -1.480  1.00  0.00     0.167 HD
BRANCH  10  12
HETATM   12  C6  UNL     1      -1.831  -0.040  -0.283  1.00  0.00     0.039 A 
HETATM   13  C7  UNL     1      -2.500  -0.015   0.918  1.00  0.00     0.069 A 
HETATM   14  C8  UNL     1      -3.865  -0.001   1.086  1.00  0.00     0.106 A 
HETATM   15  C10 UNL     1      -4.652  -0.012  -0.032  1.00  0.00     0.135 A 
HETATM   16  C12 UNL     1      -4.060  -0.037  -1.275  1.00  0.00     0.106 A 
HETATM   17  C14 UNL     1      -2.691  -0.050  -1.366  1.00  0.00     0.069 A 
BRANCH  14  18
HETATM   18  O2  UNL     1      -4.461   0.025   2.337  1.00  0.00    -0.353 OA
HETATM   19  C9  UNL     1      -3.616   0.036   3.473  1.00  0.00     0.210 C 
ENDBRANCH  14  18
BRANCH  15  20
HETATM   20  O3  UNL     1      -6.021   0.001   0.047  1.00  0.00    -0.351 OA
HETATM   21  C11 UNL     1      -6.854   1.120   0.077  1.00  0.00     0.210 C 
ENDBRANCH  15  20
BRANCH  16  22
HETATM   22  O4  UNL     1      -4.864  -0.048  -2.404  1.00  0.00    -0.353 OA
HETATM   23  C13 UNL     1      -4.317  -0.074  -3.709  1.00  0.00     0.210 C 
ENDBRANCH  16  22
ENDBRANCH  10  12
ENDBRANCH   6  10
BRANCH   1  24
HETATM   24  O1  UNL     1       5.266  -0.230   1.273  1.00  0.00    -0.352 OA
HETATM   25  C1  UNL     1       5.419   0.705   2.296  1.00  0.00     0.210 C 
ENDBRANCH   1  24
BRANCH   9  26
HETATM   26  O5  UNL     1       4.446   1.061  -1.530  1.00  0.00    -0.351 OA
HETATM   27  C18 UNL     1       5.809   1.090  -1.485  1.00  0.00     0.206 C 
ENDBRANCH   9  26
BRANCH   9  28
HETATM   28  O6  UNL     1       4.406  -1.188  -1.730  1.00  0.00    -0.351 OA
HETATM   29  C19 UNL     1       3.926  -2.392  -1.268  1.00  0.00     0.206 C 
ENDBRANCH   9  28
TORSDOF 8
