REMARK  6 active torsions:
REMARK  status: ('A' for Active; 'I' for Inactive)
REMARK    1  A    between atoms: C2_3  and  C3_4 
REMARK    2  A    between atoms: C4_5  and  C5_6 
REMARK    3  A    between atoms: C5_6  and  N2_7 
REMARK       I    between atoms: N2_7  and  C6_8 
REMARK    4  A    between atoms: C6_8  and  C7_10 
REMARK    5  A    between atoms: C9_14  and  C10_15 
REMARK    6  A    between atoms: C13_18  and  O3_19 
ROOT
HETATM    1  C7  UNL     1      -0.034   1.384  -0.808  1.00  0.00     0.160 A 
HETATM    2  N3  UNL     1       0.630   2.489  -1.262  1.00  0.00    -0.228 NA
HETATM    3  C8  UNL     1      -0.270   3.424  -1.447  1.00  0.00     0.259 A 
HETATM    4  O2  UNL     1      -1.407   2.941  -1.133  1.00  0.00    -0.301 OA
HETATM    5  C9  UNL     1      -1.364   1.696  -0.729  1.00  0.00     0.121 A 
ENDROOT
BRANCH   1   6
HETATM    6  C6  UNL     1       0.519   0.092  -0.464  1.00  0.00     0.273 C 
HETATM    7  N2  UNL     1       1.960   0.049  -0.652  1.00  0.00    -0.345 N 
HETATM    8  H7  UNL     1       2.577   0.870  -1.004  1.00  0.00     0.163 HD
HETATM    9  O1  UNL     1       0.562  -1.095  -0.083  1.00  0.00    -0.266 OA
BRANCH   7  10
HETATM   10  C5  UNL     1       2.667  -1.205  -0.346  1.00  0.00     0.217 C 
BRANCH  10  11
HETATM   11  C4  UNL     1       4.077  -1.010  -0.591  1.00  0.00    -0.081 C 
HETATM   12  C3  UNL     1       5.251  -0.864  -0.807  1.00  0.00    -0.058 C 
BRANCH  12  13
HETATM   13  C2  UNL     1       6.646  -0.711  -1.061  1.00  0.00     0.174 C 
HETATM   14  N1  UNL     1       7.551  -0.522  -0.193  1.00  0.00    -0.298 NA
HETATM   15  C1  UNL     1       7.411  -0.416   1.222  1.00  0.00     0.178 C 
ENDBRANCH  12  13
ENDBRANCH  10  11
ENDBRANCH   7  10
ENDBRANCH   1   6
BRANCH   5  16
HETATM   16  C10 UNL     1      -2.558   0.994  -0.335  1.00  0.00     0.001 A 
HETATM   17  C11 UNL     1      -2.721  -0.271   0.135  1.00  0.00     0.017 A 
HETATM   18  C12 UNL     1      -3.883  -0.879   0.482  1.00  0.00     0.037 A 
HETATM   19  C13 UNL     1      -5.063  -0.212   0.374  1.00  0.00     0.068 A 
HETATM   20  C15 UNL     1      -4.996   1.078  -0.095  1.00  0.00     0.037 A 
HETATM   21  C16 UNL     1      -3.793   1.646  -0.431  1.00  0.00     0.017 A 
BRANCH  19  22
HETATM   22  O3  UNL     1      -6.294  -0.727   0.695  1.00  0.00    -0.356 OA
HETATM   23  C14 UNL     1      -6.491  -2.038   1.186  1.00  0.00     0.210 C 
ENDBRANCH  19  22
ENDBRANCH   5  16
TORSDOF 6
