REMARK  2 active torsions:
REMARK  status: ('A' for Active; 'I' for Inactive)
REMARK    1  A    between atoms: C2_3  and  C3_4 
REMARK    2  A    between atoms: C13_18  and  O3_19 
ROOT
HETATM    1  C3  UNL     1       2.062  -0.476   0.000  1.00  0.00     0.024 C 
HETATM    2  C4  UNL     1       1.221   0.549   0.234  1.00  0.00    -0.049 C 
HETATM    3  C5  UNL     1       2.131   1.375   1.031  1.00  0.00     0.158 C 
HETATM    4  N2  UNL     1       1.614   2.659   1.429  1.00  0.00    -0.352 N 
HETATM    5  C6  UNL     1       0.554   3.523   1.049  1.00  0.00     0.273 C 
HETATM    6  O1  UNL     1       0.840   4.754   1.227  1.00  0.00    -0.266 OA
HETATM    7  C7  UNL     1      -0.772   3.353   0.510  1.00  0.00     0.160 A 
HETATM    8  N3  UNL     1      -1.613   4.425   0.578  1.00  0.00    -0.228 NA
HETATM    9  C8  UNL     1      -2.767   4.002   0.013  1.00  0.00     0.259 A 
HETATM   10  O2  UNL     1      -2.619   2.753  -0.367  1.00  0.00    -0.301 OA
HETATM   11  C9  UNL     1      -1.431   2.306  -0.093  1.00  0.00     0.118 A 
HETATM   12  C10 UNL     1      -1.117   0.932  -0.457  1.00  0.00    -0.010 C 
HETATM   13  C11 UNL     1      -2.365   0.666  -0.802  1.00  0.00     0.014 C 
HETATM   14  C12 UNL     1      -2.920  -0.605  -1.316  1.00  0.00     0.037 C 
HETATM   15  C13 UNL     1      -2.437  -1.834  -1.071  1.00  0.00     0.068 C 
HETATM   16  C15 UNL     1      -1.261  -2.186  -0.245  1.00  0.00     0.034 C 
HETATM   17  C16 UNL     1      -0.254  -1.350  -0.047  1.00  0.00    -0.010 C 
HETATM   18  C17 UNL     1       0.038   0.033  -0.498  1.00  0.00     0.074 C 
HETATM   19  H8  UNL     1       2.178   3.058   2.211  1.00  0.00     0.163 HD
ENDROOT
BRANCH   1  20
HETATM   20  C2  UNL     1       3.389  -0.395   0.553  1.00  0.00     0.273 C 
HETATM   21  N1  UNL     1       4.509  -0.984   0.663  1.00  0.00    -0.425 NA
HETATM   22  C1  UNL     1       4.888  -2.252   0.122  1.00  0.00     0.132 C 
ENDBRANCH   1  20
BRANCH  15  23
HETATM   23  O3  UNL     1      -3.103  -2.893  -1.648  1.00  0.00    -0.356 OA
HETATM   24  C14 UNL     1      -4.024  -3.613  -0.850  1.00  0.00     0.210 C 
ENDBRANCH  15  23
TORSDOF 2
