REMARK  2 active torsions:
REMARK  status: ('A' for Active; 'I' for Inactive)
REMARK    1  A    between atoms: N1_2  and  C2_3 
REMARK    2  A    between atoms: C10_12  and  O2_13 
ROOT
HETATM    1  C2  UNL     1      -1.201  -1.129   0.594  1.00  0.00     0.155 C 
HETATM    2  C3  UNL     1      -1.001   0.148   0.820  1.00  0.00     0.100 C 
HETATM    3  O1  UNL     1      -1.979   1.137   1.232  1.00  0.00    -0.338 OA
HETATM    4  C4  UNL     1      -2.749   1.477  -0.001  1.00  0.00     0.170 C 
HETATM    5  C5  UNL     1      -2.210   2.714  -0.365  1.00  0.00     0.019 C 
HETATM    6  C6  UNL     1      -0.981   3.121  -0.544  1.00  0.00    -0.027 C 
HETATM    7  C7  UNL     1       0.106   2.525  -0.838  1.00  0.00     0.023 C 
HETATM    8  C8  UNL     1       0.831   1.321  -0.330  1.00  0.00    -0.035 C 
HETATM    9  C9  UNL     1       2.116   1.154  -0.748  1.00  0.00     0.046 C 
HETATM   10  C10 UNL     1       2.983   0.157  -0.450  1.00  0.00     0.054 C 
HETATM   11  C12 UNL     1       2.867  -0.964   0.330  1.00  0.00    -0.045 C 
HETATM   12  B1  UNL     1       1.122  -0.888   1.347  1.00  0.00     0.219 B 
HETATM   13  C13 UNL     1       0.387   0.273   0.540  1.00  0.00    -0.056 C 
HETATM   14  C14 UNL     1      -3.967   0.866   0.335  1.00  0.00     0.159 C 
HETATM   15  N2  UNL     1      -3.720  -0.569   0.689  1.00  0.00    -0.353 N 
HETATM   16  C15 UNL     1      -2.610  -1.543   0.770  1.00  0.00     0.273 C 
HETATM   17  O3  UNL     1      -2.853  -2.746   0.991  1.00  0.00    -0.266 OA
HETATM   18  H13 UNL     1      -4.573  -1.056   0.969  1.00  0.00     0.162 HD
ENDROOT
BRANCH   1  19
HETATM   19  N1  UNL     1      -0.248  -2.069   0.166  1.00  0.00    -0.264 NA
HETATM   20  C1  UNL     1      -0.255  -3.244   0.623  1.00  0.00     0.150 C 
ENDBRANCH   1  19
BRANCH  10  21
HETATM   21  O2  UNL     1       4.202   0.357  -1.078  1.00  0.00    -0.357 OA
HETATM   22  C11 UNL     1       5.229  -0.582  -0.884  1.00  0.00     0.210 C 
ENDBRANCH  10  21
TORSDOF 2
