REMARK  9 active torsions:
REMARK  status: ('A' for Active; 'I' for Inactive)
REMARK    1  A    between atoms: C3_3  and  N1_4 
REMARK    2  A    between atoms: C4_5  and  C5_6 
REMARK    3  A    between atoms: C6_7  and  C7_8 
REMARK    4  A    between atoms: C7_8  and  N2_9 
REMARK       I    between atoms: N2_9  and  C8_10 
REMARK    5  A    between atoms: C8_10  and  C9_12 
REMARK    6  A    between atoms: C9_12  and  N3_13 
REMARK    7  A    between atoms: C10_14  and  O2_15 
REMARK    8  A    between atoms: O2_15  and  C11_16 
REMARK    9  A    between atoms: C11_16  and  C12_17 
ROOT
HETATM    1  N2  UNL     1      -0.771   0.411  -0.275  1.00  0.00    -0.356 N 
HETATM    2  C8  UNL     1       0.427   0.065   0.405  1.00  0.00     0.237 C 
HETATM    3  O1  UNL     1       0.601   0.190   1.634  1.00  0.00    -0.272 OA
HETATM    4  H11 UNL     1      -0.738   0.239  -1.300  1.00  0.00     0.162 HD
ENDROOT
BRANCH   2   5
HETATM    5  C9  UNL     1       1.637  -0.501  -0.303  1.00  0.00     0.253 C 
BRANCH   5   6
HETATM    6  N3  UNL     1       1.286  -0.586  -1.700  1.00  0.00    -0.269 NA
HETATM    7  C10 UNL     1       2.105  -0.304  -2.643  1.00  0.00     0.246 C 
BRANCH   7   8
HETATM    8  O2  UNL     1       3.210   0.036  -1.893  1.00  0.00    -0.341 OA
BRANCH   8   9
HETATM    9  C11 UNL     1       4.144  -0.967  -1.600  1.00  0.00     0.212 C 
BRANCH   9  10
HETATM   10  C12 UNL     1       5.267  -0.466  -0.772  1.00  0.00    -0.032 A 
HETATM   11  C13 UNL     1       5.329   0.798  -0.381  1.00  0.00     0.009 A 
HETATM   12  C14 UNL     1       6.511   1.086   0.424  1.00  0.00     0.024 A 
HETATM   13  C15 UNL     1       7.395   0.142   0.703  1.00  0.00     0.135 A 
HETATM   14  O3  UNL     1       7.286  -1.172   0.271  1.00  0.00    -0.359 OA
HETATM   15  C16 UNL     1       6.193  -1.597  -0.518  1.00  0.00     0.210 A 
ENDBRANCH   9  10
ENDBRANCH   8   9
ENDBRANCH   7   8
ENDBRANCH   5   6
ENDBRANCH   2   5
BRANCH   1  16
HETATM   16  C7  UNL     1      -1.914   0.953   0.448  1.00  0.00     0.149 C 
BRANCH  16  17
HETATM   17  C6  UNL     1      -2.388  -0.008   1.468  1.00  0.00    -0.006 C 
HETATM   18  C5  UNL     1      -3.590  -0.555   1.535  1.00  0.00     0.017 C 
BRANCH  18  19
HETATM   19  C4  UNL     1      -4.654  -0.277   0.582  1.00  0.00     0.116 C 
HETATM   20  N1  UNL     1      -5.818  -0.852   0.708  1.00  0.00    -0.273 NA
BRANCH  20  21
HETATM   21  C3  UNL     1      -6.888  -0.622  -0.187  1.00  0.00     0.112 C 
HETATM   22  C2  UNL     1      -7.973   0.056   0.153  1.00  0.00    -0.012 C 
HETATM   23  C1  UNL     1      -8.119   0.617   1.520  1.00  0.00     0.037 C 
ENDBRANCH  20  21
ENDBRANCH  18  19
ENDBRANCH  16  17
ENDBRANCH   1  16
TORSDOF 9
