REMARK  6 active torsions:
REMARK  status: ('A' for Active; 'I' for Inactive)
REMARK    1  A    between atoms: N1_2  and  C3_4 
REMARK    2  A    between atoms: C3_4  and  C4_5 
REMARK    3  A    between atoms: C4_5  and  C5_6 
REMARK    4  A    between atoms: C5_6  and  C6_7 
REMARK       I    between atoms: C6_7  and  N2_9 
REMARK    5  A    between atoms: N2_9  and  C7_10 
REMARK    6  A    between atoms: C21_29  and  N7_30 
ROOT
HETATM    1  C7  UNL     1       0.612   0.222  -0.813  1.00  0.00     0.053 A 
HETATM    2  C8  UNL     1       0.336   0.334  -2.177  1.00  0.00     0.148 A 
HETATM    3  N3  UNL     1      -0.911   0.484  -2.601  1.00  0.00    -0.238 NA
HETATM    4  C9  UNL     1      -2.016   0.546  -1.836  1.00  0.00     0.162 A 
HETATM    5  N4  UNL     1      -3.309   0.708  -2.147  1.00  0.00    -0.225 NA
HETATM    6  C10 UNL     1      -4.308   0.767  -1.211  1.00  0.00     0.109 A 
HETATM    7  C11 UNL     1      -4.037   0.671   0.062  1.00  0.00     0.103 A 
HETATM    8  C12 UNL     1      -5.022   0.863   1.138  1.00  0.00     0.104 C 
HETATM    9  N5  UNL     1      -5.814   1.024   1.977  1.00  0.00    -0.191 NA
HETATM   10  C13 UNL     1      -2.764   0.489   0.536  1.00  0.00     0.069 A 
HETATM   11  C14 UNL     1      -1.766   0.435  -0.461  1.00  0.00     0.042 A 
HETATM   12  C15 UNL     1      -0.497   0.282   0.000  1.00  0.00     0.048 A 
HETATM   13  N6  UNL     1      -2.457   0.129   1.859  1.00  0.00    -0.364 N 
HETATM   14  C16 UNL     1      -3.165  -1.117   1.684  1.00  0.00     0.085 C 
HETATM   15  C17 UNL     1      -4.054  -1.842   1.070  1.00  0.00    -0.004 C 
HETATM   16  C18 UNL     1      -5.137  -2.301   0.114  1.00  0.00     0.056 C 
HETATM   17  C19 UNL     1      -5.677  -1.573  -0.954  1.00  0.00     0.023 C 
HETATM   18  C20 UNL     1      -5.957  -0.491  -1.959  1.00  0.00     0.018 C 
HETATM   19 BR1  UNL     1      -7.427  -0.893  -3.145  1.00  0.00    -0.053 Br
HETATM   20  C21 UNL     1      -5.366   0.715  -2.174  1.00  0.00     0.070 C 
HETATM   21  H14 UNL     1      -1.975   0.958   2.004  1.00  0.00     0.165 HD
ENDROOT
BRANCH  20  22
HETATM   22  N7  UNL     1      -5.881   1.521  -3.172  1.00  0.00    -0.396 N 
HETATM   23  H19 UNL     1      -6.455   2.377  -3.082  1.00  0.00     0.156 HD
HETATM   24  H20 UNL     1      -5.661   1.218  -4.161  1.00  0.00     0.156 HD
ENDBRANCH  20  22
BRANCH   1  25
HETATM   25  N2  UNL     1       1.900   0.076  -0.235  1.00  0.00    -0.322 N 
HETATM   26  C6  UNL     1       2.337   1.434  -0.026  1.00  0.00     0.245 C 
HETATM   27  O1  UNL     1       1.384   2.131  -0.460  1.00  0.00    -0.268 OA
HETATM   28  H11 UNL     1       2.482  -0.770   0.026  1.00  0.00     0.169 HD
BRANCH  26  29
HETATM   29  C5  UNL     1       3.655   1.732   0.588  1.00  0.00     0.072 C 
BRANCH  29  30
HETATM   30  C4  UNL     1       4.484   0.784   0.957  1.00  0.00     0.008 C 
BRANCH  30  31
HETATM   31  C3  UNL     1       5.182  -0.454   1.260  1.00  0.00     0.299 C 
BRANCH  31  32
HETATM   32  N1  UNL     1       6.433  -0.509   0.532  1.00  0.00     0.083 N 
HETATM   33  C1  UNL     1       7.144  -1.749   0.800  1.00  0.00     0.309 C 
HETATM   34  C2  UNL     1       7.273   0.640   0.811  1.00  0.00     0.309 C 
ENDBRANCH  31  32
ENDBRANCH  30  31
ENDBRANCH  29  30
ENDBRANCH  26  29
ENDBRANCH   1  25
TORSDOF 6
