REMARK  5 active torsions:
REMARK  status: ('A' for Active; 'I' for Inactive)
REMARK    1  A    between atoms: N1_2  and  C3_4 
REMARK    2  A    between atoms: C3_4  and  C4_5 
REMARK    3  A    between atoms: C5_6  and  N2_7 
REMARK    4  A    between atoms: N2_7  and  O1_8 
REMARK    5  A    between atoms: N2_7  and  C6_9 
ROOT
HETATM    1  C6  UNL     1      -0.421  -2.085  -0.412  1.00  0.00     0.142 A 
HETATM    2  C7  UNL     1       0.457  -1.752   0.712  1.00  0.00     0.014 A 
HETATM    3  C8  UNL     1       1.455  -0.881   0.872  1.00  0.00    -0.009 A 
HETATM    4  C9  UNL     1       2.025  -0.937   2.216  1.00  0.00     0.032 C 
HETATM    5  C10 UNL     1       3.171  -0.457   2.658  1.00  0.00     0.118 C 
HETATM    6  N3  UNL     1       4.247   0.247   2.100  1.00  0.00    -0.262 NA
HETATM    7  C11 UNL     1       4.536   0.934   1.020  1.00  0.00     0.075 C 
HETATM    8  C12 UNL     1       5.897   1.244   1.399  1.00  0.00     0.023 C 
HETATM    9 BR1  UNL     1       6.557   1.591   3.151  1.00  0.00    -0.050 Br
HETATM   10  C13 UNL     1       7.023   1.366   0.752  1.00  0.00    -0.061 C 
HETATM   11  B1  UNL     1       6.812   1.058  -1.172  1.00  0.00     0.197 B 
HETATM   12  C14 UNL     1       4.913   1.147  -1.366  1.00  0.00    -0.077 C 
HETATM   13  C15 UNL     1       3.962   1.401  -0.220  1.00  0.00     0.144 C 
HETATM   14  N4  UNL     1       2.679   0.923  -0.586  1.00  0.00    -0.376 N 
HETATM   15  C16 UNL     1       1.726  -0.092  -0.321  1.00  0.00     0.056 A 
HETATM   16  C17 UNL     1       0.978  -0.330  -1.376  1.00  0.00     0.052 A 
HETATM   17  C18 UNL     1       1.278   0.479  -2.551  1.00  0.00     0.097 C 
HETATM   18  N5  UNL     1       1.519   1.136  -3.505  1.00  0.00    -0.192 NA
HETATM   19  C19 UNL     1      -0.135  -1.265  -1.632  1.00  0.00     0.084 A 
HETATM   20  H19 UNL     1       2.276   1.556  -1.350  1.00  0.00     0.160 HD
ENDROOT
BRANCH   1  21
HETATM   21  N2  UNL     1      -1.826  -2.035  -0.036  1.00  0.00    -0.264 N 
BRANCH  21  22
HETATM   22  C5  UNL     1      -2.585  -0.962   0.447  1.00  0.00     0.115 C 
HETATM   23  C4  UNL     1      -3.248   0.103  -0.019  1.00  0.00     0.022 C 
BRANCH  23  24
HETATM   24  C3  UNL     1      -3.965   1.062   0.857  1.00  0.00     0.300 C 
BRANCH  24  25
HETATM   25  N1  UNL     1      -5.386   1.115   0.534  1.00  0.00     0.083 N 
HETATM   26  C1  UNL     1      -5.545   1.733  -0.788  1.00  0.00     0.309 C 
HETATM   27  C2  UNL     1      -5.960  -0.227   0.522  1.00  0.00     0.309 C 
ENDBRANCH  24  25
ENDBRANCH  23  24
ENDBRANCH  21  22
BRANCH  21  28
HETATM   28  O1  UNL     1      -2.642  -3.136  -0.119  1.00  0.00    -0.287 OA
HETATM   29  H11 UNL     1      -2.223  -3.761  -0.774  1.00  0.00     0.244 HD
ENDBRANCH  21  28
ENDBRANCH   1  21
TORSDOF 5
