REMARK  9 active torsions:
REMARK  status: ('A' for Active; 'I' for Inactive)
REMARK    1  A    between atoms: O1_1  and  C1_2 
REMARK    2  A    between atoms: C1_2  and  C2_3 
REMARK    3  A    between atoms: C2_3  and  O2_4 
REMARK    4  A    between atoms: C3_5  and  C4_6 
REMARK    5  A    between atoms: C4_6  and  C5_7 
REMARK    6  A    between atoms: C7_11  and  C8_12 
REMARK    7  A    between atoms: C8_12  and  N2_13 
REMARK    8  A    between atoms: N2_13  and  C9_14 
REMARK    9  A    between atoms: C9_14  and  C10_15 
ROOT
HETATM    1  C5  UNL     1       1.188  -1.444  -0.305  1.00  0.00     0.084 A 
HETATM    2  O3  UNL     1       1.397  -2.708  -0.578  1.00  0.00    -0.306 OA
HETATM    3  C6  UNL     1       0.828  -3.484   0.291  1.00  0.00     0.258 A 
HETATM    4  N1  UNL     1       0.215  -2.672   1.177  1.00  0.00    -0.237 NA
HETATM    5  C7  UNL     1       0.417  -1.376   0.836  1.00  0.00     0.094 A 
ENDROOT
BRANCH   5   6
HETATM    6  C8  UNL     1      -0.090  -0.178   1.522  1.00  0.00     0.331 C 
BRANCH   6   7
HETATM    7  N2  UNL     1      -1.247   0.406   0.855  1.00  0.00     0.093 N 
HETATM    8  H11 UNL     1      -1.436   1.316   1.305  1.00  0.00     0.316 HD
BRANCH   7   9
HETATM    9  C9  UNL     1      -2.366  -0.502   0.847  1.00  0.00     0.308 C 
BRANCH   9  10
HETATM   10  C10 UNL     1      -3.537   0.102   0.172  1.00  0.00    -0.028 A 
HETATM   11  C11 UNL     1      -3.889  -0.005  -1.181  1.00  0.00     0.028 A 
HETATM   12  C12 UNL     1      -5.024   0.660  -1.525  1.00  0.00     0.116 A 
HETATM   13  N3  UNL     1      -5.824   1.389  -0.733  1.00  0.00    -0.273 NA
HETATM   14  C13 UNL     1      -5.490   1.497   0.577  1.00  0.00     0.116 A 
HETATM   15  C14 UNL     1      -4.348   0.843   0.984  1.00  0.00     0.028 A 
ENDBRANCH   9  10
ENDBRANCH   7   9
ENDBRANCH   6   7
ENDBRANCH   5   6
BRANCH   1  16
HETATM   16  C4  UNL     1       1.739  -0.360  -1.154  1.00  0.00     0.097 C 
BRANCH  16  17
HETATM   17  C3  UNL     1       2.921   0.227  -0.521  1.00  0.00     0.014 C 
HETATM   18  C2  UNL     1       4.218   0.529  -0.497  1.00  0.00     0.063 C 
BRANCH  18  19
HETATM   19  C1  UNL     1       5.136   1.231   0.477  1.00  0.00     0.228 C 
BRANCH  19  20
HETATM   20  O1  UNL     1       5.680   2.327  -0.172  1.00  0.00    -0.394 OA
HETATM   21  H1  UNL     1       5.457   3.198   0.270  1.00  0.00     0.209 HD
ENDBRANCH  19  20
ENDBRANCH  18  19
BRANCH  18  22
HETATM   22  O2  UNL     1       4.799   0.053  -1.684  1.00  0.00    -0.363 OA
HETATM   23  H4  UNL     1       5.782   0.074  -1.826  1.00  0.00     0.217 HD
ENDBRANCH  18  22
ENDBRANCH  16  17
ENDBRANCH   1  16
TORSDOF 9
