REMARK  5 active torsions:
REMARK  status: ('A' for Active; 'I' for Inactive)
REMARK       I    between atoms: N2_5  and  C4_6 
REMARK    1  A    between atoms: C4_6  and  C5_8 
REMARK    2  A    between atoms: C6_9  and  C7_10 
REMARK    3  A    between atoms: C7_10  and  N3_11 
REMARK    4  A    between atoms: C10_14  and  N4_15 
REMARK    5  A    between atoms: N4_15  and  C11_16 
ROOT
HETATM    1  C1  UNL     1      -0.638   5.922  -0.296  1.00  0.00     0.179 C 
HETATM    2  N1  UNL     1      -0.142   4.826   0.500  1.00  0.00    -0.278 NA
HETATM    3  C2  UNL     1      -0.882   3.747   0.556  1.00  0.00     0.138 C 
HETATM    4  C3  UNL     1      -0.330   2.652   1.384  1.00  0.00     0.214 C 
HETATM    5  N2  UNL     1      -0.463   1.339   0.783  1.00  0.00    -0.292 N 
HETATM    6  C4  UNL     1       0.612   0.439   0.547  1.00  0.00     0.249 C 
HETATM    7  O1  UNL     1       0.886  -0.694   0.082  1.00  0.00    -0.268 OA
HETATM    8  C10 UNL     1      -1.716   0.773   0.338  1.00  0.00     0.133 C 
HETATM    9  C17 UNL     1      -2.762   1.404  -0.217  1.00  0.00     0.106 C 
HETATM   10  C18 UNL     1      -3.926   0.638  -0.591  1.00  0.00     0.104 C 
HETATM   11  N5  UNL     1      -4.853   0.046  -0.900  1.00  0.00    -0.191 NA
HETATM   12  C19 UNL     1      -2.935   2.840  -0.529  1.00  0.00     0.145 C 
HETATM   13  N6  UNL     1      -2.102   3.756  -0.169  1.00  0.00    -0.243 NA
ENDROOT
BRANCH   8  14
HETATM   14  N4  UNL     1      -1.894  -0.617   0.498  1.00  0.00    -0.341 N 
HETATM   15  H16 UNL     1      -1.161  -1.189   0.977  1.00  0.00     0.167 HD
BRANCH  14  16
HETATM   16  C11 UNL     1      -2.721  -1.705   0.278  1.00  0.00     0.034 A 
HETATM   17  C12 UNL     1      -3.649  -2.127   1.240  1.00  0.00     0.029 A 
HETATM   18  C13 UNL     1      -4.509  -3.217   1.058  1.00  0.00     0.004 A 
HETATM   19  C14 UNL     1      -4.362  -3.836  -0.147  1.00  0.00     0.019 A 
HETATM   20  C15 UNL     1      -3.493  -3.519  -1.166  1.00  0.00     0.013 A 
HETATM   21 BR1  UNL     1      -3.421  -4.502  -2.796  1.00  0.00    -0.051 Br
HETATM   22  C16 UNL     1      -2.659  -2.421  -0.926  1.00  0.00     0.048 A 
ENDBRANCH  14  16
ENDBRANCH   8  14
BRANCH   6  23
HETATM   23  C5  UNL     1       2.028   0.582   0.830  1.00  0.00     0.072 C 
HETATM   24  C6  UNL     1       3.034  -0.231   0.624  1.00  0.00     0.008 C 
BRANCH  24  25
HETATM   25  C7  UNL     1       3.505  -1.514   0.125  1.00  0.00     0.299 C 
BRANCH  25  26
HETATM   26  N3  UNL     1       4.486  -1.425  -0.943  1.00  0.00     0.083 N 
HETATM   27  C8  UNL     1       4.883  -2.752  -1.367  1.00  0.00     0.309 C 
HETATM   28  C9  UNL     1       5.706  -0.800  -0.405  1.00  0.00     0.309 C 
ENDBRANCH  25  26
ENDBRANCH  24  25
ENDBRANCH   6  23
TORSDOF 5
