REMARK  5 active torsions:
REMARK  status: ('A' for Active; 'I' for Inactive)
REMARK    1  A    between atoms: N1_2  and  C3_4 
REMARK    2  A    between atoms: C4_5  and  C5_6 
REMARK       I    between atoms: C5_6  and  N2_8 
REMARK    3  A    between atoms: N2_8  and  C6_9 
REMARK    4  A    between atoms: C12_18  and  N6_19 
REMARK    5  A    between atoms: N6_19  and  C13_20 
ROOT
HETATM    1  C6  UNL     1       0.591   1.598   0.803  1.00  0.00     0.053 A 
HETATM    2  C7  UNL     1       0.728   2.846   1.378  1.00  0.00     0.148 A 
HETATM    3  N3  UNL     1      -0.256   3.761   1.469  1.00  0.00    -0.238 NA
HETATM    4  C8  UNL     1      -1.450   3.466   0.978  1.00  0.00     0.161 A 
HETATM    5  N4  UNL     1      -2.424   4.412   1.085  1.00  0.00    -0.239 NA
HETATM    6  C9  UNL     1      -3.663   4.140   0.591  1.00  0.00     0.144 A 
HETATM    7  C10 UNL     1      -3.921   2.925  -0.007  1.00  0.00     0.089 A 
HETATM    8  C11 UNL     1      -5.214   2.584  -0.548  1.00  0.00     0.103 C 
HETATM    9  N5  UNL     1      -6.258   2.326  -0.994  1.00  0.00    -0.191 NA
HETATM   10  C12 UNL     1      -2.952   1.942  -0.132  1.00  0.00     0.069 A 
HETATM   11  C19 UNL     1      -1.683   2.234   0.381  1.00  0.00     0.042 A 
HETATM   12  C20 UNL     1      -0.655   1.300   0.295  1.00  0.00     0.048 A 
ENDROOT
BRANCH  10  13
HETATM   13  N6  UNL     1      -3.120   0.684  -0.721  1.00  0.00    -0.354 N 
HETATM   14  H12 UNL     1      -2.879   0.829  -1.725  1.00  0.00     0.166 HD
BRANCH  13  15
HETATM   15  C13 UNL     1      -3.517  -0.532  -0.157  1.00  0.00     0.033 A 
HETATM   16  C14 UNL     1      -3.806  -0.573   1.193  1.00  0.00     0.029 A 
HETATM   17  C15 UNL     1      -4.199  -1.782   1.749  1.00  0.00     0.004 A 
HETATM   18  C16 UNL     1      -4.283  -2.898   0.911  1.00  0.00     0.019 A 
HETATM   19  C17 UNL     1      -3.991  -2.827  -0.421  1.00  0.00     0.013 A 
HETATM   20 BR1  UNL     1      -4.111  -4.352  -1.538  1.00  0.00    -0.051 Br
HETATM   21  C18 UNL     1      -3.592  -1.619  -1.005  1.00  0.00     0.048 A 
ENDBRANCH  13  15
ENDBRANCH  10  13
BRANCH   1  22
HETATM   22  N2  UNL     1       1.660   0.663   0.730  1.00  0.00    -0.322 N 
HETATM   23  C5  UNL     1       2.653   0.451  -0.267  1.00  0.00     0.247 C 
HETATM   24  O1  UNL     1       2.796   1.085  -1.345  1.00  0.00    -0.268 OA
HETATM   25  H9  UNL     1       1.626   0.084   1.590  1.00  0.00     0.169 HD
BRANCH  23  26
HETATM   26  C4  UNL     1       3.606  -0.615  -0.004  1.00  0.00     0.091 C 
HETATM   27  C3  UNL     1       4.546  -0.843  -0.908  1.00  0.00     0.090 C 
BRANCH  27  28
HETATM   28  N1  UNL     1       5.528  -1.861  -0.752  1.00  0.00    -0.398 N 
HETATM   29  C1  UNL     1       5.510  -3.276  -1.138  1.00  0.00     0.148 C 
HETATM   30  C2  UNL     1       6.705  -1.356  -0.104  1.00  0.00     0.148 C 
ENDBRANCH  27  28
ENDBRANCH  23  26
ENDBRANCH   1  22
TORSDOF 5
