REMARK  5 active torsions:
REMARK  status: ('A' for Active; 'I' for Inactive)
REMARK    1  A    between atoms: C2_2  and  C3_3 
REMARK    2  A    between atoms: C3_3  and  C4_4 
REMARK    3  A    between atoms: N1_9  and  C8_10 
REMARK    4  A    between atoms: C14_19  and  N5_20 
REMARK    5  A    between atoms: N5_20  and  C15_21 
ROOT
HETATM    1  C8  UNL     1      -0.874   0.538   0.769  1.00  0.00     0.056 A 
HETATM    2  C9  UNL     1      -1.431   0.174   2.000  1.00  0.00     0.148 A 
HETATM    3  N2  UNL     1      -0.844  -0.790   2.768  1.00  0.00    -0.238 NA
HETATM    4  C10 UNL     1       0.286  -1.410   2.352  1.00  0.00     0.161 A 
HETATM    5  N3  UNL     1       0.881  -2.364   3.093  1.00  0.00    -0.239 NA
HETATM    6  C11 UNL     1       2.020  -2.985   2.668  1.00  0.00     0.144 A 
HETATM    7  C12 UNL     1       2.577  -2.624   1.441  1.00  0.00     0.089 A 
HETATM    8  C13 UNL     1       3.783  -3.247   0.939  1.00  0.00     0.103 C 
HETATM    9  N4  UNL     1       4.766  -3.737   0.543  1.00  0.00    -0.191 NA
HETATM   10  C14 UNL     1       1.999  -1.641   0.634  1.00  0.00     0.069 A 
HETATM   11  C21 UNL     1       0.851  -1.065   1.140  1.00  0.00     0.042 A 
HETATM   12  C22 UNL     1       0.277  -0.092   0.341  1.00  0.00     0.049 A 
ENDROOT
BRANCH  10  13
HETATM   13  N5  UNL     1       2.578  -1.284  -0.612  1.00  0.00    -0.354 N 
HETATM   14  H13 UNL     1       2.191  -1.873  -1.382  1.00  0.00     0.166 HD
BRANCH  13  15
HETATM   15  C15 UNL     1       3.540  -0.274  -0.780  1.00  0.00     0.033 A 
HETATM   16  C16 UNL     1       3.958   0.421   0.324  1.00  0.00     0.029 A 
HETATM   17  C17 UNL     1       4.905   1.412   0.149  1.00  0.00     0.004 A 
HETATM   18  C18 UNL     1       5.388   1.659  -1.120  1.00  0.00     0.019 A 
HETATM   19  C19 UNL     1       4.975   0.965  -2.245  1.00  0.00     0.013 A 
HETATM   20 BR1  UNL     1       5.647   1.313  -3.993  1.00  0.00    -0.051 Br
HETATM   21  C20 UNL     1       4.028  -0.018  -2.031  1.00  0.00     0.048 A 
ENDBRANCH  13  15
ENDBRANCH  10  13
BRANCH   1  22
HETATM   22  N1  UNL     1      -1.626   1.541   0.141  1.00  0.00    -0.305 N 
HETATM   23  C4  UNL     1      -2.642   0.993  -0.702  1.00  0.00     0.116 A 
HETATM   24  C5  UNL     1      -3.334   2.166  -1.281  1.00  0.00     0.004 A 
HETATM   25  C6  UNL     1      -2.792   3.288  -0.833  1.00  0.00     0.072 A 
HETATM   26  C7  UNL     1      -1.699   2.963   0.076  1.00  0.00     0.248 A 
HETATM   27  O1  UNL     1      -0.859   3.598   0.772  1.00  0.00    -0.268 OA
BRANCH  23  28
HETATM   28  C3  UNL     1      -3.642   0.129   0.039  1.00  0.00     0.029 C 
BRANCH  28  29
HETATM   29  C2  UNL     1      -4.685  -0.306  -0.996  1.00  0.00    -0.002 C 
HETATM   30  C1  UNL     1      -5.740  -1.182  -0.353  1.00  0.00     0.005 C 
ENDBRANCH  28  29
ENDBRANCH  23  28
ENDBRANCH   1  22
TORSDOF 5
