REMARK  4 active torsions:
REMARK  status: ('A' for Active; 'I' for Inactive)
REMARK    1  A    between atoms: N1_5  and  C5_6 
REMARK    2  A    between atoms: C10_12  and  C11_13 
REMARK    3  A    between atoms: C12_14  and  C13_15 
REMARK    4  A    between atoms: C13_15  and  N3_16 
ROOT
HETATM    1  C5  UNL     1      -2.052   0.037  -0.743  1.00  0.00     0.178 C 
HETATM    2  C6  UNL     1      -1.889   1.420  -1.124  1.00  0.00     0.101 C 
HETATM    3  N2  UNL     1      -1.768   2.537  -1.431  1.00  0.00    -0.194 NA
HETATM    4  C7  UNL     1      -1.500  -0.880  -1.815  1.00  0.00     0.022 C 
HETATM    5  C8  UNL     1      -0.211  -0.698  -2.118  1.00  0.00    -0.024 C 
HETATM    6  C9  UNL     1       0.818   0.228  -1.622  1.00  0.00     0.058 C 
HETATM    7  C10 UNL     1       1.995  -0.530  -0.993  1.00  0.00     0.135 C 
HETATM    8  N4  UNL     1       1.451  -1.275   0.144  1.00  0.00    -0.274 NA
HETATM    9  C16 UNL     1       1.274  -2.538   0.147  1.00  0.00     0.228 C 
HETATM   10  N5  UNL     1       0.746  -2.621   1.472  1.00  0.00    -0.236 NA
HETATM   11  C17 UNL     1      -0.454  -2.181   1.754  1.00  0.00     0.233 C 
HETATM   12  N6  UNL     1      -1.187  -1.626   0.681  1.00  0.00    -0.254 NA
HETATM   13  C18 UNL     1      -1.211  -0.353   0.450  1.00  0.00     0.142 C 
ENDROOT
BRANCH   1  14
HETATM   14  N1  UNL     1      -3.455  -0.186  -0.524  1.00  0.00    -0.331 N 
HETATM   15  C3  UNL     1      -4.111   0.659   0.415  1.00  0.00     0.012 A 
HETATM   16  C2  UNL     1      -5.410   0.481   0.660  1.00  0.00    -0.058 A 
HETATM   17  C4  UNL     1      -3.509   1.756   1.176  1.00  0.00     0.068 C 
HETATM   18  C1  UNL     1      -6.178   1.322   1.623  1.00  0.00     0.046 C 
HETATM   19  C21 UNL     1      -6.273  -0.539   0.039  1.00  0.00     0.064 A 
HETATM   20  C20 UNL     1      -5.537  -1.366  -0.911  1.00  0.00    -0.005 A 
HETATM   21  C19 UNL     1      -4.256  -1.165  -1.132  1.00  0.00     0.090 A 
ENDBRANCH   1  14
BRANCH   7  22
HETATM   22  C11 UNL     1       3.025   0.397  -0.509  1.00  0.00    -0.002 C 
HETATM   23  C12 UNL     1       3.986   0.035   0.294  1.00  0.00     0.001 C 
BRANCH  23  24
HETATM   24  C13 UNL     1       5.029   1.013   0.772  1.00  0.00     0.298 C 
BRANCH  24  25
HETATM   25  N3  UNL     1       6.345   0.606   0.378  1.00  0.00     0.083 N 
HETATM   26  C14 UNL     1       6.836  -0.575   1.018  1.00  0.00     0.309 C 
HETATM   27  C15 UNL     1       7.323   1.665   0.361  1.00  0.00     0.309 C 
ENDBRANCH  24  25
ENDBRANCH  23  24
ENDBRANCH   7  22
TORSDOF 4
