REMARK  7 active torsions:
REMARK  status: ('A' for Active; 'I' for Inactive)
REMARK    1  A    between atoms: N1_2  and  C3_4 
REMARK    2  A    between atoms: C3_4  and  C4_5 
REMARK    3  A    between atoms: C5_6  and  C6_7 
REMARK       I    between atoms: C6_7  and  N2_9 
REMARK    4  A    between atoms: N2_9  and  C7_10 
REMARK    5  A    between atoms: C7_10  and  N3_11 
REMARK    6  A    between atoms: N3_11  and  C8_12 
REMARK    7  A    between atoms: C10_15  and  C11_16 
ROOT
HETATM    1  C7  UNL     1      -1.241  -2.929   1.187  1.00  0.00     0.275 C 
ENDROOT
BRANCH   1   2
HETATM    2  N2  UNL     1      -0.252  -2.104   0.525  1.00  0.00    -0.340 N 
HETATM    3  C6  UNL     1       0.484  -2.905  -0.400  1.00  0.00     0.242 C 
HETATM    4  O1  UNL     1       0.019  -4.097  -0.326  1.00  0.00    -0.269 OA
HETATM    5  H11 UNL     1       0.037  -1.082   0.573  1.00  0.00     0.164 HD
BRANCH   3   6
HETATM    6  C5  UNL     1       1.582  -2.463  -1.285  1.00  0.00     0.072 C 
HETATM    7  C4  UNL     1       2.081  -1.253  -1.411  1.00  0.00     0.008 C 
BRANCH   7   8
HETATM    8  C3  UNL     1       2.256   0.191  -1.178  1.00  0.00     0.299 C 
BRANCH   8   9
HETATM    9  N1  UNL     1       3.564   0.569  -0.701  1.00  0.00     0.083 N 
HETATM   10  C1  UNL     1       4.555   0.387  -1.712  1.00  0.00     0.309 C 
HETATM   11  C2  UNL     1       3.488   1.893  -0.168  1.00  0.00     0.309 C 
ENDBRANCH   8   9
ENDBRANCH   7   8
ENDBRANCH   3   6
ENDBRANCH   1   2
BRANCH   1  12
HETATM   12  N3  UNL     1      -1.999  -2.140   2.151  1.00  0.00    -0.254 NA
BRANCH  12  13
HETATM   13  C8  UNL     1      -2.498  -1.001   1.690  1.00  0.00     0.141 A 
HETATM   14  N4  UNL     1      -2.273  -0.674   0.411  1.00  0.00    -0.244 NA
HETATM   15  C9  UNL     1      -2.723   0.459  -0.178  1.00  0.00     0.127 A 
HETATM   16  C10 UNL     1      -3.449   1.271   0.664  1.00  0.00    -0.023 A 
HETATM   17  C12 UNL     1      -3.703   0.979   1.972  1.00  0.00    -0.030 A 
HETATM   18  C13 UNL     1      -3.977   0.702   3.319  1.00  0.00     0.007 A 
HETATM   19  C14 UNL     1      -3.221  -0.246   2.621  1.00  0.00     0.090 A 
BRANCH  16  20
HETATM   20  C11 UNL     1      -4.015   2.571   0.161  1.00  0.00     0.125 C 
HETATM   21 BR1  UNL     1      -3.577   2.775  -1.709  1.00  0.00    -0.091 Br
ENDBRANCH  16  20
ENDBRANCH  12  13
ENDBRANCH   1  12
TORSDOF 7
