REMARK  0 active torsions:
REMARK  status: ('A' for Active; 'I' for Inactive)
ROOT
HETATM    1  C1  UNL     1      -2.755  -1.495   0.615  1.00  0.00     0.065 C 
HETATM    2  C2  UNL     1      -1.798  -0.555  -0.223  1.00  0.00     0.239 C 
HETATM    3  N1  UNL     1      -1.563  -1.202  -1.454  1.00  0.00    -0.269 NA
HETATM    4  C3  UNL     1      -0.589  -1.861  -1.893  1.00  0.00     0.125 C 
HETATM    5  C4  UNL     1       0.437  -1.903  -0.862  1.00  0.00    -0.016 A 
HETATM    6  C5  UNL     1       0.777  -2.920  -0.005  1.00  0.00     0.013 A 
HETATM    7  C6  UNL     1       1.751  -2.742   0.957  1.00  0.00     0.004 A 
HETATM    8  C7  UNL     1       2.407  -1.539   1.084  1.00  0.00     0.037 A 
HETATM    9  C8  UNL     1       2.096  -0.499   0.248  1.00  0.00     0.078 A 
HETATM   10  C9  UNL     1       1.107  -0.673  -0.739  1.00  0.00     0.050 A 
HETATM   11  O1  UNL     1       2.663   0.795   0.253  1.00  0.00    -0.290 OA
HETATM   12  C10 UNL     1       1.684   1.823   0.091  1.00  0.00     0.195 A 
HETATM   13  N2  UNL     1       0.404   1.473   0.235  1.00  0.00    -0.205 NA
HETATM   14  C11 UNL     1      -0.678   2.213   0.135  1.00  0.00     0.152 A 
HETATM   15  N3  UNL     1      -0.390   3.515  -0.158  1.00  0.00    -0.241 NA
HETATM   16  C12 UNL     1       0.863   3.974  -0.322  1.00  0.00     0.147 A 
HETATM   17  C13 UNL     1       1.956   3.142  -0.203  1.00  0.00     0.104 A 
HETATM   18 CL1  UNL     1       3.629   3.583  -0.386  1.00  0.00    -0.078 Cl
HETATM   19  C14 UNL     1      -2.047   1.713   0.308  1.00  0.00     0.251 C 
HETATM   20  O2  UNL     1      -2.459   0.643  -0.409  1.00  0.00    -0.358 OA
ENDROOT
TORSDOF 0
