REMARK  4 active torsions:
REMARK  status: ('A' for Active; 'I' for Inactive)
REMARK    1  A    between atoms: C2_2  and  C3_3 
REMARK       I    between atoms: C3_3  and  N1_5 
REMARK    2  A    between atoms: N1_5  and  C4_6 
REMARK    3  A    between atoms: C10_15  and  N5_16 
REMARK    4  A    between atoms: N5_16  and  C11_17 
ROOT
HETATM    1  C4  UNL     1      -1.800  -0.642  -0.282  1.00  0.00     0.053 A 
HETATM    2  C5  UNL     1      -2.192  -1.673  -1.098  1.00  0.00     0.148 A 
HETATM    3  N2  UNL     1      -1.403  -2.686  -1.483  1.00  0.00    -0.238 NA
HETATM    4  C6  UNL     1      -0.120  -2.780  -1.091  1.00  0.00     0.161 A 
HETATM    5  N3  UNL     1       0.735  -3.759  -1.430  1.00  0.00    -0.239 NA
HETATM    6  C7  UNL     1       2.008  -3.799  -1.006  1.00  0.00     0.144 A 
HETATM    7  C8  UNL     1       2.454  -2.787  -0.183  1.00  0.00     0.089 A 
HETATM    8  C9  UNL     1       3.822  -2.878   0.242  1.00  0.00     0.103 C 
HETATM    9  N4  UNL     1       4.926  -2.957   0.605  1.00  0.00    -0.191 NA
HETATM   10  C10 UNL     1       1.612  -1.752   0.198  1.00  0.00     0.069 A 
HETATM   11  C17 UNL     1       0.314  -1.761  -0.268  1.00  0.00     0.042 A 
HETATM   12  C18 UNL     1      -0.492  -0.716   0.133  1.00  0.00     0.048 A 
ENDROOT
BRANCH  10  13
HETATM   13  N5  UNL     1       2.151  -0.764   1.038  1.00  0.00    -0.354 N 
HETATM   14  H9  UNL     1       2.038  -0.977   2.049  1.00  0.00     0.166 HD
BRANCH  13  15
HETATM   15  C11 UNL     1       2.794   0.421   0.584  1.00  0.00     0.034 A 
HETATM   16  C12 UNL     1       2.912   0.644  -0.770  1.00  0.00     0.032 A 
HETATM   17  C13 UNL     1       3.552   1.824  -1.135  1.00  0.00     0.046 A 
HETATM   18  C14 UNL     1       4.038   2.713  -0.182  1.00  0.00     0.138 A 
HETATM   19  F1  UNL     1       4.657   3.856  -0.565  1.00  0.00    -0.204 F 
HETATM   20  C15 UNL     1       3.902   2.458   1.158  1.00  0.00     0.074 A 
HETATM   21 CL1  UNL     1       4.491   3.535   2.404  1.00  0.00    -0.081 Cl
HETATM   22  C16 UNL     1       3.276   1.304   1.517  1.00  0.00     0.056 A 
ENDBRANCH  13  15
ENDBRANCH  10  13
BRANCH   1  23
HETATM   23  N1  UNL     1      -2.578   0.449   0.159  1.00  0.00    -0.326 N 
HETATM   24  C3  UNL     1      -3.934   0.752  -0.123  1.00  0.00     0.221 C 
HETATM   25  O1  UNL     1      -4.601   0.002  -0.852  1.00  0.00    -0.273 OA
HETATM   26  H6  UNL     1      -2.159   1.172   0.782  1.00  0.00     0.169 HD
BRANCH  24  27
HETATM   27  C2  UNL     1      -4.662   1.928   0.392  1.00  0.00     0.098 C 
HETATM   28  C1  UNL     1      -6.080   1.845  -0.166  1.00  0.00     0.014 C 
ENDBRANCH  24  27
ENDBRANCH   1  23
TORSDOF 4
