REMARK  6 active torsions:
REMARK  status: ('A' for Active; 'I' for Inactive)
REMARK    1  A    between atoms: C5_5  and  N1_6 
REMARK    2  A    between atoms: N1_6  and  C6_7 
REMARK    3  A    between atoms: C12_16  and  N5_17 
REMARK    4  A    between atoms: N5_17  and  C13_18 
REMARK    5  A    between atoms: C13_18  and  C14_19 
REMARK    6  A    between atoms: C14_19  and  C15_20 
ROOT
HETATM    1  C6  UNL     1       0.725  -2.059   0.912  1.00  0.00     0.069 A 
HETATM    2  C7  UNL     1       1.231  -3.347   0.893  1.00  0.00     0.089 A 
HETATM    3  C8  UNL     1       2.468  -3.717   1.470  1.00  0.00     0.103 C 
HETATM    4  N2  UNL     1       3.463  -4.009   1.946  1.00  0.00    -0.191 NA
HETATM    5  C9  UNL     1       0.484  -4.335   0.273  1.00  0.00     0.144 A 
HETATM    6  N3  UNL     1      -0.717  -4.055  -0.306  1.00  0.00    -0.239 NA
HETATM    7  C10 UNL     1      -1.149  -2.797  -0.254  1.00  0.00     0.161 A 
HETATM    8  N4  UNL     1      -2.345  -2.550  -0.840  1.00  0.00    -0.238 NA
HETATM    9  C11 UNL     1      -2.838  -1.299  -0.825  1.00  0.00     0.148 A 
HETATM   10  C12 UNL     1      -2.228  -0.217  -0.257  1.00  0.00     0.046 A 
HETATM   11  C16 UNL     1      -0.991  -0.439   0.357  1.00  0.00     0.048 A 
HETATM   12  C17 UNL     1      -0.480  -1.727   0.343  1.00  0.00     0.042 A 
ENDROOT
BRANCH   1  13
HETATM   13  N1  UNL     1       1.451  -1.026   1.534  1.00  0.00    -0.354 N 
HETATM   14  H6  UNL     1       1.259  -0.938   2.550  1.00  0.00     0.166 HD
BRANCH  13  15
HETATM   15  C5  UNL     1       2.381  -0.136   0.918  1.00  0.00     0.034 A 
HETATM   16  C4  UNL     1       3.093   0.845   1.577  1.00  0.00     0.030 A 
HETATM   17  C3  UNL     1       3.966   1.656   0.856  1.00  0.00     0.011 A 
HETATM   18  C2  UNL     1       4.161   1.529  -0.505  1.00  0.00    -0.040 A 
HETATM   19  C1  UNL     1       5.103   2.415  -1.233  1.00  0.00     0.050 C 
HETATM   20  C19 UNL     1       3.423   0.526  -1.139  1.00  0.00     0.042 A 
HETATM   21  C18 UNL     1       2.555  -0.286  -0.440  1.00  0.00     0.053 A 
HETATM   22 CL1  UNL     1       3.645   0.333  -2.876  1.00  0.00    -0.084 Cl
ENDBRANCH  13  15
ENDBRANCH   1  13
BRANCH  10  23
HETATM   23  N5  UNL     1      -2.805   1.084  -0.279  1.00  0.00    -0.388 N 
HETATM   24  H9  UNL     1      -2.309   1.869   0.150  1.00  0.00     0.159 HD
BRANCH  23  25
HETATM   25  C13 UNL     1      -4.098   1.170  -0.939  1.00  0.00     0.126 C 
BRANCH  25  26
HETATM   26  C14 UNL     1      -4.604   2.609  -0.975  1.00  0.00     0.089 C 
BRANCH  26  27
HETATM   27  C15 UNL     1      -5.933   2.587  -1.652  1.00  0.00     0.232 C 
HETATM   28  O1  UNL     1      -6.746   1.820  -1.117  1.00  0.00    -0.307 OA
ENDBRANCH  26  27
ENDBRANCH  25  26
ENDBRANCH  23  25
ENDBRANCH  10  23
TORSDOF 6
