REMARK  5 active torsions:
REMARK  status: ('A' for Active; 'I' for Inactive)
REMARK    1  A    between atoms: C2_2  and  C3_3 
REMARK    2  A    between atoms: C2_2  and  N1_6 
REMARK    3  A    between atoms: C3_3  and  C4_4 
REMARK    4  A    between atoms: N1_6  and  C5_7 
REMARK    5  A    between atoms: C8_10  and  C9_11 
ROOT
HETATM    1  C5  UNL     1       0.672  -0.257  -0.441  1.00  0.00     0.050 C 
HETATM    2  C6  UNL     1       0.358  -0.726   0.828  1.00  0.00     0.041 C 
HETATM    3  C7  UNL     1      -0.997  -1.377   0.981  1.00  0.00    -0.021 C 
HETATM    4  C8  UNL     1      -1.002  -2.599   0.316  1.00  0.00     0.008 C 
HETATM    5  C10 UNL     1      -0.377  -2.901  -1.043  1.00  0.00     0.127 C 
HETATM    6  N3  UNL     1       0.059  -1.977  -1.923  1.00  0.00    -0.269 NA
HETATM    7  C11 UNL     1      -0.162  -0.595  -1.673  1.00  0.00     0.255 C 
HETATM    8  N4  UNL     1      -0.310   0.430  -2.562  1.00  0.00    -0.369 N 
HETATM    9  C12 UNL     1      -0.851   1.667  -1.951  1.00  0.00     0.122 C 
HETATM   10  C13 UNL     1      -1.750   2.219  -1.122  1.00  0.00     0.109 C 
HETATM   11  F1  UNL     1      -1.855   3.582  -0.860  1.00  0.00    -0.209 F 
HETATM   12  C14 UNL     1      -2.701   1.299  -0.471  1.00  0.00     0.075 C 
HETATM   13  C15 UNL     1      -2.316   0.836   0.885  1.00  0.00     0.034 C 
HETATM   14  C16 UNL     1      -3.169  -0.207   1.469  1.00  0.00    -0.025 C 
HETATM   15  C17 UNL     1      -2.408  -1.309   1.490  1.00  0.00     0.008 C 
HETATM   16  H14 UNL     1      -0.123   0.497  -3.564  1.00  0.00     0.161 HD
ENDROOT
BRANCH   1  17
HETATM   17  N1  UNL     1       1.822   0.556  -0.438  1.00  0.00    -0.386 N 
HETATM   18  H8  UNL     1       2.353  -0.313  -0.696  1.00  0.00     0.160 HD
BRANCH  17  19
HETATM   19  C2  UNL     1       2.410   1.865  -0.251  1.00  0.00     0.080 C 
HETATM   20  C1  UNL     1       2.117   2.293   1.182  1.00  0.00     0.032 C 
BRANCH  19  21
HETATM   21  C3  UNL     1       3.933   1.673  -0.320  1.00  0.00     0.061 C 
BRANCH  21  22
HETATM   22  C4  UNL     1       4.336   0.611   0.671  1.00  0.00     0.392 C 
HETATM   23  O1  UNL     1       3.849  -0.144   1.508  1.00  0.00    -0.430 OA
ENDBRANCH  21  22
ENDBRANCH  19  21
ENDBRANCH  17  19
ENDBRANCH   1  17
BRANCH   4  24
HETATM   24  C9  UNL     1      -1.670  -3.762   0.893  1.00  0.00     0.120 C 
HETATM   25  N2  UNL     1      -1.806  -4.976   0.475  1.00  0.00    -0.311 NA
HETATM   26  H11 UNL     1      -1.412  -5.336  -0.437  1.00  0.00     0.186 HD
ENDBRANCH   4  24
TORSDOF 5
