REMARK  5 active torsions:
REMARK  status: ('A' for Active; 'I' for Inactive)
REMARK    1  A    between atoms: C5_5  and  O1_6 
REMARK    2  A    between atoms: C7_8  and  N1_9 
REMARK       I    between atoms: N1_9  and  C8_10 
REMARK    3  A    between atoms: N1_9  and  C15_18 
REMARK    4  A    between atoms: C8_10  and  C9_12 
REMARK    5  A    between atoms: C17_20  and  N2_21 
ROOT
HETATM    1  N1  UNL     1      -0.114   0.202  -0.796  1.00  0.00    -0.262 N 
HETATM    2  C8  UNL     1       1.135   0.886  -0.664  1.00  0.00     0.260 C 
HETATM    3  O2  UNL     1       1.451   1.814  -1.452  1.00  0.00    -0.267 OA
ENDROOT
BRANCH   1   4
HETATM    4  C7  UNL     1      -0.839  -0.834  -0.170  1.00  0.00     0.053 A 
HETATM    5  C2  UNL     1      -1.737  -0.806   0.876  1.00  0.00    -0.034 A 
HETATM    6  C1  UNL     1      -1.974   0.529   1.429  1.00  0.00     0.050 C 
HETATM    7  C3  UNL     1      -2.333  -1.963   1.329  1.00  0.00     0.012 A 
HETATM    8  C4  UNL     1      -2.011  -3.155   0.713  1.00  0.00     0.037 A 
HETATM    9  C5  UNL     1      -1.118  -3.250  -0.339  1.00  0.00     0.067 A 
HETATM   10  C6  UNL     1      -0.532  -2.060  -0.775  1.00  0.00     0.067 A 
BRANCH   9  11
HETATM   11  O1  UNL     1      -0.850  -4.487  -0.902  1.00  0.00    -0.361 OA
HETATM   12  H6  UNL     1      -0.070  -5.082  -0.585  1.00  0.00     0.217 HD
ENDBRANCH   9  11
ENDBRANCH   1   4
BRANCH   1  13
HETATM   13  C15 UNL     1      -0.976   0.609  -1.882  1.00  0.00     0.142 A 
HETATM   14  C16 UNL     1      -1.945   1.589  -1.914  1.00  0.00     0.101 A 
HETATM   15  C17 UNL     1      -2.651   1.793  -3.081  1.00  0.00     0.126 A 
HETATM   16  N3  UNL     1      -2.377   1.028  -4.167  1.00  0.00    -0.225 NA
HETATM   17  C18 UNL     1      -1.420   0.079  -4.094  1.00  0.00     0.237 A 
HETATM   18  N4  UNL     1      -0.702  -0.158  -2.971  1.00  0.00    -0.224 NA
BRANCH  15  19
HETATM   19  N2  UNL     1      -3.626   2.829  -3.001  1.00  0.00    -0.384 N 
HETATM   20  H18 UNL     1      -3.440   3.843  -2.936  1.00  0.00     0.157 HD
HETATM   21  H19 UNL     1      -4.650   2.701  -2.998  1.00  0.00     0.157 HD
ENDBRANCH  15  19
ENDBRANCH   1  13
BRANCH   2  22
HETATM   22  C9  UNL     1       2.091   0.557   0.362  1.00  0.00     0.007 C 
HETATM   23  C10 UNL     1       3.243   1.247   0.422  1.00  0.00    -0.014 C 
HETATM   24  C11 UNL     1       4.230   0.902   1.488  1.00  0.00     0.028 C 
HETATM   25  C12 UNL     1       3.532   0.947   2.829  1.00  0.00     0.004 C 
HETATM   26  C13 UNL     1       2.200   0.227   2.779  1.00  0.00     0.005 C 
HETATM   27  C14 UNL     1       2.031  -0.457   1.416  1.00  0.00     0.044 C 
ENDBRANCH   2  22
TORSDOF 5
