REMARK  5 active torsions:
REMARK  status: ('A' for Active; 'I' for Inactive)
REMARK    1  A    between atoms: C3_3  and  C4_4 
REMARK       I    between atoms: C4_4  and  N1_6 
REMARK    2  A    between atoms: N1_6  and  C5_7 
REMARK    3  A    between atoms: C5_7  and  C6_8 
REMARK    4  A    between atoms: C11_14  and  N3_15 
REMARK    5  A    between atoms: N3_15  and  C12_16 
ROOT
HETATM    1  C1  UNL     1       5.549   2.346  -2.056  1.00  0.00     0.112 C 
HETATM    2  C2  UNL     1       4.708   1.514  -1.198  1.00  0.00    -0.101 C 
HETATM    3  C3  UNL     1       4.016   0.836  -0.480  1.00  0.00    -0.006 C 
ENDROOT
BRANCH   3   4
HETATM    4  C4  UNL     1       3.186   0.003   0.376  1.00  0.00     0.296 C 
HETATM    5  O1  UNL     1       2.840   0.512   1.473  1.00  0.00    -0.258 OA
HETATM    6  N1  UNL     1       2.837  -1.297  -0.085  1.00  0.00    -0.347 N 
HETATM    7  H4  UNL     1       3.195  -1.605  -1.030  1.00  0.00     0.163 HD
BRANCH   6   8
HETATM    8  C5  UNL     1       2.010  -2.138   0.760  1.00  0.00     0.151 C 
BRANCH   8   9
HETATM    9  C6  UNL     1       0.712  -1.452   0.998  1.00  0.00     0.004 C 
HETATM   10  C7  UNL     1      -0.441  -2.030   0.615  1.00  0.00    -0.014 A 
HETATM   11  C8  UNL     1      -0.339  -3.359  -0.042  1.00  0.00     0.189 A 
HETATM   12  C11 UNL     1      -1.680  -1.306   0.876  1.00  0.00     0.041 A 
HETATM   13  N2  UNL     1      -1.661  -3.807  -0.373  1.00  0.00    -0.297 NA
HETATM   14  C9  UNL     1      -2.754  -3.172  -0.144  1.00  0.00     0.113 A 
HETATM   15  C10 UNL     1      -2.819  -1.864   0.505  1.00  0.00     0.049 A 
BRANCH  12  16
HETATM   16  N3  UNL     1      -1.686  -0.034   1.513  1.00  0.00    -0.356 N 
HETATM   17  H12 UNL     1      -1.261  -0.019   2.465  1.00  0.00     0.166 HD
BRANCH  16  18
HETATM   18  C12 UNL     1      -2.211   1.169   0.960  1.00  0.00     0.034 A 
HETATM   19  C13 UNL     1      -2.209   2.410   1.600  1.00  0.00     0.032 A 
HETATM   20  C14 UNL     1      -2.756   3.502   0.942  1.00  0.00     0.046 A 
HETATM   21  C15 UNL     1      -3.310   3.431  -0.327  1.00  0.00     0.138 A 
HETATM   22  F1  UNL     1      -3.838   4.515  -0.946  1.00  0.00    -0.204 F 
HETATM   23  C16 UNL     1      -3.295   2.182  -0.931  1.00  0.00     0.074 A 
HETATM   24 CL1  UNL     1      -4.002   2.087  -2.550  1.00  0.00    -0.081 Cl
HETATM   25  C17 UNL     1      -2.759   1.065  -0.310  1.00  0.00     0.056 A 
ENDBRANCH  16  18
ENDBRANCH  12  16
ENDBRANCH   8   9
ENDBRANCH   6   8
ENDBRANCH   3   4
TORSDOF 5
