REMARK  2 active torsions:
REMARK  status: ('A' for Active; 'I' for Inactive)
REMARK    1  A    between atoms: C12_15  and  N3_16 
REMARK    2  A    between atoms: N3_16  and  C13_17 
ROOT
HETATM    1  N1  UNL     1       0.990  -4.709   1.681  1.00  0.00    -0.190 NA
HETATM    2  C1  UNL     1       0.649  -3.742   1.161  1.00  0.00     0.117 C 
HETATM    3  C2  UNL     1       0.202  -2.550   0.523  1.00  0.00     0.141 C 
HETATM    4  N2  UNL     1      -0.944  -2.145   0.373  1.00  0.00    -0.239 NA
HETATM    5  C3  UNL     1      -1.676  -1.106  -0.158  1.00  0.00     0.065 C 
HETATM    6  C4  UNL     1      -3.004  -1.260   0.100  1.00  0.00     0.007 C 
HETATM    7  C5  UNL     1      -4.465  -1.130   0.204  1.00  0.00     0.041 C 
HETATM    8  C6  UNL     1      -4.910   0.105  -0.665  1.00  0.00     0.098 C 
HETATM    9  C7  UNL     1      -3.754   0.920  -0.744  1.00  0.00    -0.106 C 
HETATM   10  C8  UNL     1      -2.841   1.539  -0.810  1.00  0.00    -0.103 C 
HETATM   11  C9  UNL     1      -1.646   2.319  -0.907  1.00  0.00     0.122 C 
HETATM   12  C10 UNL     1      -0.602   1.188  -1.197  1.00  0.00    -0.000 C 
HETATM   13  C11 UNL     1      -0.887  -0.072  -0.786  1.00  0.00    -0.006 C 
HETATM   14  P1  UNL     1       0.590  -0.862  -1.608  1.00  0.00    -0.062 P 
HETATM   15  C12 UNL     1       1.238  -1.709  -0.045  1.00  0.00     0.174 C 
HETATM   16  H9  UNL     1       0.128  -1.947  -2.460  1.00  0.00     0.065 HD
ENDROOT
BRANCH  15  17
HETATM   17  N3  UNL     1       1.684  -0.647   0.828  1.00  0.00    -0.375 N 
HETATM   18  H11 UNL     1       1.194  -0.606   1.766  1.00  0.00     0.160 HD
BRANCH  17  19
HETATM   19  C13 UNL     1       2.675   0.348   0.622  1.00  0.00     0.030 A 
HETATM   20  C14 UNL     1       2.995   1.318   1.565  1.00  0.00     0.029 A 
HETATM   21  C15 UNL     1       3.981   2.223   1.234  1.00  0.00     0.004 A 
HETATM   22  C16 UNL     1       4.668   2.235   0.039  1.00  0.00     0.019 A 
HETATM   23  C17 UNL     1       4.333   1.259  -0.886  1.00  0.00     0.013 A 
HETATM   24 BR1  UNL     1       5.302   1.300  -2.528  1.00  0.00    -0.051 Br
HETATM   25  C18 UNL     1       3.354   0.347  -0.577  1.00  0.00     0.048 A 
ENDBRANCH  17  19
ENDBRANCH  15  17
TORSDOF 2
