REMARK  4 active torsions:
REMARK  status: ('A' for Active; 'I' for Inactive)
REMARK    1  A    between atoms: C3_3  and  C4_4 
REMARK    2  A    between atoms: C4_4  and  C5_5 
REMARK    3  A    between atoms: C12_14  and  N3_15 
REMARK    4  A    between atoms: N3_15  and  C13_16 
ROOT
HETATM    1  C1  UNL     1       5.416   1.005  -2.256  1.00  0.00     0.112 C 
HETATM    2  C2  UNL     1       4.505   1.142  -1.094  1.00  0.00    -0.111 C 
HETATM    3  C3  UNL     1       3.741   1.245  -0.149  1.00  0.00    -0.102 C 
ENDROOT
BRANCH   3   4
HETATM    4  C4  UNL     1       2.824   1.391   0.968  1.00  0.00     0.132 C 
BRANCH   4   5
HETATM    5  C5  UNL     1       2.100   0.119   1.171  1.00  0.00    -0.046 A 
HETATM    6  C6  UNL     1       2.570  -0.884   2.008  1.00  0.00     0.010 A 
HETATM    7  C7  UNL     1       1.878  -2.066   2.185  1.00  0.00     0.033 A 
HETATM    8  C8  UNL     1       0.691  -2.237   1.505  1.00  0.00     0.069 A 
HETATM    9  N1  UNL     1      -0.006  -3.374   1.655  1.00  0.00    -0.259 NA
HETATM   10  C19 UNL     1       0.232  -1.232   0.675  1.00  0.00     0.021 A 
HETATM   11  C9  UNL     1      -1.164  -3.535   0.989  1.00  0.00     0.142 A 
HETATM   12  C10 UNL     1      -1.663  -2.547   0.141  1.00  0.00     0.089 A 
HETATM   13  C11 UNL     1      -2.921  -2.778  -0.553  1.00  0.00     0.103 C 
HETATM   14  C12 UNL     1      -0.964  -1.370  -0.028  1.00  0.00     0.067 A 
HETATM   15  N2  UNL     1      -3.928  -2.942  -1.105  1.00  0.00    -0.191 NA
HETATM   16  C20 UNL     1       0.906  -0.038   0.479  1.00  0.00     0.024 A 
BRANCH  14  17
HETATM   17  N3  UNL     1      -1.532  -0.422  -0.900  1.00  0.00    -0.354 N 
HETATM   18  H9  UNL     1      -1.240  -0.511  -1.888  1.00  0.00     0.166 HD
BRANCH  17  19
HETATM   19  C13 UNL     1      -2.439   0.587  -0.473  1.00  0.00     0.033 A 
HETATM   20  C14 UNL     1      -2.797   0.663   0.858  1.00  0.00     0.029 A 
HETATM   21  C15 UNL     1      -3.689   1.661   1.254  1.00  0.00     0.004 A 
HETATM   22  C16 UNL     1      -4.173   2.532   0.281  1.00  0.00     0.019 A 
HETATM   23  C17 UNL     1      -3.821   2.469  -1.065  1.00  0.00     0.013 A 
HETATM   24 BR1  UNL     1      -4.540   3.708  -2.311  1.00  0.00    -0.051 Br
HETATM   25  C18 UNL     1      -2.938   1.467  -1.411  1.00  0.00     0.048 A 
ENDBRANCH  17  19
ENDBRANCH  14  17
ENDBRANCH   4   5
ENDBRANCH   3   4
TORSDOF 4
