REMARK  6 active torsions:
REMARK  status: ('A' for Active; 'I' for Inactive)
REMARK    1  A    between atoms: C3_3  and  C4_5 
REMARK    2  A    between atoms: C8_11  and  C9_12 
REMARK    3  A    between atoms: C9_12  and  C10_13 
REMARK    4  A    between atoms: C13_18  and  N4_19 
REMARK    5  A    between atoms: N4_19  and  C14_20 
REMARK    6  A    between atoms: C14_20  and  C15_21 
ROOT
HETATM    1  C10 UNL     1       4.595  -0.689   0.226  1.00  0.00     0.129 C 
HETATM    2  C11 UNL     1       6.027  -0.710   0.065  1.00  0.00     0.059 C 
HETATM    3  N2  UNL     1       7.166  -0.727  -0.074  1.00  0.00    -0.197 NA
ENDROOT
BRANCH   1   4
HETATM    4  C9  UNL     1       3.851   0.009  -0.888  1.00  0.00     0.068 C 
BRANCH   4   5
HETATM    5  C8  UNL     1       2.397  -0.061  -0.567  1.00  0.00     0.014 C 
HETATM    6  C7  UNL     1       1.565   0.589  -1.583  1.00  0.00     0.074 C 
HETATM    7  C6  UNL     1       0.855   1.826  -1.235  1.00  0.00     0.126 C 
HETATM    8  N1  UNL     1      -0.405   1.636  -0.547  1.00  0.00    -0.386 N 
HETATM    9  C5  UNL     1      -0.839   0.706   0.440  1.00  0.00     0.081 C 
HETATM   10  H5  UNL     1      -1.111   2.339  -0.861  1.00  0.00     0.159 HD
HETATM   11  C4  UNL     1      -2.077   0.980   0.741  1.00  0.00     0.101 C 
HETATM   12  C13 UNL     1      -0.319  -0.434   1.193  1.00  0.00     0.074 C 
HETATM   13 CL1  UNL     1      -3.379   0.435   1.772  1.00  0.00    -0.079 Cl
HETATM   14  C12 UNL     1       0.908  -0.960   1.198  1.00  0.00     0.148 C 
HETATM   15  N3  UNL     1       2.138  -0.677   0.539  1.00  0.00    -0.267 NA
BRANCH  11  16
HETATM   16  C3  UNL     1      -2.818   2.064   0.131  1.00  0.00     0.136 C 
HETATM   17  C2  UNL     1      -3.545   1.957  -0.971  1.00  0.00     0.013 C 
HETATM   18  C1  UNL     1      -3.685   0.684  -1.722  1.00  0.00     0.039 C 
HETATM   19  F1  UNL     1      -2.672   3.231   0.843  1.00  0.00    -0.205 F 
ENDBRANCH  11  16
BRANCH  12  20
HETATM   20  N4  UNL     1      -1.230  -1.074   2.035  1.00  0.00    -0.381 N 
HETATM   21  H15 UNL     1      -1.396  -0.630   2.971  1.00  0.00     0.160 HD
BRANCH  20  22
HETATM   22  C14 UNL     1      -1.719  -2.249   1.325  1.00  0.00     0.189 C 
BRANCH  22  23
HETATM   23  C15 UNL     1      -2.708  -2.985   2.181  1.00  0.00     0.250 C 
HETATM   24  O1  UNL     1      -3.052  -2.651   3.305  1.00  0.00    -0.305 OA
ENDBRANCH  22  23
ENDBRANCH  20  22
ENDBRANCH  12  20
ENDBRANCH   4   5
ENDBRANCH   1   4
TORSDOF 6
