REMARK  6 active torsions:
REMARK  status: ('A' for Active; 'I' for Inactive)
REMARK    1  A    between atoms: C3_3  and  N1_4 
REMARK    2  A    between atoms: N1_4  and  C4_5 
REMARK    3  A    between atoms: C13_17  and  C14_18 
REMARK    4  A    between atoms: C14_18  and  C15_19 
REMARK    5  A    between atoms: C15_19  and  N4_20 
REMARK       I    between atoms: N4_20  and  C16_21 
REMARK    6  A    between atoms: C16_21  and  C17_23 
ROOT
HETATM    1  C1  UNL     1      -0.784  -1.548  -0.913  1.00  0.00     0.028 C 
HETATM    2  C2  UNL     1      -0.776  -1.285   0.384  1.00  0.00     0.011 A 
HETATM    3  C3  UNL     1      -1.960  -0.906   0.984  1.00  0.00     0.067 A 
HETATM    4  C10 UNL     1      -1.889  -0.645   2.337  1.00  0.00     0.089 A 
HETATM    5  C11 UNL     1      -3.082  -0.243   3.034  1.00  0.00     0.103 C 
HETATM    6  N2  UNL     1      -4.031   0.070   3.584  1.00  0.00    -0.191 NA
HETATM    7  C12 UNL     1      -0.699  -0.762   3.029  1.00  0.00     0.142 A 
HETATM    8  N3  UNL     1       0.423  -1.135   2.397  1.00  0.00    -0.259 NA
HETATM    9  C13 UNL     1       0.408  -1.400   1.081  1.00  0.00     0.066 A 
ENDROOT
BRANCH   3  10
HETATM   10  N1  UNL     1      -3.163  -0.798   0.232  1.00  0.00    -0.354 N 
HETATM   11  H3  UNL     1      -3.666  -1.706   0.236  1.00  0.00     0.166 HD
BRANCH  10  12
HETATM   12  C4  UNL     1      -3.610   0.381  -0.427  1.00  0.00     0.033 A 
HETATM   13  C5  UNL     1      -2.817   1.503  -0.330  1.00  0.00     0.029 A 
HETATM   14  C6  UNL     1      -3.282   2.648  -0.988  1.00  0.00     0.004 A 
HETATM   15  C7  UNL     1      -4.491   2.600  -1.691  1.00  0.00     0.019 A 
HETATM   16  C8  UNL     1      -5.231   1.438  -1.743  1.00  0.00     0.013 A 
HETATM   17 BR1  UNL     1      -6.898   1.344  -2.702  1.00  0.00    -0.051 Br
HETATM   18  C9  UNL     1      -4.808   0.274  -1.103  1.00  0.00     0.048 A 
ENDBRANCH  10  12
ENDBRANCH   3  10
BRANCH   9  19
HETATM   19  C14 UNL     1       1.558  -1.762   0.532  1.00  0.00     0.025 C 
BRANCH  19  20
HETATM   20  C15 UNL     1       2.822  -1.881   1.298  1.00  0.00     0.153 C 
BRANCH  20  21
HETATM   21  N4  UNL     1       3.761  -0.877   0.837  1.00  0.00    -0.347 N 
HETATM   22  C16 UNL     1       4.200  -0.842  -0.514  1.00  0.00     0.296 C 
HETATM   23  O1  UNL     1       3.808  -1.669  -1.391  1.00  0.00    -0.258 OA
HETATM   24  H12 UNL     1       4.148  -0.146   1.482  1.00  0.00     0.163 HD
BRANCH  22  25
HETATM   25  C17 UNL     1       5.137   0.172  -0.937  1.00  0.00    -0.006 C 
HETATM   26  C18 UNL     1       5.943   1.015  -1.299  1.00  0.00    -0.101 C 
HETATM   27  C19 UNL     1       6.928   2.019  -1.717  1.00  0.00     0.112 C 
ENDBRANCH  22  25
ENDBRANCH  20  21
ENDBRANCH  19  20
ENDBRANCH   9  19
TORSDOF 6
