REMARK  6 active torsions:
REMARK  status: ('A' for Active; 'I' for Inactive)
REMARK    1  A    between atoms: C2_2  and  C3_3 
REMARK    2  A    between atoms: C11_13  and  O1_14 
REMARK    3  A    between atoms: O1_14  and  C12_15 
REMARK    4  A    between atoms: C16_19  and  N3_20 
REMARK    5  A    between atoms: N3_20  and  C17_21 
REMARK    6  A    between atoms: C17_21  and  C18_22 
ROOT
HETATM    1  C3  UNL     1      -2.559  -1.025  -0.551  1.00  0.00     0.067 C 
HETATM    2  C4  UNL     1      -3.332   0.225  -0.739  1.00  0.00     0.014 C 
HETATM    3  C5  UNL     1      -3.111   1.350  -0.071  1.00  0.00     0.018 C 
HETATM    4  C6  UNL     1      -2.031   1.449   0.946  1.00  0.00     0.147 C 
HETATM    5  N1  UNL     1      -1.515   0.151   1.220  1.00  0.00    -0.394 N 
HETATM    6  C7  UNL     1      -0.614   0.103   2.306  1.00  0.00     0.148 C 
HETATM    7  C8  UNL     1      -0.349  -1.296   2.796  1.00  0.00     0.289 C 
HETATM    8  N2  UNL     1      -0.952  -2.276   1.945  1.00  0.00     0.087 N 
HETATM    9  C9  UNL     1      -0.658  -1.983   0.581  1.00  0.00     0.304 C 
HETATM   10  C10 UNL     1      -1.229  -0.669   0.076  1.00  0.00     0.095 C 
HETATM   11  C11 UNL     1      -0.260  -0.070  -0.879  1.00  0.00     0.205 C 
HETATM   12  C20 UNL     1      -0.792   0.270  -2.227  1.00  0.00     0.061 C 
HETATM   13 CL1  UNL     1       0.599   0.935  -3.130  1.00  0.00    -0.085 Cl
HETATM   14  C21 UNL     1      -1.925   0.218  -2.865  1.00  0.00     0.140 C 
HETATM   15  N4  UNL     1      -3.140   0.186  -3.621  1.00  0.00    -0.255 NA
HETATM   16  C22 UNL     1      -4.294   0.301  -3.028  1.00  0.00     0.207 C 
HETATM   17  N5  UNL     1      -4.421   0.460  -1.628  1.00  0.00    -0.354 N 
HETATM   18  H14 UNL     1      -0.509  -3.192   2.162  1.00  0.00     0.316 HD
HETATM   19  H28 UNL     1      -5.320   0.759  -1.225  1.00  0.00     0.166 HD
ENDROOT
BRANCH  11  20
HETATM   20  O1  UNL     1       0.434   1.039  -0.332  1.00  0.00    -0.338 OA
BRANCH  20  21
HETATM   21  C12 UNL     1       1.801   1.168  -0.225  1.00  0.00     0.072 A 
HETATM   22  C13 UNL     1       2.124   2.391   0.374  1.00  0.00     0.037 A 
HETATM   23  C14 UNL     1       3.453   2.748   0.589  1.00  0.00     0.005 A 
HETATM   24  C15 UNL     1       4.487   1.910   0.219  1.00  0.00     0.029 A 
HETATM   25  C16 UNL     1       4.155   0.709  -0.369  1.00  0.00     0.030 A 
HETATM   26  C19 UNL     1       2.844   0.347  -0.586  1.00  0.00     0.065 A 
BRANCH  25  27
HETATM   27  N3  UNL     1       5.159  -0.202  -0.776  1.00  0.00    -0.387 N 
HETATM   28  H21 UNL     1       4.941  -1.115  -1.226  1.00  0.00     0.159 HD
BRANCH  27  29
HETATM   29  C17 UNL     1       6.557   0.102  -0.581  1.00  0.00     0.156 C 
BRANCH  29  30
HETATM   30  C18 UNL     1       6.918   0.271   0.858  1.00  0.00     0.410 C 
HETATM   31  O2  UNL     1       6.574   0.275   2.015  1.00  0.00    -0.428 OA
ENDBRANCH  29  30
ENDBRANCH  27  29
ENDBRANCH  25  27
ENDBRANCH  20  21
ENDBRANCH  11  20
BRANCH   1  32
HETATM   32  C2  UNL     1      -3.349  -1.802   0.522  1.00  0.00     0.009 C 
HETATM   33  C1  UNL     1      -4.756  -2.073   0.031  1.00  0.00     0.006 C 
ENDBRANCH   1  32
TORSDOF 6
