REMARK  8 active torsions:
REMARK  status: ('A' for Active; 'I' for Inactive)
REMARK    1  A    between atoms: C3_3  and  C4_4 
REMARK       I    between atoms: C4_4  and  N1_6 
REMARK    2  A    between atoms: N1_6  and  C5_7 
REMARK    3  A    between atoms: C5_7  and  C7_9 
REMARK    4  A    between atoms: C5_7  and  N3_19 
REMARK    5  A    between atoms: C7_9  and  C8_10 
REMARK    6  A    between atoms: C8_10  and  N2_11 
REMARK    7  A    between atoms: N2_11  and  C9_12 
REMARK    8  A    between atoms: C15_20  and  C16_21 
ROOT
HETATM    1  C1  UNL     1      -3.962   4.075   0.549  1.00  0.00     0.112 C 
HETATM    2  C2  UNL     1      -3.305   2.881  -0.019  1.00  0.00    -0.101 C 
HETATM    3  C3  UNL     1      -2.777   1.892  -0.490  1.00  0.00    -0.006 C 
ENDROOT
BRANCH   3   4
HETATM    4  C4  UNL     1      -2.165   0.705  -1.033  1.00  0.00     0.298 C 
HETATM    5  O1  UNL     1      -2.108   0.625  -2.273  1.00  0.00    -0.258 OA
HETATM    6  N1  UNL     1      -1.651  -0.323  -0.192  1.00  0.00    -0.322 N 
HETATM    7  H4  UNL     1      -1.764  -0.127   0.847  1.00  0.00     0.166 HD
BRANCH   6   8
HETATM    8  C5  UNL     1      -1.024  -1.541  -0.701  1.00  0.00     0.125 C 
HETATM    9  C6  UNL     1      -1.920  -2.364  -1.563  1.00  0.00     0.065 C 
BRANCH   8  10
HETATM   10  C7  UNL     1       0.240  -1.113  -1.448  1.00  0.00     0.075 C 
BRANCH  10  11
HETATM   11  C8  UNL     1       1.165  -0.392  -0.497  1.00  0.00     0.124 C 
BRANCH  11  12
HETATM   12  N2  UNL     1       2.368   0.017  -1.202  1.00  0.00    -0.390 N 
HETATM   13  H12 UNL     1       2.571  -0.155  -2.211  1.00  0.00     0.159 HD
BRANCH  12  14
HETATM   14  C9  UNL     1       3.350   0.715  -0.439  1.00  0.00     0.029 A 
HETATM   15  C10 UNL     1       3.172   0.989   0.895  1.00  0.00     0.029 A 
HETATM   16  C11 UNL     1       4.119   1.665   1.640  1.00  0.00     0.004 A 
HETATM   17  C12 UNL     1       5.301   2.095   1.049  1.00  0.00     0.019 A 
HETATM   18  C13 UNL     1       5.518   1.835  -0.303  1.00  0.00     0.013 A 
HETATM   19 BR1  UNL     1       7.133   2.418  -1.129  1.00  0.00    -0.051 Br
HETATM   20  C14 UNL     1       4.530   1.155  -0.989  1.00  0.00     0.048 A 
ENDBRANCH  12  14
ENDBRANCH  11  12
ENDBRANCH  10  11
ENDBRANCH   8  10
BRANCH   8  21
HETATM   21  N3  UNL     1      -0.651  -2.324   0.443  1.00  0.00    -0.273 NA
HETATM   22  C15 UNL     1      -1.478  -2.705   1.311  1.00  0.00     0.100 C 
BRANCH  22  23
HETATM   23  C16 UNL     1      -2.933  -2.556   1.521  1.00  0.00     0.170 C 
HETATM   24  C17 UNL     1      -3.411  -3.720   2.307  1.00  0.00     0.064 C 
HETATM   25  N4  UNL     1      -3.806  -4.634   2.926  1.00  0.00    -0.197 NA
ENDBRANCH  22  23
ENDBRANCH   8  21
ENDBRANCH   6   8
ENDBRANCH   3   4
TORSDOF 8
