REMARK  2 active torsions:
REMARK  status: ('A' for Active; 'I' for Inactive)
REMARK    1  A    between atoms: N1_7  and  C6_8 
REMARK    2  A    between atoms: C6_8  and  C10_13 
ROOT
HETATM    1  C6  UNL     1      -0.668  -0.756  -0.132  1.00  0.00     0.066 C 
HETATM    2  C7  UNL     1      -1.046  -2.000   0.088  1.00  0.00     0.046 C 
HETATM    3  C8  UNL     1      -2.384  -2.534  -0.267  1.00  0.00     0.062 C 
HETATM    4  C9  UNL     1      -0.140  -2.974   0.677  1.00  0.00     0.097 C 
HETATM    5  N2  UNL     1       0.610  -3.751   1.148  1.00  0.00    -0.192 NA
ENDROOT
BRANCH   1   6
HETATM    6  N1  UNL     1      -1.383   0.284  -0.711  1.00  0.00    -0.319 N 
HETATM    7  C2  UNL     1      -1.299   1.682  -0.425  1.00  0.00     0.048 C 
HETATM    8  C1  UNL     1      -0.478   2.178   0.486  1.00  0.00     0.045 C 
HETATM    9  C3  UNL     1      -2.220   2.434  -1.264  1.00  0.00     0.050 C 
HETATM   10 BR1  UNL     1      -2.616   4.296  -1.069  1.00  0.00    -0.048 Br
HETATM   11  C4  UNL     1      -2.624   1.509  -2.086  1.00  0.00     0.013 C 
HETATM   12  C5  UNL     1      -2.388   0.279  -1.744  1.00  0.00     0.111 C 
ENDBRANCH   1   6
BRANCH   1  13
HETATM   13  C10 UNL     1       0.683  -0.358   0.308  1.00  0.00    -0.006 A 
HETATM   14  C11 UNL     1       1.061  -0.736   1.586  1.00  0.00     0.014 A 
HETATM   15  C12 UNL     1       2.343  -0.380   2.002  1.00  0.00     0.002 A 
HETATM   16  C13 UNL     1       3.160   0.325   1.124  1.00  0.00     0.023 A 
HETATM   17  C14 UNL     1       2.776   0.701  -0.156  1.00  0.00     0.045 A 
HETATM   18  C15 UNL     1       3.593   1.418  -1.062  1.00  0.00     0.099 C 
HETATM   19  C16 UNL     1       1.506   0.340  -0.547  1.00  0.00     0.036 A 
HETATM   20  N3  UNL     1       4.258   1.992  -1.804  1.00  0.00    -0.191 NA
ENDBRANCH   1  13
TORSDOF 2
