REMARK  5 active torsions:
REMARK  status: ('A' for Active; 'I' for Inactive)
REMARK    1  A    between atoms: C3_3  and  C4_4 
REMARK       I    between atoms: C4_4  and  N1_6 
REMARK    2  A    between atoms: N1_6  and  C5_7 
REMARK    3  A    between atoms: C12_16  and  C13_17 
REMARK    4  A    between atoms: C13_17  and  C14_18 
REMARK    5  A    between atoms: C15_19  and  N4_21 
ROOT
HETATM    1  C1  UNL     1       5.661   0.237   4.424  1.00  0.00     0.112 C 
HETATM    2  C2  UNL     1       5.079   0.215   3.060  1.00  0.00    -0.101 C 
HETATM    3  C3  UNL     1       4.596   0.183   1.958  1.00  0.00    -0.006 C 
ENDROOT
BRANCH   3   4
HETATM    4  C4  UNL     1       3.999   0.139   0.656  1.00  0.00     0.300 C 
HETATM    5  O1  UNL     1       4.785   0.232  -0.312  1.00  0.00    -0.258 OA
HETATM    6  N1  UNL     1       2.634   0.004   0.381  1.00  0.00    -0.316 N 
HETATM    7  H4  UNL     1       2.094  -0.063   1.274  1.00  0.00     0.170 HD
BRANCH   6   8
HETATM    8  C5  UNL     1       1.955  -0.049  -0.852  1.00  0.00     0.036 A 
HETATM    9  C6  UNL     1       2.537   0.032  -2.096  1.00  0.00     0.032 A 
HETATM   10  C7  UNL     1       1.827  -0.027  -3.273  1.00  0.00     0.035 A 
HETATM   11  C8  UNL     1       0.459  -0.173  -3.175  1.00  0.00     0.067 A 
HETATM   12  N2  UNL     1      -0.223  -0.271  -4.322  1.00  0.00    -0.259 NA
HETATM   13  C19 UNL     1      -0.214  -0.259  -1.976  1.00  0.00     0.007 A 
HETATM   14  C9  UNL     1      -1.549  -0.452  -4.291  1.00  0.00     0.140 A 
HETATM   15  C10 UNL     1      -2.181  -0.529  -3.067  1.00  0.00     0.074 A 
HETATM   16  C11 UNL     1      -3.621  -0.659  -3.202  1.00  0.00     0.102 C 
HETATM   17  C12 UNL     1      -1.554  -0.438  -1.816  1.00  0.00     0.009 A 
HETATM   18  N3  UNL     1      -4.777  -0.745  -3.301  1.00  0.00    -0.191 NA
HETATM   19  C20 UNL     1       0.598  -0.192  -0.873  1.00  0.00     0.044 A 
BRANCH  17  20
HETATM   20  C13 UNL     1      -2.288  -0.622  -0.589  1.00  0.00    -0.026 C 
HETATM   21  C17 UNL     1      -3.256  -1.545  -0.557  1.00  0.00    -0.019 C 
HETATM   22  C18 UNL     1      -4.241  -2.079   0.409  1.00  0.00     0.037 C 
BRANCH  20  23
HETATM   23  C14 UNL     1      -2.205   0.137   0.640  1.00  0.00     0.036 C 
HETATM   24  C15 UNL     1      -1.770   1.113   1.452  1.00  0.00    -0.001 C 
HETATM   25  C16 UNL     1      -1.960   1.619   2.854  1.00  0.00     0.067 C 
BRANCH  24  26
HETATM   26  N4  UNL     1      -0.833   2.095   0.938  1.00  0.00    -0.403 N 
HETATM   27  H12 UNL     1      -0.076   2.678   0.542  1.00  0.00     0.156 HD
HETATM   28  H13 UNL     1      -0.903   3.148   0.876  1.00  0.00     0.156 HD
ENDBRANCH  24  26
ENDBRANCH  20  23
ENDBRANCH  17  20
ENDBRANCH   6   8
ENDBRANCH   3   4
TORSDOF 5
