REMARK  9 active torsions:
REMARK  status: ('A' for Active; 'I' for Inactive)
REMARK    1  A    between atoms: C3_3  and  C4_4 
REMARK    2  A    between atoms: C3_3  and  N2_9 
REMARK    3  A    between atoms: C4_4  and  C5_5 
REMARK    4  A    between atoms: C5_5  and  N1_6 
REMARK    5  A    between atoms: C8_10  and  C9_11 
REMARK    6  A    between atoms: C9_11  and  N3_12 
REMARK    7  A    between atoms: C11_14  and  C13_17 
REMARK    8  A    between atoms: C13_17  and  N5_18 
REMARK    9  A    between atoms: N5_18  and  C14_19 
ROOT
HETATM    1  N3  UNL     1       0.831   0.180   0.034  1.00  0.00     0.031 N 
HETATM    2  C10 UNL     1       1.375  -1.123   0.090  1.00  0.00     0.287 A 
HETATM    3  C11 UNL     1       2.380  -0.298  -0.157  1.00  0.00     0.259 A 
HETATM    4  C12 UNL     1       2.025   1.089  -0.251  1.00  0.00     0.276 A 
HETATM    5  N4  UNL     1       1.719   2.224  -0.321  1.00  0.00    -0.123 N 
ENDROOT
BRANCH   1   6
HETATM    6  C9  UNL     1      -0.417   0.284  -0.345  1.00  0.00     0.232 C 
BRANCH   6   7
HETATM    7  C8  UNL     1      -1.492  -0.641  -0.760  1.00  0.00     0.142 C 
HETATM    8  N2  UNL     1      -2.727  -0.551  -1.138  1.00  0.00    -0.264 NA
BRANCH   8   9
HETATM    9  C3  UNL     1      -3.413   0.691  -1.243  1.00  0.00     0.032 C 
HETATM   10  C2  UNL     1      -3.267   1.436  -2.329  1.00  0.00    -0.004 C 
HETATM   11  C1  UNL     1      -2.395   0.993  -3.445  1.00  0.00     0.038 C 
BRANCH   9  12
HETATM   12  C4  UNL     1      -4.287   1.129  -0.117  1.00  0.00     0.089 C 
BRANCH  12  13
HETATM   13  C5  UNL     1      -5.356   0.072   0.049  1.00  0.00     0.277 C 
BRANCH  13  14
HETATM   14  N1  UNL     1      -6.272   0.372   1.108  1.00  0.00     0.080 N 
HETATM   15  C6  UNL     1      -7.251  -0.697   1.182  1.00  0.00     0.309 C 
HETATM   16  C7  UNL     1      -5.540   0.433   2.350  1.00  0.00     0.309 C 
ENDBRANCH  13  14
ENDBRANCH  12  13
ENDBRANCH   9  12
ENDBRANCH   8   9
ENDBRANCH   6   7
ENDBRANCH   1   6
BRANCH   3  17
HETATM   17  C13 UNL     1       3.833  -0.584  -0.354  1.00  0.00     0.171 C 
BRANCH  17  18
HETATM   18  N5  UNL     1       4.532   0.151   0.690  1.00  0.00    -0.387 N 
HETATM   19  H20 UNL     1       4.061   0.749   1.415  1.00  0.00     0.159 HD
BRANCH  18  20
HETATM   20  C14 UNL     1       5.952   0.050   0.731  1.00  0.00     0.030 A 
HETATM   21  C15 UNL     1       6.590  -0.737  -0.220  1.00  0.00     0.029 A 
HETATM   22  C16 UNL     1       7.970  -0.897  -0.261  1.00  0.00     0.005 A 
HETATM   23  C17 UNL     1       8.720  -0.225   0.707  1.00  0.00     0.042 A 
HETATM   24  C18 UNL     1       8.068   0.547   1.636  1.00  0.00     0.118 A 
HETATM   25  F1  UNL     1       8.796   1.211   2.592  1.00  0.00    -0.206 F 
HETATM   26  C19 UNL     1       6.698   0.712   1.686  1.00  0.00     0.071 A 
ENDBRANCH  18  20
ENDBRANCH  17  18
ENDBRANCH   3  17
TORSDOF 9
