REMARK  2 active torsions:
REMARK  status: ('A' for Active; 'I' for Inactive)
REMARK    1  A    between atoms: C3_4  and  N2_5 
REMARK    2  A    between atoms: N2_5  and  C4_6 
ROOT
HETATM    1  N1  UNL     1       2.789  -3.845  -0.789  1.00  0.00    -0.192 NA
HETATM    2  C1  UNL     1       1.888  -3.056  -0.813  1.00  0.00     0.099 C 
HETATM    3  C2  UNL     1       0.765  -2.100  -0.859  1.00  0.00     0.073 C 
HETATM    4  C3  UNL     1       1.187  -0.820  -0.952  1.00  0.00     0.144 C 
HETATM    5  N3  UNL     1       1.015   0.589  -1.039  1.00  0.00    -0.246 NA
HETATM    6  C10 UNL     1       0.481   1.333  -0.170  1.00  0.00     0.093 C 
HETATM    7  C11 UNL     1       0.224   2.771  -0.087  1.00  0.00     0.066 C 
HETATM    8  C12 UNL     1      -1.230   3.054  -0.494  1.00  0.00     0.119 C 
HETATM    9  N4  UNL     1      -2.107   2.322   0.351  1.00  0.00    -0.419 N 
HETATM   10  C13 UNL     1      -3.502   2.421   0.083  1.00  0.00     0.140 C 
HETATM   11  C14 UNL     1      -4.135   1.352   1.034  1.00  0.00     0.195 C 
HETATM   12  O1  UNL     1      -3.492   0.166   0.616  1.00  0.00    -0.347 OA
HETATM   13  C15 UNL     1      -3.935  -1.099   0.617  1.00  0.00     0.093 C 
HETATM   14  C16 UNL     1      -2.663  -1.505   0.805  1.00  0.00     0.051 C 
HETATM   15  P1  UNL     1      -2.058  -2.015  -0.845  1.00  0.00    -0.044 P 
HETATM   16  C17 UNL     1      -3.360  -3.036  -1.674  1.00  0.00     0.125 C 
HETATM   17  N5  UNL     1      -4.213  -3.618  -0.891  1.00  0.00    -0.268 NA
HETATM   18  P2  UNL     1      -4.738  -2.735   0.588  1.00  0.00     0.056 P 
HETATM   19  C18 UNL     1      -0.466  -2.889  -0.794  1.00  0.00     0.098 C 
HETATM   20  H11 UNL     1      -1.795   1.383   0.643  1.00  0.00     0.153 HD
HETATM   21  H18 UNL     1      -6.172  -2.534   0.431  1.00  0.00     0.089 HD
ENDROOT
BRANCH   4  22
HETATM   22  N2  UNL     1       2.588  -0.614  -0.991  1.00  0.00    -0.340 N 
HETATM   23  H1  UNL     1       2.828  -0.980  -1.968  1.00  0.00     0.167 HD
BRANCH  22  24
HETATM   24  C4  UNL     1       3.662  -0.147  -0.238  1.00  0.00     0.035 A 
HETATM   25  C5  UNL     1       4.936  -0.123  -0.756  1.00  0.00     0.029 A 
HETATM   26  C6  UNL     1       6.004   0.329  -0.027  1.00  0.00     0.004 A 
HETATM   27  C7  UNL     1       5.777   0.771   1.266  1.00  0.00     0.019 A 
HETATM   28  C8  UNL     1       4.519   0.762   1.818  1.00  0.00     0.013 A 
HETATM   29 BR1  UNL     1       4.350   1.400   3.604  1.00  0.00    -0.051 Br
HETATM   30  C9  UNL     1       3.455   0.302   1.068  1.00  0.00     0.048 A 
ENDBRANCH  22  24
ENDBRANCH   4  22
TORSDOF 2
