REMARK  5 active torsions:
REMARK  status: ('A' for Active; 'I' for Inactive)
REMARK    1  A    between atoms: N1_2  and  C3_4 
REMARK    2  A    between atoms: C3_4  and  O1_5 
REMARK    3  A    between atoms: O1_5  and  C4_6 
REMARK    4  A    between atoms: C7_9  and  N2_10 
REMARK    5  A    between atoms: N2_10  and  C8_11 
ROOT
HETATM    1  C4  UNL     1       1.434  -0.370   1.116  1.00  0.00     0.166 A 
HETATM    2  C5  UNL     1       0.064  -0.289   0.971  1.00  0.00     0.074 A 
HETATM    3  C6  UNL     1      -0.560   0.895   1.366  1.00  0.00     0.026 A 
HETATM    4  C7  UNL     1      -1.930   0.961   1.216  1.00  0.00     0.068 A 
HETATM    5  C14 UNL     1      -2.554   2.136   1.607  1.00  0.00     0.089 A 
HETATM    6  C15 UNL     1      -3.976   2.265   1.475  1.00  0.00     0.103 C 
HETATM    7  N3  UNL     1      -5.143   2.384   1.378  1.00  0.00    -0.191 NA
HETATM    8  C16 UNL     1      -1.779   3.162   2.119  1.00  0.00     0.142 A 
HETATM    9  N4  UNL     1      -0.441   3.038   2.241  1.00  0.00    -0.257 NA
HETATM   10  C17 UNL     1       0.219   1.915   1.876  1.00  0.00     0.086 A 
HETATM   11  C18 UNL     1       1.589   1.814   2.012  1.00  0.00     0.152 A 
HETATM   12  N5  UNL     1       2.173   0.644   1.617  1.00  0.00    -0.235 NA
ENDROOT
BRANCH   4  13
HETATM   13  N2  UNL     1      -2.663  -0.134   0.683  1.00  0.00    -0.354 N 
HETATM   14  H10 UNL     1      -2.908  -0.695   1.514  1.00  0.00     0.166 HD
BRANCH  13  15
HETATM   15  C8  UNL     1      -3.008  -0.435  -0.662  1.00  0.00     0.033 A 
HETATM   16  C9  UNL     1      -2.599   0.422  -1.659  1.00  0.00     0.029 A 
HETATM   17  C10 UNL     1      -2.974   0.057  -2.936  1.00  0.00     0.004 A 
HETATM   18  C11 UNL     1      -3.716  -1.093  -3.228  1.00  0.00     0.019 A 
HETATM   19  C12 UNL     1      -4.080  -1.892  -2.156  1.00  0.00     0.013 A 
HETATM   20 BR1  UNL     1      -5.101  -3.495  -2.461  1.00  0.00    -0.051 Br
HETATM   21  C13 UNL     1      -3.735  -1.586  -0.836  1.00  0.00     0.048 A 
ENDBRANCH  13  15
ENDBRANCH   4  13
BRANCH   1  22
HETATM   22  O1  UNL     1       2.026  -1.560   0.714  1.00  0.00    -0.315 OA
BRANCH  22  23
HETATM   23  C3  UNL     1       3.439  -1.719   0.832  1.00  0.00     0.296 C 
BRANCH  23  24
HETATM   24  N1  UNL     1       4.165  -0.748   0.075  1.00  0.00    -0.400 N 
HETATM   25  C1  UNL     1       5.593  -0.885   0.177  1.00  0.00     0.144 C 
HETATM   26  C2  UNL     1       3.679  -0.490  -1.241  1.00  0.00     0.144 C 
ENDBRANCH  23  24
ENDBRANCH  22  23
ENDBRANCH   1  22
TORSDOF 5
