REMARK  6 active torsions:
REMARK  status: ('A' for Active; 'I' for Inactive)
REMARK    1  A    between atoms: N1_2  and  C3_4 
REMARK    2  A    between atoms: C3_4  and  C4_5 
REMARK    3  A    between atoms: C4_5  and  O1_6 
REMARK    4  A    between atoms: O1_6  and  C5_7 
REMARK    5  A    between atoms: C8_10  and  N2_11 
REMARK    6  A    between atoms: N2_11  and  C9_12 
ROOT
HETATM    1  C5  UNL     1       1.365   1.212  -0.219  1.00  0.00     0.165 A 
HETATM    2  C6  UNL     1       0.071   0.860  -0.595  1.00  0.00     0.074 A 
HETATM    3  C7  UNL     1      -0.919   1.790  -0.357  1.00  0.00     0.026 A 
HETATM    4  C8  UNL     1      -2.207   1.482  -0.713  1.00  0.00     0.068 A 
HETATM    5  C15 UNL     1      -3.243   2.391  -0.492  1.00  0.00     0.089 A 
HETATM    6  C16 UNL     1      -4.613   2.147  -0.834  1.00  0.00     0.103 C 
HETATM    7  N3  UNL     1      -5.703   1.943  -1.122  1.00  0.00    -0.191 NA
HETATM    8  C17 UNL     1      -2.932   3.594   0.089  1.00  0.00     0.142 A 
HETATM    9  N4  UNL     1      -1.670   3.925   0.451  1.00  0.00    -0.257 NA
HETATM   10  C18 UNL     1      -0.696   3.022   0.222  1.00  0.00     0.086 A 
HETATM   11  C19 UNL     1       0.600   3.316   0.573  1.00  0.00     0.152 A 
HETATM   12  N5  UNL     1       1.581   2.425   0.350  1.00  0.00    -0.235 NA
ENDROOT
BRANCH   4  13
HETATM   13  N2  UNL     1      -2.608   0.264  -1.317  1.00  0.00    -0.354 N 
HETATM   14  H12 UNL     1      -2.650   0.095  -2.346  1.00  0.00     0.166 HD
BRANCH  13  15
HETATM   15  C9  UNL     1      -2.982  -0.812  -0.466  1.00  0.00     0.033 A 
HETATM   16  C10 UNL     1      -2.950  -0.672   0.920  1.00  0.00     0.029 A 
HETATM   17  C11 UNL     1      -3.323  -1.745   1.728  1.00  0.00     0.004 A 
HETATM   18  C12 UNL     1      -3.724  -2.947   1.223  1.00  0.00     0.019 A 
HETATM   19  C13 UNL     1      -3.764  -3.109  -0.153  1.00  0.00     0.013 A 
HETATM   20 BR1  UNL     1      -4.321  -4.778  -0.895  1.00  0.00    -0.051 Br
HETATM   21  C14 UNL     1      -3.393  -2.040  -0.941  1.00  0.00     0.048 A 
ENDBRANCH  13  15
ENDBRANCH   4  13
BRANCH   1  22
HETATM   22  O1  UNL     1       2.422   0.313  -0.433  1.00  0.00    -0.333 OA
BRANCH  22  23
HETATM   23  C4  UNL     1       3.719   0.713  -0.036  1.00  0.00     0.207 C 
BRANCH  23  24
HETATM   24  C3  UNL     1       4.759  -0.350  -0.325  1.00  0.00     0.298 C 
BRANCH  24  25
HETATM   25  N1  UNL     1       4.500  -1.596   0.355  1.00  0.00     0.082 N 
HETATM   26  C1  UNL     1       4.673  -1.412   1.778  1.00  0.00     0.309 C 
HETATM   27  C2  UNL     1       3.222  -2.141   0.034  1.00  0.00     0.309 C 
ENDBRANCH  24  25
ENDBRANCH  23  24
ENDBRANCH  22  23
ENDBRANCH   1  22
TORSDOF 6
