REMARK  3 active torsions:
REMARK  status: ('A' for Active; 'I' for Inactive)
REMARK    1  A    between atoms: C6_9  and  C7_10 
REMARK    2  A    between atoms: C10_14  and  N4_15 
REMARK    3  A    between atoms: N4_15  and  C11_16 
ROOT
HETATM    1  N1  UNL     1       0.843  -4.229  -0.857  1.00  0.00    -0.191 NA
HETATM    2  C1  UNL     1       0.170  -3.435  -0.316  1.00  0.00     0.103 C 
HETATM    3  C2  UNL     1      -0.639  -2.450   0.347  1.00  0.00     0.089 A 
HETATM    4  C3  UNL     1      -1.356  -2.733   1.495  1.00  0.00     0.142 A 
HETATM    5  N2  UNL     1      -2.122  -1.817   2.131  1.00  0.00    -0.257 NA
HETATM    6  C4  UNL     1      -2.224  -0.549   1.660  1.00  0.00     0.086 A 
HETATM    7  C5  UNL     1      -2.992   0.401   2.283  1.00  0.00     0.149 A 
HETATM    8  N3  UNL     1      -3.069   1.662   1.780  1.00  0.00    -0.256 NA
HETATM    9  C6  UNL     1      -2.386   1.999   0.654  1.00  0.00     0.095 A 
HETATM   10  C8  UNL     1      -1.607   1.062   0.008  1.00  0.00     0.051 A 
HETATM   11  C9  UNL     1      -1.515  -0.241   0.511  1.00  0.00     0.025 A 
HETATM   12  C10 UNL     1      -0.725  -1.170  -0.153  1.00  0.00     0.067 A 
ENDROOT
BRANCH  12  13
HETATM   13  N4  UNL     1      -0.033  -0.762  -1.326  1.00  0.00    -0.354 N 
HETATM   14  H5  UNL     1      -0.383  -0.807  -2.308  1.00  0.00     0.166 HD
BRANCH  13  15
HETATM   15  C11 UNL     1       1.280  -0.231  -1.170  1.00  0.00     0.033 A 
HETATM   16  C12 UNL     1       2.066   0.203  -2.219  1.00  0.00     0.029 A 
HETATM   17  C13 UNL     1       3.334   0.715  -2.063  1.00  0.00     0.004 A 
HETATM   18  C14 UNL     1       3.872   0.809  -0.791  1.00  0.00     0.019 A 
HETATM   19  C15 UNL     1       3.128   0.389   0.296  1.00  0.00     0.013 A 
HETATM   20 BR1  UNL     1       3.751   0.463   2.109  1.00  0.00    -0.051 Br
HETATM   21  C16 UNL     1       1.881  -0.109   0.083  1.00  0.00     0.048 A 
ENDBRANCH  13  15
ENDBRANCH  12  13
BRANCH   9  22
HETATM   22  C7  UNL     1      -2.411   3.324   0.046  1.00  0.00     0.290 C 
HETATM   23  O1  UNL     1      -1.793   3.652  -0.984  1.00  0.00    -0.300 OA
ENDBRANCH   9  22
TORSDOF 3
