REMARK  6 active torsions:
REMARK  status: ('A' for Active; 'I' for Inactive)
REMARK    1  A    between atoms: C2_2  and  N1_3 
REMARK    2  A    between atoms: C2_2  and  O1_18 
REMARK    3  A    between atoms: N1_3  and  C3_4 
REMARK    4  A    between atoms: O1_18  and  C13_19 
REMARK    5  A    between atoms: C13_19  and  C14_20 
REMARK    6  A    between atoms: C14_20  and  N6_21 
ROOT
HETATM    1  C3  UNL     1       1.045   0.234  -0.172  1.00  0.00     0.126 A 
HETATM    2  C4  UNL     1       2.090  -0.602   0.128  1.00  0.00     0.067 A 
HETATM    3  C5  UNL     1       3.379  -0.160  -0.009  1.00  0.00     0.035 A 
HETATM    4  C6  UNL     1       3.591   1.125  -0.449  1.00  0.00     0.087 A 
HETATM    5  C7  UNL     1       2.555   1.980  -0.754  1.00  0.00     0.151 A 
HETATM    6  N2  UNL     1       1.293   1.489  -0.600  1.00  0.00    -0.241 NA
HETATM    7  N3  UNL     1       4.618   1.852  -0.705  1.00  0.00    -0.259 NA
HETATM    8  C8  UNL     1       6.018   1.632  -0.642  1.00  0.00     0.115 C 
HETATM    9  C9  UNL     1       6.721   0.528  -0.410  1.00  0.00     0.012 C 
HETATM   10  C10 UNL     1       6.712  -0.925  -0.117  1.00  0.00     0.149 C 
HETATM   11  N4  UNL     1       5.475  -1.398   0.461  1.00  0.00    -0.377 N 
HETATM   12  C11 UNL     1       4.062  -1.216   0.375  1.00  0.00     0.122 C 
HETATM   13  C12 UNL     1       3.350  -2.381   0.795  1.00  0.00     0.118 C 
HETATM   14  N5  UNL     1       2.786  -3.343   1.145  1.00  0.00    -0.190 NA
HETATM   15  H12 UNL     1       5.684  -2.122   1.191  1.00  0.00     0.160 HD
ENDROOT
BRANCH   1  16
HETATM   16  N1  UNL     1      -0.353   0.031  -0.134  1.00  0.00    -0.349 N 
HETATM   17  H5  UNL     1      -0.768  -0.148  -1.090  1.00  0.00     0.163 HD
BRANCH  16  18
HETATM   18  C2  UNL     1      -1.323   0.033   0.977  1.00  0.00     0.217 C 
HETATM   19  C1  UNL     1      -1.053   1.384   1.671  1.00  0.00     0.063 C 
BRANCH  18  20
HETATM   20  O1  UNL     1      -2.508  -0.252   0.729  1.00  0.00    -0.366 OA
BRANCH  20  21
HETATM   21  C13 UNL     1      -3.696  -0.542   0.483  1.00  0.00     0.189 C 
BRANCH  21  22
HETATM   22  C14 UNL     1      -4.447   0.351  -0.520  1.00  0.00     0.142 C 
BRANCH  22  23
HETATM   23  N6  UNL     1      -5.781  -0.016  -0.755  1.00  0.00    -0.419 N 
HETATM   24  C15 UNL     1      -6.729   0.137   0.276  1.00  0.00     0.142 C 
HETATM   25  C16 UNL     1      -6.095  -0.873  -1.829  1.00  0.00     0.142 C 
ENDBRANCH  22  23
ENDBRANCH  21  22
ENDBRANCH  20  21
ENDBRANCH  18  20
ENDBRANCH  16  18
ENDBRANCH   1  16
TORSDOF 6
