REMARK  8 active torsions:
REMARK  status: ('A' for Active; 'I' for Inactive)
REMARK    1  A    between atoms: C2_2  and  C3_3 
REMARK    2  A    between atoms: C3_3  and  C4_4 
REMARK    3  A    between atoms: C5_5  and  N1_6 
REMARK    4  A    between atoms: N1_6  and  C6_7 
REMARK    5  A    between atoms: C11_14  and  O1_15 
REMARK    6  A    between atoms: O1_15  and  C12_16 
REMARK    7  A    between atoms: C12_16  and  C13_17 
REMARK    8  A    between atoms: C13_17  and  N4_18 
ROOT
HETATM    1  C6  UNL     1       2.106  -0.596   1.897  1.00  0.00     0.046 A 
HETATM    2  C7  UNL     1       2.121  -0.798   3.258  1.00  0.00     0.049 A 
HETATM    3  C8  UNL     1       1.040  -1.367   3.947  1.00  0.00     0.119 A 
HETATM    4  N2  UNL     1      -0.040  -1.720   3.225  1.00  0.00    -0.259 NA
HETATM    5  C9  UNL     1      -0.131  -1.555   1.893  1.00  0.00     0.086 A 
HETATM    6  C10 UNL     1      -1.289  -1.956   1.260  1.00  0.00     0.152 A 
HETATM    7  N3  UNL     1      -1.312  -1.764  -0.070  1.00  0.00    -0.235 NA
HETATM    8  C11 UNL     1      -0.299  -1.223  -0.768  1.00  0.00     0.165 A 
HETATM    9  C16 UNL     1       0.846  -0.831  -0.108  1.00  0.00     0.074 A 
HETATM   10  C17 UNL     1       0.954  -0.992   1.257  1.00  0.00     0.025 A 
ENDROOT
BRANCH   1  11
HETATM   11  N1  UNL     1       3.223  -0.018   1.249  1.00  0.00    -0.365 N 
HETATM   12  H8  UNL     1       3.329   0.194   0.245  1.00  0.00     0.165 HD
BRANCH  11  13
HETATM   13  C5  UNL     1       4.315   0.295   2.143  1.00  0.00     0.085 C 
HETATM   14  C4  UNL     1       4.581   1.420   2.834  1.00  0.00    -0.004 C 
BRANCH  14  15
HETATM   15  C3  UNL     1       3.523   2.338   2.516  1.00  0.00     0.021 C 
BRANCH  15  16
HETATM   16  C2  UNL     1       2.730   3.357   2.429  1.00  0.00    -0.006 C 
HETATM   17  C1  UNL     1       1.569   3.159   1.534  1.00  0.00     0.011 C 
ENDBRANCH  15  16
ENDBRANCH  14  15
ENDBRANCH  11  13
ENDBRANCH   1  11
BRANCH   8  18
HETATM   18  O1  UNL     1      -0.339  -1.033  -2.138  1.00  0.00    -0.333 OA
BRANCH  18  19
HETATM   19  C12 UNL     1      -1.423  -1.369  -2.975  1.00  0.00     0.207 C 
BRANCH  19  20
HETATM   20  C13 UNL     1      -2.641  -0.609  -2.570  1.00  0.00     0.298 C 
BRANCH  20  21
HETATM   21  N4  UNL     1      -3.794  -0.914  -3.395  1.00  0.00     0.082 N 
HETATM   22  C14 UNL     1      -4.905  -0.124  -2.902  1.00  0.00     0.309 C 
HETATM   23  C15 UNL     1      -3.601  -0.599  -4.786  1.00  0.00     0.309 C 
ENDBRANCH  20  21
ENDBRANCH  19  20
ENDBRANCH  18  19
ENDBRANCH   8  18
TORSDOF 8
