REMARK  0 active torsions:
REMARK  status: ('A' for Active; 'I' for Inactive)
ROOT
HETATM    1  C1  UNL     1      -4.277  -2.533   0.234  1.00  0.00     0.312 C 
HETATM    2  N1  UNL     1      -3.153  -1.772  -0.156  1.00  0.00     0.106 N 
HETATM    3  C2  UNL     1      -3.311  -0.336  -0.155  1.00  0.00     0.301 C 
HETATM    4  C3  UNL     1      -3.470   0.234   1.169  1.00  0.00     0.008 C 
HETATM    5  C4  UNL     1      -2.817   1.068   1.948  1.00  0.00     0.072 C 
HETATM    6  C5  UNL     1      -1.622   1.889   2.003  1.00  0.00     0.244 C 
HETATM    7  O1  UNL     1      -0.767   2.681   2.433  1.00  0.00    -0.268 OA
HETATM    8  N2  UNL     1      -0.652   1.981   0.965  1.00  0.00    -0.332 N 
HETATM    9  C6  UNL     1       0.569   2.541   0.510  1.00  0.00     0.109 C 
HETATM   10  C7  UNL     1       1.711   2.011   0.162  1.00  0.00     0.116 C 
HETATM   11  N3  UNL     1       2.245   0.711   0.075  1.00  0.00    -0.303 N 
HETATM   12  C8  UNL     1       3.654   0.822  -0.034  1.00  0.00     0.074 A 
HETATM   13  C9  UNL     1       4.826   1.332   0.202  1.00  0.00     0.164 A 
HETATM   14  O2  UNL     1       5.418   0.367  -0.648  1.00  0.00    -0.344 OA
HETATM   15  C10 UNL     1       4.258  -0.299  -0.923  1.00  0.00     0.225 A 
HETATM   16  C11 UNL     1       3.593  -0.135  -2.272  1.00  0.00     0.075 C 
HETATM   17  C12 UNL     1       4.230   0.253  -3.472  1.00  0.00     0.099 C 
HETATM   18  N4  UNL     1       4.734   0.577  -4.443  1.00  0.00    -0.192 NA
HETATM   19  C13 UNL     1       2.241  -0.409  -2.219  1.00  0.00     0.140 C 
HETATM   20  N5  UNL     1       1.414  -0.811  -1.143  1.00  0.00    -0.240 NA
HETATM   21  C14 UNL     1       1.315  -0.355   0.033  1.00  0.00     0.151 C 
HETATM   22  C15 UNL     1       0.323  -1.219   0.592  1.00  0.00     0.163 C 
HETATM   23  N6  UNL     1      -0.808  -1.320  -0.013  1.00  0.00    -0.268 NA
HETATM   24  C16 UNL     1      -1.886  -2.160   0.450  1.00  0.00     0.419 C 
HETATM   25  H8  UNL     1      -0.786   1.447   0.083  1.00  0.00     0.168 HD
ENDROOT
TORSDOF 0
