REMARK  5 active torsions:
REMARK  status: ('A' for Active; 'I' for Inactive)
REMARK    1  A    between atoms: N1_2  and  C3_4 
REMARK    2  A    between atoms: C3_4  and  C4_5 
REMARK    3  A    between atoms: C5_6  and  C6_7 
REMARK       I    between atoms: C6_7  and  N2_9 
REMARK    4  A    between atoms: N2_9  and  C7_10 
REMARK    5  A    between atoms: C10_13  and  N3_14 
ROOT
HETATM    1  C7  UNL     1       0.560  -0.874  -0.000  1.00  0.00     0.131 A 
HETATM    2  C8  UNL     1      -0.810  -0.766   0.035  1.00  0.00     0.066 A 
HETATM    3  C9  UNL     1      -1.635  -1.660   0.702  1.00  0.00     0.026 A 
HETATM    4  C10 UNL     1      -3.013  -1.470   0.684  1.00  0.00     0.065 A 
HETATM    5  C18 UNL     1      -3.813  -2.379   1.358  1.00  0.00     0.089 A 
HETATM    6  C19 UNL     1      -5.268  -2.250   1.382  1.00  0.00     0.103 C 
HETATM    7  N4  UNL     1      -6.434  -2.137   1.387  1.00  0.00    -0.191 NA
HETATM    8  C20 UNL     1      -3.197  -3.435   2.017  1.00  0.00     0.142 A 
HETATM    9  N5  UNL     1      -1.856  -3.607   2.028  1.00  0.00    -0.257 NA
HETATM   10  C21 UNL     1      -1.059  -2.734   1.379  1.00  0.00     0.086 A 
HETATM   11  C22 UNL     1       0.317  -2.810   1.320  1.00  0.00     0.151 A 
HETATM   12  N6  UNL     1       1.079  -1.921   0.662  1.00  0.00    -0.241 NA
ENDROOT
BRANCH   4  13
HETATM   13  N3  UNL     1      -3.613  -0.357  -0.010  1.00  0.00    -0.375 N 
HETATM   14  C11 UNL     1      -3.990  -0.518  -1.398  1.00  0.00     0.150 C 
HETATM   15  C12 UNL     1      -3.560   0.748  -2.095  1.00  0.00    -0.007 C 
HETATM   16  C13 UNL     1      -3.891   2.033  -2.037  1.00  0.00    -0.003 C 
HETATM   17  C14 UNL     1      -4.880   2.749  -1.203  1.00  0.00    -0.004 C 
HETATM   18  C15 UNL     1      -5.362   2.467   0.022  1.00  0.00    -0.025 C 
HETATM   19  C16 UNL     1      -5.119   1.364   1.020  1.00  0.00     0.047 C 
HETATM   20  C17 UNL     1      -3.727   0.787   0.887  1.00  0.00     0.127 C 
ENDBRANCH   4  13
BRANCH   1  21
HETATM   21  N2  UNL     1       1.370   0.060  -0.700  1.00  0.00    -0.308 N 
HETATM   22  C6  UNL     1       2.776   0.010  -0.762  1.00  0.00     0.246 C 
HETATM   23  O1  UNL     1       3.237  -0.962  -0.120  1.00  0.00    -0.268 OA
HETATM   24  H11 UNL     1       0.866   0.845  -1.211  1.00  0.00     0.170 HD
BRANCH  22  25
HETATM   25  C5  UNL     1       3.531   1.000  -1.500  1.00  0.00     0.072 C 
HETATM   26  C4  UNL     1       4.840   1.025  -1.603  1.00  0.00     0.008 C 
BRANCH  26  27
HETATM   27  C3  UNL     1       5.926   0.180  -1.084  1.00  0.00     0.299 C 
BRANCH  27  28
HETATM   28  N1  UNL     1       6.848   0.923  -0.248  1.00  0.00     0.083 N 
HETATM   29  C1  UNL     1       6.254   1.350   0.986  1.00  0.00     0.309 C 
HETATM   30  C2  UNL     1       8.053   0.180   0.013  1.00  0.00     0.309 C 
ENDBRANCH  27  28
ENDBRANCH  26  27
ENDBRANCH  22  25
ENDBRANCH   1  21
TORSDOF 5
