REMARK  4 active torsions:
REMARK  status: ('A' for Active; 'I' for Inactive)
REMARK    1  A    between atoms: C2_2  and  O1_3 
REMARK    2  A    between atoms: C2_2  and  C3_4 
REMARK    3  A    between atoms: C3_4  and  O2_5 
REMARK    4  A    between atoms: O2_5  and  C4_6 
ROOT
HETATM    1  C4  UNL     1       2.226  -0.327   0.339  1.00  0.00     0.067 A 
HETATM    2  C5  UNL     1       1.370  -0.093   1.317  1.00  0.00     0.150 A 
HETATM    3  N1  UNL     1      -0.033  -0.067   1.156  1.00  0.00    -0.245 N 
HETATM    4  N2  UNL     1      -0.944   0.188   2.124  1.00  0.00    -0.161 NA
HETATM    5  C6  UNL     1      -1.531  -0.517   2.977  1.00  0.00     0.257 C 
HETATM    6  N3  UNL     1      -2.321   0.525   3.594  1.00  0.00    -0.229 NA
HETATM    7  C7  UNL     1      -3.284   1.029   2.846  1.00  0.00     0.253 C 
HETATM    8  O3  UNL     1      -3.068   0.257   1.722  1.00  0.00    -0.331 OA
HETATM    9  C8  UNL     1      -2.718   0.795   0.432  1.00  0.00     0.206 C 
HETATM   10  C9  UNL     1      -3.928   1.480  -0.003  1.00  0.00     0.124 C 
HETATM   11  F1  UNL     1      -4.161   2.587   0.787  1.00  0.00    -0.208 F 
HETATM   12  C10 UNL     1      -4.827   1.315  -0.931  1.00  0.00     0.040 C 
HETATM   13  C11 UNL     1      -4.815   0.223  -1.897  1.00  0.00    -0.001 C 
HETATM   14  C12 UNL     1      -3.752  -0.470  -2.275  1.00  0.00    -0.025 C 
HETATM   15  C13 UNL     1      -2.318  -0.327  -1.827  1.00  0.00     0.045 C 
HETATM   16  C14 UNL     1      -2.147  -0.295  -0.356  1.00  0.00     0.036 C 
HETATM   17  C15 UNL     1      -2.641  -1.635   0.214  1.00  0.00     0.025 C 
HETATM   18  C16 UNL     1      -0.657  -0.298  -0.108  1.00  0.00     0.044 A 
HETATM   19  C17 UNL     1       0.228  -0.527  -1.059  1.00  0.00     0.008 A 
HETATM   20  C18 UNL     1       1.707  -0.579  -1.013  1.00  0.00     0.095 A 
ENDROOT
BRANCH   1  21
HETATM   21  O2  UNL     1       3.585  -0.368   0.420  1.00  0.00    -0.351 OA
BRANCH  21  22
HETATM   22  C3  UNL     1       4.397   0.665  -0.055  1.00  0.00     0.206 C 
BRANCH  22  23
HETATM   23  C2  UNL     1       5.870   0.393   0.147  1.00  0.00     0.138 C 
HETATM   24  C1  UNL     1       6.281  -0.869  -0.598  1.00  0.00     0.041 C 
BRANCH  23  25
HETATM   25  O1  UNL     1       6.568   1.487  -0.364  1.00  0.00    -0.394 OA
HETATM   26  H5  UNL     1       6.056   2.336  -0.315  1.00  0.00     0.210 HD
ENDBRANCH  23  25
ENDBRANCH  22  23
ENDBRANCH  21  22
ENDBRANCH   1  21
TORSDOF 4
