REMARK  6 active torsions:
REMARK  status: ('A' for Active; 'I' for Inactive)
REMARK    1  A    between atoms: N1_2  and  C3_4 
REMARK    2  A    between atoms: C3_4  and  C4_5 
REMARK    3  A    between atoms: C4_5  and  C5_6 
REMARK       I    between atoms: C5_6  and  N2_8 
REMARK    4  A    between atoms: N2_8  and  C6_9 
REMARK    5  A    between atoms: C9_12  and  N3_13 
REMARK    6  A    between atoms: N3_13  and  C10_14 
ROOT
HETATM    1  C6  UNL     1       0.869  -1.825   0.895  1.00  0.00     0.135 C 
HETATM    2  C7  UNL     1       0.103  -1.097   0.165  1.00  0.00     0.123 C 
HETATM    3  C8  UNL     1      -1.161  -1.143  -0.534  1.00  0.00     0.073 C 
HETATM    4  C9  UNL     1      -2.037  -0.557  -1.317  1.00  0.00     0.036 C 
HETATM    5  C16 UNL     1      -2.159   0.657  -2.207  1.00  0.00     0.227 C 
HETATM    6  O2  UNL     1      -3.154   1.454  -1.709  1.00  0.00    -0.364 OA
HETATM    7  C17 UNL     1      -2.833   1.997  -0.448  1.00  0.00     0.316 C 
HETATM    8  N4  UNL     1      -1.752   2.930  -0.530  1.00  0.00    -0.274 NA
HETATM    9  C18 UNL     1      -0.530   2.672  -0.434  1.00  0.00     0.144 C 
HETATM   10  C19 UNL     1      -0.040   1.357  -0.220  1.00  0.00     0.201 C 
HETATM   11  N5  UNL     1       0.080   0.177  -0.034  1.00  0.00    -0.415 NA
ENDROOT
BRANCH   1  12
HETATM   12  N2  UNL     1       2.085  -1.774   1.567  1.00  0.00    -0.334 N 
HETATM   13  C5  UNL     1       3.109  -0.840   1.767  1.00  0.00     0.223 C 
HETATM   14  O1  UNL     1       2.941   0.249   1.187  1.00  0.00    -0.273 OA
HETATM   15  H11 UNL     1       2.308  -2.688   2.064  1.00  0.00     0.168 HD
BRANCH  13  16
HETATM   16  C4  UNL     1       4.318  -1.117   2.615  1.00  0.00     0.122 C 
BRANCH  16  17
HETATM   17  C3  UNL     1       5.241   0.085   2.555  1.00  0.00     0.125 C 
BRANCH  17  18
HETATM   18  N1  UNL     1       5.665   0.386   1.250  1.00  0.00    -0.420 N 
HETATM   19  C1  UNL     1       6.453   1.543   1.062  1.00  0.00     0.142 C 
HETATM   20  C2  UNL     1       5.714  -0.606   0.255  1.00  0.00     0.142 C 
ENDBRANCH  17  18
ENDBRANCH  16  17
ENDBRANCH  13  16
ENDBRANCH   1  12
BRANCH   4  21
HETATM   21  N3  UNL     1      -3.215  -1.350  -1.570  1.00  0.00    -0.358 N 
HETATM   22  H14 UNL     1      -2.954  -2.279  -2.024  1.00  0.00     0.166 HD
BRANCH  21  23
HETATM   23  C10 UNL     1      -4.538  -0.882  -1.216  1.00  0.00     0.033 A 
HETATM   24  C11 UNL     1      -4.819  -1.247   0.108  1.00  0.00     0.029 A 
HETATM   25  C12 UNL     1      -6.110  -0.769   0.448  1.00  0.00     0.004 A 
HETATM   26  C13 UNL     1      -6.988  -0.051  -0.369  1.00  0.00     0.019 A 
HETATM   27  C14 UNL     1      -6.486   0.190  -1.641  1.00  0.00     0.013 A 
HETATM   28 BR1  UNL     1      -7.684   1.185  -2.774  1.00  0.00    -0.051 Br
HETATM   29  C15 UNL     1      -5.265  -0.198  -2.130  1.00  0.00     0.048 A 
ENDBRANCH  21  23
ENDBRANCH   4  21
TORSDOF 6
