REMARK  6 active torsions:
REMARK  status: ('A' for Active; 'I' for Inactive)
REMARK    1  A    between atoms: C2_2  and  O1_3 
REMARK    2  A    between atoms: O1_3  and  C3_4 
REMARK    3  A    between atoms: C8_9  and  N1_10 
REMARK       I    between atoms: N1_10  and  C9_11 
REMARK    4  A    between atoms: C9_11  and  C10_13 
REMARK    5  A    between atoms: C11_14  and  C12_15 
REMARK    6  A    between atoms: C12_15  and  N2_16 
ROOT
HETATM    1  C3  UNL     1      -2.100   1.229   0.107  1.00  0.00     0.097 A 
HETATM    2  C4  UNL     1      -3.479   1.158   0.143  1.00  0.00     0.071 A 
HETATM    3  C5  UNL     1      -4.162  -0.059   0.157  1.00  0.00     0.064 A 
HETATM    4  C6  UNL     1      -3.401  -1.210   0.133  1.00  0.00    -0.002 A 
HETATM    5  C7  UNL     1      -2.029  -1.092   0.097  1.00  0.00     0.046 A 
HETATM    6  C8  UNL     1      -1.324   0.090   0.082  1.00  0.00     0.069 A 
HETATM    7  C15 UNL     1      -4.234  -2.244   0.151  1.00  0.00    -0.051 A 
HETATM    8  C16 UNL     1      -3.817  -3.680   0.136  1.00  0.00     0.046 C 
HETATM    9  C17 UNL     1      -5.619  -1.719   0.190  1.00  0.00     0.184 A 
HETATM   10  N3  UNL     1      -5.427  -0.294   0.189  1.00  0.00    -0.285 NA
ENDROOT
BRANCH   6  11
HETATM   11  N1  UNL     1       0.085   0.212   0.044  1.00  0.00    -0.321 N 
HETATM   12  C9  UNL     1       1.075  -0.769   0.019  1.00  0.00     0.245 C 
HETATM   13  O2  UNL     1       0.736  -1.975   0.030  1.00  0.00    -0.268 OA
HETATM   14  H8  UNL     1       0.499   1.180   0.032  1.00  0.00     0.169 HD
BRANCH  12  15
HETATM   15  C10 UNL     1       2.501  -0.469  -0.022  1.00  0.00     0.072 C 
HETATM   16  C11 UNL     1       3.398  -1.438  -0.045  1.00  0.00     0.008 C 
BRANCH  16  17
HETATM   17  C12 UNL     1       4.851  -1.303  -0.086  1.00  0.00     0.299 C 
BRANCH  17  18
HETATM   18  N2  UNL     1       5.370   0.022  -0.103  1.00  0.00     0.083 N 
HETATM   19  C13 UNL     1       5.207   0.801   1.072  1.00  0.00     0.309 C 
HETATM   20  C14 UNL     1       6.714   0.019  -0.594  1.00  0.00     0.309 C 
ENDBRANCH  17  18
ENDBRANCH  16  17
ENDBRANCH  12  15
ENDBRANCH   6  11
BRANCH   1  21
HETATM   21  O1  UNL     1      -1.465   2.448   0.094  1.00  0.00    -0.349 OA
BRANCH  21  22
HETATM   22  C2  UNL     1      -2.013   3.718   0.108  1.00  0.00     0.171 C 
HETATM   23  C1  UNL     1      -2.874   3.887  -1.126  1.00  0.00     0.034 C 
ENDBRANCH  21  22
ENDBRANCH   1  21
TORSDOF 6
