REMARK  6 active torsions:
REMARK  status: ('A' for Active; 'I' for Inactive)
REMARK    1  A    between atoms: N1_2  and  C2_3 
REMARK    2  A    between atoms: C2_3  and  C3_4 
REMARK    3  A    between atoms: C4_5  and  C5_6 
REMARK       I    between atoms: C5_6  and  N2_8 
REMARK    4  A    between atoms: N2_8  and  C6_9 
REMARK    5  A    between atoms: C9_12  and  N3_13 
REMARK    6  A    between atoms: N5_27  and  O2_28 
ROOT
HETATM    1  C6  UNL     1      -0.487  -0.856  -0.185  1.00  0.00     0.166 C 
HETATM    2  C7  UNL     1      -1.328  -1.799  -0.354  1.00  0.00     0.074 A 
HETATM    3  C8  UNL     1      -2.659  -1.167  -0.511  1.00  0.00     0.006 A 
HETATM    4  C9  UNL     1      -2.947   0.106  -0.442  1.00  0.00     0.039 C 
HETATM    5  C15 UNL     1      -4.357   0.547  -0.665  1.00  0.00     0.205 C 
HETATM    6  N4  UNL     1      -4.782  -0.178  -1.875  1.00  0.00    -0.299 NA
HETATM    7  C16 UNL     1      -4.560  -1.445  -1.949  1.00  0.00     0.097 C 
HETATM    8  C17 UNL     1      -3.887  -1.967  -0.742  1.00  0.00     0.087 A 
HETATM    9  C18 UNL     1      -3.623  -3.400  -0.786  1.00  0.00     0.008 A 
HETATM   10  C19 UNL     1      -2.511  -4.075  -0.661  1.00  0.00     0.120 A 
HETATM   11  N5  UNL     1      -1.415  -3.215  -0.449  1.00  0.00    -0.236 N 
ENDROOT
BRANCH   1  12
HETATM   12  N2  UNL     1       0.766  -0.290   0.023  1.00  0.00    -0.345 N 
HETATM   13  C5  UNL     1       2.174  -0.332   0.223  1.00  0.00     0.241 C 
HETATM   14  O1  UNL     1       2.505  -1.549   0.210  1.00  0.00    -0.269 OA
HETATM   15  H9  UNL     1       0.565   0.763   0.038  1.00  0.00     0.163 HD
BRANCH  13  16
HETATM   16  C4  UNL     1       3.047   0.801   0.404  1.00  0.00     0.072 C 
HETATM   17  C3  UNL     1       4.280   0.416   0.562  1.00  0.00     0.008 C 
BRANCH  17  18
HETATM   18  C2  UNL     1       5.277   1.494   0.758  1.00  0.00     0.296 C 
BRANCH  18  19
HETATM   19  N1  UNL     1       5.886   1.248   2.062  1.00  0.00     0.082 N 
HETATM   20  C1  UNL     1       6.885   2.242   2.369  1.00  0.00     0.307 C 
HETATM   21  H4  UNL     1       6.302   0.292   2.050  1.00  0.00     0.315 HD
ENDBRANCH  18  19
ENDBRANCH  17  18
ENDBRANCH  13  16
ENDBRANCH   1  12
BRANCH  11  22
HETATM   22  O2  UNL     1      -0.186  -3.776  -0.300  1.00  0.00    -0.279 OA
HETATM   23  C20 UNL     1       0.054  -4.515  -1.459  1.00  0.00     0.238 C 
ENDBRANCH  11  22
BRANCH   4  24
HETATM   24  N3  UNL     1      -2.102   1.201  -0.203  1.00  0.00    -0.348 N 
HETATM   25  C10 UNL     1      -1.588   1.930  -1.337  1.00  0.00     0.154 C 
HETATM   26  C11 UNL     1      -1.107   3.284  -0.953  1.00  0.00     0.012 C 
HETATM   27  C12 UNL     1      -0.897   3.454   0.319  1.00  0.00     0.014 C 
HETATM   28 CL1  UNL     1      -0.325   5.083   0.727  1.00  0.00    -0.089 Cl
HETATM   29  C13 UNL     1      -1.017   2.609   1.516  1.00  0.00     0.110 C 
HETATM   30  C14 UNL     1      -1.933   1.471   1.234  1.00  0.00     0.277 C 
HETATM   31  F1  UNL     1      -3.217   1.921   1.631  1.00  0.00    -0.226 F 
ENDBRANCH   4  24
TORSDOF 6
