REMARK  7 active torsions:
REMARK  status: ('A' for Active; 'I' for Inactive)
REMARK    1  A    between atoms: N1_2  and  C3_4 
REMARK    2  A    between atoms: C3_4  and  C4_5 
REMARK    3  A    between atoms: C5_6  and  C6_7 
REMARK       I    between atoms: C6_7  and  N2_9 
REMARK    4  A    between atoms: N2_9  and  C7_10 
REMARK    5  A    between atoms: C10_13  and  C11_15 
REMARK    6  A    between atoms: C19_24  and  O2_25 
REMARK    7  A    between atoms: O2_25  and  C20_26 
ROOT
HETATM    1  C7  UNL     1       0.587  -0.035  -0.832  1.00  0.00     0.069 A 
HETATM    2  C8  UNL     1       1.317  -1.098  -0.459  1.00  0.00     0.043 A 
HETATM    3  C9  UNL     1       2.745  -1.006  -0.193  1.00  0.00    -0.013 A 
HETATM    4  C10 UNL     1       3.325  -2.159   0.063  1.00  0.00     0.133 C 
HETATM    5  F1  UNL     1       2.571  -3.311   0.059  1.00  0.00    -0.205 F 
HETATM    6  C17 UNL     1       3.418   0.293  -0.246  1.00  0.00     0.071 A 
HETATM    7  C18 UNL     1       2.475   1.385  -0.680  1.00  0.00     0.017 A 
HETATM    8  C19 UNL     1       1.188   1.284  -0.955  1.00  0.00     0.092 A 
ENDROOT
BRANCH   1   9
HETATM    9  N2  UNL     1      -0.805  -0.122  -1.096  1.00  0.00    -0.321 N 
HETATM   10  C6  UNL     1      -1.925   0.527  -0.509  1.00  0.00     0.245 C 
HETATM   11  O1  UNL     1      -1.925   1.368   0.423  1.00  0.00    -0.268 OA
HETATM   12  H11 UNL     1      -0.975  -0.814  -1.885  1.00  0.00     0.169 HD
BRANCH  10  13
HETATM   13  C5  UNL     1      -3.259   0.216  -1.008  1.00  0.00     0.072 C 
HETATM   14  C4  UNL     1      -4.261   0.844  -0.432  1.00  0.00    -0.002 C 
BRANCH  14  15
HETATM   15  C3  UNL     1      -5.684   0.652  -0.810  1.00  0.00     0.143 C 
BRANCH  15  16
HETATM   16  N1  UNL     1      -6.404   0.181   0.324  1.00  0.00    -0.418 N 
HETATM   17  C1  UNL     1      -6.099  -1.136   0.776  1.00  0.00     0.142 C 
HETATM   18  C2  UNL     1      -7.807   0.519   0.338  1.00  0.00     0.142 C 
ENDBRANCH  15  16
ENDBRANCH  14  15
ENDBRANCH  10  13
ENDBRANCH   1   9
BRANCH   8  19
HETATM   19  O2  UNL     1       0.563   2.462  -1.333  1.00  0.00    -0.349 OA
BRANCH  19  20
HETATM   20  C20 UNL     1       0.644   3.583  -0.474  1.00  0.00     0.171 C 
HETATM   21  C21 UNL     1       0.031   4.811  -1.147  1.00  0.00     0.034 C 
ENDBRANCH  19  20
ENDBRANCH   8  19
BRANCH   4  22
HETATM   22  C11 UNL     1       4.696  -2.516   0.384  1.00  0.00     0.005 A 
HETATM   23  C12 UNL     1       5.327  -3.628  -0.188  1.00  0.00     0.014 A 
HETATM   24  C13 UNL     1       6.617  -4.028   0.075  1.00  0.00     0.003 A 
HETATM   25  C14 UNL     1       7.364  -3.278   0.977  1.00  0.00     0.024 A 
HETATM   26  C15 UNL     1       6.801  -2.175   1.572  1.00  0.00     0.035 A 
HETATM   27 CL1  UNL     1       7.762  -1.228   2.718  1.00  0.00    -0.084 Cl
HETATM   28  C16 UNL     1       5.508  -1.835   1.262  1.00  0.00     0.038 A 
ENDBRANCH   4  22
TORSDOF 7
