REMARK  7 active torsions:
REMARK  status: ('A' for Active; 'I' for Inactive)
REMARK    1  A    between atoms: C2_2  and  O1_3 
REMARK    2  A    between atoms: O1_3  and  C3_4 
REMARK    3  A    between atoms: C9_11  and  N2_12 
REMARK    4  A    between atoms: C19_23  and  N4_24 
REMARK       I    between atoms: N4_24  and  C20_25 
REMARK    5  A    between atoms: C20_25  and  C21_27 
REMARK    6  A    between atoms: C22_28  and  C23_29 
REMARK    7  A    between atoms: C23_29  and  N5_30 
ROOT
HETATM    1  N2  UNL     1      -2.684  -0.367  -0.531  1.00  0.00    -0.359 N 
HETATM    2  C10 UNL     1      -2.005  -1.552  -0.066  1.00  0.00     0.152 C 
HETATM    3  C11 UNL     1      -2.900  -2.765   0.138  1.00  0.00    -0.005 C 
HETATM    4  C12 UNL     1      -4.200  -2.946   0.061  1.00  0.00    -0.083 C 
HETATM    5  C13 UNL     1      -5.014  -4.173   0.275  1.00  0.00     0.043 C 
HETATM    6  C14 UNL     1      -4.778  -1.624  -0.297  1.00  0.00     0.073 C 
HETATM    7  C15 UNL     1      -3.807  -0.942  -1.248  1.00  0.00     0.196 C 
HETATM    8  C16 UNL     1      -3.282  -2.082  -2.096  1.00  0.00     0.085 C 
HETATM    9  N3  UNL     1      -2.866  -2.978  -2.740  1.00  0.00    -0.195 NA
ENDROOT
BRANCH   1  10
HETATM   10  C9  UNL     1      -2.397   1.018  -0.490  1.00  0.00     0.051 A 
HETATM   11  C7  UNL     1      -3.363   1.995  -0.787  1.00  0.00    -0.017 A 
HETATM   12  C6  UNL     1      -2.987   3.324  -0.795  1.00  0.00     0.126 A 
HETATM   13  C8  UNL     1      -4.774   1.772  -1.058  1.00  0.00     0.052 C 
HETATM   14  N1  UNL     1      -1.745   3.764  -0.534  1.00  0.00    -0.260 NA
HETATM   15  C5  UNL     1      -0.776   2.880  -0.242  1.00  0.00     0.071 A 
HETATM   16  C4  UNL     1       0.459   3.403  -0.014  1.00  0.00     0.071 A 
HETATM   17  C17 UNL     1      -1.153   1.559  -0.237  1.00  0.00     0.022 A 
HETATM   18  C3  UNL     1       1.498   2.546   0.260  1.00  0.00     0.097 A 
HETATM   19  C19 UNL     1       1.212   1.185   0.285  1.00  0.00     0.069 A 
HETATM   20  C18 UNL     1      -0.059   0.776   0.042  1.00  0.00     0.048 A 
BRANCH  18  21
HETATM   21  O1  UNL     1       2.753   3.068   0.493  1.00  0.00    -0.349 OA
BRANCH  21  22
HETATM   22  C2  UNL     1       3.111   4.412   0.486  1.00  0.00     0.171 C 
HETATM   23  C1  UNL     1       2.385   5.253   1.498  1.00  0.00     0.034 C 
ENDBRANCH  21  22
ENDBRANCH  18  21
BRANCH  19  24
HETATM   24  N4  UNL     1       2.319   0.305   0.574  1.00  0.00    -0.321 N 
HETATM   25  C20 UNL     1       2.918  -0.035  -0.671  1.00  0.00     0.245 C 
HETATM   26  O2  UNL     1       2.350   0.501  -1.649  1.00  0.00    -0.268 OA
HETATM   27  H21 UNL     1       2.752  -0.113   1.451  1.00  0.00     0.169 HD
BRANCH  25  28
HETATM   28  C21 UNL     1       4.066  -0.908  -0.840  1.00  0.00     0.072 C 
HETATM   29  C22 UNL     1       4.686  -1.491   0.156  1.00  0.00     0.008 C 
BRANCH  29  30
HETATM   30  C23 UNL     1       5.863  -2.381  -0.060  1.00  0.00     0.296 C 
BRANCH  30  31
HETATM   31  N5  UNL     1       5.527  -3.699   0.457  1.00  0.00     0.082 N 
HETATM   32  C24 UNL     1       5.399  -3.710   1.883  1.00  0.00     0.307 C 
HETATM   33  H26 UNL     1       4.605  -3.963   0.037  1.00  0.00     0.315 HD
ENDBRANCH  30  31
ENDBRANCH  29  30
ENDBRANCH  25  28
ENDBRANCH  19  24
ENDBRANCH   1  10
TORSDOF 7
