REMARK  7 active torsions:
REMARK  status: ('A' for Active; 'I' for Inactive)
REMARK    1  A    between atoms: N1_7  and  C6_8 
REMARK    2  A    between atoms: C6_8  and  C7_9 
REMARK    3  A    between atoms: C7_9  and  C8_10 
REMARK    4  A    between atoms: C8_10  and  O2_11 
REMARK    5  A    between atoms: O2_11  and  C9_12 
REMARK    6  A    between atoms: C16_21  and  N4_22 
REMARK    7  A    between atoms: N4_22  and  C17_23 
ROOT
HETATM    1  C9  UNL     1       0.441   1.699  -0.426  1.00  0.00     0.181 A 
HETATM    2  C10 UNL     1       1.606   1.199  -0.807  1.00  0.00     0.079 A 
HETATM    3  C11 UNL     1       2.776   2.056  -0.671  1.00  0.00     0.024 A 
HETATM    4  C12 UNL     1       2.576   3.301  -0.163  1.00  0.00     0.071 A 
HETATM    5  N2  UNL     1       3.643   4.122  -0.028  1.00  0.00    -0.261 NA
HETATM    6  C13 UNL     1       4.874   3.712  -0.390  1.00  0.00     0.142 A 
HETATM    7  C14 UNL     1       5.143   2.453  -0.914  1.00  0.00     0.089 A 
HETATM    8  C15 UNL     1       6.458   2.035  -1.296  1.00  0.00     0.103 C 
HETATM    9  N3  UNL     1       7.544   1.708  -1.608  1.00  0.00    -0.191 NA
HETATM   10  C16 UNL     1       4.039   1.640  -1.040  1.00  0.00     0.067 A 
HETATM   11  C23 UNL     1       1.286   3.890   0.280  1.00  0.00     0.238 A 
HETATM   12  O3  UNL     1       0.228   2.968   0.093  1.00  0.00    -0.324 OA
ENDROOT
BRANCH  10  13
HETATM   13  N4  UNL     1       4.246   0.330  -1.570  1.00  0.00    -0.354 N 
HETATM   14  H19 UNL     1       4.192   0.071  -2.579  1.00  0.00     0.166 HD
BRANCH  13  15
HETATM   15  C17 UNL     1       4.550  -0.716  -0.642  1.00  0.00     0.034 A 
HETATM   16  C18 UNL     1       4.754  -2.030  -1.067  1.00  0.00     0.032 A 
HETATM   17  C19 UNL     1       5.047  -2.993  -0.108  1.00  0.00     0.046 A 
HETATM   18  C20 UNL     1       5.141  -2.687   1.232  1.00  0.00     0.138 A 
HETATM   19  F1  UNL     1       5.430  -3.640   2.177  1.00  0.00    -0.204 F 
HETATM   20  C21 UNL     1       4.946  -1.402   1.690  1.00  0.00     0.074 A 
HETATM   21 CL1  UNL     1       5.039  -0.902   3.356  1.00  0.00    -0.081 Cl
HETATM   22  C22 UNL     1       4.657  -0.476   0.711  1.00  0.00     0.056 A 
ENDBRANCH  13  15
ENDBRANCH  10  13
BRANCH   1  23
HETATM   23  O2  UNL     1      -0.665   0.884  -0.556  1.00  0.00    -0.331 OA
BRANCH  23  24
HETATM   24  C8  UNL     1      -0.680  -0.509  -0.581  1.00  0.00     0.179 C 
BRANCH  24  25
HETATM   25  C7  UNL     1      -2.064  -1.087  -0.758  1.00  0.00     0.057 C 
BRANCH  25  26
HETATM   26  C6  UNL     1      -2.943  -0.637   0.393  1.00  0.00     0.275 C 
BRANCH  26  27
HETATM   27  N1  UNL     1      -4.281  -1.201   0.214  1.00  0.00     0.097 N 
HETATM   28  C2  UNL     1      -5.060  -1.053   1.405  1.00  0.00     0.242 C 
HETATM   29  C1  UNL     1      -5.631  -2.391   1.876  1.00  0.00     0.045 C 
HETATM   30  C3  UNL     1      -6.196  -0.077   1.244  1.00  0.00     0.203 C 
HETATM   31  O1  UNL     1      -7.039  -0.425   0.190  1.00  0.00    -0.387 OA
HETATM   32  C4  UNL     1      -6.366  -0.905  -0.916  1.00  0.00     0.198 C 
HETATM   33  C5  UNL     1      -4.896  -0.582  -0.934  1.00  0.00     0.299 C 
ENDBRANCH  26  27
ENDBRANCH  25  26
ENDBRANCH  24  25
ENDBRANCH  23  24
ENDBRANCH   1  23
TORSDOF 7
