REMARK  6 active torsions:
REMARK  status: ('A' for Active; 'I' for Inactive)
REMARK    1  A    between atoms: O1_2  and  C2_3 
REMARK    2  A    between atoms: C11_14  and  O2_15 
REMARK    3  A    between atoms: O2_15  and  C12_16 
REMARK    4  A    between atoms: C12_16  and  C13_17 
REMARK    5  A    between atoms: C17_22  and  N3_23 
REMARK    6  A    between atoms: N3_23  and  C18_24 
ROOT
HETATM    1  C2  UNL     1      -3.167  -1.984   0.520  1.00  0.00     0.103 A 
HETATM    2  C3  UNL     1      -4.465  -1.555   0.618  1.00  0.00     0.072 A 
HETATM    3  C4  UNL     1      -4.825  -0.218   0.475  1.00  0.00     0.069 A 
HETATM    4  N1  UNL     1      -6.087   0.208   0.570  1.00  0.00    -0.259 NA
HETATM    5  C5  UNL     1      -6.408   1.525   0.425  1.00  0.00     0.140 A 
HETATM    6  C6  UNL     1      -5.464   2.498   0.174  1.00  0.00     0.063 A 
HETATM    7  C7  UNL     1      -5.822   3.888   0.023  1.00  0.00     0.101 C 
HETATM    8  N2  UNL     1      -6.103   4.997  -0.110  1.00  0.00    -0.191 NA
HETATM    9  C8  UNL     1      -4.150   2.083   0.071  1.00  0.00     0.038 A 
HETATM   10  C9  UNL     1      -3.836   0.733   0.222  1.00  0.00    -0.003 A 
HETATM   11  C10 UNL     1      -2.530   0.333   0.118  1.00  0.00     0.053 A 
HETATM   12  C11 UNL     1      -2.209  -1.008   0.266  1.00  0.00     0.102 A 
ENDROOT
BRANCH  12  13
HETATM   13  O2  UNL     1      -0.896  -1.454   0.168  1.00  0.00    -0.348 OA
BRANCH  13  14
HETATM   14  C12 UNL     1       0.199  -0.595  -0.085  1.00  0.00     0.182 C 
BRANCH  14  15
HETATM   15  C13 UNL     1       1.456  -1.423  -0.123  1.00  0.00     0.037 C 
HETATM   16  C14 UNL     1       1.365  -2.465  -1.216  1.00  0.00     0.035 C 
HETATM   17  C15 UNL     1       1.603  -1.871  -2.564  1.00  0.00     0.168 C 
HETATM   18  O3  UNL     1       1.721  -0.492  -2.545  1.00  0.00    -0.389 OA
HETATM   19  C16 UNL     1       2.838  -0.166  -1.775  1.00  0.00     0.193 C 
HETATM   20  C17 UNL     1       2.714  -0.643  -0.345  1.00  0.00     0.111 C 
BRANCH  20  21
HETATM   21  N3  UNL     1       2.905   0.414   0.625  1.00  0.00    -0.383 N 
HETATM   22  H18 UNL     1       2.125   0.514   1.328  1.00  0.00     0.160 HD
BRANCH  21  23
HETATM   23  C18 UNL     1       3.975   1.340   0.784  1.00  0.00     0.030 A 
HETATM   24  C19 UNL     1       3.980   2.312   1.784  1.00  0.00     0.032 A 
HETATM   25  C20 UNL     1       5.066   3.156   1.854  1.00  0.00     0.046 A 
HETATM   26  C21 UNL     1       6.137   3.091   0.996  1.00  0.00     0.138 A 
HETATM   27  F1  UNL     1       7.114   3.984   1.197  1.00  0.00    -0.204 F 
HETATM   28  C22 UNL     1       6.147   2.141   0.007  1.00  0.00     0.074 A 
HETATM   29 CL1  UNL     1       7.510   2.067  -1.077  1.00  0.00    -0.081 Cl
HETATM   30  C23 UNL     1       5.052   1.277  -0.077  1.00  0.00     0.056 A 
ENDBRANCH  21  23
ENDBRANCH  20  21
ENDBRANCH  14  15
ENDBRANCH  13  14
ENDBRANCH  12  13
BRANCH   1  31
HETATM   31  O1  UNL     1      -2.826  -3.322   0.665  1.00  0.00    -0.353 OA
HETATM   32  C1  UNL     1      -3.897  -4.207   0.919  1.00  0.00     0.210 C 
ENDBRANCH   1  31
TORSDOF 6
