REMARK  6 active torsions:
REMARK  status: ('A' for Active; 'I' for Inactive)
REMARK    1  A    between atoms: O1_2  and  C2_3 
REMARK    2  A    between atoms: C2_3  and  C3_4 
REMARK    3  A    between atoms: C3_4  and  N1_5 
REMARK    4  A    between atoms: C10_14  and  C11_15 
REMARK    5  A    between atoms: C16_22  and  N4_23 
REMARK    6  A    between atoms: N4_23  and  C17_24 
ROOT
HETATM    1  C11 UNL     1       1.001   0.713   0.103  1.00  0.00     0.010 A 
HETATM    2  C12 UNL     1       0.272   1.727   0.661  1.00  0.00     0.130 A 
HETATM    3  N2  UNL     1       0.602   3.028   0.656  1.00  0.00    -0.271 NA
HETATM    4  C13 UNL     1       1.759   3.426   0.053  1.00  0.00     0.141 A 
HETATM    5  C14 UNL     1       2.552   2.466  -0.534  1.00  0.00     0.089 A 
HETATM    6  C15 UNL     1       3.754   2.968  -1.154  1.00  0.00     0.103 C 
HETATM    7  N3  UNL     1       4.718   3.353  -1.659  1.00  0.00    -0.191 NA
HETATM    8  C16 UNL     1       2.182   1.141  -0.508  1.00  0.00     0.066 A 
ENDROOT
BRANCH   8   9
HETATM    9  N4  UNL     1       3.155   0.293  -1.148  1.00  0.00    -0.354 N 
HETATM   10  H21 UNL     1       3.176  -0.113  -2.112  1.00  0.00     0.166 HD
BRANCH   9  11
HETATM   11  C17 UNL     1       4.253  -0.023  -0.301  1.00  0.00     0.035 A 
HETATM   12  C18 UNL     1       5.270  -0.908  -0.677  1.00  0.00     0.029 A 
HETATM   13  C19 UNL     1       6.343  -1.202   0.149  1.00  0.00     0.005 A 
HETATM   14  C20 UNL     1       6.454  -0.626   1.392  1.00  0.00     0.042 A 
HETATM   15  C21 UNL     1       5.484   0.257   1.825  1.00  0.00     0.118 A 
HETATM   16  F1  UNL     1       5.529   0.870   3.050  1.00  0.00    -0.206 F 
HETATM   17  C22 UNL     1       4.447   0.505   0.959  1.00  0.00     0.071 A 
ENDBRANCH   9  11
ENDBRANCH   8   9
BRANCH   1  18
HETATM   18  C10 UNL     1       0.705  -0.688   0.003  1.00  0.00     0.023 C 
HETATM   19  C9  UNL     1      -0.430  -1.310  -0.429  1.00  0.00    -0.008 C 
HETATM   20  C8  UNL     1      -0.367  -2.844  -0.386  1.00  0.00     0.208 C 
HETATM   21  C23 UNL     1      -1.448  -0.413  -0.935  1.00  0.00     0.349 C 
HETATM   22  O3  UNL     1      -1.319  -3.359   0.432  1.00  0.00    -0.363 OA
HETATM   23  C7  UNL     1      -1.117  -3.173   1.768  1.00  0.00     0.337 C 
HETATM   24  O2  UNL     1      -2.260  -3.650   2.495  1.00  0.00    -0.367 OA
HETATM   25  C6  UNL     1      -3.253  -2.857   1.780  1.00  0.00     0.172 C 
HETATM   26  C5  UNL     1      -2.740  -1.476   1.619  1.00  0.00     0.056 C 
HETATM   27  C4  UNL     1      -3.446  -0.858   0.390  1.00  0.00     0.277 C 
HETATM   28  N1  UNL     1      -2.536   0.118  -0.169  1.00  0.00     0.113 N 
HETATM   29 CL1  UNL     1      -2.189  -1.130  -2.449  1.00  0.00    -0.087 Cl
BRANCH  28  30
HETATM   30  C3  UNL     1      -3.300   0.880  -1.182  1.00  0.00     0.301 C 
BRANCH  30  31
HETATM   31  C2  UNL     1      -4.333   1.774  -0.620  1.00  0.00     0.197 C 
BRANCH  31  32
HETATM   32  O1  UNL     1      -5.035   2.494  -1.617  1.00  0.00    -0.394 OA
HETATM   33  C1  UNL     1      -4.225   3.302  -2.378  1.00  0.00     0.201 C 
ENDBRANCH  31  32
ENDBRANCH  30  31
ENDBRANCH  28  30
ENDBRANCH   1  18
TORSDOF 6
