REMARK  1 active torsions:
REMARK  status: ('A' for Active; 'I' for Inactive)
REMARK    1  A    between atoms: C3_3  and  C4_4 
ROOT
HETATM    1  C1  UNL     1       5.192  -0.158  -3.318  1.00  0.00     0.012 C 
HETATM    2  C2  UNL     1       5.120  -0.589  -2.203  1.00  0.00    -0.114 C 
HETATM    3  C3  UNL     1       5.032  -1.135  -0.823  1.00  0.00     0.122 C 
ENDROOT
BRANCH   3   4
HETATM    4  C4  UNL     1       3.921  -0.356  -0.171  1.00  0.00     0.014 C 
HETATM    5  C5  UNL     1       2.843  -0.907   0.340  1.00  0.00     0.026 C 
HETATM    6  C6  UNL     1       2.156  -2.121   0.585  1.00  0.00     0.025 C 
HETATM    7  N3  UNL     1       1.909   0.149   0.730  1.00  0.00    -0.369 N 
HETATM    8  C7  UNL     1       1.279  -3.030   0.966  1.00  0.00    -0.019 C 
HETATM    9  C8  UNL     1       0.059  -2.568   1.696  1.00  0.00     0.083 C 
HETATM   10  C9  UNL     1      -1.200  -2.770   1.046  1.00  0.00     0.032 A 
HETATM   11  N1  UNL     1      -1.802  -1.638   0.936  1.00  0.00    -0.309 N 
HETATM   12  C16 UNL     1      -2.460  -2.974   0.396  1.00  0.00     0.180 A 
HETATM   13  N2  UNL     1      -1.181  -0.492   1.427  1.00  0.00    -0.229 NA
HETATM   14  C10 UNL     1      -1.685   0.666   1.067  1.00  0.00     0.294 C 
HETATM   15  C11 UNL     1      -2.480   1.762   0.488  1.00  0.00     0.086 C 
HETATM   16  C12 UNL     1      -3.557   1.478  -0.197  1.00  0.00    -0.026 C 
HETATM   17  O2  UNL     1      -1.616   2.704   0.992  1.00  0.00    -0.348 OA
HETATM   18  C13 UNL     1      -4.023   2.824  -0.585  1.00  0.00     0.048 C 
HETATM   19  C14 UNL     1      -4.146   0.150  -0.438  1.00  0.00     0.205 C 
HETATM   20  O1  UNL     1      -3.421  -0.832   0.172  1.00  0.00    -0.376 OA
HETATM   21  C15 UNL     1      -3.436  -2.177   0.006  1.00  0.00     0.183 C 
HETATM   22  C17 UNL     1      -0.663   3.445   0.255  1.00  0.00     0.202 C 
HETATM   23  C18 UNL     1       0.650   2.626   0.210  1.00  0.00     0.196 C 
HETATM   24  O3  UNL     1       0.361   1.446  -0.414  1.00  0.00    -0.370 OA
HETATM   25  C19 UNL     1       1.358   0.562  -0.550  1.00  0.00     0.290 C 
HETATM   26  H23 UNL     1       2.006   0.198   1.748  1.00  0.00     0.161 HD
ENDBRANCH   3   4
TORSDOF 1
