REMARK  5 active torsions:
REMARK  status: ('A' for Active; 'I' for Inactive)
REMARK    1  A    between atoms: C11_11  and  O1_12 
REMARK    2  A    between atoms: O1_12  and  C12_13 
REMARK    3  A    between atoms: C12_13  and  C13_14 
REMARK    4  A    between atoms: C13_14  and  O2_15 
REMARK    5  A    between atoms: C15_17  and  O3_18 
ROOT
HETATM    1  C1  UNL     1       0.024   3.787  -1.547  1.00  0.00     0.018 C 
HETATM    2  C2  UNL     1      -0.689   3.124  -0.823  1.00  0.00    -0.077 C 
HETATM    3  C3  UNL     1      -1.541   2.361   0.041  1.00  0.00     0.031 A 
HETATM    4  C4  UNL     1      -2.158   2.841   1.166  1.00  0.00     0.022 A 
HETATM    5  C5  UNL     1      -2.957   2.032   1.926  1.00  0.00     0.004 A 
HETATM    6  C6  UNL     1      -3.179   0.716   1.603  1.00  0.00     0.030 A 
HETATM    7  C7  UNL     1      -2.564   0.221   0.472  1.00  0.00     0.047 A 
HETATM    8  C8  UNL     1      -1.739   1.070  -0.305  1.00  0.00     0.038 A 
HETATM    9  C9  UNL     1      -1.001   0.684  -1.550  1.00  0.00     0.074 C 
HETATM   10  C10 UNL     1       0.372   0.781  -1.671  1.00  0.00     0.072 C 
HETATM   11  C11 UNL     1       0.611  -0.518  -1.242  1.00  0.00     0.106 C 
HETATM   12  C15 UNL     1       0.187  -1.843  -1.219  1.00  0.00     0.125 C 
HETATM   13  C16 UNL     1      -0.594  -2.446  -0.240  1.00  0.00     0.045 C 
HETATM   14  C17 UNL     1      -1.707  -3.243  -0.414  1.00  0.00     0.053 C 
HETATM   15  C18 UNL     1      -2.476  -2.114  -0.610  1.00  0.00     0.129 C 
HETATM   16  N1  UNL     1      -2.670  -2.033  -1.979  1.00  0.00    -0.225 NA
HETATM   17  C19 UNL     1      -2.231  -1.037  -2.832  1.00  0.00     0.235 C 
HETATM   18  N2  UNL     1      -1.584   0.178  -2.703  1.00  0.00    -0.241 NA
HETATM   19  N3  UNL     1      -2.982  -1.174   0.387  1.00  0.00    -0.340 N 
HETATM   20  H16 UNL     1      -3.667  -1.373   1.120  1.00  0.00     0.167 HD
ENDROOT
BRANCH  11  21
HETATM   21  O1  UNL     1       1.709  -0.945  -0.469  1.00  0.00    -0.346 OA
BRANCH  21  22
HETATM   22  C12 UNL     1       2.727  -0.065  -0.031  1.00  0.00     0.201 C 
BRANCH  22  23
HETATM   23  C13 UNL     1       3.741  -0.836   0.768  1.00  0.00     0.193 C 
BRANCH  23  24
HETATM   24  O2  UNL     1       4.788  -0.119   1.258  1.00  0.00    -0.394 OA
HETATM   25  C14 UNL     1       4.496   0.910   2.107  1.00  0.00     0.201 C 
ENDBRANCH  23  24
ENDBRANCH  22  23
ENDBRANCH  21  22
ENDBRANCH  11  21
BRANCH  12  26
HETATM   26  O3  UNL     1       0.568  -2.692  -2.278  1.00  0.00    -0.238 OA
HETATM   27 CL1  UNL     1       0.133  -4.331  -2.396  1.00  0.00     0.067 Cl
ENDBRANCH  12  26
TORSDOF 5
