REMARK  2 active torsions:
REMARK  status: ('A' for Active; 'I' for Inactive)
REMARK    1  A    between atoms: O1_1  and  C1_2 
REMARK    2  A    between atoms: C14_21  and  C15_22 
ROOT
HETATM    1  C1  UNL     1      -0.990  -2.510   0.140  1.00  0.00     0.143 C 
HETATM    2  C2  UNL     1      -0.084  -3.428  -0.638  1.00  0.00     0.207 C 
HETATM    3  O2  UNL     1       0.836  -2.702  -1.437  1.00  0.00    -0.347 OA
HETATM    4  C3  UNL     1       1.773  -1.804  -0.961  1.00  0.00     0.088 A 
HETATM    5  C4  UNL     1       1.627  -0.443  -0.806  1.00  0.00     0.074 A 
HETATM    6  C5  UNL     1       2.731   0.142  -0.316  1.00  0.00     0.114 A 
HETATM    7  C6  UNL     1       2.954   1.467  -0.025  1.00  0.00     0.201 A 
HETATM    8  N1  UNL     1       4.193   1.762   0.473  1.00  0.00    -0.214 NA
HETATM    9  C7  UNL     1       5.120   0.804   0.659  1.00  0.00     0.258 A 
HETATM   10  N2  UNL     1       4.825  -0.472   0.351  1.00  0.00    -0.161 NA
HETATM   11  N3  UNL     1       3.655  -0.794  -0.126  1.00  0.00    -0.237 N 
HETATM   12  C8  UNL     1       3.090  -1.953  -0.508  1.00  0.00     0.155 A 
HETATM   13  O3  UNL     1       2.197   2.606  -0.116  1.00  0.00    -0.284 OA
HETATM   14  C9  UNL     1       1.728   3.273  -1.194  1.00  0.00     0.255 C 
HETATM   15  N4  UNL     1       0.606   3.950  -1.090  1.00  0.00    -0.274 NA
HETATM   16  C10 UNL     1      -0.115   3.981   0.148  1.00  0.00     0.177 C 
HETATM   17  C11 UNL     1      -0.919   2.725   0.401  1.00  0.00    -0.009 C 
HETATM   18  C12 UNL     1      -1.975   1.881   0.646  1.00  0.00    -0.028 C 
HETATM   19  C13 UNL     1      -1.674   0.403   0.757  1.00  0.00     0.035 C 
HETATM   20  C14 UNL     1      -2.386  -0.426  -0.237  1.00  0.00     0.016 C 
HETATM   21  C17 UNL     1      -1.653  -1.567  -0.806  1.00  0.00     0.042 C 
ENDROOT
BRANCH  20  22
HETATM   22  C15 UNL     1      -3.801  -0.672  -0.003  1.00  0.00     0.006 C 
HETATM   23  C16 UNL     1      -4.294  -0.571   1.232  1.00  0.00     0.397 C 
HETATM   24  F1  UNL     1      -5.532  -0.732   1.769  1.00  0.00    -0.431 F 
ENDBRANCH  20  22
BRANCH   1  25
HETATM   25  O1  UNL     1      -1.859  -3.264   0.904  1.00  0.00    -0.393 OA
HETATM   26  H1  UNL     1      -2.012  -2.915   1.808  1.00  0.00     0.210 HD
ENDBRANCH   1  25
TORSDOF 2
