REMARK  10 active torsions:
REMARK  status: ('A' for Active; 'I' for Inactive)
REMARK    1  A    between atoms: C6_6  and  N1_7 
REMARK    2  A    between atoms: N1_7  and  C7_8 
REMARK    3  A    between atoms: C11_14  and  O1_15 
REMARK    4  A    between atoms: O1_15  and  C12_16 
REMARK    5  A    between atoms: C12_16  and  C13_17 
REMARK    6  A    between atoms: C13_17  and  O2_18 
REMARK    7  A    between atoms: C15_20  and  C16_21 
REMARK    8  A    between atoms: C16_21  and  C17_22 
REMARK    9  A    between atoms: C17_22  and  O3_23 
REMARK   10  A    between atoms: O3_23  and  C18_24 
ROOT
HETATM    1  C1  UNL     1       8.678  -2.343  -0.422  1.00  0.00     0.017 C 
HETATM    2  C2  UNL     1       7.746  -1.581  -0.281  1.00  0.00    -0.082 C 
HETATM    3  C3  UNL     1       6.665  -0.683  -0.098  1.00  0.00     0.000 A 
HETATM    4  C4  UNL     1       6.759   0.633  -0.053  1.00  0.00     0.018 A 
HETATM    5  C5  UNL     1       5.431   1.230   0.149  1.00  0.00     0.026 A 
HETATM    6  C6  UNL     1       4.537   0.263   0.225  1.00  0.00     0.015 A 
HETATM    7  C22 UNL     1       5.231  -1.058   0.075  1.00  0.00     0.105 A 
ENDROOT
BRANCH   6   8
HETATM    8  N1  UNL     1       3.132   0.148   0.405  1.00  0.00    -0.343 N 
HETATM    9  H4  UNL     1       2.932   0.158   1.422  1.00  0.00     0.167 HD
BRANCH   8  10
HETATM   10  C7  UNL     1       2.291   0.047  -0.710  1.00  0.00     0.141 A 
HETATM   11  N2  UNL     1       2.863   0.069  -1.925  1.00  0.00    -0.224 NA
HETATM   12  C8  UNL     1       2.113  -0.026  -3.062  1.00  0.00     0.236 A 
HETATM   13  N3  UNL     1       0.754  -0.146  -2.967  1.00  0.00    -0.241 NA
HETATM   14  C9  UNL     1       0.188  -0.167  -1.748  1.00  0.00     0.074 A 
HETATM   15  C10 UNL     1      -1.172  -0.286  -1.585  1.00  0.00     0.070 A 
HETATM   16  C21 UNL     1       0.925  -0.073  -0.587  1.00  0.00     0.039 A 
HETATM   17  C11 UNL     1      -1.869  -0.320  -0.398  1.00  0.00     0.077 A 
HETATM   18  C15 UNL     1      -1.082  -0.221   0.761  1.00  0.00    -0.022 A 
HETATM   19  C20 UNL     1       0.309  -0.098   0.643  1.00  0.00     0.027 A 
BRANCH  17  20
HETATM   20  O1  UNL     1      -3.184  -0.432  -0.149  1.00  0.00    -0.348 OA
BRANCH  20  21
HETATM   21  C12 UNL     1      -4.305  -0.558  -0.929  1.00  0.00     0.201 C 
BRANCH  21  22
HETATM   22  C13 UNL     1      -4.414  -1.748  -1.812  1.00  0.00     0.193 C 
BRANCH  22  23
HETATM   23  O2  UNL     1      -5.651  -1.629  -2.491  1.00  0.00    -0.394 OA
HETATM   24  C14 UNL     1      -5.788  -2.730  -3.331  1.00  0.00     0.201 C 
ENDBRANCH  22  23
ENDBRANCH  21  22
ENDBRANCH  20  21
ENDBRANCH  17  20
BRANCH  18  25
HETATM   25  C16 UNL     1      -1.678  -0.239   2.118  1.00  0.00     0.067 C 
BRANCH  25  26
HETATM   26  C17 UNL     1      -2.338   1.066   2.491  1.00  0.00     0.172 C 
BRANCH  26  27
HETATM   27  O3  UNL     1      -1.471   2.127   2.481  1.00  0.00    -0.391 OA
BRANCH  27  28
HETATM   28  C18 UNL     1      -2.052   3.328   2.815  1.00  0.00     0.163 C 
HETATM   29  C19 UNL     1      -2.668   3.371   4.191  1.00  0.00     0.033 C 
ENDBRANCH  27  28
ENDBRANCH  26  27
ENDBRANCH  25  26
ENDBRANCH  18  25
ENDBRANCH   8  10
ENDBRANCH   6   8
TORSDOF 10
