REMARK  2 active torsions:
REMARK  status: ('A' for Active; 'I' for Inactive)
REMARK    1  A    between atoms: N1_7  and  C7_8 
REMARK    2  A    between atoms: C7_8  and  C10_12 
ROOT
HETATM    1  C1  UNL     1       5.575  -2.535   1.163  1.00  0.00     0.017 C 
HETATM    2  C2  UNL     1       4.628  -2.113   0.504  1.00  0.00    -0.080 C 
HETATM    3  C3  UNL     1       3.504  -1.632  -0.294  1.00  0.00     0.017 A 
HETATM    4  C4  UNL     1       3.339  -2.254  -1.443  1.00  0.00     0.020 A 
HETATM    5  C5  UNL     1       2.207  -1.738  -2.201  1.00  0.00     0.018 A 
HETATM    6  C6  UNL     1       1.460  -0.737  -1.720  1.00  0.00     0.088 A 
HETATM    7  N1  UNL     1       1.694  -0.105  -0.466  1.00  0.00    -0.356 N 
HETATM    8  C20 UNL     1       2.783  -0.539   0.377  1.00  0.00     0.123 A 
HETATM    9  C21 UNL     1       3.781   0.562   0.680  1.00  0.00     0.038 C 
ENDROOT
BRANCH   7  10
HETATM   10  C7  UNL     1       0.697   0.939  -0.329  1.00  0.00     0.146 C 
HETATM   11  C8  UNL     1       1.123   1.910  -1.469  1.00  0.00     0.061 C 
HETATM   12  C9  UNL     1       0.853   1.783   0.839  1.00  0.00     0.096 C 
HETATM   13  N2  UNL     1       0.977   2.439   1.782  1.00  0.00    -0.194 NA
BRANCH  10  14
HETATM   14  C10 UNL     1      -0.669   0.566  -0.681  1.00  0.00    -0.010 C 
HETATM   15  C11 UNL     1      -1.293   1.156  -1.760  1.00  0.00    -0.009 C 
HETATM   16  C12 UNL     1      -2.805   1.362  -1.904  1.00  0.00     0.086 C 
HETATM   17  C13 UNL     1      -3.403   0.765  -0.642  1.00  0.00     0.034 C 
HETATM   18  C14 UNL     1      -3.631   1.694   0.259  1.00  0.00     0.159 C 
HETATM   19  N3  UNL     1      -3.529  -0.688  -0.653  1.00  0.00    -0.367 N 
HETATM   20  O1  UNL     1      -4.154   1.310   1.451  1.00  0.00    -0.359 OA
HETATM   21  C15 UNL     1      -3.980   0.066   2.072  1.00  0.00     0.200 C 
HETATM   22  C16 UNL     1      -2.785  -0.073   2.957  1.00  0.00     0.194 C 
HETATM   23  O2  UNL     1      -1.594   0.079   2.491  1.00  0.00    -0.385 OA
HETATM   24  C17 UNL     1      -0.817  -0.545   1.602  1.00  0.00     0.208 C 
HETATM   25  C18 UNL     1      -1.279  -0.461   0.224  1.00  0.00    -0.010 C 
HETATM   26  C19 UNL     1      -2.252  -1.291  -0.237  1.00  0.00     0.098 C 
HETATM   27  H19 UNL     1      -4.321  -1.306  -0.893  1.00  0.00     0.165 HD
ENDBRANCH  10  14
ENDBRANCH   7  10
TORSDOF 2
