REMARK  6 active torsions:
REMARK  status: ('A' for Active; 'I' for Inactive)
REMARK    1  A    between atoms: C2_2  and  C3_3 
REMARK    2  A    between atoms: C3_3  and  C4_4 
REMARK    3  A    between atoms: C4_4  and  O1_5 
REMARK    4  A    between atoms: O1_5  and  C5_6 
REMARK    5  A    between atoms: C14_18  and  N3_19 
REMARK    6  A    between atoms: N3_19  and  C15_20 
ROOT
HETATM    1  C5  UNL     1      -1.590  -0.753  -0.099  1.00  0.00     0.146 C 
HETATM    2  C6  UNL     1      -0.255  -0.168   0.101  1.00  0.00     0.017 C 
HETATM    3  C7  UNL     1       0.641  -0.186   1.082  1.00  0.00     0.006 C 
HETATM    4  C8  UNL     1       0.972  -0.688   2.478  1.00  0.00     0.193 C 
HETATM    5  N1  UNL     1       2.401  -1.125   2.267  1.00  0.00    -0.270 NA
HETATM    6  C9  UNL     1       2.560  -1.830   1.161  1.00  0.00     0.125 C 
HETATM    7  C10 UNL     1       2.776  -2.807   0.064  1.00  0.00     0.106 C 
HETATM    8  C11 UNL     1       1.484  -3.687  -0.016  1.00  0.00     0.175 C 
HETATM    9  O2  UNL     1       0.479  -2.742   0.182  1.00  0.00    -0.391 OA
HETATM   10  C12 UNL     1      -0.802  -3.168   0.109  1.00  0.00     0.170 C 
HETATM   11  C13 UNL     1      -1.742  -2.088   0.576  1.00  0.00     0.062 C 
HETATM   12  N2  UNL     1       2.263  -0.663   0.349  1.00  0.00    -0.216 NA
HETATM   13  C14 UNL     1       1.989   0.455   0.913  1.00  0.00     0.134 C 
ENDROOT
BRANCH  13  14
HETATM   14  N3  UNL     1       2.582   1.695   1.243  1.00  0.00    -0.363 N 
HETATM   15  H22 UNL     1       1.945   2.090   1.970  1.00  0.00     0.162 HD
BRANCH  14  16
HETATM   16  C15 UNL     1       3.758   1.790   0.418  1.00  0.00     0.135 A 
HETATM   17  C16 UNL     1       4.723   0.706   0.636  1.00  0.00     0.003 A 
HETATM   18  C17 UNL     1       5.006   0.084  -0.499  1.00  0.00    -0.001 A 
HETATM   19  C18 UNL     1       4.224   0.743  -1.540  1.00  0.00     0.005 A 
HETATM   20  C19 UNL     1       3.499   1.732  -1.018  1.00  0.00    -0.058 A 
HETATM   21  C20 UNL     1       2.606   2.569  -1.871  1.00  0.00     0.046 C 
ENDBRANCH  14  16
ENDBRANCH  13  14
BRANCH   1  22
HETATM   22  O1  UNL     1      -2.551   0.162   0.363  1.00  0.00    -0.382 OA
BRANCH  22  23
HETATM   23  C4  UNL     1      -3.427   0.582  -0.610  1.00  0.00     0.168 C 
BRANCH  23  24
HETATM   24  C3  UNL     1      -4.398   1.566   0.056  1.00  0.00     0.026 C 
BRANCH  24  25
HETATM   25  C2  UNL     1      -5.382   2.057  -0.974  1.00  0.00    -0.002 C 
HETATM   26  C1  UNL     1      -6.378   3.035  -0.396  1.00  0.00     0.005 C 
ENDBRANCH  24  25
ENDBRANCH  23  24
ENDBRANCH  22  23
ENDBRANCH   1  22
TORSDOF 6
