REMARK  3 active torsions:
REMARK  status: ('A' for Active; 'I' for Inactive)
REMARK    1  A    between atoms: C2_3  and  O1_4 
REMARK    2  A    between atoms: O1_4  and  C3_5 
REMARK    3  A    between atoms: C3_5  and  C4_6 
ROOT
HETATM    1  N1  UNL     1      -3.325   2.992   2.255  1.00  0.00    -0.195 NA
HETATM    2  C1  UNL     1      -3.777   2.008   1.865  1.00  0.00     0.085 C 
HETATM    3  C2  UNL     1      -4.341   0.756   1.369  1.00  0.00     0.291 C 
ENDROOT
BRANCH   3   4
HETATM    4  O1  UNL     1      -3.317  -0.136   1.078  1.00  0.00    -0.376 OA
BRANCH   4   5
HETATM    5  C3  UNL     1      -2.523   0.456   0.108  1.00  0.00     0.182 C 
BRANCH   5   6
HETATM    6  C4  UNL     1      -1.396  -0.415  -0.277  1.00  0.00     0.066 C 
HETATM    7  C5  UNL     1      -0.511  -0.723   0.903  1.00  0.00     0.001 C 
HETATM    8  C6  UNL     1       0.812  -0.427   0.988  1.00  0.00    -0.000 C 
HETATM    9  C7  UNL     1       1.189  -0.640   2.411  1.00  0.00     0.194 C 
HETATM   10  S1  UNL     1       1.977   0.109  -0.225  1.00  0.00    -0.107 SA
HETATM   11  N2  UNL     1       2.576  -0.727   2.683  1.00  0.00    -0.296 NA
HETATM   12  C8  UNL     1       3.419  -0.171   1.886  1.00  0.00     0.118 C 
HETATM   13  C9  UNL     1       3.238   0.604   0.644  1.00  0.00     0.070 C 
HETATM   14  N3  UNL     1       2.498  -1.036  -1.108  1.00  0.00    -0.267 NA
HETATM   15  C15 UNL     1       1.388   1.506  -1.115  1.00  0.00     0.112 C 
HETATM   16  C10 UNL     1       2.298  -1.525  -2.466  1.00  0.00     0.184 C 
HETATM   17  C11 UNL     1       0.813  -1.818  -2.534  1.00  0.00    -0.004 C 
HETATM   18  C12 UNL     1      -0.287  -1.217  -2.018  1.00  0.00     0.005 C 
HETATM   19  C13 UNL     1      -0.495   0.114  -1.376  1.00  0.00    -0.052 C 
HETATM   20  C14 UNL     1       0.003   1.304  -1.675  1.00  0.00    -0.008 C 
ENDBRANCH   5   6
ENDBRANCH   4   5
ENDBRANCH   3   4
TORSDOF 3
