REMARK  9 active torsions:
REMARK  status: ('A' for Active; 'I' for Inactive)
REMARK    1  A    between atoms: O1_2  and  C2_3 
REMARK    2  A    between atoms: C2_3  and  C3_4 
REMARK    3  A    between atoms: C3_4  and  O2_5 
REMARK    4  A    between atoms: O2_5  and  C4_6 
REMARK    5  A    between atoms: C8_12  and  N3_13 
REMARK    6  A    between atoms: C18_23  and  O3_24 
REMARK    7  A    between atoms: O3_24  and  C19_25 
REMARK    8  A    between atoms: C19_25  and  C20_26 
REMARK    9  A    between atoms: C20_26  and  O4_27 
ROOT
HETATM    1  C4  UNL     1      -2.144  -0.792   0.420  1.00  0.00     0.104 A 
HETATM    2  C5  UNL     1      -1.721  -2.103   0.448  1.00  0.00     0.072 A 
HETATM    3  C6  UNL     1      -0.450  -2.553   0.305  1.00  0.00     0.075 A 
HETATM    4  N1  UNL     1      -0.195  -3.867   0.355  1.00  0.00    -0.241 NA
HETATM    5  C7  UNL     1       1.083  -4.283   0.209  1.00  0.00     0.236 A 
HETATM    6  N2  UNL     1       2.072  -3.369   0.015  1.00  0.00    -0.223 NA
HETATM    7  C8  UNL     1       1.833  -2.038  -0.038  1.00  0.00     0.147 A 
HETATM    8  C16 UNL     1       0.529  -1.606   0.111  1.00  0.00     0.042 A 
HETATM    9  C17 UNL     1       0.205  -0.262   0.068  1.00  0.00     0.057 A 
HETATM   10  C18 UNL     1      -1.125   0.149   0.221  1.00  0.00     0.103 A 
ENDROOT
BRANCH   7  11
HETATM   11  N3  UNL     1       2.886  -1.099  -0.242  1.00  0.00    -0.317 N 
HETATM   12  C9  UNL     1       3.243  -0.712  -1.564  1.00  0.00     0.098 C 
HETATM   13  C10 UNL     1       4.319  -0.024  -1.910  1.00  0.00     0.018 C 
HETATM   14  C11 UNL     1       5.426   0.536  -1.143  1.00  0.00     0.008 C 
HETATM   15  C12 UNL     1       5.521   0.555   0.171  1.00  0.00    -0.061 C 
HETATM   16  C13 UNL     1       6.757   1.187   0.722  1.00  0.00     0.048 C 
HETATM   17  C14 UNL     1       4.570   0.034   1.172  1.00  0.00     0.024 C 
HETATM   18  C15 UNL     1       3.453  -0.668   0.997  1.00  0.00     0.098 C 
ENDBRANCH   7  11
BRANCH  10  19
HETATM   19  O3  UNL     1      -1.347   1.518   0.163  1.00  0.00    -0.346 OA
BRANCH  19  20
HETATM   20  C19 UNL     1      -0.265   2.387  -0.040  1.00  0.00     0.201 C 
BRANCH  20  21
HETATM   21  C20 UNL     1      -0.693   3.839  -0.076  1.00  0.00     0.193 C 
BRANCH  21  22
HETATM   22  O4  UNL     1      -1.588   4.012  -1.105  1.00  0.00    -0.394 OA
HETATM   23  C21 UNL     1      -2.055   5.305  -1.241  1.00  0.00     0.201 C 
ENDBRANCH  21  22
ENDBRANCH  20  21
ENDBRANCH  19  20
ENDBRANCH  10  19
BRANCH   1  24
HETATM   24  O2  UNL     1      -3.358  -0.212   0.546  1.00  0.00    -0.346 OA
BRANCH  24  25
HETATM   25  C3  UNL     1      -4.619  -0.740   0.739  1.00  0.00     0.201 C 
BRANCH  25  26
HETATM   26  C2  UNL     1      -5.145  -1.649  -0.317  1.00  0.00     0.193 C 
BRANCH  26  27
HETATM   27  O1  UNL     1      -6.432  -2.148  -0.056  1.00  0.00    -0.394 OA
HETATM   28  C1  UNL     1      -6.524  -2.881   1.100  1.00  0.00     0.201 C 
ENDBRANCH  26  27
ENDBRANCH  25  26
ENDBRANCH  24  25
ENDBRANCH   1  24
TORSDOF 9
