REMARK  8 active torsions:
REMARK  status: ('A' for Active; 'I' for Inactive)
REMARK    1  A    between atoms: C3_3  and  N1_4 
REMARK    2  A    between atoms: N1_4  and  C4_5 
REMARK    3  A    between atoms: C7_10  and  C8_11 
REMARK    4  A    between atoms: C8_11  and  O1_12 
REMARK    5  A    between atoms: C15_20  and  O3_21 
REMARK    6  A    between atoms: O3_21  and  C16_22 
REMARK    7  A    between atoms: C16_22  and  C17_23 
REMARK    8  A    between atoms: C17_23  and  O4_24 
ROOT
HETATM    1  C1  UNL     1      -3.366  -5.850   1.172  1.00  0.00     0.014 C 
HETATM    2  C2  UNL     1      -3.272  -4.667   1.265  1.00  0.00    -0.098 C 
HETATM    3  C3  UNL     1      -3.136  -3.213   1.364  1.00  0.00     0.213 C 
ENDROOT
BRANCH   3   4
HETATM    4  N1  UNL     1      -2.587  -2.731   0.112  1.00  0.00    -0.380 N 
HETATM    5  H4  UNL     1      -2.324  -3.273  -0.745  1.00  0.00     0.160 HD
BRANCH   4   6
HETATM    6  C4  UNL     1      -2.343  -1.357  -0.055  1.00  0.00     0.053 C 
HETATM    7  C5  UNL     1      -2.930  -0.484   0.775  1.00  0.00     0.112 C 
HETATM    8  N2  UNL     1      -3.061   0.702   0.356  1.00  0.00    -0.238 NA
HETATM    9  C6  UNL     1      -1.894   1.494   0.192  1.00  0.00     0.230 C 
HETATM   10  N3  UNL     1      -0.819   2.230  -0.094  1.00  0.00    -0.249 NA
HETATM   11  C7  UNL     1      -0.517   2.495  -1.532  1.00  0.00     0.270 C 
HETATM   12  O2  UNL     1       0.166   1.275  -1.949  1.00  0.00    -0.346 OA
HETATM   13  C10 UNL     1      -0.606   0.162  -1.410  1.00  0.00     0.110 A 
HETATM   14  C11 UNL     1      -1.592   0.338  -2.294  1.00  0.00     0.066 A 
HETATM   15  C15 UNL     1       0.450   0.084  -0.586  1.00  0.00     0.067 A 
HETATM   16  C14 UNL     1      -0.470  -0.842  -0.181  1.00  0.00     0.102 A 
HETATM   17  C13 UNL     1      -1.499  -0.710  -1.047  1.00  0.00     0.059 A 
HETATM   18  C12 UNL     1      -2.525  -0.577  -1.912  1.00  0.00    -0.024 A 
BRANCH  11  19
HETATM   19  C8  UNL     1       0.171   3.742  -1.706  1.00  0.00     0.222 C 
BRANCH  19  20
HETATM   20  O1  UNL     1       1.387   3.940  -1.108  1.00  0.00    -0.392 OA
HETATM   21  C9  UNL     1       1.449   3.910   0.244  1.00  0.00     0.201 C 
ENDBRANCH  19  20
ENDBRANCH  11  19
BRANCH  15  22
HETATM   22  O3  UNL     1       1.672   0.551  -0.264  1.00  0.00    -0.354 OA
BRANCH  22  23
HETATM   23  C16 UNL     1       2.535   0.191   0.722  1.00  0.00     0.201 C 
BRANCH  23  24
HETATM   24  C17 UNL     1       2.980  -1.234   0.596  1.00  0.00     0.193 C 
BRANCH  24  25
HETATM   25  O4  UNL     1       3.863  -1.654   1.584  1.00  0.00    -0.394 OA
HETATM   26  C18 UNL     1       5.042  -0.937   1.632  1.00  0.00     0.201 C 
ENDBRANCH  24  25
ENDBRANCH  23  24
ENDBRANCH  22  23
ENDBRANCH  15  22
ENDBRANCH   4   6
ENDBRANCH   3   4
TORSDOF 8
