REMARK  6 active torsions:
REMARK  status: ('A' for Active; 'I' for Inactive)
REMARK    1  A    between atoms: C7_7  and  N1_8 
REMARK    2  A    between atoms: N1_8  and  C8_9 
REMARK    3  A    between atoms: C19_24  and  O3_25 
REMARK    4  A    between atoms: O3_25  and  C20_26 
REMARK    5  A    between atoms: C20_26  and  C21_27 
REMARK    6  A    between atoms: C21_27  and  O4_28 
ROOT
HETATM    1  C1  UNL     1      -7.873  -0.732  -2.304  1.00  0.00     0.018 C 
HETATM    2  C2  UNL     1      -6.743  -0.998  -1.972  1.00  0.00    -0.078 C 
HETATM    3  C3  UNL     1      -5.398  -1.318  -1.589  1.00  0.00     0.019 A 
HETATM    4  C4  UNL     1      -5.251  -2.236  -0.576  1.00  0.00     0.021 A 
HETATM    5  C5  UNL     1      -3.997  -2.595  -0.160  1.00  0.00     0.004 A 
HETATM    6  C6  UNL     1      -2.880  -2.014  -0.777  1.00  0.00     0.029 A 
HETATM    7  C7  UNL     1      -3.005  -1.084  -1.804  1.00  0.00     0.034 A 
HETATM    8  C24 UNL     1      -4.289  -0.758  -2.186  1.00  0.00     0.050 A 
ENDROOT
BRANCH   7   9
HETATM    9  N1  UNL     1      -1.875  -0.498  -2.432  1.00  0.00    -0.354 N 
HETATM   10  H5  UNL     1      -2.014   0.215  -3.160  1.00  0.00     0.166 HD
BRANCH   9  11
HETATM   11  C8  UNL     1      -0.630  -1.024  -1.927  1.00  0.00     0.064 A 
HETATM   12  C9  UNL     1      -0.113  -2.109  -2.577  1.00  0.00     0.089 A 
HETATM   13  C10 UNL     1      -0.662  -2.778  -3.706  1.00  0.00     0.103 C 
HETATM   14  C11 UNL     1       1.053  -2.559  -2.050  1.00  0.00     0.142 A 
HETATM   15  N2  UNL     1      -1.107  -3.320  -4.599  1.00  0.00    -0.191 NA
HETATM   16  N3  UNL     1       1.561  -1.927  -0.998  1.00  0.00    -0.259 NA
HETATM   17  C12 UNL     1       1.069  -0.875  -0.363  1.00  0.00     0.064 A 
HETATM   18  C13 UNL     1      -0.109  -0.369  -0.840  1.00  0.00     0.006 A 
HETATM   19  C23 UNL     1       1.936  -0.577   0.587  1.00  0.00     0.040 C 
HETATM   20  C14 UNL     1      -1.103   0.543  -0.749  1.00  0.00     0.058 C 
HETATM   21  C15 UNL     1      -1.965   1.618  -0.382  1.00  0.00     0.177 C 
HETATM   22  O1  UNL     1      -1.411   2.909  -0.335  1.00  0.00    -0.388 OA
HETATM   23  C16 UNL     1      -0.315   2.925   0.509  1.00  0.00     0.193 C 
HETATM   24  C17 UNL     1      -0.596   2.485   1.927  1.00  0.00     0.194 C 
HETATM   25  O2  UNL     1       0.677   2.515   2.629  1.00  0.00    -0.378 OA
HETATM   26  C18 UNL     1       1.652   1.518   2.383  1.00  0.00     0.268 C 
HETATM   27  C19 UNL     1       2.058   0.432   1.647  1.00  0.00     0.093 C 
BRANCH  27  28
HETATM   28  O3  UNL     1       3.141   0.485   2.494  1.00  0.00    -0.377 OA
BRANCH  28  29
HETATM   29  C20 UNL     1       4.449   0.755   1.964  1.00  0.00     0.195 C 
BRANCH  29  30
HETATM   30  C21 UNL     1       5.464  -0.059   2.715  1.00  0.00     0.193 C 
BRANCH  30  31
HETATM   31  O4  UNL     1       6.725   0.204   2.205  1.00  0.00    -0.394 OA
HETATM   32  C22 UNL     1       7.138   1.508   2.316  1.00  0.00     0.201 C 
ENDBRANCH  30  31
ENDBRANCH  29  30
ENDBRANCH  28  29
ENDBRANCH  27  28
ENDBRANCH   9  11
ENDBRANCH   7   9
TORSDOF 6
