REMARK  4 active torsions:
REMARK  status: ('A' for Active; 'I' for Inactive)
REMARK    1  A    between atoms: C6_8  and  C7_9 
REMARK    2  A    between atoms: C7_9  and  C8_10 
REMARK    3  A    between atoms: C8_10  and  N3_11 
REMARK    4  A    between atoms: N3_11  and  C9_12 
ROOT
HETATM    1  N1  UNL     1      -1.418  -1.854  -3.037  1.00  0.00    -0.191 NA
HETATM    2  C1  UNL     1      -2.040  -1.359  -2.215  1.00  0.00     0.101 C 
HETATM    3  C2  UNL     1      -2.836  -0.741  -1.186  1.00  0.00     0.069 A 
HETATM    4  C3  UNL     1      -4.132  -0.319  -1.497  1.00  0.00     0.140 A 
HETATM    5  N2  UNL     1      -4.894   0.261  -0.552  1.00  0.00    -0.259 NA
HETATM    6  C4  UNL     1      -4.387   0.425   0.689  1.00  0.00     0.067 A 
HETATM    7  C5  UNL     1      -3.114   0.025   1.041  1.00  0.00     0.001 A 
HETATM    8  C6  UNL     1      -2.315  -0.574   0.080  1.00  0.00    -0.022 A 
HETATM    9  C15 UNL     1      -3.321   0.508   2.406  1.00  0.00     0.017 A 
HETATM   10  C16 UNL     1      -4.529   0.886   2.063  1.00  0.00     0.033 A 
ENDROOT
BRANCH   8  11
HETATM   11  C7  UNL     1      -0.951  -1.017   0.409  1.00  0.00     0.060 C 
BRANCH  11  12
HETATM   12  C8  UNL     1       0.141  -0.133  -0.102  1.00  0.00     0.124 C 
BRANCH  12  13
HETATM   13  N3  UNL     1       1.400  -0.742   0.328  1.00  0.00    -0.390 N 
HETATM   14  H6  UNL     1       1.458  -1.631   0.886  1.00  0.00     0.159 HD
BRANCH  13  15
HETATM   15  C9  UNL     1       2.639  -0.126  -0.010  1.00  0.00     0.029 A 
HETATM   16  C10 UNL     1       3.869  -0.662   0.373  1.00  0.00     0.032 A 
HETATM   17  C11 UNL     1       5.050  -0.036   0.027  1.00  0.00     0.046 A 
HETATM   18  C12 UNL     1       5.058   1.135  -0.705  1.00  0.00     0.138 A 
HETATM   19  F1  UNL     1       6.290   1.636  -0.971  1.00  0.00    -0.204 F 
HETATM   20  C13 UNL     1       3.846   1.675  -1.089  1.00  0.00     0.074 A 
HETATM   21 CL1  UNL     1       3.932   3.160  -2.015  1.00  0.00    -0.081 Cl
HETATM   22  C14 UNL     1       2.660   1.051  -0.745  1.00  0.00     0.056 A 
ENDBRANCH  13  15
ENDBRANCH  12  13
ENDBRANCH  11  12
ENDBRANCH   8  11
TORSDOF 4
