REMARK  4 active torsions:
REMARK  status: ('A' for Active; 'I' for Inactive)
REMARK    1  A    between atoms: C2_2  and  O1_3 
REMARK    2  A    between atoms: O1_3  and  C3_4 
REMARK    3  A    between atoms: C8_10  and  N2_11 
REMARK    4  A    between atoms: N2_11  and  C9_12 
ROOT
HETATM    1  C3  UNL     1       2.911  -0.335  -0.665  1.00  0.00     0.050 A 
HETATM    2  C4  UNL     1       2.522   0.690  -1.400  1.00  0.00     0.064 A 
HETATM    3  C5  UNL     1       1.103   0.960  -1.271  1.00  0.00     0.068 A 
HETATM    4  N1  UNL     1       0.680   1.992  -2.060  1.00  0.00    -0.260 NA
HETATM    5  C6  UNL     1      -0.622   2.347  -2.086  1.00  0.00     0.119 A 
HETATM    6  C7  UNL     1      -1.458   1.613  -1.285  1.00  0.00     0.049 A 
HETATM    7  C8  UNL     1      -1.043   0.571  -0.486  1.00  0.00     0.043 A 
HETATM    8  C15 UNL     1       0.302   0.204  -0.456  1.00  0.00     0.015 A 
HETATM    9  C16 UNL     1       0.728  -0.897   0.440  1.00  0.00     0.136 A 
HETATM   10  C17 UNL     1       0.552  -0.490   1.861  1.00  0.00     0.069 C 
HETATM   11  N3  UNL     1       0.426  -0.180   2.971  1.00  0.00    -0.197 NA
HETATM   12  C18 UNL     1       2.159  -1.232   0.241  1.00  0.00     0.088 A 
ENDROOT
BRANCH   7  13
HETATM   13  N2  UNL     1      -1.952  -0.172   0.303  1.00  0.00    -0.356 N 
HETATM   14  H9  UNL     1      -1.622  -0.938   0.922  1.00  0.00     0.166 HD
BRANCH  13  15
HETATM   15  C9  UNL     1      -3.353  -0.166   0.501  1.00  0.00     0.034 A 
HETATM   16  C10 UNL     1      -4.022  -0.325   1.722  1.00  0.00     0.032 A 
HETATM   17  C11 UNL     1      -5.390  -0.326   1.797  1.00  0.00     0.046 A 
HETATM   18  C12 UNL     1      -6.153  -0.169   0.666  1.00  0.00     0.138 A 
HETATM   19  F1  UNL     1      -7.498  -0.180   0.825  1.00  0.00    -0.204 F 
HETATM   20  C13 UNL     1      -5.527  -0.010  -0.554  1.00  0.00     0.074 A 
HETATM   21 CL1  UNL     1      -6.622   0.179  -1.907  1.00  0.00    -0.081 Cl
HETATM   22  C14 UNL     1      -4.149  -0.014  -0.600  1.00  0.00     0.056 A 
ENDBRANCH  13  15
ENDBRANCH   7  13
BRANCH   1  23
HETATM   23  O1  UNL     1       4.273  -0.702  -0.698  1.00  0.00    -0.356 OA
BRANCH  23  24
HETATM   24  C2  UNL     1       5.090  -0.168   0.323  1.00  0.00     0.170 C 
HETATM   25  C1  UNL     1       6.507  -0.679   0.112  1.00  0.00     0.034 C 
ENDBRANCH  23  24
ENDBRANCH   1  23
TORSDOF 4
