REMARK  6 active torsions:
REMARK  status: ('A' for Active; 'I' for Inactive)
REMARK    1  A    between atoms: C2_2  and  O1_3 
REMARK    2  A    between atoms: O1_3  and  C3_4 
REMARK    3  A    between atoms: N1_7  and  C6_8 
REMARK    4  A    between atoms: C11_13  and  N2_14 
REMARK       I    between atoms: N2_14  and  C12_15 
REMARK    5  A    between atoms: C12_15  and  C13_17 
REMARK    6  A    between atoms: C14_18  and  C15_19 
ROOT
HETATM    1  C3  UNL     1       2.184  -0.144  -0.109  1.00  0.00     0.097 A 
HETATM    2  C4  UNL     1       3.447   0.293  -0.077  1.00  0.00     0.066 A 
HETATM    3  C5  UNL     1       3.767   1.675   0.307  1.00  0.00     0.041 A 
HETATM    4  N1  UNL     1       4.890   2.292   0.407  1.00  0.00    -0.252 NA
HETATM    5  C9  UNL     1       2.709   2.654   0.676  1.00  0.00     0.088 A 
HETATM    6  C10 UNL     1       1.414   1.979   0.576  1.00  0.00     0.012 A 
HETATM    7  C11 UNL     1       1.103   0.754   0.239  1.00  0.00     0.065 A 
ENDROOT
BRANCH   7   8
HETATM    8  N2  UNL     1      -0.175   0.182   0.168  1.00  0.00    -0.321 N 
HETATM    9  C12 UNL     1      -1.411   0.787   0.442  1.00  0.00     0.245 C 
HETATM   10  O2  UNL     1      -1.469   2.000   0.805  1.00  0.00    -0.268 OA
HETATM   11  H11 UNL     1      -0.371  -0.790  -0.104  1.00  0.00     0.169 HD
BRANCH   9  12
HETATM   12  C13 UNL     1      -2.713   0.173   0.361  1.00  0.00     0.071 C 
HETATM   13  C14 UNL     1      -3.867   0.755   0.622  1.00  0.00    -0.017 C 
BRANCH  13  14
HETATM   14  C15 UNL     1      -5.178   0.117   0.535  1.00  0.00    -0.000 C 
HETATM   15  C16 UNL     1      -6.106   0.778  -0.463  1.00  0.00     0.013 C 
HETATM   16  C17 UNL     1      -5.024  -1.319   0.098  1.00  0.00     0.013 C 
ENDBRANCH  13  14
ENDBRANCH   9  12
ENDBRANCH   7   8
BRANCH   1  17
HETATM   17  O1  UNL     1       2.304  -1.417  -0.495  1.00  0.00    -0.349 OA
BRANCH  17  18
HETATM   18  C2  UNL     1       1.431  -2.397  -0.865  1.00  0.00     0.171 C 
HETATM   19  C1  UNL     1       2.130  -3.653  -1.394  1.00  0.00     0.034 C 
ENDBRANCH  17  18
ENDBRANCH   1  17
BRANCH   4  20
HETATM   20  C6  UNL     1       6.083   1.579   0.109  1.00  0.00     0.069 A 
HETATM   21  C7  UNL     1       6.984   1.019  -0.616  1.00  0.00     0.007 A 
HETATM   22  C8  UNL     1       7.207   0.947   0.798  1.00  0.00     0.047 A 
ENDBRANCH   4  20
TORSDOF 6
