REMARK  0 active torsions:
REMARK  status: ('A' for Active; 'I' for Inactive)
ROOT
HETATM    1  C1  UNL     1       3.466   1.089  -2.724  1.00  0.00     0.045 C 
HETATM    2  C2  UNL     1       2.436   0.987  -1.659  1.00  0.00    -0.066 C 
HETATM    3  C3  UNL     1       2.470   0.042  -0.755  1.00  0.00     0.004 C 
HETATM    4  C4  UNL     1       1.330   0.148   0.206  1.00  0.00     0.133 C 
HETATM    5  C5  UNL     1       0.355  -0.954   0.021  1.00  0.00     0.053 C 
HETATM    6  C6  UNL     1       0.741  -2.359   0.298  1.00  0.00     0.031 C 
HETATM    7  C7  UNL     1      -0.318  -3.211  -0.434  1.00  0.00     0.120 C 
HETATM    8  N1  UNL     1      -1.540  -2.430  -0.647  1.00  0.00    -0.389 N 
HETATM    9  C8  UNL     1      -1.953  -1.420   0.274  1.00  0.00     0.037 A 
HETATM   10  C9  UNL     1      -3.238  -1.191   0.704  1.00  0.00     0.033 A 
HETATM   11  C10 UNL     1      -3.425  -0.224   1.657  1.00  0.00     0.045 A 
HETATM   12  C11 UNL     1      -2.363   0.478   2.158  1.00  0.00     0.138 A 
HETATM   13  C12 UNL     1      -1.069   0.258   1.752  1.00  0.00     0.161 A 
HETATM   14  F1  UNL     1       0.086   0.762   2.325  1.00  0.00    -0.202 F 
HETATM   15  C13 UNL     1      -0.871  -0.690   0.795  1.00  0.00     0.016 A 
HETATM   16  O1  UNL     1      -2.215   1.524   3.099  1.00  0.00    -0.234 OA
HETATM   17  N2  UNL     1      -1.576   2.667   2.493  1.00  0.00    -0.253 N 
HETATM   18  C14 UNL     1      -0.989   2.614   1.147  1.00  0.00     0.439 C 
HETATM   19  N3  UNL     1      -0.350   2.380   0.087  1.00  0.00    -0.318 NA
HETATM   20  N4  UNL     1       0.643   1.419  -0.189  1.00  0.00    -0.323 N 
HETATM   21  C15 UNL     1       1.275   1.870  -1.435  1.00  0.00     0.175 C 
HETATM   22  H11 UNL     1      -2.230  -2.513  -1.444  1.00  0.00     0.159 HD
HETATM   23  H14 UNL     1      -1.363   3.658   2.738  1.00  0.00     0.195 HD
ENDROOT
TORSDOF 0
