REMARK  6 active torsions:
REMARK  status: ('A' for Active; 'I' for Inactive)
REMARK    1  A    between atoms: C3_3  and  O1_4 
REMARK    2  A    between atoms: C7_10  and  N2_11 
REMARK    3  A    between atoms: N2_11  and  C8_12 
REMARK    4  A    between atoms: C8_12  and  C9_13 
REMARK    5  A    between atoms: C10_14  and  C12_16 
REMARK    6  A    between atoms: C12_16  and  C13_17 
ROOT
HETATM    1  C1  UNL     1      -2.914   1.596  -3.604  1.00  0.00     0.032 C 
HETATM    2  C2  UNL     1      -3.103   1.012  -2.412  1.00  0.00     0.056 A 
HETATM    3  C3  UNL     1      -4.344   1.201  -1.840  1.00  0.00     0.084 A 
HETATM    4  C4  UNL     1      -4.503   0.586  -0.616  1.00  0.00     0.088 A 
HETATM    5  C5  UNL     1      -3.530  -0.160   0.009  1.00  0.00     0.137 A 
HETATM    6  N1  UNL     1      -2.337  -0.318  -0.583  1.00  0.00    -0.271 N 
HETATM    7  C6  UNL     1      -2.122   0.263  -1.786  1.00  0.00     0.263 A 
HETATM    8  O2  UNL     1      -1.046   0.205  -2.473  1.00  0.00    -0.267 OA
HETATM    9  C7  UNL     1      -1.121  -1.037  -0.168  1.00  0.00     0.236 A 
HETATM   10  C14 UNL     1      -1.418  -1.652   1.140  1.00  0.00     0.082 A 
HETATM   11  C15 UNL     1      -0.584  -2.476   1.964  1.00  0.00     0.100 C 
HETATM   12  N3  UNL     1       0.097  -3.165   2.624  1.00  0.00    -0.191 NA
HETATM   13  C16 UNL     1      -2.632  -1.475   1.707  1.00  0.00     0.141 A 
HETATM   14  N4  UNL     1      -3.737  -0.721   1.165  1.00  0.00    -0.242 NA
ENDROOT
BRANCH   9  15
HETATM   15  N2  UNL     1       0.024  -0.207  -0.247  1.00  0.00    -0.394 N 
HETATM   16  H6  UNL     1      -0.069   0.729   0.159  1.00  0.00     0.155 HD
BRANCH  15  17
HETATM   17  C8  UNL     1       1.247  -0.894  -0.040  1.00  0.00     0.144 C 
BRANCH  17  18
HETATM   18  C9  UNL     1       2.374   0.099  -0.183  1.00  0.00    -0.005 C 
HETATM   19  C10 UNL     1       3.187   0.292   0.871  1.00  0.00    -0.084 C 
HETATM   20  C11 UNL     1       2.936  -0.479   2.117  1.00  0.00     0.043 C 
BRANCH  19  21
HETATM   21  C12 UNL     1       4.302   1.269   0.743  1.00  0.00     0.065 C 
BRANCH  21  22
HETATM   22  C13 UNL     1       5.668   0.622   0.952  1.00  0.00     0.226 C 
HETATM   23  F1  UNL     1       5.768   0.058   2.204  1.00  0.00    -0.255 F 
ENDBRANCH  21  22
ENDBRANCH  19  21
ENDBRANCH  17  18
ENDBRANCH  15  17
ENDBRANCH   9  15
BRANCH   3  24
HETATM   24  O1  UNL     1      -5.344   1.945  -2.442  1.00  0.00    -0.360 OA
HETATM   25  H3  UNL     1      -6.130   1.556  -2.941  1.00  0.00     0.217 HD
ENDBRANCH   3  24
TORSDOF 6
