REMARK  7 active torsions:
REMARK  status: ('A' for Active; 'I' for Inactive)
REMARK    1  A    between atoms: N1_7  and  C6_8 
REMARK    2  A    between atoms: C6_8  and  C7_9 
REMARK    3  A    between atoms: C7_9  and  O2_10 
REMARK    4  A    between atoms: O2_10  and  C8_11 
REMARK    5  A    between atoms: C12_15  and  S1_16 
REMARK    6  A    between atoms: S1_16  and  N2_17 
REMARK    7  A    between atoms: N2_17  and  C13_18 
ROOT
HETATM    1  C8  UNL     1       0.125   1.764  -2.613  1.00  0.00     0.082 A 
HETATM    2  C9  UNL     1      -0.513   3.076  -2.275  1.00  0.00     0.048 C 
HETATM    3  C10 UNL     1       1.246   1.540  -2.386  1.00  0.00     0.020 A 
HETATM    4  C11 UNL     1       2.335   1.317  -2.133  1.00  0.00     0.008 A 
HETATM    5  C12 UNL     1       3.802   1.011  -1.751  1.00  0.00     0.056 A 
HETATM    6  S1  UNL     1       3.407   0.826  -0.051  1.00  0.00    -0.072 SA
HETATM    7  C19 UNL     1       1.607   1.088   0.244  1.00  0.00     0.083 A 
HETATM    8  C20 UNL     1       0.836   1.025   1.605  1.00  0.00     0.104 C 
HETATM    9  N3  UNL     1       0.281   0.971   2.623  1.00  0.00    -0.191 NA
HETATM   10  C21 UNL     1       0.583   1.401  -0.708  1.00  0.00     0.070 A 
HETATM   11  N4  UNL     1       2.053   1.206  -1.054  1.00  0.00     0.000 N 
HETATM   12  C22 UNL     1       2.681   1.290  -2.340  1.00  0.00     0.033 A 
ENDROOT
BRANCH   6  13
HETATM   13  N2  UNL     1       4.531   0.265   1.266  1.00  0.00    -0.334 N 
HETATM   14  H16 UNL     1       5.063   1.026   1.735  1.00  0.00     0.173 HD
BRANCH  13  15
HETATM   15  C13 UNL     1       4.555  -1.136   1.505  1.00  0.00     0.039 A 
HETATM   16  C14 UNL     1       3.748  -1.945   0.735  1.00  0.00     0.033 A 
HETATM   17  C15 UNL     1       3.772  -3.327   0.970  1.00  0.00     0.046 A 
HETATM   18  C16 UNL     1       4.570  -3.898   1.939  1.00  0.00     0.138 A 
HETATM   19  F1  UNL     1       4.589  -5.233   2.160  1.00  0.00    -0.204 F 
HETATM   20  C17 UNL     1       5.337  -3.035   2.656  1.00  0.00     0.074 A 
HETATM   21 CL1  UNL     1       6.416  -3.620   3.933  1.00  0.00    -0.081 Cl
HETATM   22  C18 UNL     1       5.357  -1.691   2.475  1.00  0.00     0.057 A 
ENDBRANCH  13  15
ENDBRANCH   6  13
BRANCH   1  23
HETATM   23  O2  UNL     1      -0.872   0.834  -2.582  1.00  0.00    -0.377 OA
BRANCH  23  24
HETATM   24  C7  UNL     1      -1.535   0.755  -1.395  1.00  0.00     0.188 C 
BRANCH  24  25
HETATM   25  C6  UNL     1      -2.695  -0.253  -1.476  1.00  0.00     0.149 C 
BRANCH  25  26
HETATM   26  N1  UNL     1      -3.365  -0.310  -0.220  1.00  0.00    -0.379 N 
HETATM   27  C2  UNL     1      -4.709   0.183  -0.091  1.00  0.00     0.021 C 
HETATM   28  C1  UNL     1      -5.194   1.115  -0.932  1.00  0.00     0.040 C 
HETATM   29  C3  UNL     1      -5.748  -0.197   0.898  1.00  0.00     0.223 C 
HETATM   30  O1  UNL     1      -5.141  -0.964   1.885  1.00  0.00    -0.384 OA
HETATM   31  C4  UNL     1      -3.893  -0.451   2.150  1.00  0.00     0.187 C 
HETATM   32  C5  UNL     1      -2.886  -0.823   1.050  1.00  0.00     0.149 C 
ENDBRANCH  25  26
ENDBRANCH  24  25
ENDBRANCH  23  24
ENDBRANCH   1  23
TORSDOF 7
