REMARK  3 active torsions:
REMARK  status: ('A' for Active; 'I' for Inactive)
REMARK    1  A    between atoms: O1_2  and  C2_3 
REMARK    2  A    between atoms: C8_11  and  N3_12 
REMARK    3  A    between atoms: N3_12  and  C9_13 
ROOT
HETATM    1  C2  UNL     1      -1.455  -0.844  -0.726  1.00  0.00     0.126 C 
HETATM    2  C3  UNL     1      -0.381  -0.159  -0.443  1.00  0.00     0.086 A 
HETATM    3  C4  UNL     1       0.782   0.276   0.218  1.00  0.00    -0.030 A 
HETATM    4  C5  UNL     1       1.661  -0.113   1.283  1.00  0.00     0.033 A 
HETATM    5  C6  UNL     1       1.010  -0.868   2.237  1.00  0.00     0.133 A 
HETATM    6  N1  UNL     1       1.714  -1.309   3.306  1.00  0.00    -0.253 NA
HETATM    7  C7  UNL     1       3.030  -0.998   3.406  1.00  0.00     0.234 A 
HETATM    8  N2  UNL     1       3.634  -0.267   2.466  1.00  0.00    -0.224 NA
HETATM    9  C8  UNL     1       2.963   0.172   1.411  1.00  0.00     0.141 A 
HETATM   10  C15 UNL     1       0.704   1.160  -0.743  1.00  0.00     0.138 A 
HETATM   11  N4  UNL     1      -0.215   1.328  -1.767  1.00  0.00    -0.325 N 
HETATM   12  N5  UNL     1      -1.047   2.333  -1.232  1.00  0.00    -0.118 NA
HETATM   13  O2  UNL     1      -1.925   1.966  -0.304  1.00  0.00    -0.287 OA
HETATM   14  C16 UNL     1      -3.226   2.049  -0.722  1.00  0.00     0.197 C 
HETATM   15  C17 UNL     1      -4.275   1.141  -0.211  1.00  0.00     0.048 C 
HETATM   16  C18 UNL     1      -4.338  -0.295  -0.431  1.00  0.00     0.119 C 
HETATM   17  N6  UNL     1      -3.630  -1.323   0.100  1.00  0.00    -0.401 N 
HETATM   18  C19 UNL     1      -4.363  -2.329   0.834  1.00  0.00     0.143 C 
HETATM   19  C20 UNL     1      -3.982  -3.701   0.375  1.00  0.00     0.187 C 
HETATM   20  O3  UNL     1      -2.649  -4.012   0.685  1.00  0.00    -0.387 OA
HETATM   21  C21 UNL     1      -1.872  -2.847   0.675  1.00  0.00     0.195 C 
HETATM   22  C22 UNL     1      -2.426  -1.895  -0.416  1.00  0.00     0.141 C 
HETATM   23  H13 UNL     1       0.303   0.593  -2.289  1.00  0.00     0.177 HD
HETATM   24  H14 UNL     1      -1.454   2.937  -1.952  1.00  0.00     0.180 HD
ENDROOT
BRANCH   1  25
HETATM   25  O1  UNL     1      -2.129  -0.473  -1.886  1.00  0.00    -0.379 OA
HETATM   26  C1  UNL     1      -2.045  -1.067  -3.136  1.00  0.00     0.202 C 
ENDBRANCH   1  25
BRANCH   9  27
HETATM   27  N3  UNL     1       3.645   0.809   0.365  1.00  0.00    -0.340 N 
HETATM   28  H7  UNL     1       3.302   0.807  -0.613  1.00  0.00     0.167 HD
BRANCH  27  29
HETATM   29  C9  UNL     1       4.880   1.493   0.311  1.00  0.00     0.033 A 
HETATM   30  C10 UNL     1       5.599   1.935  -0.746  1.00  0.00     0.031 A 
HETATM   31  C11 UNL     1       6.788   2.601  -0.735  1.00  0.00     0.026 A 
HETATM   32  C12 UNL     1       7.322   2.855   0.508  1.00  0.00     0.034 A 
HETATM   33 CL1  UNL     1       8.858   3.716   0.538  1.00  0.00    -0.084 Cl
HETATM   34  C13 UNL     1       6.658   2.441   1.669  1.00  0.00     0.026 A 
HETATM   35  C14 UNL     1       5.445   1.764   1.564  1.00  0.00     0.031 A 
ENDBRANCH  27  29
ENDBRANCH   9  27
TORSDOF 3
