REMARK  6 active torsions:
REMARK  status: ('A' for Active; 'I' for Inactive)
REMARK    1  A    between atoms: C3_3  and  O1_4 
REMARK    2  A    between atoms: O1_4  and  C4_5 
REMARK    3  A    between atoms: C4_5  and  C5_6 
REMARK    4  A    between atoms: C5_6  and  O2_8 
REMARK    5  A    between atoms: C9_14  and  O3_15 
REMARK    6  A    between atoms: O3_15  and  C10_16 
ROOT
HETATM    1  C1  UNL     1      -1.050   1.559   0.074  1.00  0.00     0.054 C 
HETATM    2  C2  UNL     1      -1.397   0.117  -0.009  1.00  0.00     0.006 A 
HETATM    3  C3  UNL     1      -2.650  -0.469  -0.046  1.00  0.00     0.094 A 
HETATM    4  C7  UNL     1      -2.498  -1.850  -0.125  1.00  0.00     0.156 A 
HETATM    5  N1  UNL     1      -1.165  -2.109  -0.137  1.00  0.00    -0.236 N 
HETATM    6  N2  UNL     1      -0.567  -3.296  -0.204  1.00  0.00    -0.161 NA
HETATM    7  C8  UNL     1       0.797  -3.349  -0.204  1.00  0.00     0.258 A 
HETATM    8  N3  UNL     1       1.492  -2.199  -0.136  1.00  0.00    -0.214 NA
HETATM    9  C9  UNL     1       0.894  -0.995  -0.068  1.00  0.00     0.201 A 
HETATM   10  C17 UNL     1      -0.499  -0.940  -0.068  1.00  0.00     0.120 A 
ENDROOT
BRANCH   9  11
HETATM   11  O3  UNL     1       1.546   0.227   0.003  1.00  0.00    -0.287 OA
BRANCH  11  12
HETATM   12  C10 UNL     1       2.924   0.388   0.016  1.00  0.00     0.116 C 
HETATM   13  C11 UNL     1       3.224   1.339   0.918  1.00  0.00     0.042 C 
HETATM   14  C12 UNL     1       4.529   1.900   1.330  1.00  0.00     0.020 C 
HETATM   15  C13 UNL     1       5.805   1.552   1.096  1.00  0.00     0.083 C 
HETATM   16  N4  UNL     1       6.413   0.505   0.358  1.00  0.00    -0.395 N 
HETATM   17  C14 UNL     1       6.086  -0.843  -0.052  1.00  0.00     0.149 C 
HETATM   18  H16 UNL     1       7.364   0.820   0.028  1.00  0.00     0.159 HD
HETATM   19  C15 UNL     1       4.890  -0.937  -0.901  1.00  0.00     0.037 C 
HETATM   20  C16 UNL     1       3.649  -0.476  -0.909  1.00  0.00     0.148 C 
HETATM   21  F1  UNL     1       2.840  -0.834  -1.943  1.00  0.00    -0.203 F 
ENDBRANCH  11  12
ENDBRANCH   9  11
BRANCH   3  22
HETATM   22  O1  UNL     1      -3.854   0.261  -0.006  1.00  0.00    -0.347 OA
BRANCH  22  23
HETATM   23  C4  UNL     1      -5.105  -0.373  -0.045  1.00  0.00     0.207 C 
BRANCH  23  24
HETATM   24  C5  UNL     1      -6.252   0.630   0.010  1.00  0.00     0.138 C 
HETATM   25  C6  UNL     1      -6.215   1.578  -1.146  1.00  0.00     0.041 C 
BRANCH  24  26
HETATM   26  O2  UNL     1      -6.136   1.335   1.193  1.00  0.00    -0.394 OA
HETATM   27  H10 UNL     1      -5.159   1.564   1.282  1.00  0.00     0.210 HD
ENDBRANCH  24  26
ENDBRANCH  23  24
ENDBRANCH  22  23
ENDBRANCH   3  22
TORSDOF 6
