REMARK  8 active torsions:
REMARK  status: ('A' for Active; 'I' for Inactive)
REMARK    1  A    between atoms: C2_2  and  O1_3 
REMARK    2  A    between atoms: O1_3  and  C3_4 
REMARK    3  A    between atoms: C9_12  and  N3_13 
REMARK    4  A    between atoms: N3_13  and  C10_14 
REMARK    5  A    between atoms: C17_22  and  N4_23 
REMARK       I    between atoms: N4_23  and  C18_24 
REMARK    6  A    between atoms: C18_24  and  C19_26 
REMARK    7  A    between atoms: C20_27  and  C21_28 
REMARK    8  A    between atoms: C21_28  and  N5_29 
ROOT
HETATM    1  C3  UNL     1      -0.151  -0.729  -1.795  1.00  0.00     0.097 A 
HETATM    2  C4  UNL     1       0.912  -0.969  -2.663  1.00  0.00     0.071 A 
HETATM    3  C5  UNL     1       2.166  -1.219  -2.148  1.00  0.00     0.071 A 
HETATM    4  N1  UNL     1       3.189  -1.452  -3.018  1.00  0.00    -0.259 NA
HETATM    5  C6  UNL     1       4.425  -1.699  -2.526  1.00  0.00     0.142 A 
HETATM    6  C7  UNL     1       4.641  -1.715  -1.178  1.00  0.00     0.089 A 
HETATM    7  C8  UNL     1       5.953  -1.977  -0.682  1.00  0.00     0.103 C 
HETATM    8  N2  UNL     1       7.016  -2.204  -0.270  1.00  0.00    -0.191 NA
HETATM    9  C9  UNL     1       3.634  -1.485  -0.257  1.00  0.00     0.067 A 
HETATM   10  C15 UNL     1       2.376  -1.233  -0.785  1.00  0.00     0.023 A 
HETATM   11  C16 UNL     1       1.337  -0.997   0.093  1.00  0.00     0.048 A 
HETATM   12  C17 UNL     1       0.071  -0.745  -0.410  1.00  0.00     0.069 A 
ENDROOT
BRANCH   9  13
HETATM   13  N3  UNL     1       3.833  -1.495   1.160  1.00  0.00    -0.357 N 
HETATM   14  H8  UNL     1       3.698  -2.396   1.621  1.00  0.00     0.166 HD
BRANCH  13  15
HETATM   15  C10 UNL     1       4.199  -0.293   1.841  1.00  0.00     0.016 A 
HETATM   16  C11 UNL     1       4.359  -0.223   3.162  1.00  0.00     0.028 A 
HETATM   17  C12 UNL     1       4.727   1.181   3.406  1.00  0.00     0.040 A 
HETATM   18  C13 UNL     1       4.785   1.913   2.306  1.00  0.00     0.099 A 
HETATM   19  F1  UNL     1       5.087   3.232   2.147  1.00  0.00    -0.210 F 
HETATM   20  C14 UNL     1       4.446   1.017   1.184  1.00  0.00     0.127 A 
ENDBRANCH  13  15
ENDBRANCH   9  13
BRANCH  12  21
HETATM   21  N4  UNL     1      -1.067  -0.494   0.405  1.00  0.00    -0.321 N 
HETATM   22  C18 UNL     1      -2.014  -1.404   0.926  1.00  0.00     0.245 C 
HETATM   23  O2  UNL     1      -1.704  -2.553   0.551  1.00  0.00    -0.268 OA
HETATM   24  H14 UNL     1      -1.052   0.537   0.540  1.00  0.00     0.169 HD
BRANCH  22  25
HETATM   25  C19 UNL     1      -3.113  -0.935   1.747  1.00  0.00     0.072 C 
HETATM   26  C20 UNL     1      -3.540   0.197   2.209  1.00  0.00     0.008 C 
BRANCH  26  27
HETATM   27  C21 UNL     1      -3.391   1.661   2.327  1.00  0.00     0.299 C 
BRANCH  27  28
HETATM   28  N5  UNL     1      -4.523   2.377   1.800  1.00  0.00     0.083 N 
HETATM   29  C22 UNL     1      -5.720   2.193   2.588  1.00  0.00     0.309 C 
HETATM   30  C23 UNL     1      -4.819   1.849   0.470  1.00  0.00     0.309 C 
ENDBRANCH  27  28
ENDBRANCH  26  27
ENDBRANCH  22  25
ENDBRANCH  12  21
BRANCH   1  31
HETATM   31  O1  UNL     1      -1.392  -0.483  -2.368  1.00  0.00    -0.349 OA
BRANCH  31  32
HETATM   32  C2  UNL     1      -1.606  -0.469  -3.760  1.00  0.00     0.171 C 
HETATM   33  C1  UNL     1      -3.050  -0.173  -4.105  1.00  0.00     0.034 C 
ENDBRANCH  31  32
ENDBRANCH   1  31
TORSDOF 8
