REMARK  3 active torsions:
REMARK  status: ('A' for Active; 'I' for Inactive)
REMARK    1  A    between atoms: C3_3  and  C4_4 
REMARK    2  A    between atoms: C5_5  and  N1_6 
REMARK    3  A    between atoms: N1_6  and  C6_7 
ROOT
HETATM    1  C6  UNL     1       1.083  -2.003  -0.740  1.00  0.00     0.041 A 
HETATM    2  C7  UNL     1       0.332  -1.630   0.281  1.00  0.00     0.020 A 
HETATM    3  C8  UNL     1       0.772  -1.148   1.577  1.00  0.00     0.060 C 
HETATM    4  C9  UNL     1       0.708   0.045   2.097  1.00  0.00     0.124 C 
HETATM    5 CL1  UNL     1       1.338   0.338   3.729  1.00  0.00    -0.063 Cl
HETATM    6  N2  UNL     1       0.155   1.192   1.454  1.00  0.00    -0.255 N 
HETATM    7  O1  UNL     1      -0.732   0.881   0.481  1.00  0.00    -0.278 OA
HETATM    8  C10 UNL     1      -1.618   1.865   0.152  1.00  0.00     0.221 C 
HETATM    9  C11 UNL     1      -2.588   1.472  -0.936  1.00  0.00     0.151 C 
HETATM   10  N3  UNL     1      -3.390   0.325  -0.557  1.00  0.00    -0.378 N 
HETATM   11  C12 UNL     1      -4.620   0.144  -1.327  1.00  0.00     0.149 C 
HETATM   12  C13 UNL     1      -5.730   0.321  -0.280  1.00  0.00     0.187 C 
HETATM   13  O2  UNL     1      -5.673  -0.665   0.666  1.00  0.00    -0.384 OA
HETATM   14  C14 UNL     1      -4.445  -0.805   1.305  1.00  0.00     0.224 C 
HETATM   15  C15 UNL     1      -3.298  -0.709   0.400  1.00  0.00     0.033 C 
HETATM   16  C16 UNL     1      -2.299  -1.557   0.534  1.00  0.00     0.059 C 
HETATM   17  C17 UNL     1      -1.029  -1.793  -0.129  1.00  0.00     0.065 A 
HETATM   18  N4  UNL     1      -1.071  -2.240  -1.336  1.00  0.00    -0.283 NA
HETATM   19  C18 UNL     1       0.266  -2.432  -1.882  1.00  0.00     0.207 A 
HETATM   20  H10 UNL     1       0.449   2.149   1.753  1.00  0.00     0.195 HD
ENDROOT
BRANCH   1  21
HETATM   21  N1  UNL     1       2.514  -1.929  -0.569  1.00  0.00    -0.367 N 
HETATM   22  H8  UNL     1       2.972  -2.749  -0.111  1.00  0.00     0.165 HD
BRANCH  21  23
HETATM   23  C5  UNL     1       3.385  -0.872  -0.949  1.00  0.00     0.088 C 
HETATM   24  C4  UNL     1       4.209  -0.312  -0.064  1.00  0.00     0.017 C 
BRANCH  24  25
HETATM   25  C3  UNL     1       5.088   0.762  -0.468  1.00  0.00    -0.003 C 
HETATM   26  C2  UNL     1       5.902   1.318   0.394  1.00  0.00    -0.031 C 
HETATM   27  C1  UNL     1       6.831   2.414   0.078  1.00  0.00     0.036 C 
ENDBRANCH  24  25
ENDBRANCH  21  23
ENDBRANCH   1  21
TORSDOF 3
