REMARK  2 active torsions:
REMARK  status: ('A' for Active; 'I' for Inactive)
REMARK    1  A    between atoms: C3_5  and  N1_6 
REMARK    2  A    between atoms: N1_6  and  C4_7 
ROOT
HETATM    1  C4  UNL     1       1.629  -0.239  -1.040  1.00  0.00     0.157 C 
HETATM    2  C5  UNL     1       1.050  -1.492  -0.487  1.00  0.00     0.199 C 
HETATM    3  O1  UNL     1       0.366  -2.330  -1.193  1.00  0.00    -0.387 OA
HETATM    4  C6  UNL     1      -0.765  -2.463  -1.797  1.00  0.00     0.197 C 
HETATM    5  C7  UNL     1      -2.060  -2.594  -1.010  1.00  0.00     0.295 C 
HETATM    6  N2  UNL     1      -2.291  -1.478  -0.198  1.00  0.00     0.085 N 
HETATM    7  C8  UNL     1      -3.510  -1.591   0.631  1.00  0.00     0.269 C 
HETATM    8  C9  UNL     1      -3.437  -0.284   1.452  1.00  0.00     0.030 C 
HETATM    9  C10 UNL     1      -3.605   0.888   0.512  1.00  0.00     0.003 C 
HETATM   10  C11 UNL     1      -3.281   2.206   1.185  1.00  0.00     0.022 C 
HETATM   11  C12 UNL     1      -1.783   2.214   1.552  1.00  0.00     0.148 C 
HETATM   12  N3  UNL     1      -1.026   1.968   0.351  1.00  0.00    -0.301 NA
HETATM   13  C13 UNL     1      -0.081   2.706  -0.057  1.00  0.00     0.125 C 
HETATM   14  C14 UNL     1       0.173   1.883  -1.245  1.00  0.00     0.025 A 
HETATM   15  C15 UNL     1      -0.507   2.590  -2.272  1.00  0.00     0.133 A 
HETATM   16  N4  UNL     1      -0.617   2.285  -3.609  1.00  0.00    -0.253 NA
HETATM   17  C16 UNL     1       0.022   1.151  -3.960  1.00  0.00     0.232 A 
HETATM   18  N5  UNL     1       0.672   0.459  -3.023  1.00  0.00    -0.243 NA
HETATM   19  C17 UNL     1       0.792   0.735  -1.722  1.00  0.00     0.073 A 
HETATM   20  H10 UNL     1      -1.544  -1.496   0.564  1.00  0.00     0.315 HD
ENDROOT
BRANCH   1  21
HETATM   21  N1  UNL     1       2.297   0.464   0.085  1.00  0.00    -0.391 N 
HETATM   22  H2  UNL     1       2.096   1.422   0.473  1.00  0.00     0.159 HD
BRANCH  21  23
HETATM   23  C3  UNL     1       3.332  -0.189   0.744  1.00  0.00    -0.041 C 
HETATM   24  B1  UNL     1       4.922   0.148  -0.204  1.00  0.00     0.237 B 
HETATM   25  C2  UNL     1       6.231   0.245   1.119  1.00  0.00    -0.035 C 
HETATM   26  C1  UNL     1       5.932  -0.626   2.141  1.00  0.00     0.124 C 
HETATM   27  F1  UNL     1       6.945  -1.016   2.965  1.00  0.00    -0.206 F 
HETATM   28  C19 UNL     1       4.744  -1.206   2.507  1.00  0.00     0.072 C 
HETATM   29  C18 UNL     1       3.573  -0.976   1.836  1.00  0.00     0.038 C 
HETATM   30 CL1  UNL     1       4.542  -2.300   3.847  1.00  0.00    -0.081 Cl
ENDBRANCH  21  23
ENDBRANCH   1  21
TORSDOF 2
