REMARK  4 active torsions:
REMARK  status: ('A' for Active; 'I' for Inactive)
REMARK    1  A    between atoms: C2_2  and  C3_3 
REMARK    2  A    between atoms: C3_3  and  C4_4 
REMARK    3  A    between atoms: C16_21  and  O1_22 
REMARK    4  A    between atoms: O1_22  and  O2_23 
ROOT
HETATM    1  C4  UNL     1      -1.795  -0.334  -0.101  1.00  0.00    -0.044 C 
HETATM    2  C5  UNL     1      -1.009   0.103   0.867  1.00  0.00     0.019 C 
HETATM    3  C6  UNL     1       0.243  -0.648   0.808  1.00  0.00     0.035 C 
HETATM    4  C7  UNL     1       1.057  -0.535   1.910  1.00  0.00     0.138 C 
HETATM    5  N1  UNL     1       1.509  -1.857   2.307  1.00  0.00    -0.224 NA
HETATM    6  C8  UNL     1       2.183  -2.682   1.540  1.00  0.00     0.234 C 
HETATM    7  N2  UNL     1       1.910  -3.022   0.188  1.00  0.00    -0.255 NA
HETATM    8  C9  UNL     1       0.878  -2.671  -0.494  1.00  0.00     0.140 C 
HETATM    9  C10 UNL     1       0.265  -1.349  -0.509  1.00  0.00     0.254 C 
HETATM   10  N3  UNL     1       0.983  -0.432  -1.408  1.00  0.00     0.112 N 
HETATM   11  C11 UNL     1       2.289  -0.178  -0.887  1.00  0.00     0.341 C 
HETATM   12  C12 UNL     1       3.008   0.884  -1.592  1.00  0.00     0.122 C 
HETATM   13  F1  UNL     1       3.472   0.886  -2.843  1.00  0.00    -0.209 F 
HETATM   14  C13 UNL     1       3.107   1.884  -0.701  1.00  0.00     0.041 C 
HETATM   15  C14 UNL     1       2.707   2.161   0.656  1.00  0.00     0.020 C 
HETATM   16  C15 UNL     1       2.070   1.634   1.653  1.00  0.00     0.090 C 
HETATM   17  N4  UNL     1       1.352   0.802   2.489  1.00  0.00    -0.350 N 
HETATM   18  C16 UNL     1      -1.159  -1.411  -0.901  1.00  0.00     0.238 C 
HETATM   19  H11 UNL     1       0.382   0.430  -1.455  1.00  0.00     0.318 HD
HETATM   20  H17 UNL     1       0.841   0.204   3.080  1.00  0.00     0.166 HD
ENDROOT
BRANCH   1  21
HETATM   21  C3  UNL     1      -3.151   0.043  -0.518  1.00  0.00     0.037 C 
BRANCH  21  22
HETATM   22  C2  UNL     1      -3.752   1.133   0.307  1.00  0.00    -0.000 C 
HETATM   23  C1  UNL     1      -2.983   2.413   0.279  1.00  0.00     0.005 C 
ENDBRANCH  21  22
ENDBRANCH   1  21
BRANCH  18  24
HETATM   24  O1  UNL     1      -1.298  -1.102  -2.258  1.00  0.00    -0.230 OA
BRANCH  24  25
HETATM   25  O2  UNL     1      -1.956  -2.051  -2.893  1.00  0.00    -0.250 OA
HETATM   26  H19 UNL     1      -1.646  -2.902  -2.500  1.00  0.00     0.253 HD
ENDBRANCH  24  25
ENDBRANCH  18  24
TORSDOF 4
