REMARK  1 active torsions:
REMARK  status: ('A' for Active; 'I' for Inactive)
REMARK    1  A    between atoms: O1_2  and  C2_3 
ROOT
HETATM    1  C2  UNL     1      -0.234  -2.119   0.909  1.00  0.00     0.055 C 
HETATM    2  C3  UNL     1       0.999  -1.618   1.135  1.00  0.00     0.051 C 
HETATM    3  C4  UNL     1       2.229  -1.222   1.721  1.00  0.00     0.113 C 
HETATM    4  N1  UNL     1       2.816  -0.657   0.790  1.00  0.00    -0.295 NA
HETATM    5  C5  UNL     1       3.997   0.005   0.457  1.00  0.00     0.215 C 
HETATM    6  C6  UNL     1       3.914   0.662  -0.911  1.00  0.00     0.096 C 
HETATM    7  C7  UNL     1       3.181   0.881  -2.071  1.00  0.00     0.038 C 
HETATM    8  C8  UNL     1       1.901   0.250  -2.075  1.00  0.00     0.027 C 
HETATM    9  C9  UNL     1       0.750  -0.061  -2.598  1.00  0.00     0.134 C 
HETATM   10  O2  UNL     1      -0.069  -0.813  -1.868  1.00  0.00    -0.362 OA
HETATM   11  C10 UNL     1      -0.546  -2.042  -1.624  1.00  0.00     0.187 C 
HETATM   12  C11 UNL     1      -1.146  -2.209  -0.282  1.00  0.00     0.095 C 
HETATM   13  C12 UNL     1      -2.376  -1.383  -0.058  1.00  0.00     0.287 C 
HETATM   14  N2  UNL     1      -2.198  -0.092   0.501  1.00  0.00     0.109 N 
HETATM   15  C13 UNL     1      -3.343   0.050   1.459  1.00  0.00     0.300 C 
HETATM   16  C14 UNL     1      -4.617  -0.130   0.660  1.00  0.00     0.198 C 
HETATM   17  O3  UNL     1      -4.541   0.349  -0.618  1.00  0.00    -0.386 OA
HETATM   18  C15 UNL     1      -3.659   1.397  -0.763  1.00  0.00     0.216 C 
HETATM   19  C16 UNL     1      -2.238   1.062  -0.299  1.00  0.00     0.332 C 
HETATM   20  S1  UNL     1      -1.716   2.582   0.587  1.00  0.00     0.022 SA
HETATM   21  C17 UNL     1      -0.059   2.956   0.299  1.00  0.00     0.145 A 
HETATM   22  F1  UNL     1      -1.052   3.716   0.791  1.00  0.00    -0.294 F 
HETATM   23  C18 UNL     1       1.174   3.082   0.084  1.00  0.00     0.050 C 
HETATM   24  C19 UNL     1       2.409   3.800  -0.124  1.00  0.00     0.022 C 
HETATM   25  C20 UNL     1       3.605   3.345  -0.333  1.00  0.00     0.114 C 
HETATM   26  N3  UNL     1       4.899   2.765  -0.560  1.00  0.00    -0.272 N 
HETATM   27  O4  UNL     1       5.191   1.381  -0.933  1.00  0.00    -0.241 OA
HETATM   28  H26 UNL     1       5.215   3.724  -0.330  1.00  0.00     0.193 HD
ENDROOT
BRANCH   1  29
HETATM   29  O1  UNL     1      -0.642  -2.643   2.128  1.00  0.00    -0.360 OA
HETATM   30  C1  UNL     1      -0.980  -4.017   2.234  1.00  0.00     0.209 C 
ENDBRANCH   1  29
TORSDOF 1
