REMARK  6 active torsions:
REMARK  status: ('A' for Active; 'I' for Inactive)
REMARK    1  A    between atoms: C4_5  and  C5_6 
REMARK    2  A    between atoms: C5_6  and  N1_7 
REMARK    3  A    between atoms: N1_7  and  C6_8 
REMARK    4  A    between atoms: C11_15  and  C12_16 
REMARK    5  A    between atoms: B1_21  and  C16_22 
REMARK    6  A    between atoms: C16_22  and  O1_23 
ROOT
HETATM    1  C6  UNL     1       1.956  -1.253   0.671  1.00  0.00     0.137 A 
HETATM    2  N2  UNL     1       2.823  -1.418   1.678  1.00  0.00    -0.224 NA
HETATM    3  C7  UNL     1       2.483  -1.447   2.973  1.00  0.00     0.235 A 
HETATM    4  N3  UNL     1       1.180  -1.300   3.298  1.00  0.00    -0.241 NA
HETATM    5  C8  UNL     1       0.238  -1.128   2.338  1.00  0.00     0.072 A 
HETATM    6  C9  UNL     1      -1.082  -0.980   2.693  1.00  0.00     0.033 A 
HETATM    7  C10 UNL     1      -2.030  -0.806   1.715  1.00  0.00     0.009 A 
HETATM    8  C11 UNL     1      -1.713  -0.770   0.357  1.00  0.00    -0.061 A 
HETATM    9  C17 UNL     1      -0.360  -0.927   0.079  1.00  0.00     0.024 A 
HETATM   10  C18 UNL     1       0.632  -1.105   1.018  1.00  0.00     0.039 A 
ENDROOT
BRANCH   1  11
HETATM   11  N1  UNL     1       2.388  -1.251  -0.670  1.00  0.00    -0.370 N 
HETATM   12  H6  UNL     1       1.698  -1.141  -1.411  1.00  0.00     0.161 HD
BRANCH  11  13
HETATM   13  C5  UNL     1       3.725  -1.383  -1.205  1.00  0.00     0.156 C 
BRANCH  13  14
HETATM   14  C4  UNL     1       4.615  -0.219  -0.913  1.00  0.00    -0.052 C 
HETATM   15  C3  UNL     1       5.211   0.517   0.220  1.00  0.00     0.067 C 
HETATM   16  C2  UNL     1       4.753   1.922   0.339  1.00  0.00     0.027 C 
HETATM   17  C1  UNL     1       5.134   2.837  -0.585  1.00  0.00     0.153 C 
HETATM   18  F1  UNL     1       4.727   4.129  -0.492  1.00  0.00    -0.199 F 
HETATM   19  S1  UNL     1       6.143   1.815  -1.712  1.00  0.00    -0.072 SA
HETATM   20  C19 UNL     1       5.053   0.396  -2.046  1.00  0.00     0.057 C 
ENDBRANCH  13  14
ENDBRANCH  11  13
ENDBRANCH   1  11
BRANCH   8  21
HETATM   21  C12 UNL     1      -2.743  -0.574  -0.686  1.00  0.00    -0.014 C 
HETATM   22  C13 UNL     1      -3.998  -1.310  -0.531  1.00  0.00     0.019 C 
HETATM   23  C14 UNL     1      -5.105  -0.689   0.211  1.00  0.00     0.112 C 
HETATM   24  N4  UNL     1      -5.187   0.710   0.269  1.00  0.00    -0.429 N 
HETATM   25  C15 UNL     1      -4.011   1.486   0.349  1.00  0.00     0.065 C 
HETATM   26  H15 UNL     1      -5.979   1.148  -0.244  1.00  0.00     0.152 HD
HETATM   27  B1  UNL     1      -3.043   0.982  -0.804  1.00  0.00     0.236 B 
BRANCH  27  28
HETATM   28  C16 UNL     1      -3.391   1.518  -2.278  1.00  0.00     0.142 C 
BRANCH  28  29
HETATM   29  O1  UNL     1      -2.237   1.934  -2.934  1.00  0.00    -0.293 OA
HETATM   30 CL1  UNL     1      -1.555   3.193  -1.992  1.00  0.00     0.060 Cl
ENDBRANCH  28  29
ENDBRANCH  27  28
ENDBRANCH   8  21
TORSDOF 6
