REMARK  4 active torsions:
REMARK  status: ('A' for Active; 'I' for Inactive)
REMARK    1  A    between atoms: C2_2  and  C3_3 
REMARK    2  A    between atoms: C3_3  and  N1_4 
REMARK    3  A    between atoms: C5_7  and  N3_8 
REMARK    4  A    between atoms: N3_8  and  C6_9 
ROOT
HETATM    1  N1  UNL     1      -1.788   1.734   0.270  1.00  0.00    -0.252 N 
HETATM    2  C4  UNL     1      -0.726   1.589  -0.710  1.00  0.00     0.235 C 
HETATM    3  N2  UNL     1      -0.042   0.637  -0.191  1.00  0.00    -0.224 NA
HETATM    4  C5  UNL     1       1.113   0.016  -0.639  1.00  0.00     0.134 C 
HETATM    5  C12 UNL     1       1.303  -1.293  -0.765  1.00  0.00    -0.007 C 
HETATM    6  C13 UNL     1       2.587  -1.881  -1.260  1.00  0.00     0.050 C 
HETATM    7  C14 UNL     1       0.427  -2.494  -0.494  1.00  0.00     0.182 C 
HETATM    8  C15 UNL     1      -0.864  -1.874  -0.029  1.00  0.00     0.309 C 
HETATM    9  N4  UNL     1      -1.924  -2.755   0.312  1.00  0.00     0.093 N 
HETATM   10  C16 UNL     1      -3.133  -2.192  -0.244  1.00  0.00     0.275 C 
HETATM   11  C17 UNL     1      -3.862  -1.215   0.587  1.00  0.00     0.059 C 
HETATM   12  C18 UNL     1      -3.168   0.036   0.980  1.00  0.00     0.203 C 
HETATM   13  O1  UNL     1      -2.730   0.821  -0.049  1.00  0.00    -0.277 OA
HETATM   14  C19 UNL     1      -1.689  -4.042  -0.307  1.00  0.00     0.298 C 
HETATM   15  C20 UNL     1      -0.973  -3.940  -1.627  1.00  0.00     0.199 C 
HETATM   16  O2  UNL     1       0.259  -3.309  -1.565  1.00  0.00    -0.378 OA
ENDROOT
BRANCH   4  17
HETATM   17  N3  UNL     1       2.240   0.793  -1.015  1.00  0.00    -0.341 N 
HETATM   18  H9  UNL     1       2.278   1.264  -1.941  1.00  0.00     0.167 HD
BRANCH  17  19
HETATM   19  C6  UNL     1       3.335   0.929  -0.107  1.00  0.00     0.035 A 
HETATM   20  C7  UNL     1       3.260   0.286   1.126  1.00  0.00     0.032 A 
HETATM   21  C8  UNL     1       4.333   0.419   2.013  1.00  0.00     0.046 A 
HETATM   22  C9  UNL     1       5.452   1.177   1.674  1.00  0.00     0.138 A 
HETATM   23  F1  UNL     1       6.506   1.330   2.502  1.00  0.00    -0.204 F 
HETATM   24  C10 UNL     1       5.469   1.789   0.442  1.00  0.00     0.074 A 
HETATM   25 CL1  UNL     1       6.850   2.762  -0.052  1.00  0.00    -0.081 Cl
HETATM   26  C11 UNL     1       4.436   1.686  -0.463  1.00  0.00     0.056 A 
ENDBRANCH  17  19
ENDBRANCH   4  17
BRANCH   1  27
HETATM   27  C3  UNL     1      -1.360   2.798   1.157  1.00  0.00     0.156 C 
BRANCH  27  28
HETATM   28  C2  UNL     1      -1.342   4.133   0.447  1.00  0.00     0.018 C 
HETATM   29  C1  UNL     1      -2.713   4.479  -0.065  1.00  0.00     0.007 C 
ENDBRANCH  27  28
ENDBRANCH   1  27
TORSDOF 4
