REMARK  1 active torsions:
REMARK  status: ('A' for Active; 'I' for Inactive)
REMARK    1  A    between atoms: O1_3  and  C2_4 
ROOT
HETATM    1  N1  UNL     1       3.566   3.319   0.864  1.00  0.00    -0.164 NA
HETATM    2  C1  UNL     1       2.967   2.648   0.103  1.00  0.00     0.234 C 
HETATM    3  O1  UNL     1       2.264   1.858  -0.760  1.00  0.00    -0.237 OA
ENDROOT
BRANCH   3   4
HETATM    4  C2  UNL     1       2.416   0.483  -0.656  1.00  0.00     0.133 A 
HETATM    5  C3  UNL     1       1.342  -0.280  -0.529  1.00  0.00     0.077 A 
HETATM    6  N2  UNL     1       0.113   0.379  -0.518  1.00  0.00    -0.353 N 
HETATM    7  C14 UNL     1       1.716  -1.682  -0.420  1.00  0.00    -0.012 A 
HETATM    8  C4  UNL     1      -1.095   0.887  -0.020  1.00  0.00     0.040 A 
HETATM    9  H1  UNL     1       0.083   0.698  -1.543  1.00  0.00     0.166 HD
HETATM   10  C5  UNL     1      -0.978   2.251   0.158  1.00  0.00     0.030 A 
HETATM   11  C9  UNL     1      -2.268   0.246   0.282  1.00  0.00    -0.014 A 
HETATM   12  C6  UNL     1      -1.960   3.106   0.634  1.00  0.00     0.004 A 
HETATM   13  C7  UNL     1      -3.136   2.464   0.937  1.00  0.00     0.020 A 
HETATM   14  C8  UNL     1      -3.275   1.102   0.766  1.00  0.00     0.019 A 
HETATM   15 BR1  UNL     1      -5.008   0.471   1.261  1.00  0.00    -0.050 Br
HETATM   16  C10 UNL     1      -2.777  -1.140   0.247  1.00  0.00     0.048 C 
HETATM   17  C11 UNL     1      -1.794  -2.207   0.189  1.00  0.00     0.003 C 
HETATM   18  C12 UNL     1      -0.500  -1.848  -0.043  1.00  0.00     0.021 C 
HETATM   19  C13 UNL     1       0.788  -2.615  -0.165  1.00  0.00    -0.010 C 
HETATM   20  C15 UNL     1       3.087  -2.158  -0.527  1.00  0.00     0.189 A 
HETATM   21  N3  UNL     1       4.098  -1.165  -0.650  1.00  0.00    -0.294 NA
HETATM   22  C16 UNL     1       3.810   0.071  -0.715  1.00  0.00     0.151 A 
ENDBRANCH   3   4
TORSDOF 1
