REMARK  8 active torsions:
REMARK  status: ('A' for Active; 'I' for Inactive)
REMARK    1  A    between atoms: N1_8  and  C7_9 
REMARK    2  A    between atoms: C14_18  and  N4_19 
REMARK       I    between atoms: N4_19  and  C15_20 
REMARK    3  A    between atoms: C15_20  and  C16_22 
REMARK    4  A    between atoms: C17_23  and  C18_24 
REMARK    5  A    between atoms: C18_24  and  O2_25 
REMARK    6  A    between atoms: O2_25  and  C19_26 
REMARK    7  A    between atoms: C19_26  and  C20_27 
REMARK    8  A    between atoms: C20_27  and  O3_28 
ROOT
HETATM    1  C7  UNL     1      -2.215   2.891   0.693  1.00  0.00     0.070 A 
HETATM    2  C8  UNL     1      -2.598   4.152   1.161  1.00  0.00     0.089 A 
HETATM    3  C9  UNL     1      -3.993   4.533   1.112  1.00  0.00     0.103 C 
HETATM    4  N2  UNL     1      -5.123   4.833   1.091  1.00  0.00    -0.191 NA
HETATM    5  C10 UNL     1      -1.719   5.082   1.680  1.00  0.00     0.142 A 
HETATM    6  N3  UNL     1      -0.422   4.773   1.744  1.00  0.00    -0.259 NA
HETATM    7  C11 UNL     1       0.008   3.569   1.305  1.00  0.00     0.069 A 
HETATM    8  C12 UNL     1       1.344   3.226   1.349  1.00  0.00     0.035 A 
HETATM    9  C13 UNL     1       1.722   2.002   0.882  1.00  0.00     0.032 A 
HETATM   10  C14 UNL     1       0.871   1.054   0.358  1.00  0.00     0.036 A 
HETATM   11  C21 UNL     1      -0.444   1.412   0.324  1.00  0.00     0.045 A 
HETATM   12  C22 UNL     1      -0.865   2.637   0.787  1.00  0.00     0.023 A 
ENDROOT
BRANCH   1  13
HETATM   13  N1  UNL     1      -3.245   2.056   0.183  1.00  0.00    -0.345 N 
HETATM   14  C2  UNL     1      -4.113   1.132   0.882  1.00  0.00     0.125 A 
HETATM   15  C1  UNL     1      -3.317   0.065   1.565  1.00  0.00     0.038 C 
HETATM   16  C3  UNL     1      -4.992   0.486  -0.125  1.00  0.00     0.011 A 
HETATM   17 BR1  UNL     1      -6.101  -0.725   0.829  1.00  0.00    -0.053 Br
HETATM   18  C4  UNL     1      -5.110   0.608  -1.437  1.00  0.00     0.018 A 
HETATM   19  C5  UNL     1      -4.184   1.579  -2.023  1.00  0.00     0.018 A 
HETATM   20  C6  UNL     1      -3.335   2.233  -1.246  1.00  0.00     0.092 A 
ENDBRANCH   1  13
BRANCH  10  21
HETATM   21  N4  UNL     1       1.248  -0.221  -0.131  1.00  0.00    -0.316 N 
HETATM   22  C15 UNL     1       2.511  -0.833  -0.217  1.00  0.00     0.301 C 
HETATM   23  O1  UNL     1       3.508  -0.192   0.191  1.00  0.00    -0.258 OA
HETATM   24  H11 UNL     1       0.508  -0.863  -0.504  1.00  0.00     0.170 HD
BRANCH  22  25
HETATM   25  C16 UNL     1       2.753  -2.146  -0.741  1.00  0.00    -0.003 C 
HETATM   26  C17 UNL     1       2.941  -3.248  -1.195  1.00  0.00    -0.070 C 
BRANCH  26  27
HETATM   27  C18 UNL     1       3.172  -4.575  -1.768  1.00  0.00     0.261 C 
BRANCH  27  28
HETATM   28  O2  UNL     1       4.381  -4.695  -2.422  1.00  0.00    -0.377 OA
BRANCH  28  29
HETATM   29  C19 UNL     1       5.470  -4.466  -1.619  1.00  0.00     0.194 C 
BRANCH  29  30
HETATM   30  C20 UNL     1       5.572  -5.412  -0.442  1.00  0.00     0.190 C 
BRANCH  30  31
HETATM   31  O3  UNL     1       6.727  -5.057   0.280  1.00  0.00    -0.399 OA
HETATM   32  H18 UNL     1       6.676  -4.134   0.613  1.00  0.00     0.209 HD
ENDBRANCH  30  31
ENDBRANCH  29  30
ENDBRANCH  28  29
ENDBRANCH  27  28
ENDBRANCH  26  27
ENDBRANCH  22  25
ENDBRANCH  10  21
TORSDOF 8
