REMARK  2 active torsions:
REMARK  status: ('A' for Active; 'I' for Inactive)
REMARK    1  A    between atoms: C9_11  and  N3_12 
REMARK    2  A    between atoms: N3_12  and  C10_13 
ROOT
HETATM    1  C1  UNL     1      -5.845   0.734   0.080  1.00  0.00     0.068 C 
HETATM    2  C2  UNL     1      -5.090  -0.519  -0.106  1.00  0.00     0.009 C 
HETATM    3  C3  UNL     1      -4.496  -1.684  -0.336  1.00  0.00     0.023 C 
HETATM    4  C4  UNL     1      -3.448  -2.683  -0.251  1.00  0.00     0.005 C 
HETATM    5  C5  UNL     1      -2.356  -2.485   0.438  1.00  0.00     0.159 C 
HETATM    6  N1  UNL     1      -1.138  -2.502   1.090  1.00  0.00    -0.288 NA
HETATM    7  C6  UNL     1      -0.116  -1.788   1.001  1.00  0.00     0.138 C 
HETATM    8  C7  UNL     1       0.723  -0.712   0.495  1.00  0.00     0.112 C 
HETATM    9  C8  UNL     1       0.245  -0.935  -0.864  1.00  0.00     0.105 C 
HETATM   10  N2  UNL     1      -0.122  -1.119  -1.972  1.00  0.00    -0.191 NA
HETATM   11  C9  UNL     1       1.559   0.278   0.072  1.00  0.00     0.166 C 
HETATM   12  O1  UNL     1       1.400   1.228  -0.916  1.00  0.00    -0.323 OA
HETATM   13  C16 UNL     1       0.427   2.311  -0.627  1.00  0.00     0.271 C 
HETATM   14  C17 UNL     1      -0.853   1.734  -0.540  1.00  0.00    -0.070 C 
HETATM   15  C18 UNL     1      -1.846   1.264  -0.473  1.00  0.00    -0.003 C 
HETATM   16  C19 UNL     1      -3.108   0.637  -0.387  1.00  0.00     0.300 C 
HETATM   17  O2  UNL     1      -3.458   1.046  -1.513  1.00  0.00    -0.258 OA
HETATM   18  N4  UNL     1      -3.848  -0.201   0.556  1.00  0.00    -0.320 N 
HETATM   19  H15 UNL     1      -3.051  -0.024   1.048  1.00  0.00     0.169 HD
ENDROOT
BRANCH  11  20
HETATM   20  N3  UNL     1       2.356  -0.231   1.043  1.00  0.00    -0.336 N 
HETATM   21  H8  UNL     1       2.706  -0.687   1.885  1.00  0.00     0.168 HD
BRANCH  20  22
HETATM   22  C10 UNL     1       3.656   0.108   0.564  1.00  0.00     0.035 A 
HETATM   23  C11 UNL     1       4.665  -0.758   0.120  1.00  0.00     0.029 A 
HETATM   24  C12 UNL     1       5.886  -0.333  -0.342  1.00  0.00     0.004 A 
HETATM   25  C13 UNL     1       6.168   1.021  -0.386  1.00  0.00     0.019 A 
HETATM   26  C14 UNL     1       5.263   1.970   0.021  1.00  0.00     0.013 A 
HETATM   27 BR1  UNL     1       5.562   3.832  -0.014  1.00  0.00    -0.051 Br
HETATM   28  C15 UNL     1       4.070   1.448   0.468  1.00  0.00     0.048 A 
ENDBRANCH  20  22
ENDBRANCH  11  20
TORSDOF 2
