REMARK  4 active torsions:
REMARK  status: ('A' for Active; 'I' for Inactive)
REMARK    1  A    between atoms: N1_2  and  C2_3 
REMARK    2  A    between atoms: C2_3  and  N2_4 
REMARK    3  A    between atoms: N2_4  and  C3_5 
REMARK    4  A    between atoms: O1_21  and  C16_22 
ROOT
HETATM    1  C2  UNL     1      -0.675  -0.555  -0.582  1.00  0.00     0.180 C 
HETATM    2  C9  UNL     1       0.422  -1.453  -1.199  1.00  0.00     0.141 C 
HETATM    3  N3  UNL     1       1.298  -1.980  -0.457  1.00  0.00    -0.292 NA
HETATM    4  C10 UNL     1       2.382  -2.801  -0.735  1.00  0.00     0.135 C 
HETATM    5  C11 UNL     1       2.741  -3.675   0.440  1.00  0.00    -0.003 C 
HETATM    6  C12 UNL     1       2.923  -2.580   1.213  1.00  0.00    -0.017 C 
HETATM    7  C13 UNL     1       3.553  -1.255   0.567  1.00  0.00     0.003 A 
HETATM    8  C14 UNL     1       3.651  -1.957  -0.679  1.00  0.00     0.035 C 
HETATM    9  N4  UNL     1       3.961   0.435   1.045  1.00  0.00     0.000 N 
HETATM   10  C15 UNL     1       3.777  -0.326   0.830  1.00  0.00    -0.007 A 
HETATM   11  O1  UNL     1       2.634   0.146   0.625  1.00  0.00     0.000 OA
HETATM   12  C16 UNL     1       3.193   1.252   1.017  1.00  0.00     0.060 A 
HETATM   13  C17 UNL     1       2.767   2.341   1.145  1.00  0.00    -0.143 C 
HETATM   14  C18 UNL     1       2.233   3.633   1.297  1.00  0.00     0.248 C 
HETATM   15  O2  UNL     1       0.831   3.565   0.952  1.00  0.00    -0.378 OA
HETATM   16  C19 UNL     1       0.825   3.353  -0.442  1.00  0.00     0.195 C 
HETATM   17  C20 UNL     1      -0.520   3.025  -0.997  1.00  0.00     0.194 C 
HETATM   18  O3  UNL     1      -1.078   1.822  -0.508  1.00  0.00    -0.384 OA
HETATM   19  C21 UNL     1      -0.307   0.816  -1.058  1.00  0.00     0.229 C 
HETATM   20  H13 UNL     1       4.842  -0.258   1.191  1.00  0.00     0.033 HD
ENDROOT
BRANCH   1  21
HETATM   21  N1  UNL     1      -0.571  -0.721   0.835  1.00  0.00    -0.273 NA
HETATM   22  C1  UNL     1      -0.504  -1.922   1.298  1.00  0.00     0.146 C 
ENDBRANCH   1  21
BRANCH   1  23
HETATM   23  N2  UNL     1      -1.950  -0.958  -1.058  1.00  0.00    -0.356 N 
HETATM   24  H3  UNL     1      -1.916  -1.590  -1.915  1.00  0.00     0.162 HD
BRANCH  23  25
HETATM   25  C3  UNL     1      -3.270  -0.682  -0.611  1.00  0.00     0.031 A 
HETATM   26  C4  UNL     1      -4.385  -1.193  -1.282  1.00  0.00     0.029 A 
HETATM   27  C5  UNL     1      -5.652  -0.941  -0.823  1.00  0.00     0.004 A 
HETATM   28  C6  UNL     1      -5.854  -0.182   0.308  1.00  0.00     0.019 A 
HETATM   29  C7  UNL     1      -4.817   0.356   1.025  1.00  0.00     0.013 A 
HETATM   30 BR1  UNL     1      -5.087   1.408   2.588  1.00  0.00    -0.051 Br
HETATM   31  C8  UNL     1      -3.573   0.067   0.513  1.00  0.00     0.048 A 
ENDBRANCH  23  25
ENDBRANCH   1  23
TORSDOF 4
