REMARK  4 active torsions:
REMARK  status: ('A' for Active; 'I' for Inactive)
REMARK    1  A    between atoms: C7_8  and  C8_9 
REMARK    2  A    between atoms: C8_9  and  C9_10 
REMARK    3  A    between atoms: C9_10  and  C10_11 
REMARK    4  A    between atoms: C10_11  and  C11_12 
ROOT
HETATM    1  C1  UNL     1      -1.469  -4.603   0.702  1.00  0.00     0.017 A 
HETATM    2  C2  UNL     1      -1.943  -3.682   1.556  1.00  0.00     0.001 A 
HETATM    3  C3  UNL     1      -0.810  -3.073   0.864  1.00  0.00    -0.020 A 
HETATM    4  O1  UNL     1       0.165  -2.622   0.235  1.00  0.00     0.000 OA
HETATM    5  C4  UNL     1      -0.574  -1.646   1.316  1.00  0.00     0.043 A 
HETATM    6  C5  UNL     1       0.387  -1.050   0.312  1.00  0.00     0.033 A 
HETATM    7  C6  UNL     1      -0.368  -0.940  -0.822  1.00  0.00     0.057 C 
HETATM    8  C7  UNL     1       0.265  -0.587  -2.041  1.00  0.00     0.033 C 
HETATM    9  O2  UNL     1      -1.722  -1.220  -0.515  1.00  0.00    -0.347 OA
HETATM   10  C12 UNL     1      -1.821  -0.876   0.902  1.00  0.00     0.162 C 
HETATM   11  C13 UNL     1      -1.696   0.593   0.932  1.00  0.00     0.302 C 
HETATM   12  N1  UNL     1      -1.547   1.235   2.222  1.00  0.00     0.086 N 
HETATM   13  C14 UNL     1      -1.340   2.655   1.881  1.00  0.00     0.272 C 
HETATM   14  C15 UNL     1      -0.828   3.488   3.014  1.00  0.00     0.056 C 
HETATM   15  C16 UNL     1       0.543   2.992   3.472  1.00  0.00     0.176 C 
HETATM   16  O3  UNL     1       0.555   1.733   4.052  1.00  0.00    -0.363 OA
HETATM   17  C17 UNL     1       1.068   0.593   3.393  1.00  0.00     0.130 C 
HETATM   18  C18 UNL     1       1.335  -0.022   2.289  1.00  0.00    -0.002 C 
HETATM   19  C19 UNL     1       1.687  -0.826   1.028  1.00  0.00     0.047 C 
HETATM   20  H14 UNL     1      -2.456   1.254   2.749  1.00  0.00     0.315 HD
ENDROOT
BRANCH   8  21
HETATM   21  C8  UNL     1       1.301  -0.275  -2.709  1.00  0.00     0.002 C 
BRANCH  21  22
HETATM   22  C9  UNL     1       1.250   0.005  -4.172  1.00  0.00    -0.002 C 
BRANCH  22  23
HETATM   23  C10 UNL     1       2.269   0.327  -4.907  1.00  0.00     0.004 C 
BRANCH  23  24
HETATM   24  C11 UNL     1       2.364   0.623  -6.339  1.00  0.00     0.249 C 
HETATM   25  F1  UNL     1       3.231  -0.322  -6.926  1.00  0.00    -0.251 F 
ENDBRANCH  23  24
ENDBRANCH  22  23
ENDBRANCH  21  22
ENDBRANCH   8  21
TORSDOF 4
