REMARK  3 active torsions:
REMARK  status: ('A' for Active; 'I' for Inactive)
REMARK    1  A    between atoms: C3_4  and  N2_5 
REMARK    2  A    between atoms: N2_5  and  C4_6 
REMARK    3  A    between atoms: C4_6  and  C5_7 
ROOT
HETATM    1  N1  UNL     1      -4.125  -3.353  -0.391  1.00  0.00    -0.191 NA
HETATM    2  C1  UNL     1      -3.690  -2.292  -0.564  1.00  0.00     0.103 C 
HETATM    3  C2  UNL     1      -3.170  -0.971  -0.792  1.00  0.00     0.089 C 
HETATM    4  C3  UNL     1      -2.000  -0.731  -0.234  1.00  0.00     0.061 C 
HETATM    5  C7  UNL     1      -1.077   0.428  -0.196  1.00  0.00     0.002 C 
HETATM    6  C8  UNL     1       0.042  -0.061   0.289  1.00  0.00     0.014 C 
HETATM    7  C9  UNL     1       1.405  -0.203   0.771  1.00  0.00     0.196 C 
HETATM    8  O1  UNL     1       2.237  -1.126   0.140  1.00  0.00    -0.385 OA
HETATM    9  C10 UNL     1       3.511  -1.115   0.723  1.00  0.00     0.194 C 
HETATM   10  C11 UNL     1       4.293   0.052   0.179  1.00  0.00     0.195 C 
HETATM   11  O2  UNL     1       4.451  -0.148  -1.219  1.00  0.00    -0.378 OA
HETATM   12  C12 UNL     1       5.007   1.029  -1.808  1.00  0.00     0.253 C 
HETATM   13  C13 UNL     1       4.003   2.040  -1.669  1.00  0.00    -0.118 C 
HETATM   14  C14 UNL     1       3.188   2.833  -1.562  1.00  0.00     0.047 A 
HETATM   15  C15 UNL     1       2.153   3.804  -1.434  1.00  0.00     0.285 A 
HETATM   16  O3  UNL     1       1.633   2.630  -1.215  1.00  0.00     0.000 OA
HETATM   17  N3  UNL     1       0.788   3.483  -1.155  1.00  0.00     0.130 N 
HETATM   18  C16 UNL     1      -0.285   2.558  -0.811  1.00  0.00     0.248 C 
HETATM   19  C17 UNL     1      -1.350   1.856  -0.519  1.00  0.00     0.003 C 
HETATM   20  C18 UNL     1      -2.567   2.707  -0.706  1.00  0.00     0.033 C 
HETATM   21  C19 UNL     1      -3.710   2.223  -1.226  1.00  0.00     0.117 C 
HETATM   22  N4  UNL     1      -4.306   1.060  -1.728  1.00  0.00    -0.271 NA
HETATM   23  C20 UNL     1      -4.120  -0.225  -1.578  1.00  0.00     0.141 C 
HETATM   24  H14 UNL     1       0.795   4.556  -1.321  1.00  0.00     0.324 HD
ENDROOT
BRANCH   4  25
HETATM   25  N2  UNL     1      -1.579  -1.889   0.462  1.00  0.00    -0.384 N 
HETATM   26  H1  UNL     1      -1.276  -2.504  -0.335  1.00  0.00     0.160 HD
BRANCH  25  27
HETATM   27  C4  UNL     1      -1.468  -2.417   1.837  1.00  0.00     0.149 C 
BRANCH  27  28
HETATM   28  C5  UNL     1      -2.773  -2.667   2.473  1.00  0.00     0.024 C 
HETATM   29  C6  UNL     1      -3.044  -3.904   2.860  1.00  0.00     0.078 C 
HETATM   30 CL1  UNL     1      -1.892  -5.207   2.626  1.00  0.00    -0.076 Cl
HETATM   31 BR1  UNL     1      -4.617  -4.555   3.708  1.00  0.00    -0.038 Br
ENDBRANCH  27  28
ENDBRANCH  25  27
ENDBRANCH   4  25
TORSDOF 3
