REMARK  5 active torsions:
REMARK  status: ('A' for Active; 'I' for Inactive)
REMARK    1  A    between atoms: N1_4  and  C4_5 
REMARK    2  A    between atoms: C10_12  and  C11_13 
REMARK    3  A    between atoms: C11_13  and  C12_14 
REMARK    4  A    between atoms: C13_15  and  C14_16 
REMARK    5  A    between atoms: C14_16  and  C16_18 
ROOT
HETATM    1  C4  UNL     1       1.316  -0.860   0.182  1.00  0.00     0.036 A 
HETATM    2  C5  UNL     1       2.200  -1.652  -0.395  1.00  0.00     0.008 A 
HETATM    3  C6  UNL     1       2.072  -2.982  -1.042  1.00  0.00     0.072 A 
HETATM    4  C7  UNL     1       0.645  -3.382  -0.955  1.00  0.00    -0.012 A 
HETATM    5  C8  UNL     1      -0.255  -4.316  -1.244  1.00  0.00     0.098 A 
HETATM    6  N2  UNL     1      -1.308  -3.563  -0.651  1.00  0.00    -0.364 N 
HETATM    7  C9  UNL     1      -0.368  -2.544  -0.327  1.00  0.00     0.048 A 
HETATM    8  C10 UNL     1      -0.050  -1.372   0.199  1.00  0.00    -0.001 A 
HETATM    9  H9  UNL     1      -2.326  -3.615  -0.471  1.00  0.00     0.165 HD
ENDROOT
BRANCH   1  10
HETATM   10  N1  UNL     1       1.752   0.382   0.723  1.00  0.00    -0.373 N 
HETATM   11  C3  UNL     1       2.405   1.213  -0.249  1.00  0.00     0.162 C 
HETATM   12  C2  UNL     1       3.196   2.310   0.356  1.00  0.00    -0.028 C 
HETATM   13  C1  UNL     1       3.594   3.181  -0.557  1.00  0.00     0.022 C 
HETATM   14  C19 UNL     1       3.467   2.368   1.767  1.00  0.00     0.039 C 
HETATM   15  C18 UNL     1       2.710   1.668   2.563  1.00  0.00     0.017 C 
HETATM   16 CL1  UNL     1       4.802   3.389   2.267  1.00  0.00    -0.084 Cl
HETATM   17  C17 UNL     1       1.592   0.819   2.090  1.00  0.00     0.152 C 
ENDBRANCH   1  10
BRANCH   8  18
HETATM   18  C11 UNL     1      -1.096  -0.532   0.837  1.00  0.00     0.070 C 
BRANCH  18  19
HETATM   19  C12 UNL     1      -1.292   0.780   0.209  1.00  0.00    -0.026 C 
HETATM   20  C13 UNL     1      -2.429   1.210  -0.328  1.00  0.00    -0.023 C 
BRANCH  20  21
HETATM   21  C14 UNL     1      -3.765   0.575  -0.466  1.00  0.00     0.037 C 
HETATM   22  C15 UNL     1      -4.078   0.507  -1.946  1.00  0.00     0.017 C 
BRANCH  21  23
HETATM   23  C16 UNL     1      -4.823   1.364   0.220  1.00  0.00     0.399 C 
HETATM   24  O1  UNL     1      -5.602   1.099   1.136  1.00  0.00    -0.429 OA
ENDBRANCH  21  23
ENDBRANCH  20  21
ENDBRANCH  18  19
ENDBRANCH   8  18
TORSDOF 5
