REMARK  8 active torsions:
REMARK  status: ('A' for Active; 'I' for Inactive)
REMARK    1  A    between atoms: N1_2  and  C3_4 
REMARK    2  A    between atoms: C3_4  and  C4_5 
REMARK    3  A    between atoms: C5_6  and  C6_7 
REMARK       I    between atoms: C6_7  and  N2_9 
REMARK    4  A    between atoms: N2_9  and  C7_10 
REMARK    5  A    between atoms: C10_13  and  C11_14 
REMARK    6  A    between atoms: C11_14  and  C12_15 
REMARK    7  A    between atoms: C17_23  and  O2_24 
REMARK    8  A    between atoms: O2_24  and  C18_25 
ROOT
HETATM    1  C7  UNL     1      -1.082  -0.727   0.149  1.00  0.00     0.046 C 
HETATM    2  C8  UNL     1      -1.255   0.487   0.682  1.00  0.00     0.028 C 
HETATM    3  C9  UNL     1      -2.349   1.418   1.048  1.00  0.00     0.008 C 
HETATM    4  C10 UNL     1      -3.450   1.751   0.335  1.00  0.00    -0.038 C 
HETATM    5  C14 UNL     1      -4.024   1.399  -0.980  1.00  0.00     0.243 C 
HETATM    6  C15 UNL     1      -3.393   2.164  -2.090  1.00  0.00     0.091 C 
HETATM    7  N3  UNL     1      -2.890   2.747  -2.970  1.00  0.00    -0.195 NA
HETATM    8  N4  UNL     1      -3.890   0.031  -1.340  1.00  0.00    -0.279 NA
HETATM    9  C16 UNL     1      -3.217  -0.995  -1.069  1.00  0.00     0.123 C 
HETATM   10  C17 UNL     1      -2.148  -1.634  -0.285  1.00  0.00     0.217 C 
ENDROOT
BRANCH   4  11
HETATM   11  C11 UNL     1      -4.219   2.713   1.152  1.00  0.00     0.065 C 
BRANCH  11  12
HETATM   12  C12 UNL     1      -4.420   4.022   0.550  1.00  0.00    -0.010 C 
HETATM   13  C13 UNL     1      -4.084   4.620  -0.577  1.00  0.00     0.214 C 
HETATM   14 CL1  UNL     1      -4.409   6.246  -1.171  1.00  0.00    -0.230 Cl
ENDBRANCH  11  12
ENDBRANCH   4  11
BRANCH  10  15
HETATM   15  O2  UNL     1      -1.600  -2.661  -0.999  1.00  0.00    -0.309 OA
BRANCH  15  16
HETATM   16  C18 UNL     1      -1.841  -3.924  -0.520  1.00  0.00     0.351 C 
HETATM   17  C19 UNL     1      -1.367  -4.224   0.857  1.00  0.00     0.126 C 
HETATM   18  F1  UNL     1      -3.185  -4.293  -0.701  1.00  0.00    -0.176 F 
HETATM   19  F2  UNL     1      -1.156  -4.791  -1.363  1.00  0.00    -0.176 F 
ENDBRANCH  15  16
ENDBRANCH  10  15
BRANCH   1  20
HETATM   20  N2  UNL     1       0.207  -1.261  -0.035  1.00  0.00    -0.324 N 
HETATM   21  C6  UNL     1       1.556  -0.911   0.175  1.00  0.00     0.245 C 
HETATM   22  O1  UNL     1       1.742   0.217   0.681  1.00  0.00    -0.268 OA
HETATM   23  H11 UNL     1       0.197  -2.229  -0.473  1.00  0.00     0.169 HD
BRANCH  21  24
HETATM   24  C5  UNL     1       2.701  -1.742  -0.145  1.00  0.00     0.072 C 
HETATM   25  C4  UNL     1       3.898  -1.261   0.118  1.00  0.00     0.008 C 
BRANCH  25  26
HETATM   26  C3  UNL     1       4.666  -0.126   0.654  1.00  0.00     0.299 C 
BRANCH  26  27
HETATM   27  N1  UNL     1       5.550   0.409  -0.360  1.00  0.00     0.083 N 
HETATM   28  C1  UNL     1       6.583  -0.581  -0.627  1.00  0.00     0.309 C 
HETATM   29  C2  UNL     1       6.150   1.651   0.077  1.00  0.00     0.309 C 
ENDBRANCH  26  27
ENDBRANCH  25  26
ENDBRANCH  21  24
ENDBRANCH   1  20
TORSDOF 8
