REMARK  6 active torsions:
REMARK  status: ('A' for Active; 'I' for Inactive)
REMARK    1  A    between atoms: C2_2  and  C3_3 
REMARK    2  A    between atoms: C6_8  and  N2_9 
REMARK    3  A    between atoms: N2_9  and  C7_10 
REMARK    4  A    between atoms: C13_17  and  C14_18 
REMARK    5  A    between atoms: C14_18  and  C15_19 
REMARK    6  A    between atoms: C15_19  and  N3_20 
ROOT
HETATM    1  N3  UNL     1      -2.590  -2.274  -1.341  1.00  0.00    -0.325 N 
HETATM    2  C16 UNL     1      -2.056  -2.489  -2.633  1.00  0.00     0.177 C 
HETATM    3  N4  UNL     1      -1.604  -2.676  -3.684  1.00  0.00    -0.172 NA
HETATM    4  H14 UNL     1      -3.626  -2.217  -1.191  1.00  0.00     0.171 HD
ENDROOT
BRANCH   1   5
HETATM    5  C15 UNL     1      -1.602  -2.144  -0.273  1.00  0.00     0.159 C 
BRANCH   5   6
HETATM    6  C14 UNL     1      -0.805  -0.915  -0.377  1.00  0.00     0.009 C 
BRANCH   6   7
HETATM    7  C13 UNL     1      -0.854   0.364  -0.179  1.00  0.00     0.020 A 
HETATM    8  C3  UNL     1      -1.980   0.978   0.301  1.00  0.00     0.064 A 
HETATM    9  N1  UNL     1      -2.025   2.298   0.522  1.00  0.00    -0.257 NA
HETATM   10  C4  UNL     1      -0.939   3.086   0.273  1.00  0.00     0.162 A 
HETATM   11  C5  UNL     1       0.200   2.516  -0.206  1.00  0.00     0.161 A 
HETATM   12  F1  UNL     1       1.259   3.284  -0.450  1.00  0.00    -0.202 F 
HETATM   13  C6  UNL     1       0.229   1.179  -0.423  1.00  0.00     0.085 A 
BRANCH   8  14
HETATM   14  C2  UNL     1      -3.121   0.384   0.588  1.00  0.00     0.001 C 
HETATM   15  C1  UNL     1      -4.269   1.175   1.094  1.00  0.00     0.038 C 
ENDBRANCH   8  14
BRANCH  13  16
HETATM   16  N2  UNL     1       1.452   0.637  -0.927  1.00  0.00    -0.353 N 
HETATM   17  H6  UNL     1       1.404   0.680  -1.968  1.00  0.00     0.166 HD
BRANCH  16  18
HETATM   18  C7  UNL     1       2.567   0.119  -0.222  1.00  0.00     0.034 A 
HETATM   19  C8  UNL     1       3.625  -0.353  -0.968  1.00  0.00     0.029 A 
HETATM   20  C9  UNL     1       4.729  -0.869  -0.326  1.00  0.00     0.004 A 
HETATM   21  C10 UNL     1       4.705  -0.879   1.073  1.00  0.00     0.024 A 
HETATM   22  C11 UNL     1       3.642  -0.404   1.815  1.00  0.00     0.036 A 
HETATM   23 CL1  UNL     1       3.699  -0.458   3.574  1.00  0.00    -0.084 Cl
HETATM   24  C12 UNL     1       2.531   0.114   1.157  1.00  0.00     0.053 A 
ENDBRANCH  16  18
ENDBRANCH  13  16
ENDBRANCH   6   7
ENDBRANCH   5   6
ENDBRANCH   1   5
TORSDOF 6
