REMARK  4 active torsions:
REMARK  status: ('A' for Active; 'I' for Inactive)
REMARK    1  A    between atoms: C2_2  and  C3_3 
REMARK    2  A    between atoms: C3_3  and  C4_4 
REMARK    3  A    between atoms: C7_8  and  N2_9 
REMARK    4  A    between atoms: C14_17  and  N4_18 
REMARK       I    between atoms: N4_18  and  C15_19 
ROOT
HETATM    1  N4  UNL     1       4.316  -0.538   0.115  1.00  0.00    -0.315 N 
HETATM    2  C15 UNL     1       5.459  -1.338  -0.028  1.00  0.00     0.326 C 
HETATM    3  O1  UNL     1       5.379  -2.420  -0.661  1.00  0.00    -0.256 OA
HETATM    4  C16 UNL     1       6.686  -0.855   0.575  1.00  0.00     0.162 C 
HETATM    5  N5  UNL     1       7.672  -0.467   1.040  1.00  0.00    -0.186 NA
HETATM    6  H17 UNL     1       4.373   0.380   0.649  1.00  0.00     0.170 HD
ENDROOT
BRANCH   1   7
HETATM    7  C14 UNL     1       2.956  -0.622  -0.299  1.00  0.00     0.033 A 
HETATM    8  C13 UNL     1       2.156  -1.742   0.145  1.00  0.00     0.031 A 
HETATM    9  C12 UNL     1       0.893  -1.908  -0.180  1.00  0.00     0.030 A 
HETATM   10  C11 UNL     1       0.253  -0.929  -1.026  1.00  0.00     0.046 A 
HETATM   11  N3  UNL     1      -0.998  -0.758  -1.445  1.00  0.00    -0.264 NA
HETATM   12  C18 UNL     1       1.007   0.272  -1.542  1.00  0.00     0.095 A 
HETATM   13  C10 UNL     1      -1.881  -1.751  -0.938  1.00  0.00     0.123 C 
HETATM   14  C8  UNL     1      -2.687  -1.359   0.075  1.00  0.00    -0.015 C 
HETATM   15  C7  UNL     1      -3.191  -0.353   1.027  1.00  0.00     0.343 C 
HETATM   16  C9  UNL     1      -3.344  -2.691   0.358  1.00  0.00     0.049 C 
HETATM   17  N1  UNL     1      -2.932   0.980   0.777  1.00  0.00    -0.387 N 
HETATM   18  C6  UNL     1      -1.727   1.650   0.873  1.00  0.00     0.144 C 
HETATM   19  H7  UNL     1      -3.579   1.387   0.074  1.00  0.00     0.155 HD
HETATM   20  C5  UNL     1      -0.672   1.323  -0.111  1.00  0.00     0.001 C 
HETATM   21  C4  UNL     1       0.220   1.494  -1.111  1.00  0.00    -0.040 C 
HETATM   22  C17 UNL     1       2.394   0.299  -1.083  1.00  0.00     0.018 A 
BRANCH  15  23
HETATM   23  N2  UNL     1      -4.648  -0.570   1.203  1.00  0.00     0.105 N 
HETATM   24  H9  UNL     1      -4.959  -1.118   0.391  1.00  0.00     0.315 HD
HETATM   25  H10 UNL     1      -4.853  -1.075   2.074  1.00  0.00     0.315 HD
ENDBRANCH  15  23
BRANCH  21  26
HETATM   26  C3  UNL     1      -0.191   2.848  -1.169  1.00  0.00     0.058 C 
BRANCH  26  27
HETATM   27  C2  UNL     1       0.458   3.809  -0.528  1.00  0.00    -0.154 C 
HETATM   28  C1  UNL     1       1.337   4.544   0.138  1.00  0.00     0.096 C 
ENDBRANCH  26  27
ENDBRANCH  21  26
ENDBRANCH   1   7
TORSDOF 4
