REMARK  6 active torsions:
REMARK  status: ('A' for Active; 'I' for Inactive)
REMARK    1  A    between atoms: C2_2  and  C3_3 
REMARK    2  A    between atoms: C2_2  and  C11_15 
REMARK    3  A    between atoms: C3_3  and  N1_4 
REMARK    4  A    between atoms: N1_4  and  C4_5 
REMARK    5  A    between atoms: C5_6  and  C6_7 
REMARK    6  A    between atoms: C11_15  and  N5_16 
ROOT
HETATM    1  N1  UNL     1       0.164  -1.072  -0.981  1.00  0.00    -0.395 N 
HETATM    2  H5  UNL     1      -0.102  -2.015  -0.622  1.00  0.00     0.159 HD
ENDROOT
BRANCH   1   3
HETATM    3  C3  UNL     1      -0.597  -0.174  -1.859  1.00  0.00     0.154 C 
BRANCH   3   4
HETATM    4  C2  UNL     1      -1.861  -0.872  -2.175  1.00  0.00    -0.054 C 
HETATM    5  C1  UNL     1      -2.042  -1.059  -3.508  1.00  0.00     0.017 C 
BRANCH   4   6
HETATM    6  C11 UNL     1      -2.970  -1.426  -1.364  1.00  0.00     0.152 C 
BRANCH   6   7
HETATM    7  N5  UNL     1      -3.636  -0.484  -0.566  1.00  0.00    -0.405 N 
HETATM    8  C12 UNL     1      -2.958   0.035   0.562  1.00  0.00     0.143 C 
HETATM    9  C13 UNL     1      -3.543   1.441   0.800  1.00  0.00     0.187 C 
HETATM   10  O1  UNL     1      -4.863   1.213   1.177  1.00  0.00    -0.388 OA
HETATM   11  C14 UNL     1      -5.627   0.592   0.223  1.00  0.00     0.187 C 
HETATM   12  C15 UNL     1      -5.021  -0.682  -0.337  1.00  0.00     0.143 C 
ENDBRANCH   6   7
ENDBRANCH   4   6
ENDBRANCH   3   4
ENDBRANCH   1   3
BRANCH   1  13
HETATM   13  C4  UNL     1       1.412  -0.560  -0.592  1.00  0.00     0.085 C 
HETATM   14  C5  UNL     1       1.849   0.109   0.460  1.00  0.00     0.048 C 
BRANCH  14  15
HETATM   15  C6  UNL     1       3.253   0.486   0.527  1.00  0.00     0.057 C 
HETATM   16  C7  UNL     1       3.513   1.146   1.641  1.00  0.00     0.026 C 
HETATM   17  C8  UNL     1       4.755   1.722   2.154  1.00  0.00     0.179 C 
HETATM   18  N2  UNL     1       5.852   0.823   2.305  1.00  0.00    -0.281 NA
HETATM   19  C9  UNL     1       6.501   0.043   1.503  1.00  0.00     0.201 C 
HETATM   20  N3  UNL     1       6.411  -0.272   0.100  1.00  0.00    -0.346 N 
HETATM   21  C10 UNL     1       5.265  -0.244  -0.777  1.00  0.00     0.208 C 
HETATM   22  H12 UNL     1       7.319  -0.555  -0.307  1.00  0.00     0.167 HD
HETATM   23  N4  UNL     1       4.004   0.056  -0.618  1.00  0.00    -0.244 NA
ENDBRANCH  14  15
ENDBRANCH   1  13
TORSDOF 6
