REMARK  4 active torsions:
REMARK  status: ('A' for Active; 'I' for Inactive)
REMARK    1  A    between atoms: C3_4  and  C4_5 
REMARK    2  A    between atoms: C6_7  and  N2_8 
REMARK    3  A    between atoms: N2_8  and  C7_9 
REMARK    4  A    between atoms: C15_18  and  C16_19 
ROOT
HETATM    1  N1  UNL     1       2.180  -4.908  -1.230  1.00  0.00    -0.192 NA
HETATM    2  C1  UNL     1       1.615  -4.111  -1.847  1.00  0.00     0.087 C 
HETATM    3  C2  UNL     1       0.912  -3.110  -2.591  1.00  0.00     0.090 C 
HETATM    4  C3  UNL     1       0.313  -2.030  -2.122  1.00  0.00    -0.007 C 
ENDROOT
BRANCH   4   5
HETATM    5  C4  UNL     1      -0.017  -1.237  -0.910  1.00  0.00     0.044 A 
HETATM    6  C5  UNL     1      -1.476  -1.285  -0.668  1.00  0.00     0.070 A 
HETATM    7  C6  UNL     1      -2.130   0.030  -0.533  1.00  0.00     0.010 A 
HETATM    8  C13 UNL     1      -1.666   1.268  -0.575  1.00  0.00     0.025 A 
HETATM    9  C14 UNL     1      -0.201   1.301  -0.804  1.00  0.00     0.006 A 
HETATM   10  C15 UNL     1       0.490   0.150  -0.946  1.00  0.00    -0.062 A 
BRANCH   7  11
HETATM   11  N2  UNL     1      -3.537  -0.224  -0.319  1.00  0.00    -0.360 N 
HETATM   12  H6  UNL     1      -4.159  -0.907  -0.804  1.00  0.00     0.166 HD
BRANCH  11  13
HETATM   13  C7  UNL     1      -4.517   0.333   0.576  1.00  0.00     0.033 A 
HETATM   14  C8  UNL     1      -4.816  -0.122   1.839  1.00  0.00     0.029 A 
HETATM   15  C9  UNL     1      -5.782   0.507   2.594  1.00  0.00     0.004 A 
HETATM   16  C10 UNL     1      -6.434   1.596   2.053  1.00  0.00     0.019 A 
HETATM   17  C11 UNL     1      -6.180   2.093   0.806  1.00  0.00     0.013 A 
HETATM   18 BR1  UNL     1      -7.123   3.602   0.126  1.00  0.00    -0.051 Br
HETATM   19  C12 UNL     1      -5.195   1.434   0.063  1.00  0.00     0.048 A 
ENDBRANCH  11  13
ENDBRANCH   7  11
BRANCH  10  20
HETATM   20  C16 UNL     1       1.912   0.691  -1.157  1.00  0.00     0.063 A 
HETATM   21  C17 UNL     1       2.479   1.416  -0.565  1.00  0.00     0.023 A 
HETATM   22  C18 UNL     1       2.817   1.831  -0.204  1.00  0.00    -0.066 A 
HETATM   23  C19 UNL     1       3.415   2.534   0.449  1.00  0.00     0.121 A 
HETATM   24  C23 UNL     1       2.675  -0.093   0.358  1.00  0.00     0.077 A 
HETATM   25  N3  UNL     1       3.381   0.877   1.221  1.00  0.00    -0.305 N 
HETATM   26  C20 UNL     1       4.789   0.747   1.211  1.00  0.00     0.100 C 
HETATM   27  C21 UNL     1       5.099  -0.495   2.064  1.00  0.00     0.088 C 
HETATM   28  S1  UNL     1       4.690  -1.863   0.899  1.00  0.00    -0.166 SA
HETATM   29  C22 UNL     1       3.547  -1.057  -0.294  1.00  0.00     0.094 C 
ENDBRANCH  10  20
ENDBRANCH   4   5
TORSDOF 4
