REMARK  6 active torsions:
REMARK  status: ('A' for Active; 'I' for Inactive)
REMARK    1  A    between atoms: C2_2  and  C3_3 
REMARK    2  A    between atoms: C2_2  and  C8_10 
REMARK    3  A    between atoms: C3_3  and  N1_4 
REMARK    4  A    between atoms: C8_10  and  N2_11 
REMARK    5  A    between atoms: C15_20  and  N5_21 
REMARK    6  A    between atoms: N5_21  and  C16_22 
ROOT
HETATM    1  N2  UNL     1       0.119  -0.939  -1.812  1.00  0.00    -0.320 N 
HETATM    2  C9  UNL     1       0.663  -2.170  -1.804  1.00  0.00     0.097 A 
HETATM    3  C10 UNL     1       0.002  -3.284  -1.313  1.00  0.00     0.050 A 
HETATM    4  C11 UNL     1      -1.282  -3.066  -0.819  1.00  0.00     0.075 A 
HETATM    5  N3  UNL     1      -1.909  -4.158  -0.349  1.00  0.00    -0.258 NA
HETATM    6  C12 UNL     1      -3.153  -4.000   0.137  1.00  0.00     0.142 A 
HETATM    7  C13 UNL     1      -3.820  -2.782   0.182  1.00  0.00     0.089 A 
HETATM    8  C14 UNL     1      -5.130  -2.703   0.711  1.00  0.00     0.103 C 
HETATM    9  N4  UNL     1      -6.202  -2.622   1.156  1.00  0.00    -0.191 NA
HETATM   10  C15 UNL     1      -3.130  -1.693  -0.313  1.00  0.00     0.073 A 
HETATM   11  C22 UNL     1      -1.852  -1.808  -0.822  1.00  0.00     0.089 A 
HETATM   12  C23 UNL     1      -1.136  -0.746  -1.325  1.00  0.00     0.262 A 
HETATM   13  O2  UNL     1      -1.718   0.371  -1.297  1.00  0.00    -0.267 OA
ENDROOT
BRANCH  10  14
HETATM   14  N5  UNL     1      -3.742  -0.419  -0.304  1.00  0.00    -0.354 N 
HETATM   15  H18 UNL     1      -4.191  -0.412  -1.257  1.00  0.00     0.166 HD
BRANCH  14  16
HETATM   16  C16 UNL     1      -3.845   0.658   0.586  1.00  0.00     0.034 A 
HETATM   17  C17 UNL     1      -4.554   1.785   0.178  1.00  0.00     0.032 A 
HETATM   18  C18 UNL     1      -4.610   2.799   1.117  1.00  0.00     0.046 A 
HETATM   19  C19 UNL     1      -4.017   2.714   2.358  1.00  0.00     0.138 A 
HETATM   20  F1  UNL     1      -4.176   3.815   3.157  1.00  0.00    -0.204 F 
HETATM   21  C20 UNL     1      -3.325   1.575   2.715  1.00  0.00     0.074 A 
HETATM   22 CL1  UNL     1      -2.608   1.569   4.319  1.00  0.00    -0.081 Cl
HETATM   23  C21 UNL     1      -3.243   0.537   1.810  1.00  0.00     0.056 A 
ENDBRANCH  14  16
ENDBRANCH  10  14
BRANCH   1  24
HETATM   24  C8  UNL     1       0.813   0.205  -2.328  1.00  0.00     0.166 C 
BRANCH  24  25
HETATM   25  C2  UNL     1       1.578   0.852  -1.254  1.00  0.00    -0.043 C 
HETATM   26  C1  UNL     1       1.370   2.089  -0.893  1.00  0.00     0.017 C 
BRANCH  25  27
HETATM   27  C3  UNL     1       2.580  -0.020  -0.647  1.00  0.00     0.307 C 
BRANCH  27  28
HETATM   28  N1  UNL     1       3.293   0.700   0.385  1.00  0.00     0.096 N 
HETATM   29  C4  UNL     1       4.110   1.713  -0.192  1.00  0.00     0.299 C 
HETATM   30  C5  UNL     1       5.484   1.854   0.374  1.00  0.00     0.198 C 
HETATM   31  O1  UNL     1       5.992   0.609   0.691  1.00  0.00    -0.388 OA
HETATM   32  C6  UNL     1       5.250   0.133   1.782  1.00  0.00     0.198 C 
HETATM   33  C7  UNL     1       3.907  -0.242   1.247  1.00  0.00     0.299 C 
ENDBRANCH  27  28
ENDBRANCH  25  27
ENDBRANCH  24  25
ENDBRANCH   1  24
TORSDOF 6
