REMARK  4 active torsions:
REMARK  status: ('A' for Active; 'I' for Inactive)
REMARK    1  A    between atoms: C1_2  and  C2_3 
REMARK    2  A    between atoms: C2_3  and  N1_4 
REMARK    3  A    between atoms: N1_4  and  C3_5 
REMARK    4  A    between atoms: C9_12  and  N3_13 
ROOT
HETATM    1  C3  UNL     1       2.089   0.414  -0.117  1.00  0.00     0.029 A 
HETATM    2  C4  UNL     1       2.904  -0.687  -0.279  1.00  0.00     0.031 A 
HETATM    3  C5  UNL     1       2.438  -1.982  -0.398  1.00  0.00     0.035 A 
HETATM    4  C6  UNL     1       1.065  -2.215  -0.355  1.00  0.00     0.069 A 
HETATM    5  N2  UNL     1       0.569  -3.459  -0.466  1.00  0.00    -0.260 NA
HETATM    6  C7  UNL     1      -0.779  -3.644  -0.419  1.00  0.00     0.119 A 
HETATM    7  C8  UNL     1      -1.615  -2.545  -0.256  1.00  0.00     0.049 A 
HETATM    8  C9  UNL     1      -1.118  -1.256  -0.140  1.00  0.00     0.044 A 
HETATM    9  C15 UNL     1       0.252  -1.114  -0.193  1.00  0.00     0.021 A 
HETATM   10  C16 UNL     1       0.729   0.173  -0.076  1.00  0.00     0.045 A 
ENDROOT
BRANCH   8  11
HETATM   11  N3  UNL     1      -2.088  -0.212   0.022  1.00  0.00    -0.375 N 
HETATM   12  C10 UNL     1      -2.397   0.957  -0.787  1.00  0.00     0.153 C 
HETATM   13  C11 UNL     1      -2.598   2.128   0.093  1.00  0.00     0.032 C 
HETATM   14  C12 UNL     1      -3.299   1.978   1.212  1.00  0.00     0.111 C 
HETATM   15  F1  UNL     1      -3.433   3.121   1.965  1.00  0.00    -0.209 F 
HETATM   16  C13 UNL     1      -3.844   0.631   1.513  1.00  0.00     0.162 C 
HETATM   17 CL1  UNL     1      -5.243   0.382   0.429  1.00  0.00    -0.116 Cl
HETATM   18  C14 UNL     1      -2.840  -0.463   1.235  1.00  0.00     0.150 C 
ENDBRANCH   8  11
BRANCH   1  19
HETATM   19  N1  UNL     1       2.600   1.718   0.001  1.00  0.00    -0.384 N 
HETATM   20  H4  UNL     1       1.942   2.519   0.120  1.00  0.00     0.160 HD
BRANCH  19  21
HETATM   21  C2  UNL     1       4.018   1.975  -0.040  1.00  0.00     0.189 C 
BRANCH  21  22
HETATM   22  C1  UNL     1       4.772   1.286   1.046  1.00  0.00     0.250 C 
HETATM   23  O1  UNL     1       5.987   1.511   1.005  1.00  0.00    -0.305 OA
ENDBRANCH  21  22
ENDBRANCH  19  21
ENDBRANCH   1  19
TORSDOF 4
