REMARK  5 active torsions:
REMARK  status: ('A' for Active; 'I' for Inactive)
REMARK    1  A    between atoms: C4_5  and  C5_6 
REMARK    2  A    between atoms: C5_6  and  C6_7 
REMARK    3  A    between atoms: C6_7  and  N2_8 
REMARK       I    between atoms: N2_8  and  C7_9 
REMARK    4  A    between atoms: C11_15  and  N4_16 
REMARK    5  A    between atoms: N4_16  and  C12_17 
ROOT
HETATM    1  N2  UNL     1      -4.994   0.385   0.454  1.00  0.00    -0.199 NA
HETATM    2  C7  UNL     1      -4.797   1.590  -0.239  1.00  0.00     0.348 C 
HETATM    3  O1  UNL     1      -4.952   2.679   0.413  1.00  0.00    -0.254 OA
HETATM    4  C8  UNL     1      -4.440   1.724  -1.597  1.00  0.00     0.164 C 
HETATM    5  N3  UNL     1      -4.127   1.831  -2.710  1.00  0.00    -0.186 NA
ENDROOT
BRANCH   1   6
HETATM    6  C6  UNL     1      -4.083  -0.499   0.437  1.00  0.00     0.092 C 
BRANCH   6   7
HETATM    7  C5  UNL     1      -3.295  -1.427  -0.082  1.00  0.00     0.066 C 
BRANCH   7   8
HETATM    8  C4  UNL     1      -2.007  -1.335   0.547  1.00  0.00     0.067 A 
HETATM    9  N1  UNL     1      -1.772  -2.323   1.459  1.00  0.00    -0.260 NA
HETATM   10  C3  UNL     1      -0.606  -2.381   2.140  1.00  0.00     0.126 A 
HETATM   11  C2  UNL     1       0.387  -1.441   1.935  1.00  0.00    -0.017 A 
HETATM   12  C1  UNL     1       1.680  -1.434   2.634  1.00  0.00     0.052 C 
HETATM   13  C11 UNL     1       0.178  -0.430   1.019  1.00  0.00     0.048 A 
HETATM   14  C9  UNL     1      -1.028  -0.399   0.338  1.00  0.00    -0.006 A 
HETATM   15  C10 UNL     1      -1.358   0.633  -0.661  1.00  0.00     0.053 C 
BRANCH  13  16
HETATM   16  N4  UNL     1       1.082   0.616   0.682  1.00  0.00    -0.355 N 
HETATM   17  H9  UNL     1       0.882   1.410   1.329  1.00  0.00     0.166 HD
BRANCH  16  18
HETATM   18  C12 UNL     1       2.058   0.602  -0.323  1.00  0.00     0.033 A 
HETATM   19  C13 UNL     1       2.200  -0.520  -1.095  1.00  0.00     0.029 A 
HETATM   20  C14 UNL     1       3.191  -0.455  -2.072  1.00  0.00     0.004 A 
HETATM   21  C15 UNL     1       3.971   0.643  -2.254  1.00  0.00     0.019 A 
HETATM   22  C16 UNL     1       3.791   1.764  -1.444  1.00  0.00     0.013 A 
HETATM   23 BR1  UNL     1       4.872   3.314  -1.681  1.00  0.00    -0.051 Br
HETATM   24  C17 UNL     1       2.813   1.748  -0.454  1.00  0.00     0.048 A 
ENDBRANCH  16  18
ENDBRANCH  13  16
ENDBRANCH   7   8
ENDBRANCH   6   7
ENDBRANCH   1   6
TORSDOF 5
