REMARK  4 active torsions:
REMARK  status: ('A' for Active; 'I' for Inactive)
REMARK    1  A    between atoms: C6_7  and  N2_8 
REMARK    2  A    between atoms: N2_8  and  C7_9 
REMARK    3  A    between atoms: C8_10  and  C9_11 
REMARK    4  A    between atoms: C10_12  and  C11_13 
ROOT
HETATM    1  C11 UNL     1       3.473  -0.937  -2.045  1.00  0.00     0.021 C 
HETATM    2 BR1  UNL     1       1.864  -1.766  -2.704  1.00  0.00    -0.050 Br
HETATM    3  C12 UNL     1       4.481  -0.812  -2.924  1.00  0.00     0.112 C 
HETATM    4  C13 UNL     1       4.383  -1.267  -4.294  1.00  0.00     0.089 C 
HETATM    5  N3  UNL     1       4.323  -1.636  -5.379  1.00  0.00    -0.192 NA
ENDROOT
BRANCH   1   6
HETATM    6  C10 UNL     1       3.553  -0.489  -0.675  1.00  0.00     0.020 C 
HETATM    7  C9  UNL     1       2.578  -0.609   0.183  1.00  0.00     0.003 C 
BRANCH   7   8
HETATM    8  C8  UNL     1       2.741  -0.129   1.546  1.00  0.00     0.017 C 
HETATM    9  C7  UNL     1       1.746  -0.258   2.403  1.00  0.00     0.084 C 
BRANCH   9  10
HETATM   10  N2  UNL     1       0.468  -0.827   2.176  1.00  0.00    -0.387 N 
HETATM   11  H9  UNL     1       0.648  -1.850   1.953  1.00  0.00     0.159 HD
BRANCH  10  12
HETATM   12  C6  UNL     1      -0.863  -0.318   2.193  1.00  0.00     0.136 C 
HETATM   13  C4  UNL     1      -1.091   0.788   1.189  1.00  0.00    -0.035 C 
HETATM   14  C3  UNL     1      -2.466   1.432   1.110  1.00  0.00     0.091 C 
HETATM   15  C5  UNL     1      -0.393   1.408   0.222  1.00  0.00     0.090 C 
HETATM   16  C2  UNL     1      -2.669   1.012  -0.371  1.00  0.00     0.102 C 
HETATM   17  C1  UNL     1      -3.849   1.694  -0.924  1.00  0.00     0.063 C 
HETATM   18  N1  UNL     1      -1.376   1.535  -0.844  1.00  0.00    -0.373 N 
HETATM   19  N4  UNL     1      -2.706  -0.434  -0.407  1.00  0.00    -0.373 N 
HETATM   20  H7  UNL     1      -0.910   1.975  -1.698  1.00  0.00     0.161 HD
HETATM   21  C15 UNL     1      -2.570  -1.447   0.593  1.00  0.00     0.083 C 
HETATM   22  H17 UNL     1      -2.867  -0.813  -1.370  1.00  0.00     0.161 HD
HETATM   23  C14 UNL     1      -1.815  -1.385   1.688  1.00  0.00     0.019 C 
ENDBRANCH  10  12
ENDBRANCH   9  10
ENDBRANCH   7   8
ENDBRANCH   1   6
TORSDOF 4
