REMARK  8 active torsions:
REMARK  status: ('A' for Active; 'I' for Inactive)
REMARK    1  A    between atoms: C2_2  and  N1_3 
REMARK    2  A    between atoms: N1_3  and  C3_4 
REMARK    3  A    between atoms: N1_3  and  C5_6 
REMARK    4  A    between atoms: C5_6  and  C7_8 
REMARK    5  A    between atoms: C8_9  and  C9_10 
REMARK       I    between atoms: C9_10  and  N2_12 
REMARK    6  A    between atoms: N2_12  and  C10_13 
REMARK    7  A    between atoms: C13_16  and  C14_17 
REMARK    8  A    between atoms: C24_31  and  O2_32 
ROOT
HETATM    1  C10 UNL     1      -1.447  -1.176  -0.037  1.00  0.00     0.069 A 
HETATM    2  C11 UNL     1      -2.585  -0.428  -0.251  1.00  0.00     0.046 A 
HETATM    3  C12 UNL     1      -3.876  -0.859  -0.100  1.00  0.00     0.004 A 
HETATM    4  C13 UNL     1      -4.948   0.004  -0.346  1.00  0.00    -0.012 A 
HETATM    5  C19 UNL     1      -6.147  -0.632  -0.127  1.00  0.00     0.070 A 
HETATM    6  C20 UNL     1      -7.385   0.065  -0.305  1.00  0.00     0.101 C 
HETATM    7  N3  UNL     1      -8.393   0.612  -0.441  1.00  0.00    -0.191 NA
HETATM    8  C21 UNL     1      -6.289  -1.958   0.284  1.00  0.00     0.140 A 
HETATM    9  N4  UNL     1      -5.212  -2.720   0.497  1.00  0.00    -0.259 NA
HETATM   10  C22 UNL     1      -3.994  -2.167   0.304  1.00  0.00     0.070 A 
HETATM   11  C23 UNL     1      -2.920  -2.992   0.542  1.00  0.00     0.071 A 
HETATM   12  C24 UNL     1      -1.617  -2.508   0.374  1.00  0.00     0.097 A 
ENDROOT
BRANCH   4  13
HETATM   13  C14 UNL     1      -4.791   1.369  -0.779  1.00  0.00     0.071 A 
HETATM   14  C15 UNL     1      -5.678   1.826  -1.890  1.00  0.00     0.030 A 
HETATM   15  C16 UNL     1      -6.438   2.847  -1.527  1.00  0.00     0.135 A 
HETATM   16  F1  UNL     1      -7.365   3.548  -2.221  1.00  0.00    -0.205 F 
HETATM   17  C17 UNL     1      -6.129   3.142  -0.129  1.00  0.00     0.069 A 
HETATM   18 CL1  UNL     1      -6.825   4.382   0.893  1.00  0.00    -0.081 Cl
HETATM   19  C18 UNL     1      -5.188   2.297   0.314  1.00  0.00     0.013 A 
ENDBRANCH   4  13
BRANCH   1  20
HETATM   20  N2  UNL     1      -0.103  -0.757  -0.170  1.00  0.00    -0.321 N 
HETATM   21  C9  UNL     1       0.905  -0.694  -1.140  1.00  0.00     0.245 C 
HETATM   22  O1  UNL     1       0.698  -1.094  -2.301  1.00  0.00    -0.268 OA
HETATM   23  H17 UNL     1       0.010  -0.426   0.811  1.00  0.00     0.169 HD
BRANCH  21  24
HETATM   24  C8  UNL     1       2.214  -0.164  -0.829  1.00  0.00     0.072 C 
HETATM   25  C7  UNL     1       2.646   0.308   0.326  1.00  0.00     0.003 C 
BRANCH  25  26
HETATM   26  C5  UNL     1       3.914   0.893   0.884  1.00  0.00     0.098 C 
HETATM   27  C6  UNL     1       3.685   2.331   1.290  1.00  0.00     0.036 C 
BRANCH  26  28
HETATM   28  N1  UNL     1       5.001   0.769   0.002  1.00  0.00    -0.406 N 
BRANCH  28  29
HETATM   29  C2  UNL     1       5.381  -0.522  -0.418  1.00  0.00     0.113 C 
HETATM   30  C1  UNL     1       6.766  -0.869   0.062  1.00  0.00     0.026 C 
ENDBRANCH  28  29
BRANCH  28  31
HETATM   31  C3  UNL     1       5.616   1.903  -0.532  1.00  0.00     0.113 C 
HETATM   32  C4  UNL     1       7.056   2.144  -0.147  1.00  0.00     0.026 C 
ENDBRANCH  28  31
ENDBRANCH  26  28
ENDBRANCH  25  26
ENDBRANCH  21  24
ENDBRANCH   1  20
BRANCH  12  33
HETATM   33  O2  UNL     1      -0.532  -3.339   0.614  1.00  0.00    -0.354 OA
HETATM   34  C25 UNL     1      -0.727  -4.670   1.031  1.00  0.00     0.210 C 
ENDBRANCH  12  33
TORSDOF 8
