REMARK  7 active torsions:
REMARK  status: ('A' for Active; 'I' for Inactive)
REMARK    1  A    between atoms: C2_2  and  C4_5 
REMARK    2  A    between atoms: C8_10  and  N3_11 
REMARK       I    between atoms: N3_11  and  C9_12 
REMARK    3  A    between atoms: C9_12  and  C10_14 
REMARK    4  A    between atoms: C11_15  and  C12_16 
REMARK    5  A    between atoms: C12_16  and  N4_18 
REMARK    6  A    between atoms: N4_18  and  C14_19 
REMARK    7  A    between atoms: N4_18  and  C16_21 
ROOT
HETATM    1  C1  UNL     1       3.320  -1.970  -1.465  1.00  0.00     0.038 C 
HETATM    2  C2  UNL     1       4.263  -1.792  -0.561  1.00  0.00     0.066 C 
HETATM    3  C3  UNL     1       5.114  -2.904  -0.233  1.00  0.00     0.101 C 
HETATM    4  N1  UNL     1       5.800  -3.799   0.050  1.00  0.00    -0.191 NA
ENDROOT
BRANCH   2   5
HETATM    5  C4  UNL     1       4.448  -0.505   0.095  1.00  0.00     0.103 A 
HETATM    6  N2  UNL     1       5.406  -0.350   1.002  1.00  0.00    -0.257 NA
HETATM    7  C5  UNL     1       5.596   0.827   1.617  1.00  0.00     0.117 A 
HETATM    8  C6  UNL     1       4.824   1.958   1.364  1.00  0.00     0.022 A 
HETATM    9  C7  UNL     1       3.820   1.799   0.414  1.00  0.00     0.033 A 
HETATM   10  C8  UNL     1       3.666   0.568  -0.190  1.00  0.00     0.065 A 
BRANCH  10  11
HETATM   11  N3  UNL     1       2.616   0.507  -1.142  1.00  0.00    -0.322 N 
HETATM   12  C9  UNL     1       1.347   0.128  -0.573  1.00  0.00     0.245 C 
HETATM   13  O1  UNL     1       1.613  -0.034   0.672  1.00  0.00    -0.268 OA
HETATM   14  H6  UNL     1       2.591   0.684  -2.177  1.00  0.00     0.169 HD
BRANCH  12  15
HETATM   15  C10 UNL     1       0.107  -0.011  -1.321  1.00  0.00     0.072 C 
HETATM   16  C11 UNL     1      -1.131  -0.338  -0.999  1.00  0.00     0.003 C 
BRANCH  16  17
HETATM   17  C12 UNL     1      -2.000  -0.721   0.094  1.00  0.00     0.098 C 
HETATM   18  C13 UNL     1      -1.282  -0.693   1.435  1.00  0.00     0.036 C 
BRANCH  17  19
HETATM   19  N4  UNL     1      -3.201   0.042   0.261  1.00  0.00    -0.406 N 
BRANCH  19  20
HETATM   20  C14 UNL     1      -4.105   0.019  -0.856  1.00  0.00     0.113 C 
HETATM   21  C15 UNL     1      -4.730  -1.344  -1.065  1.00  0.00     0.026 C 
ENDBRANCH  19  20
BRANCH  19  22
HETATM   22  C16 UNL     1      -3.094   1.285   0.924  1.00  0.00     0.113 C 
HETATM   23  C17 UNL     1      -4.421   2.029   1.051  1.00  0.00     0.026 C 
ENDBRANCH  19  22
ENDBRANCH  17  19
ENDBRANCH  16  17
ENDBRANCH  12  15
ENDBRANCH  10  11
ENDBRANCH   2   5
TORSDOF 7
