REMARK  8 active torsions:
REMARK  status: ('A' for Active; 'I' for Inactive)
REMARK    1  A    between atoms: C2_2  and  C3_3 
REMARK    2  A    between atoms: C2_2  and  C6_7 
REMARK    3  A    between atoms: C3_3  and  N1_4 
REMARK    4  A    between atoms: C6_7  and  N2_9 
REMARK    5  A    between atoms: N2_9  and  C8_10 
REMARK    6  A    between atoms: N3_12  and  C10_13 
REMARK    7  A    between atoms: C22_28  and  O1_29 
REMARK    8  A    between atoms: O1_29  and  C23_30 
ROOT
HETATM    1  C8  UNL     1      -0.147   0.649  -0.481  1.00  0.00     0.156 C 
HETATM    2  C9  UNL     1      -0.586  -0.661   0.122  1.00  0.00     0.155 C 
HETATM    3  N3  UNL     1      -2.020  -0.794   0.429  1.00  0.00    -0.373 N 
HETATM    4  C16 UNL     1      -2.880  -0.180   1.449  1.00  0.00     0.174 C 
HETATM    5  C17 UNL     1      -3.222   1.222   1.392  1.00  0.00     0.057 C 
HETATM    6  C18 UNL     1      -4.170   1.701   0.400  1.00  0.00     0.098 C 
HETATM    7  N4  UNL     1      -4.942   2.073  -0.418  1.00  0.00    -0.192 NA
HETATM    8  C19 UNL     1      -2.852   2.328   2.190  1.00  0.00     0.136 C 
HETATM    9  N5  UNL     1      -1.976   1.671   3.147  1.00  0.00    -0.272 NA
HETATM   10  C20 UNL     1      -0.886   1.133   2.574  1.00  0.00     0.118 C 
HETATM   11  C21 UNL     1      -0.897   1.405   1.148  1.00  0.00     0.053 C 
HETATM   12  C22 UNL     1      -1.000   1.765  -0.120  1.00  0.00     0.071 C 
ENDROOT
BRANCH   3  13
HETATM   13  C10 UNL     1      -2.691  -1.773  -0.406  1.00  0.00     0.030 A 
HETATM   14  C11 UNL     1      -3.988  -1.718  -0.853  1.00  0.00     0.032 A 
HETATM   15  C12 UNL     1      -4.617  -2.667  -1.620  1.00  0.00     0.044 A 
HETATM   16  C13 UNL     1      -3.902  -3.785  -1.986  1.00  0.00     0.116 A 
HETATM   17  F1  UNL     1      -4.514  -4.726  -2.743  1.00  0.00    -0.206 F 
HETATM   18  C14 UNL     1      -2.593  -3.925  -1.582  1.00  0.00     0.044 A 
HETATM   19  C15 UNL     1      -2.049  -2.922  -0.816  1.00  0.00     0.032 A 
ENDBRANCH   3  13
BRANCH   1  20
HETATM   20  N2  UNL     1       1.228   0.863  -0.372  1.00  0.00    -0.381 N 
HETATM   21  H13 UNL     1       1.487   1.730   0.188  1.00  0.00     0.160 HD
BRANCH  20  22
HETATM   22  C6  UNL     1       2.542   0.485  -0.645  1.00  0.00     0.010 C 
HETATM   23  C7  UNL     1       2.983   0.982  -1.807  1.00  0.00     0.063 C 
BRANCH  22  24
HETATM   24  C2  UNL     1       3.388  -0.351   0.196  1.00  0.00    -0.029 C 
HETATM   25  C1  UNL     1       3.067  -0.896   1.355  1.00  0.00     0.042 C 
BRANCH  24  26
HETATM   26  C3  UNL     1       4.761  -0.642  -0.268  1.00  0.00     0.307 C 
BRANCH  26  27
HETATM   27  N1  UNL     1       5.529  -1.470   0.600  1.00  0.00     0.083 N 
HETATM   28  C4  UNL     1       5.039  -2.824   0.662  1.00  0.00     0.309 C 
HETATM   29  C5  UNL     1       5.762  -0.968   1.914  1.00  0.00     0.309 C 
ENDBRANCH  26  27
ENDBRANCH  24  26
ENDBRANCH  22  24
ENDBRANCH  20  22
ENDBRANCH   1  20
BRANCH  12  30
HETATM   30  O1  UNL     1      -1.463   2.586  -1.139  1.00  0.00    -0.354 OA
BRANCH  30  31
HETATM   31  C23 UNL     1      -1.787   3.935  -0.998  1.00  0.00     0.171 C 
HETATM   32  C24 UNL     1      -2.194   4.455  -2.366  1.00  0.00     0.034 C 
ENDBRANCH  30  31
ENDBRANCH  12  30
TORSDOF 8
