REMARK  4 active torsions:
REMARK  status: ('A' for Active; 'I' for Inactive)
REMARK    1  A    between atoms: C2_2  and  C3_3 
REMARK    2  A    between atoms: C3_3  and  N1_4 
REMARK    3  A    between atoms: C12_15  and  N4_16 
REMARK    4  A    between atoms: N4_16  and  C13_17 
ROOT
HETATM    1  N1  UNL     1       0.217   0.625   0.749  1.00  0.00    -0.365 N 
HETATM    2  C4  UNL     1      -0.856   1.473   1.077  1.00  0.00     0.084 C 
HETATM    3  C5  UNL     1      -1.841   2.329   1.335  1.00  0.00    -0.010 C 
HETATM    4  C6  UNL     1      -2.990   2.085   2.307  1.00  0.00     0.030 C 
HETATM    5  C7  UNL     1      -4.249   1.759   1.352  1.00  0.00     0.023 C 
HETATM    6  C8  UNL     1      -3.581   0.798   0.534  1.00  0.00     0.114 C 
HETATM    7  N2  UNL     1      -3.752  -0.087  -0.499  1.00  0.00    -0.413 N 
HETATM    8  C9  UNL     1      -2.515  -0.744  -0.955  1.00  0.00     0.181 C 
HETATM    9  C10 UNL     1      -1.124  -0.849  -0.762  1.00  0.00     0.083 C 
HETATM   10  C11 UNL     1      -0.918  -1.860  -1.840  1.00  0.00    -0.009 C 
HETATM   11  N3  UNL     1      -0.766  -2.676  -2.710  1.00  0.00    -0.101 N 
HETATM   12  C12 UNL     1       0.220  -0.548  -0.133  1.00  0.00     0.203 C 
HETATM   13  H14 UNL     1      -4.242  -0.621  -1.209  1.00  0.00     0.153 HD
ENDROOT
BRANCH  12  14
HETATM   14  N4  UNL     1       1.177  -0.208  -1.153  1.00  0.00    -0.367 N 
HETATM   15  H17 UNL     1       1.234   0.812  -1.461  1.00  0.00     0.161 HD
BRANCH  14  16
HETATM   16  C13 UNL     1       2.073  -1.078  -1.825  1.00  0.00     0.031 A 
HETATM   17  C14 UNL     1       2.210  -2.424  -1.564  1.00  0.00     0.032 A 
HETATM   18  C15 UNL     1       3.065  -3.305  -2.182  1.00  0.00     0.046 A 
HETATM   19  C16 UNL     1       3.847  -2.739  -3.160  1.00  0.00     0.138 A 
HETATM   20  F1  UNL     1       4.750  -3.483  -3.870  1.00  0.00    -0.204 F 
HETATM   21  C17 UNL     1       3.804  -1.409  -3.515  1.00  0.00     0.074 A 
HETATM   22 CL1  UNL     1       4.799  -0.677  -4.757  1.00  0.00    -0.081 Cl
HETATM   23  C18 UNL     1       2.908  -0.623  -2.826  1.00  0.00     0.056 A 
ENDBRANCH  14  16
ENDBRANCH  12  14
BRANCH   1  24
HETATM   24  C3  UNL     1       1.541   0.927   1.321  1.00  0.00     0.151 C 
BRANCH  24  25
HETATM   25  C2  UNL     1       1.536   0.723   2.771  1.00  0.00    -0.017 C 
HETATM   26  C1  UNL     1       1.781   1.589   3.783  1.00  0.00     0.008 C 
ENDBRANCH  24  25
ENDBRANCH   1  24
TORSDOF 4
