REMARK  4 active torsions:
REMARK  status: ('A' for Active; 'I' for Inactive)
REMARK    1  A    between atoms: C3_4  and  N2_5 
REMARK    2  A    between atoms: C4_6  and  C5_7 
REMARK    3  A    between atoms: C5_7  and  C6_8 
REMARK    4  A    between atoms: N3_11  and  C9_12 
ROOT
HETATM    1  N1  UNL     1       6.189   1.963   1.535  1.00  0.00    -0.192 NA
HETATM    2  C1  UNL     1       5.815   0.900   1.266  1.00  0.00     0.089 C 
HETATM    3  C2  UNL     1       5.334  -0.418   0.943  1.00  0.00     0.112 C 
HETATM    4  C3  UNL     1       4.074  -0.655   0.590  1.00  0.00     0.126 C 
ENDROOT
BRANCH   4   5
HETATM    5  N2  UNL     1       3.686  -1.982   0.290  1.00  0.00    -0.277 NA
HETATM    6  C4  UNL     1       2.670  -2.301  -0.425  1.00  0.00     0.090 C 
BRANCH   6   7
HETATM    7  C5  UNL     1       1.784  -1.292  -1.018  1.00  0.00     0.057 C 
BRANCH   7   8
HETATM    8  C6  UNL     1       0.693  -0.840  -0.075  1.00  0.00     0.033 C 
HETATM    9  C7  UNL     1      -0.177  -1.968   0.345  1.00  0.00    -0.003 C 
HETATM   10  C8  UNL     1      -1.466  -1.591   0.301  1.00  0.00     0.087 C 
HETATM   11  N3  UNL     1      -1.522  -0.243  -0.134  1.00  0.00    -0.356 N 
HETATM   12  C15 UNL     1      -0.306  -0.034  -0.906  1.00  0.00     0.137 C 
BRANCH  11  13
HETATM   13  C9  UNL     1      -2.554   0.690   0.135  1.00  0.00     0.035 A 
HETATM   14  C10 UNL     1      -2.429   1.980  -0.385  1.00  0.00     0.033 A 
HETATM   15  C11 UNL     1      -3.388   2.929  -0.163  1.00  0.00     0.046 A 
HETATM   16  C12 UNL     1      -4.483   2.582   0.587  1.00  0.00     0.138 A 
HETATM   17  F1  UNL     1      -5.420   3.542   0.793  1.00  0.00    -0.204 F 
HETATM   18  C13 UNL     1      -4.604   1.304   1.100  1.00  0.00     0.074 A 
HETATM   19 CL1  UNL     1      -6.038   0.976   2.039  1.00  0.00    -0.081 Cl
HETATM   20  C14 UNL     1      -3.632   0.323   0.883  1.00  0.00     0.056 A 
ENDBRANCH  11  13
ENDBRANCH   7   8
ENDBRANCH   6   7
ENDBRANCH   4   5
TORSDOF 4
