REMARK  10 active torsions:
REMARK  status: ('A' for Active; 'I' for Inactive)
REMARK    1  A    between atoms: C2_2  and  C3_3 
REMARK    2  A    between atoms: C2_2  and  N3_22 
REMARK    3  A    between atoms: C3_3  and  C4_4 
REMARK    4  A    between atoms: C5_5  and  C6_6 
REMARK    5  A    between atoms: C8_8  and  C9_9 
REMARK       I    between atoms: N3_22  and  C18_23 
REMARK    6  A    between atoms: C18_23  and  C19_25 
REMARK    7  A    between atoms: C20_26  and  C21_27 
REMARK    8  A    between atoms: C21_27  and  C22_28 
REMARK    9  A    between atoms: C21_27  and  N5_30 
REMARK   10  A    between atoms: C22_28  and  N4_29 
ROOT
HETATM    1  C6  UNL     1       2.649  -0.847  -0.094  1.00  0.00     0.057 A 
HETATM    2  C7  UNL     1       3.729  -0.604  -0.935  1.00  0.00     0.045 A 
HETATM    3  C8  UNL     1       5.004  -0.842  -0.484  1.00  0.00    -0.002 A 
HETATM    4  C15 UNL     1       5.316  -1.313   0.762  1.00  0.00     0.073 A 
HETATM    5  C16 UNL     1       6.646  -1.546   1.193  1.00  0.00     0.102 C 
HETATM    6  N1  UNL     1       7.722  -1.741   1.562  1.00  0.00    -0.191 NA
HETATM    7  C17 UNL     1       4.190  -1.533   1.549  1.00  0.00     0.140 A 
HETATM    8  N2  UNL     1       2.941  -1.308   1.130  1.00  0.00    -0.260 NA
ENDROOT
BRANCH   3   9
HETATM    9  C9  UNL     1       6.069  -0.557  -1.442  1.00  0.00    -0.022 A 
HETATM   10  C10 UNL     1       7.104  -1.414  -1.650  1.00  0.00     0.015 A 
HETATM   11  C11 UNL     1       8.156  -1.208  -2.546  1.00  0.00     0.045 A 
HETATM   12  C12 UNL     1       8.136  -0.030  -3.280  1.00  0.00     0.138 A 
HETATM   13  F1  UNL     1       9.136   0.216  -4.165  1.00  0.00    -0.204 F 
HETATM   14  C13 UNL     1       7.116   0.872  -3.112  1.00  0.00     0.073 A 
HETATM   15 CL1  UNL     1       7.151   2.334  -4.066  1.00  0.00    -0.081 Cl
HETATM   16  C14 UNL     1       6.088   0.617  -2.202  1.00  0.00     0.039 A 
ENDBRANCH   3   9
BRANCH   1  17
HETATM   17  C5  UNL     1       1.247  -0.648  -0.413  1.00  0.00     0.028 C 
HETATM   18  C4  UNL     1       0.179  -0.856   0.329  1.00  0.00    -0.018 C 
BRANCH  18  19
HETATM   19  C3  UNL     1      -0.040  -1.342   1.696  1.00  0.00     0.083 C 
BRANCH  19  20
HETATM   20  C2  UNL     1      -0.742  -0.279   2.469  1.00  0.00     0.006 C 
HETATM   21  C1  UNL     1      -0.185   0.234   3.552  1.00  0.00     0.038 C 
BRANCH  20  22
HETATM   22  N3  UNL     1      -2.013   0.168   2.017  1.00  0.00    -0.328 N 
HETATM   23  C18 UNL     1      -2.778   1.168   2.658  1.00  0.00     0.245 C 
HETATM   24  O1  UNL     1      -2.134   1.567   3.671  1.00  0.00    -0.268 OA
HETATM   25  H12 UNL     1      -2.436  -0.256   1.156  1.00  0.00     0.169 HD
BRANCH  23  26
HETATM   26  C19 UNL     1      -4.073   1.716   2.309  1.00  0.00     0.072 C 
HETATM   27  C20 UNL     1      -4.959   1.524   1.353  1.00  0.00     0.005 C 
BRANCH  27  28
HETATM   28  C21 UNL     1      -5.074   0.654   0.157  1.00  0.00     0.129 C 
BRANCH  28  29
HETATM   29  C22 UNL     1      -5.448  -0.737   0.540  1.00  0.00     0.295 C 
BRANCH  29  30
HETATM   30  N4  UNL     1      -5.559  -1.587  -0.648  1.00  0.00     0.080 N 
HETATM   31  H18 UNL     1      -5.297  -1.088  -1.506  1.00  0.00     0.312 HD
HETATM   32  H19 UNL     1      -5.135  -2.524  -0.514  1.00  0.00     0.312 HD
ENDBRANCH  29  30
ENDBRANCH  28  29
BRANCH  28  33
HETATM   33  N5  UNL     1      -5.884   1.213  -0.888  1.00  0.00    -0.412 N 
HETATM   34  C23 UNL     1      -5.406   2.453  -1.396  1.00  0.00     0.143 C 
HETATM   35  C24 UNL     1      -7.284   1.077  -0.767  1.00  0.00     0.143 C 
ENDBRANCH  28  33
ENDBRANCH  27  28
ENDBRANCH  23  26
ENDBRANCH  20  22
ENDBRANCH  19  20
ENDBRANCH  18  19
ENDBRANCH   1  17
TORSDOF 10
