REMARK  7 active torsions:
REMARK  status: ('A' for Active; 'I' for Inactive)
REMARK    1  A    between atoms: O1_2  and  C2_3 
REMARK    2  A    between atoms: C6_7  and  C7_8 
REMARK    3  A    between atoms: C14_17  and  N1_18 
REMARK    4  A    between atoms: N1_18  and  C15_19 
REMARK    5  A    between atoms: C15_19  and  N2_20 
REMARK    6  A    between atoms: C15_19  and  C16_21 
REMARK    7  A    between atoms: C17_22  and  C18_23 
ROOT
HETATM    1  C2  UNL     1       1.208  -2.901  -0.626  1.00  0.00     0.092 A 
HETATM    2  C3  UNL     1       2.410  -3.436  -0.755  1.00  0.00     0.017 A 
HETATM    3  C4  UNL     1       3.717  -2.773  -0.528  1.00  0.00     0.070 A 
HETATM    4  C5  UNL     1       3.541  -1.381  -0.124  1.00  0.00    -0.029 A 
HETATM    5  C6  UNL     1       3.500  -0.073   0.260  1.00  0.00    -0.005 A 
HETATM    6  C13 UNL     1       2.230  -0.751   0.031  1.00  0.00     0.012 A 
HETATM    7  C14 UNL     1       1.163  -1.493  -0.212  1.00  0.00     0.075 A 
ENDROOT
BRANCH   7   8
HETATM    8  N1  UNL     1      -0.078  -0.830  -0.039  1.00  0.00    -0.355 N 
HETATM    9  H10 UNL     1      -0.656  -1.435   0.620  1.00  0.00     0.162 HD
BRANCH   8  10
HETATM   10  C15 UNL     1      -0.720   0.392  -0.501  1.00  0.00     0.340 C 
BRANCH  10  11
HETATM   11  N2  UNL     1      -0.855   0.224  -1.957  1.00  0.00     0.104 N 
HETATM   12  H12 UNL     1      -1.709  -0.404  -2.065  1.00  0.00     0.315 HD
HETATM   13  H13 UNL     1      -0.056  -0.371  -2.312  1.00  0.00     0.315 HD
ENDBRANCH  10  11
BRANCH  10  14
HETATM   14  C16 UNL     1      -2.100   0.504   0.041  1.00  0.00     0.026 C 
HETATM   15  C17 UNL     1      -3.139   1.099  -0.511  1.00  0.00    -0.019 C 
BRANCH  15  16
HETATM   16  C18 UNL     1      -4.482   1.180   0.070  1.00  0.00    -0.034 C 
HETATM   17  C19 UNL     1      -4.530   2.355   1.034  1.00  0.00     0.018 C 
HETATM   18  C20 UNL     1      -5.552   1.457  -0.970  1.00  0.00     0.018 C 
HETATM   19  C21 UNL     1      -4.919  -0.028   0.845  1.00  0.00     0.018 C 
ENDBRANCH  15  16
ENDBRANCH  10  14
ENDBRANCH   8  10
ENDBRANCH   7   8
BRANCH   1  20
HETATM   20  O1  UNL     1      -0.015  -3.547  -0.845  1.00  0.00    -0.354 OA
HETATM   21  C1  UNL     1      -0.106  -4.965  -0.802  1.00  0.00     0.210 C 
ENDBRANCH   1  20
BRANCH   5  22
HETATM   22  C7  UNL     1       4.139   1.174   0.648  1.00  0.00    -0.023 A 
HETATM   23  C8  UNL     1       5.275   1.229   1.464  1.00  0.00     0.015 A 
HETATM   24  C9  UNL     1       5.834   2.447   1.788  1.00  0.00     0.045 A 
HETATM   25  C10 UNL     1       5.275   3.596   1.311  1.00  0.00     0.138 A 
HETATM   26  F1  UNL     1       5.816   4.802   1.623  1.00  0.00    -0.204 F 
HETATM   27  C11 UNL     1       4.163   3.616   0.508  1.00  0.00     0.073 A 
HETATM   28 CL1  UNL     1       3.461   5.108  -0.095  1.00  0.00    -0.081 Cl
HETATM   29  C12 UNL     1       3.616   2.391   0.193  1.00  0.00     0.039 A 
ENDBRANCH   5  22
TORSDOF 7
