REMARK  5 active torsions:
REMARK  status: ('A' for Active; 'I' for Inactive)
REMARK    1  A    between atoms: C2_2  and  N1_3 
REMARK    2  A    between atoms: N1_3  and  C4_5 
REMARK    3  A    between atoms: C4_5  and  C5_6 
REMARK    4  A    between atoms: C12_15  and  N4_16 
REMARK    5  A    between atoms: N4_16  and  C13_17 
ROOT
HETATM    1  C5  UNL     1      -1.695  -0.342  -0.485  1.00  0.00    -0.056 A 
HETATM    2  C6  UNL     1      -0.582  -0.395   0.229  1.00  0.00     0.020 A 
HETATM    3  C7  UNL     1       0.113   0.858  -0.037  1.00  0.00     0.017 A 
HETATM    4  C8  UNL     1      -0.575   1.674  -0.910  1.00  0.00     0.050 A 
HETATM    5  N2  UNL     1      -0.052   2.866  -1.247  1.00  0.00    -0.263 NA
HETATM    6  C9  UNL     1       1.137   3.292  -0.749  1.00  0.00     0.142 A 
HETATM    7  C10 UNL     1       1.841   2.483   0.130  1.00  0.00     0.089 A 
HETATM    8  C11 UNL     1       3.089   2.999   0.614  1.00  0.00     0.103 C 
HETATM    9  N3  UNL     1       4.091   3.424   0.994  1.00  0.00    -0.191 NA
HETATM   10  C12 UNL     1       1.324   1.237   0.499  1.00  0.00     0.067 A 
HETATM   11  C19 UNL     1      -1.816   0.925  -1.257  1.00  0.00     0.096 A 
ENDROOT
BRANCH  10  12
HETATM   12  N4  UNL     1       2.167   0.545   1.388  1.00  0.00    -0.354 N 
HETATM   13  H11 UNL     1       2.084   0.557   2.439  1.00  0.00     0.166 HD
BRANCH  12  14
HETATM   14  C13 UNL     1       3.220  -0.238   0.826  1.00  0.00     0.034 A 
HETATM   15  C14 UNL     1       3.384  -0.316  -0.546  1.00  0.00     0.032 A 
HETATM   16  C15 UNL     1       4.401  -1.063  -1.132  1.00  0.00     0.046 A 
HETATM   17  C16 UNL     1       5.267  -1.742  -0.316  1.00  0.00     0.138 A 
HETATM   18  F1  UNL     1       6.281  -2.488  -0.859  1.00  0.00    -0.204 F 
HETATM   19  C17 UNL     1       5.154  -1.701   1.060  1.00  0.00     0.074 A 
HETATM   20 CL1  UNL     1       6.238  -2.553   2.152  1.00  0.00    -0.081 Cl
HETATM   21  C18 UNL     1       4.119  -0.940   1.616  1.00  0.00     0.056 A 
ENDBRANCH  12  14
ENDBRANCH  10  12
BRANCH   1  22
HETATM   22  C4  UNL     1      -2.807  -1.307  -0.635  1.00  0.00     0.156 C 
BRANCH  22  23
HETATM   23  N1  UNL     1      -4.079  -0.707  -0.204  1.00  0.00    -0.391 N 
HETATM   24  C3  UNL     1      -5.214  -0.365  -1.075  1.00  0.00     0.149 C 
BRANCH  23  25
HETATM   25  C2  UNL     1      -4.144  -0.462   1.196  1.00  0.00     0.075 C 
HETATM   26  C1  UNL     1      -4.846  -1.501   1.630  1.00  0.00     0.029 C 
ENDBRANCH  23  25
ENDBRANCH  22  23
ENDBRANCH   1  22
TORSDOF 5
