REMARK  8 active torsions:
REMARK  status: ('A' for Active; 'I' for Inactive)
REMARK    1  A    between atoms: C8_10  and  N3_11 
REMARK    2  A    between atoms: N3_11  and  C9_12 
REMARK    3  A    between atoms: C9_12  and  C10_13 
REMARK    4  A    between atoms: C13_17  and  N4_18 
REMARK       I    between atoms: N4_18  and  C14_19 
REMARK    5  A    between atoms: C14_19  and  C15_21 
REMARK    6  A    between atoms: C15_21  and  S1_22 
REMARK    7  A    between atoms: S1_22  and  C16_23 
REMARK    8  A    between atoms: C16_23  and  N5_24 
ROOT
HETATM    1  C1  UNL     1      -2.856  -5.489  -0.700  1.00  0.00     0.050 C 
HETATM    2  C2  UNL     1      -2.765  -4.037  -0.622  1.00  0.00     0.094 C 
HETATM    3  C3  UNL     1      -4.006  -3.708  -0.187  1.00  0.00     0.066 C 
HETATM    4  C4  UNL     1      -5.182  -2.917   0.259  1.00  0.00     0.243 C 
HETATM    5  N1  UNL     1      -5.289  -1.593   0.356  1.00  0.00     0.033 NA
HETATM    6  C5  UNL     1      -4.169  -0.807  -0.006  1.00  0.00     0.711 C 
HETATM    7  C6  UNL     1      -3.548   0.259  -0.429  1.00  0.00     0.086 C 
HETATM    8  C7  UNL     1      -4.355   1.425  -0.783  1.00  0.00     0.100 C 
HETATM    9  N2  UNL     1      -5.024   2.365  -1.058  1.00  0.00    -0.192 NA
HETATM   10  C8  UNL     1      -2.090   0.429  -0.605  1.00  0.00     0.045 C 
HETATM   11  C12 UNL     1      -1.040  -0.379  -0.403  1.00  0.00     0.030 C 
HETATM   12  C13 UNL     1      -0.204  -1.521  -0.067  1.00  0.00     0.133 C 
HETATM   13  C19 UNL     1      -0.919  -2.820   0.182  1.00  0.00     0.198 C 
HETATM   14  O2  UNL     1      -1.576  -3.349  -0.961  1.00  0.00    -0.375 OA
ENDROOT
BRANCH  10  15
HETATM   15  N3  UNL     1      -1.775   1.746  -1.126  1.00  0.00    -0.386 N 
HETATM   16  H7  UNL     1      -1.647   1.975  -0.084  1.00  0.00     0.160 HD
BRANCH  15  17
HETATM   17  C9  UNL     1      -1.472   3.023  -1.670  1.00  0.00     0.148 C 
BRANCH  17  18
HETATM   18  C10 UNL     1      -1.083   4.099  -0.743  1.00  0.00     0.004 C 
HETATM   19  C11 UNL     1       0.094   4.744  -0.785  1.00  0.00     0.082 C 
HETATM   20 CL1  UNL     1       1.208   4.239  -2.039  1.00  0.00    -0.097 Cl
ENDBRANCH  17  18
ENDBRANCH  15  17
ENDBRANCH  10  15
BRANCH  12  21
HETATM   21  N4  UNL     1       0.459  -1.174   1.222  1.00  0.00    -0.350 N 
HETATM   22  C14 UNL     1       1.876  -1.053   1.183  1.00  0.00     0.227 C 
HETATM   23  O1  UNL     1       2.687  -1.189   0.240  1.00  0.00    -0.273 OA
HETATM   24  H14 UNL     1      -0.034  -1.022   2.114  1.00  0.00     0.163 HD
BRANCH  22  25
HETATM   25  C15 UNL     1       2.705  -0.707   2.392  1.00  0.00     0.178 C 
BRANCH  25  26
HETATM   26  S1  UNL     1       4.438  -0.643   1.871  1.00  0.00    -0.130 SA
BRANCH  26  27
HETATM   27  C16 UNL     1       4.716   0.727   0.711  1.00  0.00     0.345 C 
BRANCH  27  28
HETATM   28  N5  UNL     1       4.513   1.961   1.412  1.00  0.00     0.088 N 
HETATM   29  C17 UNL     1       5.402   2.141   2.530  1.00  0.00     0.310 C 
HETATM   30  C18 UNL     1       4.500   3.111   0.536  1.00  0.00     0.310 C 
ENDBRANCH  27  28
ENDBRANCH  26  27
ENDBRANCH  25  26
ENDBRANCH  22  25
ENDBRANCH  12  21
TORSDOF 8
