REMARK  4 active torsions:
REMARK  status: ('A' for Active; 'I' for Inactive)
REMARK    1  A    between atoms: N1_2  and  C2_3 
REMARK    2  A    between atoms: C7_10  and  N4_11 
REMARK    3  A    between atoms: N4_11  and  C8_12 
REMARK    4  A    between atoms: C12_17  and  C13_18 
ROOT
HETATM    1  C2  UNL     1      -3.258   0.215  -0.039  1.00  0.00     0.028 A 
HETATM    2  C3  UNL     1      -3.725  -1.032  -0.446  1.00  0.00     0.031 A 
HETATM    3  C4  UNL     1      -2.896  -2.114  -0.630  1.00  0.00     0.035 A 
HETATM    4  C5  UNL     1      -1.569  -1.922  -0.395  1.00  0.00     0.072 A 
HETATM    5  N2  UNL     1      -0.723  -2.970  -0.568  1.00  0.00    -0.241 NA
HETATM    6  C6  UNL     1       0.583  -2.782  -0.337  1.00  0.00     0.235 A 
HETATM    7  N3  UNL     1       1.066  -1.591   0.057  1.00  0.00    -0.224 NA
HETATM    8  C7  UNL     1       0.296  -0.508   0.250  1.00  0.00     0.137 A 
HETATM    9  C14 UNL     1      -1.046  -0.714   0.009  1.00  0.00     0.041 A 
HETATM   10  C15 UNL     1      -1.912   0.332   0.178  1.00  0.00     0.046 A 
ENDROOT
BRANCH   8  11
HETATM   11  N4  UNL     1       0.881   0.717   0.664  1.00  0.00    -0.375 N 
HETATM   12  H8  UNL     1       0.355   1.600   0.831  1.00  0.00     0.160 HD
BRANCH  11  13
HETATM   13  C8  UNL     1       2.303   0.815   0.888  1.00  0.00     0.066 C 
HETATM   14  B1  UNL     1       2.719  -0.391   2.257  1.00  0.00     0.217 B 
HETATM   15  C9  UNL     1       3.536  -1.889   1.298  1.00  0.00    -0.109 C 
HETATM   16  C10 UNL     1       4.563  -1.382   0.646  1.00  0.00    -0.006 C 
HETATM   17  C11 UNL     1       4.121  -0.516  -0.444  1.00  0.00     0.004 C 
HETATM   18  C12 UNL     1       3.148   0.381  -0.212  1.00  0.00    -0.057 C 
BRANCH  18  19
HETATM   19  C13 UNL     1       2.682   1.280  -1.330  1.00  0.00     0.120 C 
HETATM   20 BR1  UNL     1       2.951   3.138  -0.860  1.00  0.00    -0.092 Br
ENDBRANCH  18  19
ENDBRANCH  11  13
ENDBRANCH   8  11
BRANCH   1  21
HETATM   21  N1  UNL     1      -4.155   1.304   0.138  1.00  0.00    -0.394 N 
HETATM   22  C1  UNL     1      -3.617   2.587   0.565  1.00  0.00     0.146 C 
HETATM   23  H4  UNL     1      -5.171   1.151  -0.044  1.00  0.00     0.159 HD
ENDBRANCH   1  21
TORSDOF 4
