REMARK  1 active torsions:
REMARK  status: ('A' for Active; 'I' for Inactive)
REMARK    1  A    between atoms: O1_2  and  C2_3 
ROOT
HETATM    1  C2  UNL     1       2.983  -1.280  -0.001  1.00  0.00     0.229 C 
HETATM    2  C3  UNL     1       2.568  -0.661   1.297  1.00  0.00     0.184 C 
HETATM    3  C4  UNL     1       3.135  -1.543   2.099  1.00  0.00     0.018 C 
HETATM    4  C5  UNL     1       3.470  -2.864   1.399  1.00  0.00     0.087 C 
HETATM    5  C6  UNL     1       2.457  -2.687   0.287  1.00  0.00     0.046 C 
HETATM    6  N1  UNL     1       1.433  -2.967  -0.525  1.00  0.00    -0.282 NA
HETATM    7  C7  UNL     1       1.095  -1.863  -1.439  1.00  0.00     0.182 C 
HETATM    8  C8  UNL     1      -0.037  -1.462  -0.918  1.00  0.00     0.062 C 
HETATM    9  C9  UNL     1      -0.047  -2.479   0.148  1.00  0.00     0.098 C 
HETATM   10  N2  UNL     1      -0.061  -3.292   1.029  1.00  0.00    -0.192 NA
HETATM   11  C10 UNL     1      -1.122  -0.488  -0.620  1.00  0.00     0.008 C 
HETATM   12  C11 UNL     1      -2.319  -0.870   0.056  1.00  0.00    -0.021 A 
HETATM   13  C12 UNL     1      -2.611  -2.240  -0.044  1.00  0.00     0.015 A 
HETATM   14  C13 UNL     1      -3.685  -2.768   0.615  1.00  0.00     0.045 A 
HETATM   15  C14 UNL     1      -4.484  -1.949   1.378  1.00  0.00     0.138 A 
HETATM   16  F1  UNL     1      -5.575  -2.371   2.072  1.00  0.00    -0.204 F 
HETATM   17  C15 UNL     1      -4.255  -0.607   1.516  1.00  0.00     0.073 A 
HETATM   18 CL1  UNL     1      -5.136   0.585   2.423  1.00  0.00    -0.081 Cl
HETATM   19  C16 UNL     1      -3.164  -0.145   0.831  1.00  0.00     0.039 A 
HETATM   20  C17 UNL     1      -1.341   0.793  -0.867  1.00  0.00     0.099 C 
HETATM   21  N3  UNL     1      -1.839   2.104  -0.973  1.00  0.00    -0.386 N 
HETATM   22  C18 UNL     1      -2.805   2.049  -2.018  1.00  0.00     0.149 C 
HETATM   23  C19 UNL     1      -1.215   3.009  -0.017  1.00  0.00     0.102 C 
HETATM   24  C20 UNL     1      -2.023   4.306  -0.073  1.00  0.00     0.036 C 
HETATM   25  C21 UNL     1       0.184   3.340  -0.299  1.00  0.00     0.002 C 
HETATM   26  C22 UNL     1       1.344   2.765  -0.139  1.00  0.00     0.067 C 
HETATM   27  C23 UNL     1       2.187   1.680   0.287  1.00  0.00     0.312 A 
HETATM   28  O2  UNL     1       3.154   0.956   0.525  1.00  0.00    -0.120 OA
HETATM   29  N4  UNL     1       1.812   0.476   0.906  1.00  0.00     0.136 N 
HETATM   30  H22 UNL     1       0.889   0.155   1.261  1.00  0.00     0.335 HD
ENDROOT
BRANCH   1  31
HETATM   31  O1  UNL     1       4.366  -1.387  -0.007  1.00  0.00    -0.379 OA
HETATM   32  C1  UNL     1       4.995  -1.036  -1.168  1.00  0.00     0.202 C 
ENDBRANCH   1  31
TORSDOF 1
