REMARK  6 active torsions:
REMARK  status: ('A' for Active; 'I' for Inactive)
REMARK    1  A    between atoms: O1_2  and  C2_3 
REMARK    2  A    between atoms: C8_11  and  N3_12 
REMARK    3  A    between atoms: C11_15  and  N4_16 
REMARK       I    between atoms: N4_16  and  C12_17 
REMARK    4  A    between atoms: C12_17  and  C13_19 
REMARK    5  A    between atoms: C14_20  and  C15_21 
REMARK    6  A    between atoms: C15_21  and  N5_23 
ROOT
HETATM    1  C2  UNL     1       1.879   0.903   1.243  1.00  0.00     0.097 A 
HETATM    2  C3  UNL     1       3.193   1.208   1.471  1.00  0.00     0.071 A 
HETATM    3  C4  UNL     1       4.209   0.685   0.705  1.00  0.00     0.071 A 
HETATM    4  N1  UNL     1       5.507   0.964   0.902  1.00  0.00    -0.259 NA
HETATM    5  C5  UNL     1       6.488   0.448   0.148  1.00  0.00     0.142 A 
HETATM    6  C6  UNL     1       6.164  -0.415  -0.887  1.00  0.00     0.089 A 
HETATM    7  C7  UNL     1       7.152  -1.015  -1.746  1.00  0.00     0.103 C 
HETATM    8  N2  UNL     1       7.951  -1.481  -2.448  1.00  0.00    -0.191 NA
HETATM    9  C8  UNL     1       4.835  -0.716  -1.109  1.00  0.00     0.061 A 
HETATM   10  C9  UNL     1       3.852  -0.168  -0.315  1.00  0.00     0.023 A 
HETATM   11  C10 UNL     1       2.524  -0.446  -0.508  1.00  0.00     0.048 A 
HETATM   12  C11 UNL     1       1.484   0.057   0.237  1.00  0.00     0.069 A 
ENDROOT
BRANCH   9  13
HETATM   13  N3  UNL     1       4.491  -1.589  -2.154  1.00  0.00    -0.397 N 
HETATM   14  H6  UNL     1       4.659  -1.736  -3.171  1.00  0.00     0.156 HD
HETATM   15  H7  UNL     1       3.856  -2.387  -1.918  1.00  0.00     0.156 HD
ENDBRANCH   9  13
BRANCH  12  16
HETATM   16  N4  UNL     1       0.108  -0.212   0.061  1.00  0.00    -0.321 N 
HETATM   17  C12 UNL     1      -0.540  -1.033  -0.887  1.00  0.00     0.245 C 
HETATM   18  O2  UNL     1       0.149  -1.644  -1.725  1.00  0.00    -0.268 OA
HETATM   19  H9  UNL     1      -0.574   0.246   0.708  1.00  0.00     0.169 HD
BRANCH  17  20
HETATM   20  C13 UNL     1      -1.982  -1.203  -0.932  1.00  0.00     0.072 C 
HETATM   21  C14 UNL     1      -2.829  -0.614  -0.103  1.00  0.00     0.003 C 
BRANCH  21  22
HETATM   22  C15 UNL     1      -4.305  -0.769  -0.125  1.00  0.00     0.097 C 
HETATM   23  C16 UNL     1      -4.655  -1.769   0.932  1.00  0.00     0.036 C 
BRANCH  22  24
HETATM   24  N5  UNL     1      -5.015   0.467  -0.015  1.00  0.00    -0.414 N 
HETATM   25  C17 UNL     1      -6.435   0.387  -0.032  1.00  0.00     0.143 C 
HETATM   26  C18 UNL     1      -4.429   1.557  -0.717  1.00  0.00     0.143 C 
ENDBRANCH  22  24
ENDBRANCH  21  22
ENDBRANCH  17  20
ENDBRANCH  12  16
BRANCH   1  27
HETATM   27  O1  UNL     1       0.908   1.474   2.063  1.00  0.00    -0.354 OA
HETATM   28  C1  UNL     1       1.259   2.342   3.102  1.00  0.00     0.210 C 
ENDBRANCH   1  27
TORSDOF 6
