REMARK  5 active torsions:
REMARK  status: ('A' for Active; 'I' for Inactive)
REMARK    1  A    between atoms: C2_2  and  O1_3 
REMARK    2  A    between atoms: O1_3  and  C3_4 
REMARK    3  A    between atoms: C7_9  and  C8_10 
REMARK    4  A    between atoms: C10_12  and  N2_13 
REMARK    5  A    between atoms: C17_21  and  N3_22 
ROOT
HETATM    1  C3  UNL     1       3.921   0.175   0.069  1.00  0.00     0.137 C 
HETATM    2  C4  UNL     1       3.574  -0.989  -0.523  1.00  0.00     0.166 A 
HETATM    3  C5  UNL     1       2.590  -2.038  -0.888  1.00  0.00     0.093 A 
HETATM    4  N1  UNL     1       1.985  -1.223  -0.218  1.00  0.00    -0.355 N 
HETATM    5  C6  UNL     1       0.688  -1.116   0.212  1.00  0.00     0.096 C 
HETATM    6  C7  UNL     1      -0.565  -1.072   0.747  1.00  0.00    -0.040 C 
HETATM    7  C10 UNL     1      -0.991  -0.202  -0.335  1.00  0.00     0.146 C 
HETATM    8  C17 UNL     1      -0.592   1.253  -0.148  1.00  0.00     0.198 C 
HETATM    9  C20 UNL     1       0.904   1.347  -0.001  1.00  0.00     0.242 C 
HETATM   10  O2  UNL     1       1.795   1.604  -0.853  1.00  0.00    -0.271 OA
HETATM   11  N4  UNL     1       1.884   1.212   1.011  1.00  0.00    -0.356 N 
HETATM   12  C21 UNL     1       3.322   1.296   0.857  1.00  0.00     0.166 C 
HETATM   13  H29 UNL     1       1.259   1.069   1.823  1.00  0.00     0.162 HD
ENDROOT
BRANCH   7  14
HETATM   14  N2  UNL     1      -2.471  -0.144  -0.226  1.00  0.00    -0.373 N 
HETATM   15  C11 UNL     1      -3.062  -1.368  -0.606  1.00  0.00     0.129 A 
HETATM   16  C12 UNL     1      -4.359  -1.614  -0.571  1.00  0.00     0.137 A 
HETATM   17  F1  UNL     1      -4.954  -2.799  -0.936  1.00  0.00    -0.204 F 
HETATM   18  C13 UNL     1      -5.293  -0.592  -0.129  1.00  0.00    -0.024 A 
HETATM   19  C14 UNL     1      -6.762  -0.765  -0.051  1.00  0.00     0.051 C 
HETATM   20  C15 UNL     1      -4.736   0.558   0.215  1.00  0.00     0.003 A 
HETATM   21  C16 UNL     1      -3.305   0.957   0.217  1.00  0.00     0.151 A 
ENDBRANCH   7  14
BRANCH   6  22
HETATM   22  C8  UNL     1      -1.050  -1.603   2.050  1.00  0.00     0.033 C 
HETATM   23  C9  UNL     1      -2.049  -2.704   1.965  1.00  0.00     0.010 C 
ENDBRANCH   6  22
BRANCH   8  24
HETATM   24  N3  UNL     1      -1.046   1.928  -1.321  1.00  0.00    -0.407 N 
HETATM   25  C18 UNL     1      -0.775   3.334  -1.368  1.00  0.00     0.143 C 
HETATM   26  C19 UNL     1      -0.927   1.238  -2.554  1.00  0.00     0.143 C 
ENDBRANCH   8  24
BRANCH   1  27
HETATM   27  O1  UNL     1       5.274   0.605  -0.010  1.00  0.00    -0.373 OA
BRANCH  27  28
HETATM   28  C2  UNL     1       6.345  -0.209  -0.351  1.00  0.00     0.164 C 
HETATM   29  C1  UNL     1       7.684   0.495  -0.230  1.00  0.00     0.033 C 
ENDBRANCH  27  28
ENDBRANCH   1  27
TORSDOF 5
