REMARK  1 active torsions:
REMARK  status: ('A' for Active; 'I' for Inactive)
REMARK    1  A    between atoms: N1_2  and  N2_3 
ROOT
HETATM    1  N2  UNL     1       1.901  -0.520  -0.456  1.00  0.00    -0.281 N 
HETATM    2  C2  UNL     1       1.215   0.565  -1.059  1.00  0.00     0.226 C 
HETATM    3  N3  UNL     1       0.172   0.917  -0.449  1.00  0.00    -0.242 NA
HETATM    4  C3  UNL     1      -0.771   1.895  -0.671  1.00  0.00     0.066 A 
HETATM    5  C4  UNL     1      -0.770   2.904  -1.605  1.00  0.00     0.032 A 
HETATM    6  C5  UNL     1      -1.782   3.835  -1.714  1.00  0.00     0.002 A 
HETATM    7  C6  UNL     1      -2.836   3.762  -0.862  1.00  0.00     0.001 A 
HETATM    8  C7  UNL     1      -2.825   2.761   0.057  1.00  0.00     0.011 A 
HETATM    9  C8  UNL     1      -1.826   1.789   0.212  1.00  0.00    -0.012 A 
HETATM   10  C9  UNL     1      -1.968   0.728   1.276  1.00  0.00     0.160 C 
HETATM   11  N4  UNL     1      -1.938  -0.574   0.641  1.00  0.00    -0.395 N 
HETATM   12  C10 UNL     1      -2.094  -1.968   0.847  1.00  0.00     0.079 C 
HETATM   13  C11 UNL     1      -1.347  -3.036   0.736  1.00  0.00    -0.004 C 
HETATM   14  C12 UNL     1       0.045  -2.729   0.274  1.00  0.00     0.056 C 
HETATM   15  C13 UNL     1       0.982  -3.701   0.076  1.00  0.00     0.022 C 
HETATM   16  C14 UNL     1       2.207  -3.042  -0.363  1.00  0.00     0.007 C 
HETATM   17 BR1  UNL     1       3.858  -3.951  -0.818  1.00  0.00    -0.054 Br
HETATM   18  C15 UNL     1       2.474  -1.788  -0.544  1.00  0.00     0.126 C 
HETATM   19  H12 UNL     1      -1.703  -0.597  -0.406  1.00  0.00     0.159 HD
ENDROOT
BRANCH   1  20
HETATM   20  N1  UNL     1       2.115  -0.131   0.895  1.00  0.00    -0.237 NA
HETATM   21  C1  UNL     1       3.454   0.319   1.137  1.00  0.00     0.133 C 
HETATM   22  H4  UNL     1       1.729  -0.783   1.578  1.00  0.00     0.146 HD
ENDBRANCH   1  20
TORSDOF 1
