REMARK  6 active torsions:
REMARK  status: ('A' for Active; 'I' for Inactive)
REMARK    1  A    between atoms: C2_3  and  C3_4 
REMARK    2  A    between atoms: C3_4  and  N2_5 
REMARK    3  A    between atoms: N2_5  and  C4_6 
REMARK    4  A    between atoms: C13_18  and  C14_19 
REMARK    5  A    between atoms: C14_19  and  N5_20 
REMARK    6  A    between atoms: N5_20  and  C15_21 
ROOT
HETATM    1  N1  UNL     1       1.030   6.317  -1.252  1.00  0.00    -0.197 NA
HETATM    2  C1  UNL     1       0.224   5.651  -0.684  1.00  0.00     0.064 C 
HETATM    3  C2  UNL     1      -0.760   4.824  -0.006  1.00  0.00     0.170 C 
ENDROOT
BRANCH   3   4
HETATM    4  C3  UNL     1      -1.007   3.610  -0.874  1.00  0.00     0.104 C 
BRANCH   4   5
HETATM    5  N2  UNL     1      -1.013   2.409  -1.280  1.00  0.00    -0.268 NA
BRANCH   5   6
HETATM    6  C4  UNL     1      -0.482   1.257  -0.677  1.00  0.00     0.041 C 
HETATM    7  C5  UNL     1      -1.763   0.993  -0.169  1.00  0.00     0.020 C 
HETATM    8  C6  UNL     1      -3.192   0.766   0.354  1.00  0.00     0.143 C 
HETATM    9  N3  UNL     1      -3.663  -0.466  -0.044  1.00  0.00    -0.415 N 
HETATM   10  C7  UNL     1      -4.796  -1.131   0.411  1.00  0.00     0.142 C 
HETATM   11  H7  UNL     1      -3.586  -0.551  -1.140  1.00  0.00     0.153 HD
HETATM   12  C8  UNL     1      -4.721  -2.614  -0.042  1.00  0.00    -0.002 C 
HETATM   13  C9  UNL     1      -3.862  -3.534  -0.501  1.00  0.00     0.072 C 
HETATM   14  C10 UNL     1      -2.361  -3.422  -0.786  1.00  0.00     0.244 C 
HETATM   15  O1  UNL     1      -1.288  -3.807  -1.257  1.00  0.00    -0.268 OA
HETATM   16  N4  UNL     1      -1.708  -2.304  -0.284  1.00  0.00    -0.334 N 
HETATM   17  C11 UNL     1      -0.735  -1.314  -0.002  1.00  0.00     0.088 C 
HETATM   18  H12 UNL     1      -2.189  -1.915   0.539  1.00  0.00     0.168 HD
HETATM   19  C12 UNL     1       0.053  -0.554   0.727  1.00  0.00     0.003 C 
HETATM   20  C13 UNL     1       0.668   0.258  -0.331  1.00  0.00     0.079 C 
BRANCH  20  21
HETATM   21  C14 UNL     1       1.765   1.111   0.320  1.00  0.00     0.134 C 
BRANCH  21  22
HETATM   22  N5  UNL     1       2.927   0.493   0.759  1.00  0.00    -0.389 N 
HETATM   23  H18 UNL     1       3.023   0.912   1.732  1.00  0.00     0.159 HD
BRANCH  22  24
HETATM   24  C15 UNL     1       4.004  -0.359   0.580  1.00  0.00     0.029 A 
HETATM   25  C16 UNL     1       5.043  -0.638   1.519  1.00  0.00     0.029 A 
HETATM   26  C17 UNL     1       6.102  -1.559   1.387  1.00  0.00     0.004 A 
HETATM   27  C18 UNL     1       5.979  -2.166   0.150  1.00  0.00     0.024 A 
HETATM   28  C19 UNL     1       5.094  -1.983  -0.764  1.00  0.00     0.036 A 
HETATM   29 CL1  UNL     1       5.291  -2.991  -2.206  1.00  0.00    -0.084 Cl
HETATM   30  C20 UNL     1       4.057  -1.083  -0.593  1.00  0.00     0.052 A 
ENDBRANCH  22  24
ENDBRANCH  21  22
ENDBRANCH  20  21
ENDBRANCH   5   6
ENDBRANCH   4   5
ENDBRANCH   3   4
TORSDOF 6
