REMARK  9 active torsions:
REMARK  status: ('A' for Active; 'I' for Inactive)
REMARK    1  A    between atoms: N1_2  and  C2_3 
REMARK    2  A    between atoms: C2_3  and  C3_4 
REMARK    3  A    between atoms: C4_5  and  C5_6 
REMARK    4  A    between atoms: C6_7  and  C7_8 
REMARK    5  A    between atoms: C7_8  and  N2_9 
REMARK    6  A    between atoms: N2_9  and  C9_11 
REMARK    7  A    between atoms: C11_14  and  N3_15 
REMARK    8  A    between atoms: N3_15  and  C12_16 
REMARK    9  A    between atoms: C20_27  and  O2_28 
ROOT
HETATM    1  C3  UNL     1       0.935  -1.641  -1.157  1.00  0.00     0.112 C 
HETATM    2  C4  UNL     1       0.865  -0.463  -0.234  1.00  0.00    -0.046 C 
HETATM    3  C10 UNL     1      -0.263   0.085   0.197  1.00  0.00     0.010 C 
HETATM    4  C11 UNL     1      -1.726   0.172   0.267  1.00  0.00     0.130 C 
HETATM    5  C18 UNL     1      -2.452  -0.583  -0.792  1.00  0.00     0.021 C 
HETATM    6  C19 UNL     1      -2.319  -1.850  -1.254  1.00  0.00     0.117 C 
HETATM    7  N4  UNL     1      -1.310  -2.724  -0.684  1.00  0.00    -0.240 NA
HETATM    8  C20 UNL     1       0.009  -2.700  -0.609  1.00  0.00     0.149 C 
ENDROOT
BRANCH   4   9
HETATM    9  N3  UNL     1      -2.205   1.546   0.308  1.00  0.00    -0.379 N 
HETATM   10  H18 UNL     1      -1.510   2.317   0.200  1.00  0.00     0.160 HD
BRANCH   9  11
HETATM   11  C12 UNL     1      -3.564   1.930   0.484  1.00  0.00     0.030 A 
HETATM   12  C13 UNL     1      -3.970   3.249   0.489  1.00  0.00     0.032 A 
HETATM   13  C14 UNL     1      -5.282   3.614   0.668  1.00  0.00     0.046 A 
HETATM   14  C15 UNL     1      -6.266   2.653   0.853  1.00  0.00     0.138 A 
HETATM   15  F1  UNL     1      -7.575   2.986   1.032  1.00  0.00    -0.204 F 
HETATM   16  C16 UNL     1      -5.906   1.339   0.855  1.00  0.00     0.074 A 
HETATM   17 CL1  UNL     1      -7.151   0.116   1.086  1.00  0.00    -0.081 Cl
HETATM   18  C17 UNL     1      -4.582   0.994   0.674  1.00  0.00     0.056 A 
ENDBRANCH   9  11
ENDBRANCH   4   9
BRANCH   2  19
HETATM   19  C5  UNL     1       2.120   0.082   0.179  1.00  0.00     0.005 C 
HETATM   20  C6  UNL     1       2.650   1.033   0.910  1.00  0.00    -0.007 C 
BRANCH  20  21
HETATM   21  C7  UNL     1       4.019   1.493   1.257  1.00  0.00     0.151 C 
BRANCH  21  22
HETATM   22  N2  UNL     1       4.202   2.845   0.818  1.00  0.00    -0.360 N 
HETATM   23  C8  UNL     1       3.911   4.022   1.595  1.00  0.00     0.152 C 
BRANCH  22  24
HETATM   24  C9  UNL     1       4.710   3.038  -0.492  1.00  0.00     0.350 C 
HETATM   25  O1  UNL     1       4.963   1.990  -1.164  1.00  0.00    -0.284 OA
ENDBRANCH  22  24
ENDBRANCH  21  22
ENDBRANCH  20  21
ENDBRANCH   2  19
BRANCH   1  26
HETATM   26  C2  UNL     1       2.292  -2.081  -1.512  1.00  0.00     0.131 C 
BRANCH  26  27
HETATM   27  N1  UNL     1       2.450  -3.147  -2.423  1.00  0.00    -0.424 N 
HETATM   28  C1  UNL     1       2.138  -4.472  -2.116  1.00  0.00     0.139 C 
HETATM   29  H4  UNL     1       2.089  -2.888  -3.360  1.00  0.00     0.152 HD
ENDBRANCH  26  27
ENDBRANCH   1  26
BRANCH   8  30
HETATM   30  O2  UNL     1       0.292  -3.857   0.083  1.00  0.00    -0.342 OA
HETATM   31  C21 UNL     1      -0.527  -4.214   1.196  1.00  0.00     0.211 C 
ENDBRANCH   8  30
TORSDOF 9
