REMARK  8 active torsions:
REMARK  status: ('A' for Active; 'I' for Inactive)
REMARK    1  A    between atoms: C2_2  and  C3_3 
REMARK    2  A    between atoms: C2_2  and  N2_9 
REMARK    3  A    between atoms: C4_4  and  C5_5 
REMARK    4  A    between atoms: C5_5  and  N1_6 
REMARK    5  A    between atoms: N2_9  and  C8_10 
REMARK    6  A    between atoms: N3_17  and  O1_18 
REMARK    7  A    between atoms: O1_18  and  N4_19 
REMARK    8  A    between atoms: N4_19  and  C15_20 
ROOT
HETATM    1  C8  UNL     1       0.431  -0.333   0.748  1.00  0.00     0.029 A 
HETATM    2  C9  UNL     1      -0.148  -0.819   1.924  1.00  0.00     0.031 A 
HETATM    3  C10 UNL     1      -1.450  -1.268   1.979  1.00  0.00     0.034 A 
HETATM    4  C11 UNL     1      -2.240  -1.252   0.849  1.00  0.00     0.068 A 
HETATM    5  C12 UNL     1      -1.714  -0.781  -0.336  1.00  0.00    -0.007 A 
HETATM    6  C13 UNL     1      -0.407  -0.341  -0.349  1.00  0.00     0.040 A 
HETATM    7  C14 UNL     1      -2.986  -1.029  -1.057  1.00  0.00     0.199 A 
HETATM    8  N3  UNL     1      -3.487  -1.508   0.215  1.00  0.00    -0.229 N 
ENDROOT
BRANCH   8   9
HETATM    9  O1  UNL     1      -4.701  -2.007   0.623  1.00  0.00    -0.154 OA
BRANCH   9  10
HETATM   10  N4  UNL     1      -5.411  -0.922   1.002  1.00  0.00    -0.242 N 
HETATM   11  H21 UNL     1      -4.966  -0.861   1.944  1.00  0.00     0.197 HD
BRANCH  10  12
HETATM   12  C15 UNL     1      -6.410  -0.035   0.514  1.00  0.00     0.058 A 
HETATM   13  C16 UNL     1      -6.799   0.971   1.374  1.00  0.00     0.034 A 
HETATM   14  C17 UNL     1      -7.771   1.802   0.848  1.00  0.00     0.046 A 
HETATM   15  C18 UNL     1      -8.302   1.637  -0.423  1.00  0.00     0.138 A 
HETATM   16  F1  UNL     1      -9.252   2.546  -0.784  1.00  0.00    -0.204 F 
HETATM   17  C19 UNL     1      -7.857   0.603  -1.221  1.00  0.00     0.074 A 
HETATM   18 CL1  UNL     1      -8.566   0.444  -2.819  1.00  0.00    -0.081 Cl
HETATM   19  C20 UNL     1      -6.885  -0.269  -0.760  1.00  0.00     0.058 A 
ENDBRANCH  10  12
ENDBRANCH   9  10
ENDBRANCH   8   9
BRANCH   1  20
HETATM   20  N2  UNL     1       1.777   0.132   0.687  1.00  0.00    -0.382 N 
HETATM   21  H15 UNL     1       2.313   0.076   1.602  1.00  0.00     0.160 HD
BRANCH  20  22
HETATM   22  C2  UNL     1       2.388   0.648  -0.523  1.00  0.00     0.100 C 
HETATM   23  C1  UNL     1       1.704   1.860  -1.080  1.00  0.00     0.036 C 
BRANCH  22  24
HETATM   24  C3  UNL     1       3.829   0.906  -0.219  1.00  0.00    -0.005 C 
HETATM   25  C4  UNL     1       4.549  -0.115   0.228  1.00  0.00     0.001 C 
BRANCH  25  26
HETATM   26  C5  UNL     1       5.981  -0.052   0.579  1.00  0.00     0.298 C 
BRANCH  26  27
HETATM   27  N1  UNL     1       6.772  -0.977  -0.239  1.00  0.00     0.083 N 
HETATM   28  C6  UNL     1       6.725  -0.440  -1.597  1.00  0.00     0.309 C 
HETATM   29  C7  UNL     1       8.135  -0.946   0.273  1.00  0.00     0.309 C 
ENDBRANCH  26  27
ENDBRANCH  25  26
ENDBRANCH  22  24
ENDBRANCH  20  22
ENDBRANCH   1  20
TORSDOF 8
