REMARK  6 active torsions:
REMARK  status: ('A' for Active; 'I' for Inactive)
REMARK    1  A    between atoms: C3_3  and  C4_4 
REMARK       I    between atoms: C4_4  and  N1_6 
REMARK    2  A    between atoms: N1_6  and  C5_7 
REMARK    3  A    between atoms: C8_10  and  N2_11 
REMARK    4  A    between atoms: N2_11  and  C9_12 
REMARK    5  A    between atoms: C19_27  and  O2_28 
REMARK    6  A    between atoms: O2_28  and  C20_29 
ROOT
HETATM    1  C5  UNL     1      -1.383   0.179  -0.178  1.00  0.00     0.068 C 
HETATM    2  C6  UNL     1      -0.453  -0.718  -0.444  1.00  0.00     0.033 C 
HETATM    3  C7  UNL     1       0.983  -0.943  -0.691  1.00  0.00     0.016 C 
HETATM    4  C8  UNL     1       2.187  -0.353  -0.770  1.00  0.00    -0.012 C 
HETATM    5  B1  UNL     1       3.067   0.956  -0.636  1.00  0.00     0.376 B 
HETATM    6  C15 UNL     1       3.535   1.181   0.846  1.00  0.00     0.001 C 
HETATM    7  N3  UNL     1       3.905   1.343   1.953  1.00  0.00    -0.213 NA
HETATM    8  C16 UNL     1       2.371   2.247  -1.270  1.00  0.00     0.123 C 
HETATM    9  N4  UNL     1       0.985   2.191  -0.849  1.00  0.00    -0.309 NA
HETATM   10  C17 UNL     1       0.309   3.248  -0.585  1.00  0.00     0.112 C 
HETATM   11  C18 UNL     1      -0.982   2.706  -0.223  1.00  0.00     0.058 C 
HETATM   12  C19 UNL     1      -1.670   1.611  -0.057  1.00  0.00     0.096 C 
ENDROOT
BRANCH   4  13
HETATM   13  N2  UNL     1       3.402  -1.030  -1.063  1.00  0.00    -0.368 N 
HETATM   14  H9  UNL     1       3.801  -1.305  -1.991  1.00  0.00     0.165 HD
BRANCH  13  15
HETATM   15  C9  UNL     1       4.462  -1.564  -0.307  1.00  0.00     0.033 A 
HETATM   16  C10 UNL     1       4.333  -2.836   0.262  1.00  0.00     0.032 A 
HETATM   17  C11 UNL     1       5.376  -3.380   1.003  1.00  0.00     0.046 A 
HETATM   18  C12 UNL     1       6.531  -2.672   1.177  1.00  0.00     0.138 A 
HETATM   19  F1  UNL     1       7.552  -3.204   1.902  1.00  0.00    -0.204 F 
HETATM   20  C13 UNL     1       6.721  -1.427   0.647  1.00  0.00     0.074 A 
HETATM   21 CL1  UNL     1       8.198  -0.481   0.849  1.00  0.00    -0.081 Cl
HETATM   22  C14 UNL     1       5.674  -0.899  -0.087  1.00  0.00     0.056 A 
ENDBRANCH  13  15
ENDBRANCH   4  13
BRANCH   1  23
HETATM   23  N1  UNL     1      -2.658  -0.549  -0.075  1.00  0.00    -0.321 N 
HETATM   24  C4  UNL     1      -3.822  -0.429  -0.924  1.00  0.00     0.245 C 
HETATM   25  O1  UNL     1      -3.465   0.457  -1.780  1.00  0.00    -0.268 OA
HETATM   26  H6  UNL     1      -2.668  -1.228   0.750  1.00  0.00     0.169 HD
BRANCH  24  27
HETATM   27  C3  UNL     1      -4.935  -1.285  -0.561  1.00  0.00     0.070 C 
HETATM   28  C2  UNL     1      -5.504  -2.187   0.183  1.00  0.00    -0.026 C 
HETATM   29  C1  UNL     1      -4.774  -2.791   1.344  1.00  0.00     0.036 C 
ENDBRANCH  24  27
ENDBRANCH   1  23
BRANCH  12  30
HETATM   30  O2  UNL     1      -2.949   1.926   0.323  1.00  0.00    -0.349 OA
BRANCH  30  31
HETATM   31  C20 UNL     1      -3.645   3.093   0.051  1.00  0.00     0.171 C 
HETATM   32  C21 UNL     1      -5.094   2.898   0.522  1.00  0.00     0.034 C 
ENDBRANCH  30  31
ENDBRANCH  12  30
TORSDOF 6
