REMARK  6 active torsions:
REMARK  status: ('A' for Active; 'I' for Inactive)
REMARK    1  A    between atoms: C2_2  and  C3_3 
REMARK    2  A    between atoms: C3_3  and  C5_5 
REMARK    3  A    between atoms: C6_6  and  C7_7 
REMARK       I    between atoms: C7_7  and  N1_9 
REMARK    4  A    between atoms: N1_9  and  C8_10 
REMARK    5  A    between atoms: C11_13  and  C12_14 
REMARK    6  A    between atoms: C12_14  and  C13_15 
ROOT
HETATM    1  C13 UNL     1      -5.968   0.061   0.611  1.00  0.00     0.128 C 
HETATM    2  C14 UNL     1      -7.420  -0.047   0.519  1.00  0.00     0.059 C 
HETATM    3  N2  UNL     1      -8.561  -0.133   0.445  1.00  0.00    -0.197 NA
ENDROOT
BRANCH   1   4
HETATM    4  C12 UNL     1      -5.296  -1.207   0.094  1.00  0.00     0.048 C 
BRANCH   4   5
HETATM    5  C11 UNL     1      -3.827  -1.098   0.210  1.00  0.00    -0.077 C 
HETATM    6  C10 UNL     1      -2.896  -0.203   0.631  1.00  0.00     0.005 C 
HETATM    7  C9  UNL     1      -1.421  -0.339   0.620  1.00  0.00     0.031 C 
HETATM    8  C8  UNL     1      -0.273  -0.941   0.396  1.00  0.00     0.049 C 
HETATM    9  C22 UNL     1       0.090  -2.273  -0.142  1.00  0.00     0.039 A 
HETATM   10  C17 UNL     1      -0.503  -3.149  -0.987  1.00  0.00     0.042 A 
HETATM   11  C21 UNL     1       1.302  -2.646   0.396  1.00  0.00     0.048 A 
HETATM   12  N3  UNL     1      -1.720  -3.279  -1.753  1.00  0.00    -0.389 N 
HETATM   13  C18 UNL     1       0.182  -4.348  -1.230  1.00  0.00     0.030 A 
HETATM   14  C16 UNL     1      -2.836  -2.345  -1.563  1.00  0.00     0.124 C 
HETATM   15  H23 UNL     1      -1.961  -3.964  -2.477  1.00  0.00     0.159 HD
HETATM   16  C15 UNL     1      -2.962  -2.256  -0.056  1.00  0.00     0.053 C 
HETATM   17  C19 UNL     1       1.401  -4.706  -0.681  1.00  0.00     0.004 A 
HETATM   18  C20 UNL     1       2.005  -3.816   0.182  1.00  0.00     0.025 A 
HETATM   19 CL1  UNL     1       2.234  -1.680   1.553  1.00  0.00    -0.083 Cl
BRANCH   8  20
HETATM   20  N1  UNL     1       0.716   0.019   0.838  1.00  0.00    -0.323 N 
HETATM   21  C7  UNL     1       1.558   0.646  -0.117  1.00  0.00     0.245 C 
HETATM   22  O1  UNL     1       1.934   0.830  -1.271  1.00  0.00    -0.268 OA
HETATM   23  H12 UNL     1       0.776   0.247   1.868  1.00  0.00     0.169 HD
BRANCH  21  24
HETATM   24  C6  UNL     1       2.491   1.563   0.487  1.00  0.00     0.071 C 
HETATM   25  C5  UNL     1       3.426   2.379  -0.021  1.00  0.00    -0.017 C 
BRANCH  25  26
HETATM   26  C3  UNL     1       4.407   3.334   0.505  1.00  0.00     0.004 C 
HETATM   27  C4  UNL     1       5.809   2.928   0.114  1.00  0.00     0.014 C 
BRANCH  26  28
HETATM   28  C2  UNL     1       4.171   4.736  -0.063  1.00  0.00     0.003 C 
HETATM   29  C1  UNL     1       2.767   5.223   0.294  1.00  0.00     0.006 C 
ENDBRANCH  26  28
ENDBRANCH  25  26
ENDBRANCH  21  24
ENDBRANCH   8  20
ENDBRANCH   4   5
ENDBRANCH   1   4
TORSDOF 6
