REMARK  2 active torsions:
REMARK  status: ('A' for Active; 'I' for Inactive)
REMARK    1  A    between atoms: C10_13  and  N3_14 
REMARK    2  A    between atoms: N3_14  and  C11_15 
ROOT
HETATM    1  N1  UNL     1      -0.791  -2.595  -3.758  1.00  0.00    -0.191 NA
HETATM    2  C1  UNL     1      -1.323  -2.050  -2.861  1.00  0.00     0.103 C 
HETATM    3  C2  UNL     1      -1.976  -1.392  -1.774  1.00  0.00     0.089 A 
HETATM    4  C3  UNL     1      -3.354  -1.383  -1.709  1.00  0.00     0.142 A 
HETATM    5  N2  UNL     1      -3.990  -0.775  -0.695  1.00  0.00    -0.259 NA
HETATM    6  C4  UNL     1      -3.306  -0.156   0.288  1.00  0.00     0.069 A 
HETATM    7  C5  UNL     1      -3.953   0.473   1.343  1.00  0.00     0.035 A 
HETATM    8  C6  UNL     1      -3.251   1.101   2.353  1.00  0.00     0.044 A 
HETATM    9  C7  UNL     1      -1.881   1.059   2.237  1.00  0.00     0.117 A 
HETATM   10  F1  UNL     1      -1.180   1.680   3.237  1.00  0.00    -0.206 F 
HETATM   11  C8  UNL     1      -1.150   0.465   1.233  1.00  0.00     0.058 A 
HETATM   12  C9  UNL     1      -1.916  -0.148   0.248  1.00  0.00     0.024 A 
HETATM   13  C10 UNL     1      -1.205  -0.763  -0.781  1.00  0.00     0.067 A 
ENDROOT
BRANCH  13  14
HETATM   14  N3  UNL     1       0.186  -0.822  -0.941  1.00  0.00    -0.363 N 
HETATM   15  H5  UNL     1       0.550  -1.804  -1.114  1.00  0.00     0.165 HD
BRANCH  14  16
HETATM   16  C11 UNL     1       1.097   0.265  -0.893  1.00  0.00     0.096 C 
HETATM   17  C12 UNL     1       2.370   0.213  -0.450  1.00  0.00    -0.036 C 
HETATM   18  C13 UNL     1       3.058   1.495  -0.527  1.00  0.00     0.032 C 
HETATM   19  C16 UNL     1       2.691  -1.154   0.015  1.00  0.00     0.083 C 
HETATM   20  C14 UNL     1       4.187   1.713   0.162  1.00  0.00     0.035 C 
HETATM   21 CL1  UNL     1       5.087   3.239   0.139  1.00  0.00    -0.084 Cl
HETATM   22  C15 UNL     1       4.836   0.642   0.941  1.00  0.00     0.035 C 
HETATM   23  P1  UNL     1       4.253  -0.912   1.026  1.00  0.00    -0.055 P 
ENDBRANCH  14  16
ENDBRANCH  13  14
TORSDOF 2
