REMARK  7 active torsions:
REMARK  status: ('A' for Active; 'I' for Inactive)
REMARK    1  A    between atoms: N1_2  and  C3_4 
REMARK    2  A    between atoms: C3_4  and  C4_5 
REMARK    3  A    between atoms: C4_5  and  C5_6 
REMARK    4  A    between atoms: C5_6  and  C6_7 
REMARK       I    between atoms: C6_7  and  N2_9 
REMARK    5  A    between atoms: N2_9  and  C7_10 
REMARK    6  A    between atoms: C13_18  and  N5_19 
REMARK    7  A    between atoms: N5_19  and  C14_20 
ROOT
HETATM    1  C7  UNL     1       0.016   0.327  -0.305  1.00  0.00     0.034 A 
HETATM    2  C8  UNL     1      -0.177   1.656  -0.195  1.00  0.00     0.034 A 
HETATM    3  C9  UNL     1      -1.473   1.908   0.390  1.00  0.00     0.168 A 
HETATM    4  N3  UNL     1      -1.612   2.787   1.512  1.00  0.00    -0.286 NA
HETATM    5  C10 UNL     1      -2.525   2.554   2.427  1.00  0.00     0.136 C 
HETATM    6  C11 UNL     1      -3.417   1.375   2.340  1.00  0.00     0.089 C 
HETATM    7  C12 UNL     1      -4.474   1.079   3.299  1.00  0.00     0.103 C 
HETATM    8  N4  UNL     1      -5.328   0.843   4.046  1.00  0.00    -0.191 NA
HETATM    9  C13 UNL     1      -3.375   0.420   1.363  1.00  0.00     0.064 C 
HETATM   10  C20 UNL     1      -2.039   0.594   0.698  1.00  0.00     0.001 A 
HETATM   11  C21 UNL     1      -1.149  -0.323   0.253  1.00  0.00     0.041 A 
ENDROOT
BRANCH   9  12
HETATM   12  N5  UNL     1      -4.067  -0.738   1.017  1.00  0.00    -0.354 N 
HETATM   13  H15 UNL     1      -3.923  -1.697   1.398  1.00  0.00     0.166 HD
BRANCH  12  14
HETATM   14  C14 UNL     1      -5.080  -0.524   0.022  1.00  0.00     0.034 A 
HETATM   15  C15 UNL     1      -5.174  -1.359  -1.080  1.00  0.00     0.032 A 
HETATM   16  C16 UNL     1      -6.117  -1.231  -2.080  1.00  0.00     0.046 A 
HETATM   17  C17 UNL     1      -7.041  -0.202  -1.987  1.00  0.00     0.138 A 
HETATM   18  F1  UNL     1      -7.991  -0.031  -2.943  1.00  0.00    -0.204 F 
HETATM   19  C18 UNL     1      -6.999   0.661  -0.912  1.00  0.00     0.074 A 
HETATM   20 CL1  UNL     1      -8.158   1.963  -0.772  1.00  0.00    -0.081 Cl
HETATM   21  C19 UNL     1      -6.029   0.474   0.049  1.00  0.00     0.056 A 
ENDBRANCH  12  14
ENDBRANCH   9  12
BRANCH   1  22
HETATM   22  N2  UNL     1       1.279   0.078  -0.884  1.00  0.00    -0.324 N 
HETATM   23  C6  UNL     1       2.156  -0.597   0.026  1.00  0.00     0.245 C 
HETATM   24  O1  UNL     1       1.429  -0.734   1.075  1.00  0.00    -0.268 OA
HETATM   25  H11 UNL     1       1.545   0.358  -1.878  1.00  0.00     0.169 HD
BRANCH  23  26
HETATM   26  C5  UNL     1       3.505  -0.932  -0.379  1.00  0.00     0.072 C 
BRANCH  26  27
HETATM   27  C4  UNL     1       4.611  -1.081  -1.060  1.00  0.00     0.008 C 
BRANCH  27  28
HETATM   28  C3  UNL     1       5.946  -1.670  -0.743  1.00  0.00     0.299 C 
BRANCH  28  29
HETATM   29  N1  UNL     1       6.993  -0.677  -0.895  1.00  0.00     0.083 N 
HETATM   30  C1  UNL     1       8.249  -1.267  -0.546  1.00  0.00     0.309 C 
HETATM   31  C2  UNL     1       6.717   0.492  -0.095  1.00  0.00     0.309 C 
ENDBRANCH  28  29
ENDBRANCH  27  28
ENDBRANCH  26  27
ENDBRANCH  23  26
ENDBRANCH   1  22
TORSDOF 7
