REMARK  6 active torsions:
REMARK  status: ('A' for Active; 'I' for Inactive)
REMARK    1  A    between atoms: C3_3  and  C4_4 
REMARK       I    between atoms: C4_4  and  N1_6 
REMARK    2  A    between atoms: N1_6  and  C5_7 
REMARK    3  A    between atoms: C8_10  and  N2_11 
REMARK    4  A    between atoms: N2_11  and  C9_12 
REMARK    5  A    between atoms: C20_27  and  O2_28 
REMARK    6  A    between atoms: O2_28  and  C21_29 
ROOT
HETATM    1  C5  UNL     1      -1.079  -0.451  -0.959  1.00  0.00     0.069 A 
HETATM    2  C6  UNL     1       0.294  -0.324  -0.944  1.00  0.00     0.048 A 
HETATM    3  C7  UNL     1       1.100  -1.401  -0.640  1.00  0.00     0.023 A 
HETATM    4  C8  UNL     1       2.482  -1.371  -0.600  1.00  0.00     0.067 A 
HETATM    5  C15 UNL     1       3.204  -2.507  -0.283  1.00  0.00     0.089 A 
HETATM    6  C16 UNL     1       4.638  -2.477  -0.242  1.00  0.00     0.103 C 
HETATM    7  N3  UNL     1       5.813  -2.437  -0.195  1.00  0.00    -0.191 NA
HETATM    8  C17 UNL     1       2.499  -3.683  -0.005  1.00  0.00     0.142 A 
HETATM    9  N4  UNL     1       1.137  -3.744  -0.036  1.00  0.00    -0.259 NA
HETATM   10  C18 UNL     1       0.488  -2.604  -0.352  1.00  0.00     0.071 A 
HETATM   11  C19 UNL     1      -0.887  -2.738  -0.365  1.00  0.00     0.071 A 
HETATM   12  C20 UNL     1      -1.706  -1.669  -0.668  1.00  0.00     0.097 A 
ENDROOT
BRANCH   4  13
HETATM   13  N2  UNL     1       3.121  -0.133  -0.896  1.00  0.00    -0.354 N 
HETATM   14  H8  UNL     1       3.422   0.180  -1.859  1.00  0.00     0.166 HD
BRANCH  13  15
HETATM   15  C9  UNL     1       3.388   0.773   0.166  1.00  0.00     0.034 A 
HETATM   16  C10 UNL     1       4.002   2.004  -0.007  1.00  0.00     0.032 A 
HETATM   17  C11 UNL     1       4.234   2.841   1.073  1.00  0.00     0.046 A 
HETATM   18  C12 UNL     1       3.859   2.470   2.348  1.00  0.00     0.138 A 
HETATM   19  F1  UNL     1       4.066   3.257   3.438  1.00  0.00    -0.204 F 
HETATM   20  C13 UNL     1       3.238   1.245   2.591  1.00  0.00     0.074 A 
HETATM   21 CL1  UNL     1       2.728   0.691   4.172  1.00  0.00    -0.081 Cl
HETATM   22  C14 UNL     1       3.041   0.467   1.467  1.00  0.00     0.056 A 
ENDBRANCH  13  15
ENDBRANCH   4  13
BRANCH   1  23
HETATM   23  N1  UNL     1      -1.769   0.767  -1.296  1.00  0.00    -0.321 N 
HETATM   24  C4  UNL     1      -2.035   1.493  -0.110  1.00  0.00     0.245 C 
HETATM   25  O1  UNL     1      -1.617   0.917   0.918  1.00  0.00    -0.268 OA
HETATM   26  H6  UNL     1      -2.079   1.160  -2.233  1.00  0.00     0.169 HD
BRANCH  24  27
HETATM   27  C3  UNL     1      -2.734   2.793  -0.120  1.00  0.00     0.070 C 
HETATM   28  C2  UNL     1      -3.208   3.469  -1.166  1.00  0.00    -0.026 C 
HETATM   29  C1  UNL     1      -3.889   4.769  -1.000  1.00  0.00     0.036 C 
ENDBRANCH  24  27
ENDBRANCH   1  23
BRANCH  12  30
HETATM   30  O2  UNL     1      -3.069  -1.583  -0.737  1.00  0.00    -0.349 OA
BRANCH  30  31
HETATM   31  C21 UNL     1      -3.977  -2.639  -0.496  1.00  0.00     0.171 C 
HETATM   32  C22 UNL     1      -3.892  -3.225   0.875  1.00  0.00     0.034 C 
ENDBRANCH  30  31
ENDBRANCH  12  30
TORSDOF 6
