REMARK  8 active torsions:
REMARK  status: ('A' for Active; 'I' for Inactive)
REMARK    1  A    between atoms: C3_3  and  C4_4 
REMARK    2  A    between atoms: C4_4  and  N1_5 
REMARK    3  A    between atoms: N1_5  and  C5_6 
REMARK    4  A    between atoms: C8_9  and  N2_10 
REMARK       I    between atoms: N2_10  and  C9_11 
REMARK    5  A    between atoms: C9_11  and  C10_13 
REMARK    6  A    between atoms: C11_14  and  C12_16 
REMARK    7  A    between atoms: C18_25  and  O2_26 
REMARK    8  A    between atoms: O2_26  and  C19_27 
ROOT
HETATM    1  C5  UNL     1      -1.003  -0.920   0.170  1.00  0.00     0.063 A 
HETATM    2  C6  UNL     1       0.101  -0.599  -0.586  1.00  0.00     0.048 A 
HETATM    3  C7  UNL     1       1.156  -1.495  -0.523  1.00  0.00     0.023 A 
HETATM    4  C8  UNL     1       2.328  -1.306  -1.226  1.00  0.00     0.070 A 
HETATM    5  C13 UNL     1       3.395  -2.180  -1.183  1.00  0.00     0.089 A 
HETATM    6  C14 UNL     1       4.588  -1.918  -1.944  1.00  0.00     0.103 C 
HETATM    7  N3  UNL     1       5.563  -1.712  -2.558  1.00  0.00    -0.191 NA
HETATM    8  C15 UNL     1       3.307  -3.316  -0.398  1.00  0.00     0.142 A 
HETATM    9  N4  UNL     1       2.163  -3.506   0.292  1.00  0.00    -0.259 NA
HETATM   10  C16 UNL     1       1.125  -2.642   0.242  1.00  0.00     0.071 A 
HETATM   11  C17 UNL     1       0.000  -2.923   0.981  1.00  0.00     0.071 A 
HETATM   12  C18 UNL     1      -1.077  -2.055   0.948  1.00  0.00     0.097 A 
ENDROOT
BRANCH   4  13
HETATM   13  N2  UNL     1       2.485  -0.144  -2.062  1.00  0.00    -0.321 N 
HETATM   14  C9  UNL     1       3.049   0.922  -1.310  1.00  0.00     0.247 C 
HETATM   15  O1  UNL     1       3.272   0.600  -0.115  1.00  0.00    -0.268 OA
HETATM   16  H10 UNL     1       2.251   0.001  -3.079  1.00  0.00     0.169 HD
BRANCH  14  17
HETATM   17  C10 UNL     1       3.330   2.235  -1.876  1.00  0.00     0.096 C 
HETATM   18  C11 UNL     1       3.846   3.323  -1.325  1.00  0.00     0.045 C 
HETATM   19 CL1  UNL     1       4.124   4.844  -2.156  1.00  0.00    -0.086 Cl
BRANCH  18  20
HETATM   20  C12 UNL     1       4.303   3.543   0.061  1.00  0.00     0.273 C 
HETATM   21  F1  UNL     1       3.558   4.574   0.604  1.00  0.00    -0.250 F 
ENDBRANCH  18  20
ENDBRANCH  14  17
ENDBRANCH   4  13
BRANCH   1  22
HETATM   22  N1  UNL     1      -2.092   0.018   0.096  1.00  0.00    -0.384 N 
HETATM   23  H8  UNL     1      -2.948  -0.191   0.656  1.00  0.00     0.160 HD
BRANCH  22  24
HETATM   24  C4  UNL     1      -2.131   1.234  -0.678  1.00  0.00     0.147 C 
BRANCH  24  25
HETATM   25  C3  UNL     1      -3.405   1.981  -0.535  1.00  0.00    -0.012 C 
HETATM   26  C2  UNL     1      -3.478   3.234  -0.066  1.00  0.00    -0.033 C 
HETATM   27  C1  UNL     1      -4.817   3.898   0.037  1.00  0.00     0.036 C 
ENDBRANCH  24  25
ENDBRANCH  22  24
ENDBRANCH   1  22
BRANCH  12  28
HETATM   28  O2  UNL     1      -2.250  -2.228   1.640  1.00  0.00    -0.349 OA
BRANCH  28  29
HETATM   29  C19 UNL     1      -2.353  -3.397   2.454  1.00  0.00     0.171 C 
HETATM   30  C20 UNL     1      -3.705  -3.427   3.143  1.00  0.00     0.034 C 
ENDBRANCH  28  29
ENDBRANCH  12  28
TORSDOF 8
