REMARK  4 active torsions:
REMARK  status: ('A' for Active; 'I' for Inactive)
REMARK    1  A    between atoms: O1_2  and  C2_3 
REMARK    2  A    between atoms: C2_3  and  C3_4 
REMARK    3  A    between atoms: C9_12  and  N3_13 
REMARK    4  A    between atoms: N3_13  and  C10_14 
ROOT
HETATM    1  C3  UNL     1       2.489  -0.997  -0.105  1.00  0.00    -0.050 A 
HETATM    2  C4  UNL     1       2.830  -0.513   1.080  1.00  0.00     0.037 A 
HETATM    3  C5  UNL     1       1.786   0.386   1.557  1.00  0.00     0.065 A 
HETATM    4  N1  UNL     1       1.641   1.129   2.691  1.00  0.00    -0.259 NA
HETATM    5  C6  UNL     1       0.549   1.893   2.885  1.00  0.00     0.142 A 
HETATM    6  C7  UNL     1      -0.458   1.932   1.917  1.00  0.00     0.089 A 
HETATM    7  C8  UNL     1      -1.629   2.739   2.106  1.00  0.00     0.103 C 
HETATM    8  N2  UNL     1      -2.591   3.385   2.252  1.00  0.00    -0.191 NA
HETATM    9  C9  UNL     1      -0.371   1.197   0.738  1.00  0.00     0.064 A 
HETATM   10  C16 UNL     1       0.779   0.424   0.587  1.00  0.00     0.003 A 
HETATM   11  C17 UNL     1       1.176  -0.460  -0.529  1.00  0.00     0.079 A 
ENDROOT
BRANCH   9  12
HETATM   12  N3  UNL     1      -1.346   1.196  -0.265  1.00  0.00    -0.354 N 
HETATM   13  H8  UNL     1      -1.076   1.957  -0.895  1.00  0.00     0.166 HD
BRANCH  12  14
HETATM   14  C10 UNL     1      -2.486   0.367  -0.450  1.00  0.00     0.033 A 
HETATM   15  C11 UNL     1      -3.266   0.623  -1.558  1.00  0.00     0.029 A 
HETATM   16  C12 UNL     1      -4.387  -0.152  -1.787  1.00  0.00     0.004 A 
HETATM   17  C13 UNL     1      -4.651  -1.159  -0.857  1.00  0.00     0.019 A 
HETATM   18  C14 UNL     1      -3.869  -1.418   0.255  1.00  0.00     0.013 A 
HETATM   19 BR1  UNL     1      -4.386  -2.832   1.410  1.00  0.00    -0.051 Br
HETATM   20  C15 UNL     1      -2.751  -0.628   0.464  1.00  0.00     0.048 A 
ENDBRANCH  12  14
ENDBRANCH   9  12
BRANCH   1  21
HETATM   21  C2  UNL     1       3.253  -1.953  -0.969  1.00  0.00     0.201 C 
BRANCH  21  22
HETATM   22  O1  UNL     1       3.559  -1.398  -2.207  1.00  0.00    -0.392 OA
HETATM   23  C1  UNL     1       4.332  -0.253  -2.120  1.00  0.00     0.201 C 
ENDBRANCH  21  22
ENDBRANCH   1  21
TORSDOF 4
