REMARK  5 active torsions:
REMARK  status: ('A' for Active; 'I' for Inactive)
REMARK    1  A    between atoms: C2_2  and  C3_3 
REMARK    2  A    between atoms: N1_6  and  C6_7 
REMARK    3  A    between atoms: N4_15  and  C12_16 
REMARK    4  A    between atoms: C13_18  and  C14_19 
REMARK    5  A    between atoms: C17_22  and  C18_23 
ROOT
HETATM    1  C6  UNL     1       0.068  -0.108  -2.257  1.00  0.00     0.090 A 
HETATM    2  C7  UNL     1       0.105  -0.147  -3.640  1.00  0.00     0.091 A 
HETATM    3  C8  UNL     1       1.314  -0.514  -4.317  1.00  0.00     0.103 C 
HETATM    4  N2  UNL     1       2.286  -0.829  -4.871  1.00  0.00    -0.191 NA
HETATM    5  C9  UNL     1      -1.022   0.166  -4.408  1.00  0.00     0.142 A 
HETATM    6  N3  UNL     1      -2.174   0.518  -3.768  1.00  0.00    -0.257 NA
HETATM    7  C10 UNL     1      -2.127   0.534  -2.405  1.00  0.00     0.085 A 
HETATM    8  C11 UNL     1      -1.070   0.238  -1.577  1.00  0.00     0.091 A 
HETATM    9  N4  UNL     1      -1.226   0.224  -0.166  1.00  0.00    -0.335 N 
HETATM   10  C16 UNL     1      -2.305   1.012   0.450  1.00  0.00     0.161 C 
HETATM   11  C17 UNL     1      -3.364   1.266  -0.517  1.00  0.00    -0.060 C 
HETATM   12  C20 UNL     1      -3.373   1.080  -1.854  1.00  0.00     0.038 C 
ENDROOT
BRANCH   1  13
HETATM   13  N1  UNL     1       1.274  -0.408  -1.571  1.00  0.00    -0.327 N 
HETATM   14  C5  UNL     1       1.831  -1.732  -1.680  1.00  0.00     0.109 C 
HETATM   15  C4  UNL     1       3.043  -1.870  -1.237  1.00  0.00     0.000 C 
HETATM   16  C3  UNL     1       3.592  -1.103  -0.341  1.00  0.00    -0.023 C 
HETATM   17  C22 UNL     1       3.061   0.248  -0.203  1.00  0.00     0.057 C 
HETATM   18  C21 UNL     1       1.938   0.612  -0.791  1.00  0.00     0.121 C 
HETATM   19 CL1  UNL     1       3.941   1.422   0.771  1.00  0.00    -0.082 Cl
BRANCH  16  20
HETATM   20  C2  UNL     1       4.714  -1.552   0.517  1.00  0.00     0.037 C 
HETATM   21  C1  UNL     1       4.386  -1.524   1.992  1.00  0.00     0.010 C 
ENDBRANCH  16  20
ENDBRANCH   1  13
BRANCH   9  22
HETATM   22  C12 UNL     1      -0.312  -0.624   0.496  1.00  0.00     0.218 A 
HETATM   23  O1  UNL     1      -0.553  -0.463   1.735  1.00  0.00    -0.343 OA
HETATM   24  C13 UNL     1       0.455  -1.355   1.522  1.00  0.00     0.190 A 
BRANCH  24  25
HETATM   25  C14 UNL     1       0.348  -1.308   2.833  1.00  0.00     0.022 C 
HETATM   26  C15 UNL     1      -0.293  -0.775   4.048  1.00  0.00     0.013 C 
ENDBRANCH  24  25
ENDBRANCH   9  22
BRANCH  11  27
HETATM   27  C18 UNL     1      -4.558   1.807   0.174  1.00  0.00     0.031 C 
HETATM   28  C19 UNL     1      -4.332   3.086   0.885  1.00  0.00     0.010 C 
ENDBRANCH  11  27
TORSDOF 5
