REMARK  7 active torsions:
REMARK  status: ('A' for Active; 'I' for Inactive)
REMARK    1  A    between atoms: C2_2  and  C3_3 
REMARK    2  A    between atoms: C6_7  and  O1_8 
REMARK       I    between atoms: N2_10  and  C8_11 
REMARK    3  A    between atoms: C8_11  and  C9_13 
REMARK    4  A    between atoms: C10_14  and  C11_15 
REMARK    5  A    between atoms: C11_15  and  O3_16 
REMARK    6  A    between atoms: C16_21  and  N3_22 
REMARK    7  A    between atoms: N3_22  and  C17_23 
ROOT
HETATM    1  C3  UNL     1       2.447   1.578  -0.269  1.00  0.00     0.180 A 
HETATM    2  N1  UNL     1       1.041   1.871  -0.063  1.00  0.00    -0.274 NA
HETATM    3  C4  UNL     1       0.077   1.069  -0.363  1.00  0.00     0.068 A 
HETATM    4  C5  UNL     1      -1.293   1.521  -0.089  1.00  0.00     0.088 A 
HETATM    5  C6  UNL     1      -2.302   0.692  -0.398  1.00  0.00     0.153 A 
HETATM    6  N2  UNL     1      -2.042  -0.583  -0.972  1.00  0.00    -0.261 N 
HETATM    7  C8  UNL     1      -3.103  -1.444  -1.291  1.00  0.00     0.308 C 
HETATM    8  O2  UNL     1      -2.894  -2.594  -1.808  1.00  0.00    -0.257 OA
HETATM    9  C13 UNL     1      -0.708  -1.005  -1.231  1.00  0.00     0.117 A 
HETATM   10  C14 UNL     1       0.336  -0.240  -0.952  1.00  0.00     0.011 A 
HETATM   11  C15 UNL     1       1.712  -0.637  -1.202  1.00  0.00     0.042 A 
HETATM   12  C16 UNL     1       2.668   0.245  -0.867  1.00  0.00     0.039 A 
ENDROOT
BRANCH  12  13
HETATM   13  N3  UNL     1       4.029  -0.115  -1.099  1.00  0.00    -0.357 N 
HETATM   14  H16 UNL     1       4.241  -0.363  -2.091  1.00  0.00     0.166 HD
BRANCH  13  15
HETATM   15  C17 UNL     1       5.064  -0.156  -0.121  1.00  0.00     0.033 A 
HETATM   16  C18 UNL     1       5.323  -1.302   0.604  1.00  0.00     0.029 A 
HETATM   17  C19 UNL     1       6.344  -1.252   1.530  1.00  0.00     0.004 A 
HETATM   18  C20 UNL     1       7.072  -0.094   1.713  1.00  0.00     0.019 A 
HETATM   19  C21 UNL     1       6.800   1.048   0.978  1.00  0.00     0.013 A 
HETATM   20 BR1  UNL     1       7.776   2.671   1.195  1.00  0.00    -0.051 Br
HETATM   21  C22 UNL     1       5.778   1.034   0.037  1.00  0.00     0.048 A 
ENDBRANCH  13  15
ENDBRANCH  12  13
BRANCH   1  22
HETATM   22  C2  UNL     1       3.118   1.654   1.064  1.00  0.00    -0.004 C 
HETATM   23  C1  UNL     1       2.735   0.604   1.815  1.00  0.00     0.009 C 
ENDBRANCH   1  22
BRANCH   5  24
HETATM   24  O1  UNL     1      -3.562   1.151  -0.127  1.00  0.00    -0.340 OA
HETATM   25  C7  UNL     1      -4.063   2.225  -0.906  1.00  0.00     0.211 C 
ENDBRANCH   5  24
BRANCH   7  26
HETATM   26  C9  UNL     1      -4.484  -1.121  -1.071  1.00  0.00    -0.003 C 
HETATM   27  C10 UNL     1      -5.655  -0.865  -0.896  1.00  0.00    -0.070 C 
BRANCH  27  28
HETATM   28  C11 UNL     1      -7.077  -0.534  -0.695  1.00  0.00     0.261 C 
BRANCH  28  29
HETATM   29  O3  UNL     1      -7.854  -1.666  -0.725  1.00  0.00    -0.384 OA
HETATM   30  C12 UNL     1      -7.551  -2.608   0.231  1.00  0.00     0.202 C 
ENDBRANCH  28  29
ENDBRANCH  27  28
ENDBRANCH   7  26
TORSDOF 7
