REMARK  8 active torsions:
REMARK  status: ('A' for Active; 'I' for Inactive)
REMARK    1  A    between atoms: C3_3  and  N1_4 
REMARK       I    between atoms: N1_4  and  C4_5 
REMARK    2  A    between atoms: C4_5  and  C5_7 
REMARK    3  A    between atoms: C6_8  and  C7_9 
REMARK    4  A    between atoms: C7_9  and  N2_10 
REMARK    5  A    between atoms: N2_10  and  C8_11 
REMARK    6  A    between atoms: N2_10  and  C11_14 
REMARK    7  A    between atoms: C8_11  and  C9_12 
REMARK    8  A    between atoms: C11_14  and  C12_15 
ROOT
HETATM    1  C1  UNL     1      -1.905   0.571  -0.397  1.00  0.00     0.026 C 
HETATM    2  C2  UNL     1      -2.581  -0.542  -0.165  1.00  0.00     0.017 C 
HETATM    3  C3  UNL     1      -1.736  -1.755  -0.286  1.00  0.00     0.045 C 
HETATM    4  C14 UNL     1      -2.029  -3.067  -0.358  1.00  0.00     0.031 C 
HETATM    5  C15 UNL     1      -3.318  -3.774  -0.338  1.00  0.00     0.021 C 
HETATM    6  C16 UNL     1      -4.472  -3.503   0.300  1.00  0.00     0.116 C 
HETATM    7  N3  UNL     1      -4.803  -2.427   1.172  1.00  0.00    -0.272 NA
HETATM    8  C17 UNL     1      -4.618  -1.136   1.124  1.00  0.00     0.151 C 
HETATM    9  C18 UNL     1      -3.984  -0.240   0.135  1.00  0.00     0.208 C 
HETATM   10  N4  UNL     1      -4.051   1.110   0.685  1.00  0.00    -0.258 NA
HETATM   11  C19 UNL     1      -4.872   2.108   0.669  1.00  0.00     0.115 C 
HETATM   12  C20 UNL     1      -6.164   2.392   0.084  1.00  0.00     0.034 C 
HETATM   13  C21 UNL     1      -7.107   1.731  -0.561  1.00  0.00    -0.005 C 
HETATM   14 BR1  UNL     1      -8.624   2.725  -1.082  1.00  0.00    -0.055 Br
HETATM   15  C22 UNL     1      -7.208   0.293  -0.974  1.00  0.00     0.093 C 
HETATM   16  C23 UNL     1      -5.873  -0.073  -1.567  1.00  0.00     0.092 C 
HETATM   17  N5  UNL     1      -4.698  -0.262  -1.121  1.00  0.00    -0.261 NA
ENDROOT
BRANCH   3  18
HETATM   18  N1  UNL     1      -0.364  -1.361  -0.331  1.00  0.00    -0.316 N 
HETATM   19  C4  UNL     1      -0.037  -0.676   0.898  1.00  0.00     0.301 C 
HETATM   20  O1  UNL     1      -0.829  -0.461   1.880  1.00  0.00    -0.258 OA
HETATM   21  H3  UNL     1       0.422  -1.446  -1.003  1.00  0.00     0.170 HD
BRANCH  19  22
HETATM   22  C5  UNL     1       1.276  -0.138   1.154  1.00  0.00    -0.004 C 
HETATM   23  C6  UNL     1       2.384   0.326   1.352  1.00  0.00    -0.077 C 
BRANCH  23  24
HETATM   24  C7  UNL     1       3.732   0.910   1.612  1.00  0.00     0.212 C 
BRANCH  24  25
HETATM   25  N2  UNL     1       4.622   0.347   0.683  1.00  0.00    -0.403 N 
BRANCH  25  26
HETATM   26  C8  UNL     1       5.951   0.746   0.591  1.00  0.00     0.117 C 
BRANCH  26  27
HETATM   27  C9  UNL     1       6.174   2.086  -0.015  1.00  0.00     0.015 C 
HETATM   28  C10 UNL     1       5.609   3.279   0.650  1.00  0.00     0.006 C 
ENDBRANCH  26  27
ENDBRANCH  25  26
BRANCH  25  29
HETATM   29  C11 UNL     1       4.016  -0.203  -0.492  1.00  0.00     0.117 C 
BRANCH  29  30
HETATM   30  C12 UNL     1       4.925  -0.846  -1.481  1.00  0.00     0.015 C 
HETATM   31  C13 UNL     1       5.699  -2.020  -0.967  1.00  0.00     0.006 C 
ENDBRANCH  29  30
ENDBRANCH  25  29
ENDBRANCH  24  25
ENDBRANCH  23  24
ENDBRANCH  19  22
ENDBRANCH   3  18
TORSDOF 8
