REMARK  6 active torsions:
REMARK  status: ('A' for Active; 'I' for Inactive)
REMARK    1  A    between atoms: C3_3  and  C4_4 
REMARK       I    between atoms: C4_4  and  N1_6 
REMARK    2  A    between atoms: N1_6  and  C5_7 
REMARK    3  A    between atoms: C10_13  and  C11_14 
REMARK    4  A    between atoms: C11_14  and  N3_15 
REMARK    5  A    between atoms: C12_16  and  N4_17 
REMARK    6  A    between atoms: N4_17  and  C13_18 
ROOT
HETATM    1  C5  UNL     1       1.871   0.991  -0.284  1.00  0.00     0.035 A 
HETATM    2  C6  UNL     1       2.232   2.278  -0.687  1.00  0.00     0.032 A 
HETATM    3  C7  UNL     1       1.273   3.136  -1.224  1.00  0.00     0.035 A 
HETATM    4  C8  UNL     1      -0.018   2.657  -1.333  1.00  0.00     0.069 A 
HETATM    5  N2  UNL     1      -0.994   3.427  -1.841  1.00  0.00    -0.260 NA
HETATM    6  C9  UNL     1      -2.275   3.041  -1.982  1.00  0.00     0.128 A 
HETATM    7  C10 UNL     1      -2.636   1.752  -1.578  1.00  0.00     0.015 A 
HETATM    8  C12 UNL     1      -1.686   0.904  -1.047  1.00  0.00     0.054 A 
HETATM    9  C19 UNL     1      -0.387   1.374  -0.934  1.00  0.00     0.022 A 
HETATM   10  C20 UNL     1       0.576   0.534  -0.402  1.00  0.00     0.045 A 
ENDROOT
BRANCH   8  11
HETATM   11  N4  UNL     1      -1.959  -0.400  -0.618  1.00  0.00    -0.355 N 
HETATM   12  H14 UNL     1      -1.811  -0.851  -1.552  1.00  0.00     0.166 HD
BRANCH  11  13
HETATM   13  C13 UNL     1      -2.318  -1.129   0.537  1.00  0.00     0.033 A 
HETATM   14  C14 UNL     1      -2.487  -2.493   0.415  1.00  0.00     0.029 A 
HETATM   15  C15 UNL     1      -2.830  -3.143   1.569  1.00  0.00     0.004 A 
HETATM   16  C16 UNL     1      -3.003  -2.504   2.788  1.00  0.00     0.019 A 
HETATM   17  C17 UNL     1      -2.819  -1.136   2.846  1.00  0.00     0.013 A 
HETATM   18 BR1  UNL     1      -3.074  -0.336   4.557  1.00  0.00    -0.051 Br
HETATM   19  C18 UNL     1      -2.469  -0.427   1.699  1.00  0.00     0.048 A 
ENDBRANCH  11  13
ENDBRANCH   8  11
BRANCH   7  20
HETATM   20  C11 UNL     1      -4.047   1.308  -1.724  1.00  0.00     0.309 C 
BRANCH  20  21
HETATM   21  N3  UNL     1      -4.692   1.346  -0.454  1.00  0.00     0.082 N 
HETATM   22  H12 UNL     1      -4.692   0.452   0.062  1.00  0.00     0.313 HD
HETATM   23  H13 UNL     1      -5.630   1.814  -0.483  1.00  0.00     0.313 HD
ENDBRANCH  20  21
ENDBRANCH   7  20
BRANCH   1  24
HETATM   24  N1  UNL     1       2.984   0.270   0.237  1.00  0.00    -0.324 N 
HETATM   25  C4  UNL     1       3.676  -0.459  -0.768  1.00  0.00     0.245 C 
HETATM   26  O1  UNL     1       3.349  -0.473  -1.979  1.00  0.00    -0.268 OA
HETATM   27  H6  UNL     1       3.262   0.275   1.244  1.00  0.00     0.169 HD
BRANCH  25  28
HETATM   28  C3  UNL     1       4.845  -1.257  -0.420  1.00  0.00     0.070 C 
HETATM   29  C2  UNL     1       5.439  -1.452   0.745  1.00  0.00    -0.026 C 
HETATM   30  C1  UNL     1       6.618  -2.237   1.189  1.00  0.00     0.036 C 
ENDBRANCH  25  28
ENDBRANCH   1  24
TORSDOF 6
