REMARK  5 active torsions:
REMARK  status: ('A' for Active; 'I' for Inactive)
REMARK    1  A    between atoms: C6_7  and  N2_8 
REMARK       I    between atoms: N2_8  and  C7_9 
REMARK    2  A    between atoms: C7_9  and  C8_11 
REMARK    3  A    between atoms: C9_12  and  C10_13 
REMARK    4  A    between atoms: C10_13  and  N3_14 
REMARK    5  A    between atoms: N4_18  and  C13_19 
ROOT
HETATM    1  N1  UNL     1      -5.130   0.649  -0.938  1.00  0.00    -0.191 NA
HETATM    2  C1  UNL     1      -4.071   1.146  -0.824  1.00  0.00     0.103 C 
HETATM    3  C2  UNL     1      -2.789   1.766  -0.706  1.00  0.00     0.089 C 
HETATM    4  C3  UNL     1      -1.669   1.122  -0.457  1.00  0.00     0.065 C 
HETATM    5  C4  UNL     1      -0.365   1.816  -0.362  1.00  0.00    -0.008 C 
HETATM    6  C5  UNL     1       0.829   1.269  -0.348  1.00  0.00     0.040 C 
HETATM    7  C6  UNL     1       1.217  -0.136  -0.421  1.00  0.00     0.034 C 
HETATM    8  C11 UNL     1       0.365  -1.109  -0.586  1.00  0.00     0.023 C 
HETATM    9  C12 UNL     1      -1.084  -1.356  -0.753  1.00  0.00     0.159 C 
HETATM   10  N4  UNL     1      -1.891  -0.264  -0.249  1.00  0.00    -0.342 N 
HETATM   11  C19 UNL     1      -0.287   3.294  -0.318  1.00  0.00     0.189 C 
HETATM   12  N5  UNL     1      -1.578   3.868  -0.608  1.00  0.00    -0.295 NA
HETATM   13  C20 UNL     1      -2.675   3.219  -0.777  1.00  0.00     0.135 C 
ENDROOT
BRANCH  10  14
HETATM   14  C13 UNL     1      -3.034  -0.585   0.593  1.00  0.00     0.036 A 
HETATM   15  C14 UNL     1      -3.662  -1.818   0.312  1.00  0.00     0.030 A 
HETATM   16  C15 UNL     1      -4.705  -2.283   1.089  1.00  0.00     0.004 A 
HETATM   17  C16 UNL     1      -5.145  -1.532   2.160  1.00  0.00     0.019 A 
HETATM   18  C17 UNL     1      -4.534  -0.336   2.431  1.00  0.00     0.013 A 
HETATM   19 BR1  UNL     1      -5.047   0.796   3.882  1.00  0.00    -0.051 Br
HETATM   20  C18 UNL     1      -3.493   0.174   1.691  1.00  0.00     0.048 A 
ENDBRANCH  10  14
BRANCH   7  21
HETATM   21  N2  UNL     1       2.611  -0.315  -0.292  1.00  0.00    -0.317 N 
HETATM   22  C7  UNL     1       3.460  -1.423  -0.291  1.00  0.00     0.301 C 
HETATM   23  O1  UNL     1       2.927  -2.543  -0.433  1.00  0.00    -0.258 OA
HETATM   24  H2  UNL     1       3.227   0.540  -0.162  1.00  0.00     0.170 HD
BRANCH  22  25
HETATM   25  C8  UNL     1       4.881  -1.427  -0.146  1.00  0.00    -0.004 C 
HETATM   26  C9  UNL     1       6.077  -1.409  -0.021  1.00  0.00    -0.081 C 
BRANCH  26  27
HETATM   27  C10 UNL     1       7.520  -1.372   0.123  1.00  0.00     0.199 C 
BRANCH  27  28
HETATM   28  N3  UNL     1       8.053  -0.012   0.011  1.00  0.00    -0.226 NA
HETATM   29 CL1  UNL     1       7.597   0.555  -1.581  1.00  0.00    -0.024 Cl
HETATM   30  H5  UNL     1       7.504   0.564   0.709  1.00  0.00     0.141 HD
ENDBRANCH  27  28
ENDBRANCH  26  27
ENDBRANCH  22  25
ENDBRANCH   7  21
TORSDOF 5
