REMARK  3 active torsions:
REMARK  status: ('A' for Active; 'I' for Inactive)
REMARK    1  A    between atoms: C2_2  and  O1_3 
REMARK    2  A    between atoms: C2_2  and  C4_6 
REMARK    3  A    between atoms: O1_3  and  C3_4 
ROOT
HETATM    1  C4  UNL     1      -1.955  -0.750   0.226  1.00  0.00    -0.010 C 
HETATM    2  C5  UNL     1      -1.051  -0.565   1.229  1.00  0.00    -0.007 C 
HETATM    3  C6  UNL     1       0.334  -0.721   1.711  1.00  0.00     0.117 C 
HETATM    4  C7  UNL     1       1.404  -1.303   1.143  1.00  0.00     0.041 C 
HETATM    5  C8  UNL     1       2.533  -2.010   0.365  1.00  0.00     0.018 C 
HETATM    6  C9  UNL     1       2.669  -1.835  -0.973  1.00  0.00     0.115 C 
HETATM    7  N1  UNL     1       2.380  -0.666  -1.809  1.00  0.00    -0.261 NA
HETATM    8  C10 UNL     1       1.504   0.298  -1.484  1.00  0.00     0.068 C 
HETATM    9  C11 UNL     1       0.135   0.360  -2.114  1.00  0.00     0.030 C 
HETATM   10  C12 UNL     1      -1.101  -0.202  -1.999  1.00  0.00    -0.001 C 
HETATM   11  C13 UNL     1      -1.130  -1.212  -0.913  1.00  0.00     0.150 C 
HETATM   12  C14 UNL     1      -1.826  -2.464  -1.369  1.00  0.00     0.072 C 
HETATM   13  N2  UNL     1      -2.387  -3.437  -1.716  1.00  0.00    -0.196 NA
HETATM   14  C15 UNL     1       2.023   1.267  -0.436  1.00  0.00     0.019 A 
HETATM   15  C16 UNL     1       2.280   2.492  -0.980  1.00  0.00     0.017 A 
HETATM   16  C17 UNL     1       2.762   3.480  -0.163  1.00  0.00     0.020 A 
HETATM   17  C18 UNL     1       2.994   3.283   1.175  1.00  0.00     0.013 A 
HETATM   18 BR1  UNL     1       3.666   4.663   2.303  1.00  0.00    -0.051 Br
HETATM   19  C19 UNL     1       2.747   2.063   1.762  1.00  0.00     0.049 A 
HETATM   20  C20 UNL     1       2.264   1.056   0.971  1.00  0.00     0.042 A 
HETATM   21  N3  UNL     1       2.080  -0.158   1.862  1.00  0.00    -0.380 N 
HETATM   22  H14 UNL     1       2.477   0.116   2.764  1.00  0.00     0.160 HD
ENDROOT
BRANCH   1  23
HETATM   23  C2  UNL     1      -3.358  -0.447   0.128  1.00  0.00     0.064 C 
HETATM   24  C1  UNL     1      -3.889  -0.784  -1.020  1.00  0.00     0.072 C 
BRANCH  23  25
HETATM   25  O1  UNL     1      -4.103   0.137   1.120  1.00  0.00    -0.290 OA
BRANCH  25  26
HETATM   26  C3  UNL     1      -5.197  -0.495   1.671  1.00  0.00     0.403 C 
HETATM   27  O2  UNL     1      -5.837  -1.577   1.561  1.00  0.00    -0.276 OA
ENDBRANCH  25  26
ENDBRANCH  23  25
ENDBRANCH   1  23
TORSDOF 3
