REMARK  7 active torsions:
REMARK  status: ('A' for Active; 'I' for Inactive)
REMARK    1  A    between atoms: C2_2  and  C3_3 
REMARK    2  A    between atoms: C3_3  and  C6_7 
REMARK    3  A    between atoms: C4_4  and  C5_5 
REMARK    4  A    between atoms: C5_5  and  N1_6 
REMARK    5  A    between atoms: C11_14  and  N4_15 
REMARK       I    between atoms: N4_15  and  C12_16 
REMARK       I    between atoms: C12_16  and  N5_18 
REMARK    6  A    between atoms: N5_18  and  C14_20 
REMARK    7  A    between atoms: C14_20  and  C15_21 
ROOT
HETATM    1  C6  UNL     1      -2.719   0.926  -0.211  1.00  0.00     0.080 A 
HETATM    2  N2  UNL     1      -3.812   1.709  -0.235  1.00  0.00    -0.240 NA
HETATM    3  C7  UNL     1      -3.807   3.030  -0.108  1.00  0.00     0.234 A 
HETATM    4  N3  UNL     1      -2.625   3.617   0.057  1.00  0.00    -0.241 NA
HETATM    5  C8  UNL     1      -1.460   2.997   0.104  1.00  0.00     0.070 A 
HETATM    6  C9  UNL     1      -0.259   3.648   0.284  1.00  0.00     0.035 A 
HETATM    7  C10 UNL     1       0.849   2.828   0.314  1.00  0.00     0.032 A 
HETATM    8  C11 UNL     1       0.831   1.457   0.181  1.00  0.00     0.037 A 
HETATM    9  C16 UNL     1      -0.400   0.897   0.007  1.00  0.00     0.045 A 
HETATM   10  C17 UNL     1      -1.556   1.633  -0.036  1.00  0.00     0.025 A 
ENDROOT
BRANCH   8  11
HETATM   11  N4  UNL     1       1.971   0.631   0.219  1.00  0.00    -0.309 N 
HETATM   12  C12 UNL     1       3.340   0.919   0.401  1.00  0.00     0.322 C 
HETATM   13  O1  UNL     1       3.630   2.128   0.562  1.00  0.00    -0.247 OA
HETATM   14  N5  UNL     1       4.407  -0.016   0.419  1.00  0.00    -0.337 N 
HETATM   15  C13 UNL     1       5.629   0.739   0.636  1.00  0.00     0.154 C 
HETATM   16  H12 UNL     1       1.864  -0.415   0.096  1.00  0.00     0.170 HD
BRANCH  14  17
HETATM   17  C14 UNL     1       4.226  -1.445   0.244  1.00  0.00     0.142 C 
BRANCH  17  18
HETATM   18  C15 UNL     1       4.313  -1.843  -1.216  1.00  0.00     0.134 C 
HETATM   19 CL1  UNL     1       4.077  -3.605  -1.299  1.00  0.00    -0.129 Cl
ENDBRANCH  17  18
ENDBRANCH  14  17
ENDBRANCH   8  11
BRANCH   1  20
HETATM   20  C3  UNL     1      -2.745  -0.503  -0.342  1.00  0.00    -0.012 C 
HETATM   21  C4  UNL     1      -2.246  -1.699  -0.432  1.00  0.00     0.016 C 
BRANCH  20  22
HETATM   22  C2  UNL     1      -4.111  -0.983  -0.395  1.00  0.00     0.004 C 
HETATM   23  C1  UNL     1      -5.244  -0.226  -0.348  1.00  0.00     0.014 C 
ENDBRANCH  20  22
BRANCH  21  24
HETATM   24  C5  UNL     1      -2.855  -3.022  -0.543  1.00  0.00     0.295 C 
BRANCH  24  25
HETATM   25  N1  UNL     1      -2.509  -3.933   0.543  1.00  0.00     0.081 N 
HETATM   26  H7  UNL     1      -3.220  -4.683   0.572  1.00  0.00     0.313 HD
HETATM   27  H8  UNL     1      -2.457  -3.403   1.436  1.00  0.00     0.313 HD
ENDBRANCH  24  25
ENDBRANCH  21  24
ENDBRANCH   1  20
TORSDOF 7
