REMARK  5 active torsions:
REMARK  status: ('A' for Active; 'I' for Inactive)
REMARK    1  A    between atoms: C2_2  and  C3_4 
REMARK    2  A    between atoms: C3_4  and  P1_5 
REMARK    3  A    between atoms: P1_5  and  C4_6 
REMARK    4  A    between atoms: C7_9  and  N1_10 
REMARK    5  A    between atoms: N1_10  and  C8_11 
ROOT
HETATM    1  C4  UNL     1       1.409  -1.087  -0.356  1.00  0.00    -0.027 A 
HETATM    2  C5  UNL     1       0.298  -0.314  -0.008  1.00  0.00     0.028 A 
HETATM    3  C6  UNL     1      -0.402  -0.649   1.137  1.00  0.00     0.022 A 
HETATM    4  C7  UNL     1      -1.501   0.162   1.429  1.00  0.00     0.067 A 
HETATM    5  C14 UNL     1      -2.222  -0.160   2.584  1.00  0.00     0.089 A 
HETATM    6  C15 UNL     1      -3.377   0.618   2.975  1.00  0.00     0.103 C 
HETATM    7  N2  UNL     1      -4.308   1.240   3.271  1.00  0.00    -0.191 NA
HETATM    8  C16 UNL     1      -1.827  -1.237   3.362  1.00  0.00     0.142 A 
HETATM    9  N3  UNL     1      -0.752  -2.010   3.051  1.00  0.00    -0.259 NA
HETATM   10  C17 UNL     1      -0.052  -1.717   1.953  1.00  0.00     0.069 A 
HETATM   11  C18 UNL     1       1.056  -2.462   1.577  1.00  0.00     0.040 A 
HETATM   12  C19 UNL     1       1.792  -2.157   0.426  1.00  0.00    -0.049 A 
HETATM   13  C20 UNL     1       2.958  -2.998   0.094  1.00  0.00     0.049 C 
ENDROOT
BRANCH   4  14
HETATM   14  N1  UNL     1      -1.931   1.259   0.668  1.00  0.00    -0.354 N 
HETATM   15  H8  UNL     1      -1.505   2.172   0.941  1.00  0.00     0.166 HD
BRANCH  14  16
HETATM   16  C8  UNL     1      -2.870   1.164  -0.397  1.00  0.00     0.033 A 
HETATM   17  C9  UNL     1      -3.395  -0.074  -0.708  1.00  0.00     0.029 A 
HETATM   18  C10 UNL     1      -4.311  -0.196  -1.740  1.00  0.00     0.004 A 
HETATM   19  C11 UNL     1      -4.663   0.962  -2.426  1.00  0.00     0.019 A 
HETATM   20  C12 UNL     1      -4.135   2.195  -2.111  1.00  0.00     0.013 A 
HETATM   21 BR1  UNL     1      -4.619   3.782  -3.052  1.00  0.00    -0.051 Br
HETATM   22  C13 UNL     1      -3.217   2.316  -1.076  1.00  0.00     0.048 A 
ENDBRANCH  14  16
ENDBRANCH   4  14
BRANCH   1  23
HETATM   23  P1  UNL     1       2.394  -0.719  -1.851  1.00  0.00    -0.087 P 
HETATM   24  H6  UNL     1       1.701   0.192  -2.743  1.00  0.00     0.063 HD
BRANCH  23  25
HETATM   25  C3  UNL     1       4.002   0.062  -1.398  1.00  0.00     0.114 C 
BRANCH  25  26
HETATM   26  C2  UNL     1       3.798   1.329  -0.648  1.00  0.00     0.127 C 
HETATM   27  C1  UNL     1       5.058   2.023  -0.244  1.00  0.00     0.091 C 
HETATM   28  O1  UNL     1       2.603   1.605  -0.479  1.00  0.00    -0.298 OA
ENDBRANCH  25  26
ENDBRANCH  23  25
ENDBRANCH   1  23
TORSDOF 5
