REMARK  4 active torsions:
REMARK  status: ('A' for Active; 'I' for Inactive)
REMARK    1  A    between atoms: C2_2  and  C3_3 
REMARK    2  A    between atoms: C7_7  and  N1_8 
REMARK    3  A    between atoms: C12_14  and  N3_15 
REMARK       I    between atoms: N3_15  and  C13_16 
REMARK    4  A    between atoms: C13_16  and  C14_18 
ROOT
HETATM    1  C3  UNL     1      -3.134  -1.682  -1.289  1.00  0.00     0.035 C 
HETATM    2  C4  UNL     1      -2.803  -0.431  -1.025  1.00  0.00     0.151 A 
HETATM    3  C5  UNL     1      -3.191   1.020  -0.880  1.00  0.00     0.347 A 
HETATM    4  C6  UNL     1      -2.479   0.853   0.412  1.00  0.00     0.179 A 
HETATM    5  C7  UNL     1      -2.459   0.988   1.709  1.00  0.00     0.078 C 
HETATM    6  C9  UNL     1      -1.314   0.553   2.459  1.00  0.00     0.141 C 
HETATM    7  N2  UNL     1      -0.366   0.018   1.730  1.00  0.00    -0.296 NA
HETATM    8  C10 UNL     1       0.855  -0.460   2.370  1.00  0.00     0.177 C 
HETATM    9  C11 UNL     1       1.922  -0.344   1.310  1.00  0.00     0.020 C 
HETATM   10  C12 UNL     1       1.976  -0.029   0.001  1.00  0.00     0.017 C 
HETATM   11  C17 UNL     1       0.551   0.161  -0.343  1.00  0.00     0.081 C 
HETATM   12  C18 UNL     1      -0.345   0.471  -1.304  1.00  0.00     0.246 C 
HETATM   13  N4  UNL     1      -1.647   0.389  -0.657  1.00  0.00     0.007 N 
ENDROOT
BRANCH  10  14
HETATM   14  N3  UNL     1       3.346  -0.084  -0.473  1.00  0.00    -0.327 N 
HETATM   15  C13 UNL     1       3.771  -0.944  -1.496  1.00  0.00     0.245 C 
HETATM   16  O1  UNL     1       2.785  -1.607  -1.885  1.00  0.00    -0.268 OA
HETATM   17  H15 UNL     1       3.978   0.576   0.016  1.00  0.00     0.169 HD
BRANCH  15  18
HETATM   18  C14 UNL     1       5.125  -1.040  -2.006  1.00  0.00     0.070 C 
HETATM   19  C15 UNL     1       6.272  -0.445  -1.735  1.00  0.00    -0.026 C 
HETATM   20  C16 UNL     1       6.953   0.544  -0.912  1.00  0.00     0.036 C 
ENDBRANCH  15  18
ENDBRANCH  10  14
BRANCH   5  21
HETATM   21  N1  UNL     1      -3.658   1.569   2.203  1.00  0.00    -0.391 N 
HETATM   22  C8  UNL     1      -3.838   2.862   2.830  1.00  0.00     0.146 C 
HETATM   23  H7  UNL     1      -4.545   1.027   2.123  1.00  0.00     0.159 HD
ENDBRANCH   5  21
BRANCH   1  24
HETATM   24  C2  UNL     1      -4.517  -1.978  -1.624  1.00  0.00    -0.008 C 
HETATM   25  C1  UNL     1      -4.799  -3.247  -1.881  1.00  0.00     0.011 C 
ENDBRANCH   1  24
TORSDOF 4
