REMARK  6 active torsions:
REMARK  status: ('A' for Active; 'I' for Inactive)
REMARK    1  A    between atoms: C3_3  and  C4_4 
REMARK       I    between atoms: C4_4  and  N1_6 
REMARK    2  A    between atoms: N1_6  and  C5_7 
REMARK    3  A    between atoms: C6_8  and  C7_10 
REMARK    4  A    between atoms: C7_10  and  C8_11 
REMARK    5  A    between atoms: C8_11  and  N2_12 
REMARK    6  A    between atoms: N2_12  and  C9_13 
ROOT
HETATM    1  C9  UNL     1      -3.067  -0.882  -0.270  1.00  0.00     0.067 A 
HETATM    2  C10 UNL     1      -2.908  -1.289  -1.600  1.00  0.00     0.089 A 
HETATM    3  C11 UNL     1      -1.741  -2.020  -2.052  1.00  0.00     0.103 C 
HETATM    4  N3  UNL     1      -0.802  -2.594  -2.399  1.00  0.00    -0.191 NA
HETATM    5  C12 UNL     1      -3.949  -0.948  -2.453  1.00  0.00     0.142 A 
HETATM    6  N4  UNL     1      -5.039  -0.268  -2.018  1.00  0.00    -0.259 NA
HETATM    7  C13 UNL     1      -5.140   0.100  -0.724  1.00  0.00     0.069 A 
HETATM    8  C14 UNL     1      -6.269   0.788  -0.304  1.00  0.00     0.032 A 
HETATM    9  C15 UNL     1      -6.381   1.159   1.018  1.00  0.00     0.002 A 
HETATM   10  C16 UNL     1      -5.379   0.848   1.913  1.00  0.00     0.001 A 
HETATM   11  C17 UNL     1      -4.232   0.165   1.547  1.00  0.00     0.016 A 
HETATM   12  C18 UNL     1      -4.159  -0.192   0.201  1.00  0.00     0.021 A 
ENDROOT
BRANCH   1  13
HETATM   13  N2  UNL     1      -1.974  -1.269   0.576  1.00  0.00    -0.364 N 
HETATM   14  H10 UNL     1      -2.183  -2.069   1.240  1.00  0.00     0.165 HD
BRANCH  13  15
HETATM   15  C8  UNL     1      -0.686  -0.705   0.602  1.00  0.00     0.090 C 
BRANCH  15  16
HETATM   16  C7  UNL     1       0.593  -0.505   0.444  1.00  0.00     0.037 C 
BRANCH  16  17
HETATM   17  C6  UNL     1       1.201   0.739   0.961  1.00  0.00     0.027 C 
HETATM   18  C5  UNL     1       2.475   1.005   0.850  1.00  0.00     0.110 C 
HETATM   19 BR1  UNL     1       0.051   2.001   1.813  1.00  0.00    -0.050 Br
BRANCH  18  20
HETATM   20  N1  UNL     1       3.387   0.084   0.216  1.00  0.00    -0.332 N 
HETATM   21  C4  UNL     1       4.778   0.318   0.063  1.00  0.00     0.244 C 
HETATM   22  O1  UNL     1       5.072   1.435   0.559  1.00  0.00    -0.268 OA
HETATM   23  H6  UNL     1       2.964  -0.817  -0.152  1.00  0.00     0.168 HD
BRANCH  21  24
HETATM   24  C3  UNL     1       5.676  -0.631  -0.575  1.00  0.00     0.070 C 
HETATM   25  C2  UNL     1       6.966  -0.413  -0.704  1.00  0.00    -0.026 C 
HETATM   26  C1  UNL     1       7.892   0.680  -0.333  1.00  0.00     0.036 C 
ENDBRANCH  21  24
ENDBRANCH  18  20
ENDBRANCH  16  17
ENDBRANCH  15  16
ENDBRANCH  13  15
ENDBRANCH   1  13
TORSDOF 6
