REMARK  6 active torsions:
REMARK  status: ('A' for Active; 'I' for Inactive)
REMARK    1  A    between atoms: C3_3  and  N4_22 
REMARK    2  A    between atoms: C4_4  and  C5_5 
REMARK    3  A    between atoms: C8_9  and  C9_10 
REMARK    4  A    between atoms: C11_13  and  N3_14 
REMARK    5  A    between atoms: N3_14  and  C12_15 
REMARK       I    between atoms: N4_22  and  C18_23 
REMARK    6  A    between atoms: C18_23  and  C19_25 
ROOT
HETATM    1  C1  UNL     1       3.188  -0.433  -2.673  1.00  0.00     0.099 C 
HETATM    2  C2  UNL     1       2.681  -0.390  -1.466  1.00  0.00    -0.126 C 
HETATM    3  C3  UNL     1       2.181  -0.218  -0.252  1.00  0.00     0.077 C 
HETATM    4  C4  UNL     1       0.868   0.320  -0.150  1.00  0.00     0.049 C 
ENDROOT
BRANCH   3   5
HETATM    5  N4  UNL     1       3.062  -0.609   0.783  1.00  0.00    -0.317 N 
HETATM    6  C18 UNL     1       4.344  -1.131   0.535  1.00  0.00     0.245 C 
HETATM    7  O1  UNL     1       4.805  -1.289  -0.622  1.00  0.00    -0.268 OA
HETATM    8  H14 UNL     1       2.713  -0.493   1.772  1.00  0.00     0.170 HD
BRANCH   6   9
HETATM    9  C19 UNL     1       5.154  -1.497   1.689  1.00  0.00     0.064 C 
HETATM   10  C20 UNL     1       6.369  -1.994   1.523  1.00  0.00     0.017 C 
ENDBRANCH   6   9
ENDBRANCH   3   5
BRANCH   4  11
HETATM   11  C5  UNL     1      -0.034   0.715  -0.998  1.00  0.00    -0.008 A 
HETATM   12  C6  UNL     1       0.127   0.690  -2.460  1.00  0.00     0.189 A 
HETATM   13  N1  UNL     1      -1.006   1.173  -3.190  1.00  0.00    -0.296 NA
HETATM   14  C7  UNL     1      -2.098   1.606  -2.684  1.00  0.00     0.121 A 
HETATM   15  C8  UNL     1      -2.287   1.645  -1.242  1.00  0.00    -0.001 A 
HETATM   16  C11 UNL     1      -1.298   1.220  -0.504  1.00  0.00     0.049 A 
BRANCH  15  17
HETATM   17  C9  UNL     1      -3.563   2.154  -0.710  1.00  0.00     0.166 C 
HETATM   18  C10 UNL     1      -3.769   3.528  -1.136  1.00  0.00     0.063 C 
HETATM   19  N2  UNL     1      -3.925   4.622  -1.492  1.00  0.00    -0.197 NA
ENDBRANCH  15  17
BRANCH  16  20
HETATM   20  N3  UNL     1      -1.555   1.288   0.905  1.00  0.00    -0.355 N 
HETATM   21  H9  UNL     1      -1.337   2.132   1.493  1.00  0.00     0.166 HD
BRANCH  20  22
HETATM   22  C12 UNL     1      -2.132   0.179   1.585  1.00  0.00     0.033 A 
HETATM   23  C13 UNL     1      -2.411   0.162   2.938  1.00  0.00     0.029 A 
HETATM   24  C14 UNL     1      -2.972  -0.950   3.530  1.00  0.00     0.004 A 
HETATM   25  C15 UNL     1      -3.281  -2.087   2.815  1.00  0.00     0.019 A 
HETATM   26  C16 UNL     1      -3.012  -2.100   1.456  1.00  0.00     0.013 A 
HETATM   27 BR1  UNL     1      -3.386  -3.601   0.349  1.00  0.00    -0.051 Br
HETATM   28  C17 UNL     1      -2.457  -0.985   0.899  1.00  0.00     0.048 A 
ENDBRANCH  20  22
ENDBRANCH  16  20
ENDBRANCH   4  11
TORSDOF 6
