REMARK  5 active torsions:
REMARK  status: ('A' for Active; 'I' for Inactive)
REMARK    1  A    between atoms: C3_3  and  C4_4 
REMARK       I    between atoms: C4_4  and  N1_6 
REMARK    2  A    between atoms: N1_6  and  C5_7 
REMARK    3  A    between atoms: C11_13  and  C13_16 
REMARK    4  A    between atoms: C14_17  and  C15_18 
REMARK    5  A    between atoms: C16_20  and  N3_21 
ROOT
HETATM    1  C5  UNL     1       0.993  -0.135  -0.803  1.00  0.00     0.035 A 
HETATM    2  C6  UNL     1       0.897   0.237  -2.129  1.00  0.00     0.032 A 
HETATM    3  C7  UNL     1      -0.322   0.198  -2.766  1.00  0.00     0.034 A 
HETATM    4  C8  UNL     1      -1.467  -0.208  -2.110  1.00  0.00     0.067 A 
HETATM    5  C9  UNL     1      -1.321  -0.571  -0.787  1.00  0.00     0.007 A 
HETATM    6  C10 UNL     1      -0.132  -0.554  -0.091  1.00  0.00     0.041 A 
HETATM    7  C11 UNL     1      -2.647  -0.979  -0.237  1.00  0.00     0.155 A 
HETATM    8  C12 UNL     1      -2.672  -2.330   0.262  1.00  0.00     0.086 C 
HETATM    9  N2  UNL     1      -2.698  -3.407   0.661  1.00  0.00    -0.195 NA
HETATM   10  C16 UNL     1      -3.514  -0.786  -1.440  1.00  0.00     0.130 A 
HETATM   11  N4  UNL     1      -2.855  -0.361  -2.466  1.00  0.00    -0.233 NA
ENDROOT
BRANCH   7  12
HETATM   12  C13 UNL     1      -3.120  -0.031   0.808  1.00  0.00     0.009 C 
HETATM   13  C14 UNL     1      -2.775   1.260   0.739  1.00  0.00     0.002 C 
BRANCH  13  14
HETATM   14  C15 UNL     1      -3.142   2.368   1.680  1.00  0.00     0.249 C 
HETATM   15  F1  UNL     1      -3.931   1.911   2.709  1.00  0.00    -0.251 F 
ENDBRANCH  13  14
ENDBRANCH   7  12
BRANCH  10  16
HETATM   16  N3  UNL     1      -4.907  -1.071  -1.350  1.00  0.00    -0.385 N 
HETATM   17  H14 UNL     1      -5.796  -0.521  -1.422  1.00  0.00     0.157 HD
HETATM   18  H15 UNL     1      -5.204  -2.071  -1.163  1.00  0.00     0.157 HD
ENDBRANCH  10  16
BRANCH   1  19
HETATM   19  N1  UNL     1       2.269  -0.083  -0.177  1.00  0.00    -0.324 N 
HETATM   20  C4  UNL     1       2.999   0.902   0.546  1.00  0.00     0.245 C 
HETATM   21  O1  UNL     1       2.381   1.989   0.669  1.00  0.00    -0.268 OA
HETATM   22  H6  UNL     1       2.583  -1.053  -0.399  1.00  0.00     0.169 HD
BRANCH  20  23
HETATM   23  C3  UNL     1       4.316   0.542   1.033  1.00  0.00     0.070 C 
HETATM   24  C2  UNL     1       4.946  -0.600   0.896  1.00  0.00    -0.026 C 
HETATM   25  C1  UNL     1       6.303  -0.761   1.478  1.00  0.00     0.036 C 
ENDBRANCH  20  23
ENDBRANCH   1  19
TORSDOF 5
