REMARK  5 active torsions:
REMARK  status: ('A' for Active; 'I' for Inactive)
REMARK    1  A    between atoms: C2_3  and  O1_4 
REMARK    2  A    between atoms: O1_4  and  C3_5 
REMARK    3  A    between atoms: C3_5  and  N2_6 
REMARK    4  A    between atoms: N2_6  and  C4_7 
REMARK    5  A    between atoms: C4_7  and  C5_8 
ROOT
HETATM    1  N1  UNL     1      -1.244   4.066  -0.910  1.00  0.00    -0.195 NA
HETATM    2  C1  UNL     1      -1.866   3.092  -0.878  1.00  0.00     0.085 C 
HETATM    3  C2  UNL     1      -2.671   1.878  -0.846  1.00  0.00     0.295 C 
ENDROOT
BRANCH   3   4
HETATM    4  O1  UNL     1      -2.077   0.720  -1.096  1.00  0.00    -0.335 OA
BRANCH   4   5
HETATM    5  C3  UNL     1      -1.037   0.210  -0.380  1.00  0.00     0.285 C 
HETATM    6  C6  UNL     1      -0.868  -1.257  -0.412  1.00  0.00     0.078 C 
HETATM    7  C7  UNL     1      -1.607  -1.785  -1.405  1.00  0.00     0.086 C 
HETATM    8  N3  UNL     1      -1.300  -1.206  -2.544  1.00  0.00    -0.259 NA
HETATM    9  C8  UNL     1       0.051  -0.673  -2.347  1.00  0.00     0.115 C 
HETATM   10  C9  UNL     1       1.011  -1.609  -2.103  1.00  0.00     0.012 C 
HETATM   11  C10 UNL     1       2.470  -1.738  -1.819  1.00  0.00     0.148 C 
HETATM   12  N4  UNL     1       2.860  -0.320  -1.604  1.00  0.00    -0.386 N 
HETATM   13  C11 UNL     1       2.354   0.045  -0.274  1.00  0.00     0.036 A 
HETATM   14  H12 UNL     1       3.330   0.501  -1.968  1.00  0.00     0.160 HD
HETATM   15  C12 UNL     1       3.500  -0.388   0.436  1.00  0.00     0.033 A 
HETATM   16  C16 UNL     1       1.319   0.584   0.531  1.00  0.00    -0.002 A 
HETATM   17  C13 UNL     1       3.689  -0.329   1.836  1.00  0.00     0.046 A 
HETATM   18  C14 UNL     1       2.665   0.200   2.600  1.00  0.00     0.138 A 
HETATM   19  F1  UNL     1       2.754   0.298   3.943  1.00  0.00    -0.204 F 
HETATM   20  C15 UNL     1       1.563   0.614   1.880  1.00  0.00     0.081 A 
HETATM   21 CL1  UNL     1       0.298   1.305   2.872  1.00  0.00    -0.080 Cl
HETATM   22  C17 UNL     1       0.068   1.109  -0.041  1.00  0.00     0.119 C 
BRANCH   5  23
HETATM   23  N2  UNL     1      -1.824   0.199   0.918  1.00  0.00     0.129 N 
HETATM   24  H3  UNL     1      -2.008   1.175   1.180  1.00  0.00     0.320 HD
BRANCH  23  25
HETATM   25  C4  UNL     1      -2.939  -0.664   0.894  1.00  0.00     0.343 C 
BRANCH  25  26
HETATM   26  C5  UNL     1      -3.627  -0.535   2.202  1.00  0.00     0.261 C 
HETATM   27  O2  UNL     1      -3.232   0.216   3.101  1.00  0.00    -0.305 OA
ENDBRANCH  25  26
ENDBRANCH  23  25
ENDBRANCH   5  23
ENDBRANCH   4   5
ENDBRANCH   3   4
TORSDOF 5
