REMARK  7 active torsions:
REMARK  status: ('A' for Active; 'I' for Inactive)
REMARK    1  A    between atoms: C6_6  and  N1_7 
REMARK    2  A    between atoms: N1_7  and  C7_8 
REMARK    3  A    between atoms: C12_15  and  N4_16 
REMARK    4  A    between atoms: N4_16  and  O1_17 
REMARK    5  A    between atoms: N4_16  and  N5_18 
REMARK    6  A    between atoms: N5_18  and  C14_20 
REMARK    7  A    between atoms: C14_20  and  C15_21 
ROOT
HETATM    1  C7  UNL     1       1.507  -1.481  -0.052  1.00  0.00     0.142 A 
HETATM    2  N2  UNL     1       2.111  -2.673  -0.049  1.00  0.00    -0.224 NA
HETATM    3  C8  UNL     1       1.526  -3.853  -0.048  1.00  0.00     0.236 A 
HETATM    4  N3  UNL     1       0.168  -3.934  -0.050  1.00  0.00    -0.241 NA
HETATM    5  C9  UNL     1      -0.524  -2.781  -0.053  1.00  0.00     0.072 A 
HETATM    6  C10 UNL     1      -1.893  -2.911  -0.054  1.00  0.00     0.035 A 
HETATM    7  C11 UNL     1      -2.698  -1.794  -0.056  1.00  0.00     0.036 A 
HETATM    8  C12 UNL     1      -2.089  -0.553  -0.056  1.00  0.00     0.077 A 
HETATM    9  C16 UNL     1      -0.712  -0.493  -0.055  1.00  0.00     0.051 A 
HETATM   10  C17 UNL     1       0.133  -1.569  -0.054  1.00  0.00     0.041 A 
ENDROOT
BRANCH   1  11
HETATM   11  N1  UNL     1       2.126  -0.212  -0.055  1.00  0.00    -0.340 N 
HETATM   12  H7  UNL     1       1.578   0.668  -0.078  1.00  0.00     0.167 HD
BRANCH  11  13
HETATM   13  C6  UNL     1       3.515   0.063  -0.029  1.00  0.00     0.034 A 
HETATM   14  C5  UNL     1       4.460  -0.899   0.203  1.00  0.00     0.029 A 
HETATM   15  C4  UNL     1       5.817  -0.655   0.222  1.00  0.00     0.003 A 
HETATM   16  C3  UNL     1       6.301   0.616   0.001  1.00  0.00     0.007 A 
HETATM   17  C2  UNL     1       5.382   1.616  -0.235  1.00  0.00    -0.060 A 
HETATM   18  C1  UNL     1       5.841   3.009  -0.482  1.00  0.00     0.048 C 
HETATM   19  C18 UNL     1       4.054   1.313  -0.242  1.00  0.00     0.036 A 
ENDBRANCH  11  13
ENDBRANCH   1  11
BRANCH   8  20
HETATM   20  N4  UNL     1      -2.887   0.623  -0.057  1.00  0.00    -0.185 N 
BRANCH  20  21
HETATM   21  O1  UNL     1      -2.281   1.855  -0.057  1.00  0.00    -0.271 OA
HETATM   22  H11 UNL     1      -1.969   1.971   0.897  1.00  0.00     0.246 HD
ENDBRANCH  20  21
BRANCH  20  23
HETATM   23  N5  UNL     1      -4.266   0.553  -0.057  1.00  0.00    -0.207 NA
HETATM   24  C13 UNL     1      -4.839  -0.029  -1.242  1.00  0.00     0.139 C 
BRANCH  23  25
HETATM   25  C14 UNL     1      -4.874   1.851   0.247  1.00  0.00     0.130 C 
BRANCH  25  26
HETATM   26  C15 UNL     1      -6.317   1.560   0.658  1.00  0.00     0.131 C 
HETATM   27 CL1  UNL     1      -6.353   0.507   2.077  1.00  0.00    -0.129 Cl
ENDBRANCH  25  26
ENDBRANCH  23  25
ENDBRANCH  20  23
ENDBRANCH   8  20
TORSDOF 7
