REMARK  0 active torsions:
REMARK  status: ('A' for Active; 'I' for Inactive)
ROOT
HETATM    1  C1  UNL     1       2.828   2.335   0.561  1.00  0.00     0.032 C 
HETATM    2  C2  UNL     1       3.073   1.836  -0.843  1.00  0.00     0.081 C 
HETATM    3  C3  UNL     1       1.776   1.705  -1.578  1.00  0.00     0.009 C 
HETATM    4  C4  UNL     1       0.502   1.541  -1.899  1.00  0.00     0.123 C 
HETATM    5  C5  UNL     1      -0.615   1.291  -0.998  1.00  0.00     0.228 C 
HETATM    6  O1  UNL     1      -1.757   1.100  -1.480  1.00  0.00    -0.273 OA
HETATM    7  N1  UNL     1      -1.490   1.077   0.139  1.00  0.00    -0.312 N 
HETATM    8  C6  UNL     1      -2.862   0.783   0.244  1.00  0.00     0.115 A 
HETATM    9  C7  UNL     1      -3.872   1.675   0.068  1.00  0.00     0.064 A 
HETATM   10  C8  UNL     1      -5.040   0.979   0.234  1.00  0.00     0.014 A 
HETATM   11  C9  UNL     1      -6.361   1.325   0.182  1.00  0.00     0.130 A 
HETATM   12  N2  UNL     1      -7.380   0.486   0.381  1.00  0.00    -0.271 NA
HETATM   13  C10 UNL     1      -7.125  -0.818   0.658  1.00  0.00     0.141 A 
HETATM   14  C11 UNL     1      -5.790  -1.173   0.712  1.00  0.00     0.090 A 
HETATM   15  C12 UNL     1      -5.547  -2.558   1.004  1.00  0.00     0.103 C 
HETATM   16  N3  UNL     1      -5.367  -3.693   1.237  1.00  0.00    -0.191 NA
HETATM   17  C13 UNL     1      -4.733  -0.326   0.511  1.00  0.00     0.074 A 
HETATM   18  N4  UNL     1      -3.398  -0.396   0.507  1.00  0.00    -0.304 N 
HETATM   19  C14 UNL     1      -2.508  -1.454   0.755  1.00  0.00     0.121 C 
HETATM   20  C15 UNL     1      -1.601  -2.381   0.954  1.00  0.00     0.061 C 
HETATM   21 CL1  UNL     1      -1.747  -4.084   1.573  1.00  0.00    -0.084 Cl
HETATM   22  C16 UNL     1      -0.183  -2.150   0.699  1.00  0.00     0.115 A 
HETATM   23  F1  UNL     1       0.695  -3.170   0.941  1.00  0.00    -0.387 F 
HETATM   24  C17 UNL     1       0.971  -1.700   0.401  1.00  0.00     0.263 A 
HETATM   25  C18 UNL     1       2.298  -1.353   0.117  1.00  0.00     0.080 C 
HETATM   26  C19 UNL     1       3.336  -0.725  -0.227  1.00  0.00     0.016 C 
HETATM   27  C20 UNL     1       4.458  -1.675  -0.036  1.00  0.00     0.220 C 
HETATM   28  O2  UNL     1       5.535  -1.034   0.586  1.00  0.00    -0.384 OA
HETATM   29  C21 UNL     1       5.989   0.052  -0.151  1.00  0.00     0.187 C 
HETATM   30  C22 UNL     1       5.071   0.396  -1.288  1.00  0.00     0.149 C 
HETATM   31  N5  UNL     1       3.739   0.561  -0.754  1.00  0.00    -0.379 N 
HETATM   32  H7  UNL     1      -1.178   1.147   1.119  1.00  0.00     0.170 HD
ENDROOT
TORSDOF 0
