REMARK  6 active torsions:
REMARK  status: ('A' for Active; 'I' for Inactive)
REMARK    1  A    between atoms: C2_2  and  C3_3 
REMARK    2  A    between atoms: C4_4  and  C5_5 
REMARK       I    between atoms: C5_5  and  N1_7 
REMARK    3  A    between atoms: N1_7  and  C6_8 
REMARK    4  A    between atoms: C9_11  and  N2_12 
REMARK    5  A    between atoms: N2_12  and  C10_13 
REMARK    6  A    between atoms: C21_28  and  O2_29 
ROOT
HETATM    1  C6  UNL     1       0.686  -0.839  -1.291  1.00  0.00     0.069 A 
HETATM    2  C7  UNL     1      -0.190  -1.022  -0.247  1.00  0.00     0.048 A 
HETATM    3  C8  UNL     1      -1.331  -1.763  -0.411  1.00  0.00     0.023 A 
HETATM    4  C9  UNL     1      -2.192  -1.931   0.650  1.00  0.00     0.067 A 
HETATM    5  C16 UNL     1      -3.335  -2.679   0.467  1.00  0.00     0.089 A 
HETATM    6  C17 UNL     1      -4.240  -2.861   1.566  1.00  0.00     0.103 C 
HETATM    7  N3  UNL     1      -4.957  -3.003   2.462  1.00  0.00    -0.191 NA
HETATM    8  C18 UNL     1      -3.642  -3.263  -0.743  1.00  0.00     0.142 A 
HETATM    9  N4  UNL     1      -2.771  -3.070  -1.749  1.00  0.00    -0.259 NA
HETATM   10  C19 UNL     1      -1.646  -2.349  -1.614  1.00  0.00     0.071 A 
HETATM   11  C20 UNL     1      -0.790  -2.185  -2.679  1.00  0.00     0.071 A 
HETATM   12  C21 UNL     1       0.331  -1.438  -2.459  1.00  0.00     0.097 A 
ENDROOT
BRANCH   4  13
HETATM   13  N2  UNL     1      -1.931  -1.357   1.917  1.00  0.00    -0.354 N 
HETATM   14  H10 UNL     1      -1.386  -1.907   2.612  1.00  0.00     0.166 HD
BRANCH  13  15
HETATM   15  C10 UNL     1      -2.403  -0.060   2.233  1.00  0.00     0.034 A 
HETATM   16  C11 UNL     1      -3.122   0.648   1.293  1.00  0.00     0.032 A 
HETATM   17  C12 UNL     1      -3.600   1.921   1.567  1.00  0.00     0.046 A 
HETATM   18  C13 UNL     1      -3.340   2.479   2.815  1.00  0.00     0.138 A 
HETATM   19  F1  UNL     1      -3.809   3.710   3.063  1.00  0.00    -0.204 F 
HETATM   20  C14 UNL     1      -2.616   1.755   3.745  1.00  0.00     0.074 A 
HETATM   21 CL1  UNL     1      -2.326   2.513   5.289  1.00  0.00    -0.081 Cl
HETATM   22  C15 UNL     1      -2.142   0.488   3.470  1.00  0.00     0.056 A 
ENDBRANCH  13  15
ENDBRANCH   4  13
BRANCH   1  23
HETATM   23  N1  UNL     1       1.822  -0.061  -1.005  1.00  0.00    -0.321 N 
HETATM   24  C5  UNL     1       2.955   0.389  -1.709  1.00  0.00     0.245 C 
HETATM   25  O1  UNL     1       3.023   0.036  -2.905  1.00  0.00    -0.268 OA
HETATM   26  H8  UNL     1       1.937   0.332  -0.023  1.00  0.00     0.169 HD
BRANCH  24  27
HETATM   27  C4  UNL     1       4.021   1.205  -1.177  1.00  0.00     0.070 C 
HETATM   28  C3  UNL     1       4.088   1.656   0.066  1.00  0.00    -0.022 C 
BRANCH  28  29
HETATM   29  C2  UNL     1       5.108   2.493   0.745  1.00  0.00     0.023 C 
HETATM   30  C1  UNL     1       4.558   3.780   1.273  1.00  0.00     0.009 C 
ENDBRANCH  28  29
ENDBRANCH  24  27
ENDBRANCH   1  23
BRANCH  12  31
HETATM   31  O2  UNL     1       1.142  -1.310  -3.551  1.00  0.00    -0.354 OA
HETATM   32  C22 UNL     1       0.951  -1.844  -4.825  1.00  0.00     0.210 C 
ENDBRANCH  12  31
TORSDOF 6
