REMARK  5 active torsions:
REMARK  status: ('A' for Active; 'I' for Inactive)
REMARK    1  A    between atoms: O1_2  and  C2_3 
REMARK    2  A    between atoms: C8_11  and  N3_12 
REMARK    3  A    between atoms: N3_12  and  C9_13 
REMARK    4  A    between atoms: C17_23  and  N4_24 
REMARK    5  A    between atoms: N4_24  and  C18_25 
ROOT
HETATM    1  C2  UNL     1      -2.815   0.412  -0.602  1.00  0.00     0.097 A 
HETATM    2  C3  UNL     1      -2.393  -0.510  -1.539  1.00  0.00     0.071 A 
HETATM    3  C4  UNL     1      -1.177  -1.135  -1.353  1.00  0.00     0.071 A 
HETATM    4  N1  UNL     1      -0.761  -2.039  -2.271  1.00  0.00    -0.259 NA
HETATM    5  C5  UNL     1       0.417  -2.701  -2.170  1.00  0.00     0.142 A 
HETATM    6  C6  UNL     1       1.260  -2.469  -1.098  1.00  0.00     0.089 A 
HETATM    7  C7  UNL     1       2.528  -3.118  -0.900  1.00  0.00     0.103 C 
HETATM    8  N2  UNL     1       3.536  -3.645  -0.759  1.00  0.00    -0.191 NA
HETATM    9  C8  UNL     1       0.852  -1.549  -0.152  1.00  0.00     0.067 A 
HETATM   10  C15 UNL     1      -0.356  -0.885  -0.273  1.00  0.00     0.023 A 
HETATM   11  C16 UNL     1      -0.780   0.041   0.666  1.00  0.00     0.048 A 
HETATM   12  C17 UNL     1      -1.997   0.665   0.480  1.00  0.00     0.069 A 
ENDROOT
BRANCH   9  13
HETATM   13  N3  UNL     1       1.622  -1.209   1.010  1.00  0.00    -0.354 N 
HETATM   14  H6  UNL     1       1.555  -1.691   1.935  1.00  0.00     0.166 HD
BRANCH  13  15
HETATM   15  C9  UNL     1       2.552  -0.131   0.905  1.00  0.00     0.034 A 
HETATM   16  C10 UNL     1       3.335   0.275   1.953  1.00  0.00     0.032 A 
HETATM   17  C11 UNL     1       4.228   1.321   1.827  1.00  0.00     0.046 A 
HETATM   18  C12 UNL     1       4.370   2.004   0.637  1.00  0.00     0.138 A 
HETATM   19  F1  UNL     1       5.209   3.039   0.399  1.00  0.00    -0.204 F 
HETATM   20  C13 UNL     1       3.597   1.623  -0.443  1.00  0.00     0.074 A 
HETATM   21 CL1  UNL     1       3.673   2.404  -2.020  1.00  0.00    -0.081 Cl
HETATM   22  C14 UNL     1       2.720   0.570  -0.261  1.00  0.00     0.056 A 
ENDBRANCH  13  15
ENDBRANCH   9  13
BRANCH  12  23
HETATM   23  N4  UNL     1      -2.344   1.598   1.497  1.00  0.00    -0.332 N 
HETATM   24  H11 UNL     1      -2.254   2.624   1.764  1.00  0.00     0.168 HD
BRANCH  23  25
HETATM   25  C18 UNL     1      -3.075   1.028   2.578  1.00  0.00     0.353 C 
HETATM   26  O2  UNL     1      -3.434  -0.190   2.719  1.00  0.00    -0.283 OA
ENDBRANCH  23  25
ENDBRANCH  12  23
BRANCH   1  27
HETATM   27  O1  UNL     1      -4.007   1.104  -0.671  1.00  0.00    -0.354 OA
HETATM   28  C1  UNL     1      -4.897   0.898  -1.750  1.00  0.00     0.210 C 
ENDBRANCH   1  27
TORSDOF 5
