REMARK  6 active torsions:
REMARK  status: ('A' for Active; 'I' for Inactive)
REMARK    1  A    between atoms: O1_2  and  C2_3 
REMARK    2  A    between atoms: C5_7  and  N2_8 
REMARK    3  A    between atoms: C14_20  and  N4_21 
REMARK       I    between atoms: N4_21  and  C15_22 
REMARK    4  A    between atoms: C15_22  and  C16_24 
REMARK    5  A    between atoms: C17_25  and  C18_26 
REMARK    6  A    between atoms: C18_26  and  N5_28 
ROOT
HETATM    1  C2  UNL     1      -1.531  -0.567  -1.897  1.00  0.00     0.096 C 
HETATM    2  C3  UNL     1      -2.331  -0.520  -2.920  1.00  0.00     0.058 C 
HETATM    3  C4  UNL     1      -3.711  -0.149  -3.096  1.00  0.00     0.116 C 
HETATM    4  N1  UNL     1      -3.665   0.096  -1.832  1.00  0.00    -0.265 NA
HETATM    5  C5  UNL     1      -4.864   0.578  -1.225  1.00  0.00     0.356 C 
HETATM    6  C6  UNL     1      -4.807   2.051  -1.004  1.00  0.00     0.178 C 
HETATM    7  N3  UNL     1      -3.721   2.471  -0.108  1.00  0.00    -0.385 N 
HETATM    8  C7  UNL     1      -3.978   1.575   1.001  1.00  0.00     0.040 A 
HETATM    9  C8  UNL     1      -5.075   1.850   1.791  1.00  0.00     0.033 A 
HETATM   10  C9  UNL     1      -5.429   1.032   2.840  1.00  0.00     0.046 A 
HETATM   11  C10 UNL     1      -4.742  -0.096   3.186  1.00  0.00     0.139 A 
HETATM   12  F1  UNL     1      -5.130  -0.863   4.219  1.00  0.00    -0.204 F 
HETATM   13  C11 UNL     1      -3.653  -0.345   2.385  1.00  0.00     0.085 A 
HETATM   14 CL1  UNL     1      -2.733  -1.780   2.786  1.00  0.00    -0.080 Cl
HETATM   15  C12 UNL     1      -3.225   0.431   1.303  1.00  0.00     0.017 A 
HETATM   16  C13 UNL     1      -2.027  -0.004   0.604  1.00  0.00     0.048 C 
HETATM   17  C14 UNL     1      -1.366  -0.365  -0.468  1.00  0.00     0.069 C 
HETATM   18  H11 UNL     1      -2.936   2.828   0.453  1.00  0.00     0.159 HD
ENDROOT
BRANCH  17  19
HETATM   19  N4  UNL     1       0.029  -0.677  -0.133  1.00  0.00    -0.321 N 
HETATM   20  C15 UNL     1       1.082   0.054  -0.730  1.00  0.00     0.245 C 
HETATM   21  O2  UNL     1       1.020   0.993  -1.560  1.00  0.00    -0.268 OA
HETATM   22  H15 UNL     1       0.185  -1.447   0.551  1.00  0.00     0.169 HD
BRANCH  20  23
HETATM   23  C16 UNL     1       2.449  -0.284  -0.366  1.00  0.00     0.072 C 
HETATM   24  C17 UNL     1       3.036  -1.155   0.430  1.00  0.00     0.003 C 
BRANCH  24  25
HETATM   25  C18 UNL     1       4.366  -1.613   0.898  1.00  0.00     0.098 C 
HETATM   26  C19 UNL     1       4.245  -2.113   2.325  1.00  0.00     0.036 C 
BRANCH  25  27
HETATM   27  N5  UNL     1       5.389  -0.619   0.852  1.00  0.00    -0.401 N 
HETATM   28  C20 UNL     1       5.074   0.524   1.641  1.00  0.00     0.143 C 
HETATM   29  C21 UNL     1       6.108   1.597   1.577  1.00  0.00     0.187 C 
HETATM   30  O3  UNL     1       6.834   1.643   0.402  1.00  0.00    -0.388 OA
HETATM   31  C22 UNL     1       6.158   1.121  -0.696  1.00  0.00     0.187 C 
HETATM   32  C23 UNL     1       5.962  -0.373  -0.428  1.00  0.00     0.143 C 
ENDBRANCH  25  27
ENDBRANCH  24  25
ENDBRANCH  20  23
ENDBRANCH  17  19
BRANCH   1  33
HETATM   33  O1  UNL     1      -0.402  -1.020  -2.612  1.00  0.00    -0.354 OA
HETATM   34  C1  UNL     1      -0.260  -2.310  -3.120  1.00  0.00     0.210 C 
ENDBRANCH   1  33
BRANCH   5  35
HETATM   35  N2  UNL     1      -6.003   0.296  -2.079  1.00  0.00     0.104 N 
HETATM   36  H7  UNL     1      -6.255   1.143  -2.609  1.00  0.00     0.315 HD
HETATM   37  H8  UNL     1      -6.785  -0.153  -1.563  1.00  0.00     0.315 HD
ENDBRANCH   5  35
TORSDOF 6
