REMARK  6 active torsions:
REMARK  status: ('A' for Active; 'I' for Inactive)
REMARK    1  A    between atoms: O1_2  and  C2_3 
REMARK    2  A    between atoms: C2_3  and  C3_4 
REMARK    3  A    between atoms: C4_5  and  C5_6 
REMARK       I    between atoms: C5_6  and  N1_8 
REMARK    4  A    between atoms: N1_8  and  C6_9 
REMARK    5  A    between atoms: C11_15  and  N3_16 
REMARK    6  A    between atoms: C12_17  and  N4_18 
ROOT
HETATM    1  C6  UNL     1       0.498   0.361  -1.758  1.00  0.00     0.036 A 
HETATM    2  C7  UNL     1       0.423   0.786  -3.068  1.00  0.00     0.032 A 
HETATM    3  C8  UNL     1      -0.775   1.237  -3.580  1.00  0.00     0.035 A 
HETATM    4  C9  UNL     1      -1.875   1.246  -2.750  1.00  0.00     0.069 A 
HETATM    5  N2  UNL     1      -3.028   1.703  -3.319  1.00  0.00    -0.258 NA
HETATM    6  C10 UNL     1      -4.117   1.721  -2.526  1.00  0.00     0.148 A 
HETATM    7  C11 UNL     1      -4.167   1.327  -1.219  1.00  0.00     0.071 A 
HETATM    8  C12 UNL     1      -3.000   0.867  -0.650  1.00  0.00     0.075 A 
HETATM    9  C18 UNL     1      -1.862   0.834  -1.435  1.00  0.00     0.024 A 
HETATM   10  C19 UNL     1      -0.653   0.396  -0.969  1.00  0.00     0.045 A 
ENDROOT
BRANCH   1  11
HETATM   11  N1  UNL     1       1.707  -0.114  -1.173  1.00  0.00    -0.316 N 
HETATM   12  C5  UNL     1       2.446  -1.300  -0.974  1.00  0.00     0.301 C 
HETATM   13  O2  UNL     1       2.063  -2.445  -1.388  1.00  0.00    -0.258 OA
HETATM   14  H6  UNL     1       2.038   0.821  -0.826  1.00  0.00     0.170 HD
BRANCH  12  15
HETATM   15  C4  UNL     1       3.691  -1.145  -0.258  1.00  0.00    -0.003 C 
HETATM   16  C3  UNL     1       4.734  -1.007   0.363  1.00  0.00    -0.070 C 
BRANCH  16  17
HETATM   17  C2  UNL     1       5.980  -0.862   1.124  1.00  0.00     0.261 C 
BRANCH  17  18
HETATM   18  O1  UNL     1       6.407  -2.146   1.442  1.00  0.00    -0.384 OA
HETATM   19  C1  UNL     1       7.592  -2.020   2.166  1.00  0.00     0.202 C 
ENDBRANCH  17  18
ENDBRANCH  16  17
ENDBRANCH  12  15
ENDBRANCH   1  11
BRANCH   8  20
HETATM   20  N4  UNL     1      -2.845   0.412   0.692  1.00  0.00    -0.349 N 
HETATM   21  C13 UNL     1      -3.078  -0.983   0.849  1.00  0.00     0.110 A 
HETATM   22  C14 UNL     1      -2.960  -1.516   2.067  1.00  0.00     0.026 A 
HETATM   23 BR1  UNL     1      -3.260  -3.370   2.334  1.00  0.00    -0.050 Br
HETATM   24  C15 UNL     1      -2.603  -0.728   3.239  1.00  0.00     0.018 A 
HETATM   25  C16 UNL     1      -2.397   0.574   3.024  1.00  0.00    -0.005 A 
HETATM   26  C17 UNL     1      -2.484   1.319   1.758  1.00  0.00     0.156 A 
ENDBRANCH   8  20
BRANCH   7  27
HETATM   27  N3  UNL     1      -5.304   1.350  -0.402  1.00  0.00    -0.396 N 
HETATM   28  H10 UNL     1      -5.650   0.360  -0.383  1.00  0.00     0.156 HD
HETATM   29  H11 UNL     1      -5.862   2.054   0.158  1.00  0.00     0.156 HD
ENDBRANCH   7  27
TORSDOF 6
