REMARK  6 active torsions:
REMARK  status: ('A' for Active; 'I' for Inactive)
REMARK    1  A    between atoms: O1_2  and  C2_3 
REMARK    2  A    between atoms: C2_3  and  C3_4 
REMARK    3  A    between atoms: C4_5  and  C5_6 
REMARK       I    between atoms: C5_6  and  N1_8 
REMARK    4  A    between atoms: N1_8  and  C6_9 
REMARK    5  A    between atoms: C13_17  and  N3_18 
REMARK    6  A    between atoms: N3_18  and  C14_19 
ROOT
HETATM    1  C6  UNL     1       0.816  -1.217  -1.358  1.00  0.00     0.036 A 
HETATM    2  C7  UNL     1       0.636  -1.811  -2.591  1.00  0.00     0.032 A 
HETATM    3  C8  UNL     1      -0.624  -2.226  -3.032  1.00  0.00     0.035 A 
HETATM    4  C9  UNL     1      -1.665  -2.000  -2.150  1.00  0.00     0.069 A 
HETATM    5  N2  UNL     1      -2.873  -2.405  -2.589  1.00  0.00    -0.260 NA
HETATM    6  C10 UNL     1      -3.936  -2.219  -1.785  1.00  0.00     0.126 A 
HETATM    7  C11 UNL     1      -3.844  -1.641  -0.554  1.00  0.00    -0.017 A 
HETATM    8  C12 UNL     1      -5.028  -1.444   0.316  1.00  0.00     0.052 C 
HETATM    9  C13 UNL     1      -2.614  -1.221  -0.091  1.00  0.00     0.052 A 
HETATM   10  C20 UNL     1      -1.519  -1.410  -0.912  1.00  0.00     0.022 A 
HETATM   11  C21 UNL     1      -0.257  -1.014  -0.513  1.00  0.00     0.045 A 
ENDROOT
BRANCH   1  12
HETATM   12  N1  UNL     1       2.143  -0.834  -1.011  1.00  0.00    -0.316 N 
HETATM   13  C5  UNL     1       3.036   0.264  -1.109  1.00  0.00     0.301 C 
HETATM   14  O2  UNL     1       2.746   1.362  -1.649  1.00  0.00    -0.258 OA
HETATM   15  H6  UNL     1       2.407  -1.743  -0.555  1.00  0.00     0.170 HD
BRANCH  13  16
HETATM   16  C4  UNL     1       4.343   0.045  -0.532  1.00  0.00    -0.003 C 
HETATM   17  C3  UNL     1       5.450  -0.161  -0.048  1.00  0.00    -0.070 C 
BRANCH  17  18
HETATM   18  C2  UNL     1       6.767  -0.432   0.526  1.00  0.00     0.261 C 
BRANCH  18  19
HETATM   19  O1  UNL     1       7.628   0.614   0.206  1.00  0.00    -0.384 OA
HETATM   20  C1  UNL     1       7.121   1.800   0.730  1.00  0.00     0.202 C 
ENDBRANCH  18  19
ENDBRANCH  17  18
ENDBRANCH  13  16
ENDBRANCH   1  12
BRANCH   9  21
HETATM   21  N3  UNL     1      -2.491  -0.615   1.189  1.00  0.00    -0.355 N 
HETATM   22  H13 UNL     1      -2.309  -1.219   2.018  1.00  0.00     0.166 HD
BRANCH  21  23
HETATM   23  C14 UNL     1      -2.600   0.796   1.452  1.00  0.00     0.033 A 
HETATM   24  C15 UNL     1      -2.475   1.349   2.705  1.00  0.00     0.029 A 
HETATM   25  C16 UNL     1      -2.593   2.718   2.872  1.00  0.00     0.004 A 
HETATM   26  C17 UNL     1      -2.835   3.571   1.810  1.00  0.00     0.019 A 
HETATM   27  C18 UNL     1      -2.965   3.041   0.536  1.00  0.00     0.013 A 
HETATM   28 BR1  UNL     1      -3.299   4.174  -0.959  1.00  0.00    -0.051 Br
HETATM   29  C19 UNL     1      -2.844   1.680   0.396  1.00  0.00     0.048 A 
ENDBRANCH  21  23
ENDBRANCH   9  21
TORSDOF 6
