REMARK  8 active torsions:
REMARK  status: ('A' for Active; 'I' for Inactive)
REMARK    1  A    between atoms: O1_2  and  C2_3 
REMARK    2  A    between atoms: C2_3  and  C3_4 
REMARK    3  A    between atoms: C4_5  and  C5_6 
REMARK       I    between atoms: C5_6  and  N1_8 
REMARK    4  A    between atoms: N1_8  and  C6_9 
REMARK    5  A    between atoms: C10_13  and  C11_14 
REMARK    6  A    between atoms: C11_14  and  C16_22 
REMARK    7  A    between atoms: C12_15  and  C13_16 
REMARK    8  A    between atoms: C12_15  and  C14_19 
ROOT
HETATM    1  C14 UNL     1      -4.557   1.734   0.681  1.00  0.00     0.164 C 
HETATM    2  C15 UNL     1      -5.836   1.269   1.283  1.00  0.00     0.063 C 
HETATM    3  N3  UNL     1      -6.827   0.926   1.741  1.00  0.00    -0.197 NA
ENDROOT
BRANCH   1   4
HETATM    4  C12 UNL     1      -3.444   0.905   1.161  1.00  0.00    -0.013 C 
HETATM    5  C11 UNL     1      -2.555   0.206   0.470  1.00  0.00    -0.007 C 
BRANCH   5   6
HETATM    6  C10 UNL     1      -1.499  -0.646   0.973  1.00  0.00    -0.022 A 
HETATM    7  C9  UNL     1      -1.560  -1.625   1.932  1.00  0.00     0.012 A 
HETATM    8  C8  UNL     1      -0.448  -2.352   2.357  1.00  0.00     0.003 A 
HETATM    9  C7  UNL     1       0.754  -2.044   1.761  1.00  0.00     0.029 A 
HETATM   10  C6  UNL     1       0.900  -1.068   0.783  1.00  0.00     0.036 A 
HETATM   11  C22 UNL     1      -0.240  -0.388   0.412  1.00  0.00     0.042 A 
BRANCH  10  12
HETATM   12  N1  UNL     1       2.213  -0.888   0.288  1.00  0.00    -0.316 N 
HETATM   13  C5  UNL     1       3.310  -0.054   0.658  1.00  0.00     0.301 C 
HETATM   14  O2  UNL     1       3.140   0.713   1.624  1.00  0.00    -0.258 OA
HETATM   15  H6  UNL     1       2.303  -1.549  -0.515  1.00  0.00     0.170 HD
BRANCH  13  16
HETATM   16  C4  UNL     1       4.530  -0.143  -0.092  1.00  0.00    -0.003 C 
HETATM   17  C3  UNL     1       5.577  -0.233  -0.723  1.00  0.00    -0.070 C 
BRANCH  17  18
HETATM   18  C2  UNL     1       6.824  -0.362  -1.480  1.00  0.00     0.261 C 
BRANCH  18  19
HETATM   19  O1  UNL     1       7.393   0.879  -1.637  1.00  0.00    -0.384 OA
HETATM   20  C1  UNL     1       7.669   1.440  -0.414  1.00  0.00     0.202 C 
ENDBRANCH  18  19
ENDBRANCH  17  18
ENDBRANCH  13  16
ENDBRANCH  10  12
ENDBRANCH   5   6
BRANCH   5  21
HETATM   21  C16 UNL     1      -2.603   0.326  -0.980  1.00  0.00    -0.023 A 
HETATM   22  C17 UNL     1      -2.636   1.472  -1.778  1.00  0.00     0.012 A 
HETATM   23  C18 UNL     1      -2.714   1.328  -3.145  1.00  0.00     0.002 A 
HETATM   24  C19 UNL     1      -2.764   0.114  -3.803  1.00  0.00     0.019 A 
HETATM   25  C20 UNL     1      -2.730  -1.005  -2.997  1.00  0.00     0.011 A 
HETATM   26 BR1  UNL     1      -2.802  -2.676  -3.933  1.00  0.00    -0.051 Br
HETATM   27  C21 UNL     1      -2.651  -0.897  -1.618  1.00  0.00     0.031 A 
ENDBRANCH   5  21
BRANCH   4  28
HETATM   28  C13 UNL     1      -3.550   0.975   2.632  1.00  0.00     0.160 C 
HETATM   29  N2  UNL     1      -4.331   1.580   3.454  1.00  0.00    -0.099 NA
HETATM   30  F1  UNL     1      -4.197   1.462   4.788  1.00  0.00    -0.075 F 
ENDBRANCH   4  28
ENDBRANCH   1   4
TORSDOF 8
