REMARK  6 active torsions:
REMARK  status: ('A' for Active; 'I' for Inactive)
REMARK    1  A    between atoms: N1_2  and  C3_4 
REMARK    2  A    between atoms: C3_4  and  C4_5 
REMARK    3  A    between atoms: C5_6  and  C6_7 
REMARK       I    between atoms: C6_7  and  N2_9 
REMARK    4  A    between atoms: C14_19  and  N5_20 
REMARK    5  A    between atoms: N5_20  and  C15_21 
REMARK    6  A    between atoms: C21_28  and  O2_29 
ROOT
HETATM    1  C6  UNL     1       2.153  -0.680  -0.287  1.00  0.00     0.251 C 
HETATM    2  O1  UNL     1       3.045  -1.311   0.334  1.00  0.00    -0.268 OA
HETATM    3  N2  UNL     1       0.791  -0.886   0.008  1.00  0.00    -0.297 N 
HETATM    4  C7  UNL     1      -0.204  -0.153  -0.706  1.00  0.00     0.101 C 
HETATM    5  C8  UNL     1      -1.424   0.223  -0.289  1.00  0.00     0.034 C 
HETATM    6  C9  UNL     1      -2.045  -0.023   1.006  1.00  0.00     0.025 A 
HETATM    7  C10 UNL     1      -1.642  -0.938   1.961  1.00  0.00     0.103 A 
HETATM    8  N3  UNL     1      -2.272  -1.098   3.140  1.00  0.00    -0.256 NA
HETATM    9  C11 UNL     1      -3.365  -0.330   3.429  1.00  0.00     0.142 A 
HETATM   10  C12 UNL     1      -3.784   0.601   2.473  1.00  0.00     0.089 A 
HETATM   11  C13 UNL     1      -4.918   1.432   2.717  1.00  0.00     0.103 C 
HETATM   12  N4  UNL     1      -5.839   2.113   2.933  1.00  0.00    -0.191 NA
HETATM   13  C14 UNL     1      -3.158   0.787   1.252  1.00  0.00     0.068 A 
HETATM   14  C21 UNL     1      -0.496  -1.868   1.872  1.00  0.00     0.111 C 
HETATM   15  C22 UNL     1       0.545  -1.843   1.034  1.00  0.00     0.138 C 
ENDROOT
BRANCH  13  16
HETATM   16  N5  UNL     1      -3.565   1.713   0.277  1.00  0.00    -0.354 N 
HETATM   17  H14 UNL     1      -3.263   2.719   0.135  1.00  0.00     0.166 HD
BRANCH  16  18
HETATM   18  C15 UNL     1      -4.530   1.218  -0.661  1.00  0.00     0.033 A 
HETATM   19  C16 UNL     1      -5.004  -0.098  -0.540  1.00  0.00     0.029 A 
HETATM   20  C17 UNL     1      -5.948  -0.617  -1.433  1.00  0.00     0.004 A 
HETATM   21  C18 UNL     1      -6.416   0.213  -2.461  1.00  0.00     0.019 A 
HETATM   22  C19 UNL     1      -5.972   1.490  -2.597  1.00  0.00     0.013 A 
HETATM   23 BR1  UNL     1      -6.651   2.576  -4.030  1.00  0.00    -0.051 Br
HETATM   24  C20 UNL     1      -5.033   1.981  -1.696  1.00  0.00     0.048 A 
ENDBRANCH  16  18
ENDBRANCH  13  16
BRANCH  14  25
HETATM   25  O2  UNL     1      -0.468  -2.938   2.784  1.00  0.00    -0.357 OA
HETATM   26  H19 UNL     1      -1.245  -3.093   3.415  1.00  0.00     0.217 HD
ENDBRANCH  14  25
BRANCH   1  27
HETATM   27  C5  UNL     1       3.111   0.027  -1.096  1.00  0.00     0.072 C 
HETATM   28  C4  UNL     1       4.410  -0.146  -0.979  1.00  0.00     0.008 C 
BRANCH  28  29
HETATM   29  C3  UNL     1       5.596  -0.742  -0.402  1.00  0.00     0.299 C 
BRANCH  29  30
HETATM   30  N1  UNL     1       6.516   0.203   0.209  1.00  0.00     0.083 N 
HETATM   31  C1  UNL     1       7.619  -0.581   0.736  1.00  0.00     0.309 C 
HETATM   32  C2  UNL     1       6.969   1.237  -0.674  1.00  0.00     0.309 C 
ENDBRANCH  29  30
ENDBRANCH  28  29
ENDBRANCH   1  27
TORSDOF 6
