REMARK  6 active torsions:
REMARK  status: ('A' for Active; 'I' for Inactive)
REMARK    1  A    between atoms: O1_2  and  C2_3 
REMARK    2  A    between atoms: C2_3  and  C3_4 
REMARK    3  A    between atoms: C4_5  and  C5_6 
REMARK       I    between atoms: C5_6  and  N1_8 
REMARK    4  A    between atoms: N1_8  and  C6_9 
REMARK    5  A    between atoms: C13_18  and  N4_19 
REMARK    6  A    between atoms: N4_19  and  C14_20 
ROOT
HETATM    1  C6  UNL     1       0.418  -1.329   1.629  1.00  0.00     0.112 A 
HETATM    2  C7  UNL     1       0.276  -1.145   3.112  1.00  0.00     0.058 A 
HETATM    3  C8  UNL     1      -0.670  -0.048   3.418  1.00  0.00     0.008 A 
HETATM    4  C9  UNL     1      -1.355   0.731   2.616  1.00  0.00     0.065 A 
HETATM    5  N2  UNL     1      -2.158   1.666   3.169  1.00  0.00    -0.259 NA
HETATM    6  C10 UNL     1      -2.863   2.467   2.338  1.00  0.00     0.142 A 
HETATM    7  C11 UNL     1      -2.768   2.337   0.957  1.00  0.00     0.089 A 
HETATM    8  C12 UNL     1      -3.525   3.197   0.073  1.00  0.00     0.103 C 
HETATM    9  N3  UNL     1      -4.128   3.900  -0.627  1.00  0.00    -0.191 NA
HETATM   10  C13 UNL     1      -1.959   1.394   0.370  1.00  0.00     0.067 A 
HETATM   11  C20 UNL     1      -1.261   0.602   1.258  1.00  0.00     0.019 A 
HETATM   12  C21 UNL     1      -0.434  -0.357   0.885  1.00  0.00     0.014 A 
ENDROOT
BRANCH  10  13
HETATM   13  N4  UNL     1      -1.797   1.187  -1.022  1.00  0.00    -0.354 N 
HETATM   14  H12 UNL     1      -1.072   1.685  -1.558  1.00  0.00     0.166 HD
BRANCH  13  15
HETATM   15  C14 UNL     1      -2.651   0.275  -1.702  1.00  0.00     0.033 A 
HETATM   16  C15 UNL     1      -2.567   0.009  -3.061  1.00  0.00     0.029 A 
HETATM   17  C16 UNL     1      -3.422  -0.891  -3.686  1.00  0.00     0.004 A 
HETATM   18  C17 UNL     1      -4.385  -1.538  -2.923  1.00  0.00     0.019 A 
HETATM   19  C18 UNL     1      -4.512  -1.310  -1.569  1.00  0.00     0.013 A 
HETATM   20 BR1  UNL     1      -5.842  -2.211  -0.545  1.00  0.00    -0.051 Br
HETATM   21  C19 UNL     1      -3.637  -0.411  -1.016  1.00  0.00     0.048 A 
ENDBRANCH  13  15
ENDBRANCH  10  13
BRANCH   1  22
HETATM   22  N1  UNL     1       1.783  -1.020   1.255  1.00  0.00    -0.342 N 
HETATM   23  C5  UNL     1       2.762  -1.804   0.590  1.00  0.00     0.297 C 
HETATM   24  O2  UNL     1       2.456  -2.974   0.242  1.00  0.00    -0.258 OA
HETATM   25  H6  UNL     1       1.997  -0.032   1.566  1.00  0.00     0.164 HD
BRANCH  23  26
HETATM   26  C4  UNL     1       4.049  -1.212   0.356  1.00  0.00    -0.003 C 
HETATM   27  C3  UNL     1       5.126  -0.704   0.161  1.00  0.00    -0.070 C 
BRANCH  27  28
HETATM   28  C2  UNL     1       6.439  -0.091  -0.053  1.00  0.00     0.261 C 
BRANCH  28  29
HETATM   29  O1  UNL     1       6.226   0.899  -1.040  1.00  0.00    -0.384 OA
HETATM   30  C1  UNL     1       5.742   0.174  -2.154  1.00  0.00     0.202 C 
ENDBRANCH  28  29
ENDBRANCH  27  28
ENDBRANCH  23  26
ENDBRANCH   1  22
TORSDOF 6
