REMARK  5 active torsions:
REMARK  status: ('A' for Active; 'I' for Inactive)
REMARK    1  A    between atoms: C2_2  and  C3_3 
REMARK    2  A    between atoms: C8_9  and  N2_10 
REMARK    3  A    between atoms: N2_10  and  C9_11 
REMARK    4  A    between atoms: C12_15  and  N3_16 
REMARK    5  A    between atoms: N3_16  and  C13_17 
ROOT
HETATM    1  C3  UNL     1      -1.648  -1.531   0.127  1.00  0.00     0.008 A 
HETATM    2  C4  UNL     1      -1.271  -2.740  -0.417  1.00  0.00     0.131 A 
HETATM    3  N1  UNL     1       0.040  -2.982  -0.700  1.00  0.00    -0.259 NA
HETATM    4  C5  UNL     1       0.987  -2.059  -0.458  1.00  0.00     0.069 A 
HETATM    5  C6  UNL     1       2.308  -2.276  -0.733  1.00  0.00     0.035 A 
HETATM    6  C7  UNL     1       3.271  -1.324  -0.481  1.00  0.00     0.032 A 
HETATM    7  C8  UNL     1       2.964  -0.098   0.060  1.00  0.00     0.035 A 
HETATM    8  C10 UNL     1       1.630   0.082   0.321  1.00  0.00     0.045 A 
HETATM    9  C11 UNL     1       0.635  -0.841   0.086  1.00  0.00     0.022 A 
HETATM   10  C12 UNL     1      -0.687  -0.575   0.381  1.00  0.00     0.057 A 
ENDROOT
BRANCH  10  11
HETATM   11  N3  UNL     1      -1.055   0.666   0.937  1.00  0.00    -0.355 N 
HETATM   12  H10 UNL     1      -1.060   0.743   1.993  1.00  0.00     0.166 HD
BRANCH  11  13
HETATM   13  C13 UNL     1      -1.430   1.863   0.260  1.00  0.00     0.032 A 
HETATM   14  C14 UNL     1      -1.016   3.078  -0.007  1.00  0.00     0.029 A 
HETATM   15  C15 UNL     1      -2.213   3.379  -0.761  1.00  0.00     0.004 A 
HETATM   16  C16 UNL     1      -2.651   2.169  -0.509  1.00  0.00     0.029 A 
ENDBRANCH  11  13
ENDBRANCH  10  11
BRANCH   1  17
HETATM   17  C2  UNL     1      -3.041  -1.244   0.441  1.00  0.00     0.005 C 
HETATM   18  C1  UNL     1      -4.007  -2.118   0.221  1.00  0.00     0.012 C 
ENDBRANCH   1  17
BRANCH   7  19
HETATM   19  N2  UNL     1       4.000   0.836   0.294  1.00  0.00    -0.334 N 
HETATM   20  H7  UNL     1       4.985   0.563   0.044  1.00  0.00     0.168 HD
BRANCH  19  21
HETATM   21  C9  UNL     1       3.948   2.133   0.829  1.00  0.00     0.353 C 
HETATM   22  O1  UNL     1       2.853   2.602   1.174  1.00  0.00    -0.283 OA
ENDBRANCH  19  21
ENDBRANCH   7  19
TORSDOF 5
