REMARK  0 active torsions:
REMARK  status: ('A' for Active; 'I' for Inactive)
ROOT
HETATM    1  N1  UNL     1       3.961  -2.245  -3.287  1.00  0.00    -0.196 NA
HETATM    2  C1  UNL     1       3.911  -1.808  -2.216  1.00  0.00     0.075 C 
HETATM    3  C2  UNL     1       3.829  -1.238  -0.871  1.00  0.00     0.183 C 
HETATM    4  C3  UNL     1       4.827  -0.126  -0.686  1.00  0.00     0.117 C 
HETATM    5  N2  UNL     1       4.761   1.153  -0.430  1.00  0.00    -0.245 NA
HETATM    6  C4  UNL     1       3.408   1.640  -0.261  1.00  0.00     0.129 C 
HETATM    7  C5  UNL     1       3.175   2.896   0.035  1.00  0.00     0.052 C 
HETATM    8  C6  UNL     1       1.784   3.286   0.371  1.00  0.00     0.030 C 
HETATM    9  C7  UNL     1       0.825   2.395   0.360  1.00  0.00     0.031 C 
HETATM   10  C8  UNL     1       1.115   1.215  -0.496  1.00  0.00     0.187 C 
HETATM   11  N3  UNL     1       2.426   0.652  -0.350  1.00  0.00    -0.328 N 
HETATM   12  C9  UNL     1       2.479  -0.739  -0.527  1.00  0.00     0.033 C 
HETATM   13  C10 UNL     1       1.637  -1.685  -0.430  1.00  0.00     0.010 C 
HETATM   14  C11 UNL     1       0.421  -2.425  -0.223  1.00  0.00     0.045 C 
HETATM   15  C12 UNL     1      -0.816  -2.738   0.052  1.00  0.00     0.002 C 
HETATM   16  C13 UNL     1      -2.171  -2.289   0.477  1.00  0.00     0.006 C 
HETATM   17 BR1  UNL     1      -3.237  -3.868   0.469  1.00  0.00    -0.052 Br
HETATM   18  C14 UNL     1      -2.996  -1.291   0.864  1.00  0.00     0.018 C 
HETATM   19  C15 UNL     1      -4.416  -1.375   1.208  1.00  0.00     0.197 C 
HETATM   20  O1  UNL     1      -5.250  -0.617   0.460  1.00  0.00    -0.376 OA
HETATM   21  C16 UNL     1      -5.175   0.774   0.644  1.00  0.00     0.262 C 
HETATM   22  C17 UNL     1      -3.882   1.225   0.404  1.00  0.00    -0.070 C 
HETATM   23  C18 UNL     1      -2.841   1.566   0.213  1.00  0.00    -0.003 C 
HETATM   24  C19 UNL     1      -1.550   1.963  -0.023  1.00  0.00     0.300 C 
HETATM   25  O2  UNL     1      -0.899   2.323  -0.994  1.00  0.00    -0.258 OA
HETATM   26  N4  UNL     1      -0.463   2.072   0.865  1.00  0.00    -0.318 N 
HETATM   27  H15 UNL     1      -0.050   2.057   1.791  1.00  0.00     0.169 HD
ENDROOT
TORSDOF 0
