REMARK  5 active torsions:
REMARK  status: ('A' for Active; 'I' for Inactive)
REMARK    1  A    between atoms: B1_2  and  C2_3 
REMARK    2  A    between atoms: C4_5  and  N1_6 
REMARK    3  A    between atoms: N1_6  and  C5_7 
REMARK    4  A    between atoms: C8_11  and  N2_12 
REMARK    5  A    between atoms: N2_12  and  C9_13 
ROOT
HETATM    1  C2  UNL     1       2.675  -1.500  -0.347  1.00  0.00    -0.072 A 
HETATM    2  C3  UNL     1       3.147  -0.197  -0.573  1.00  0.00     0.026 A 
HETATM    3  C4  UNL     1       2.258   0.817  -0.358  1.00  0.00     0.033 A 
HETATM    4  C6  UNL     1       0.936   0.592   0.066  1.00  0.00     0.045 A 
HETATM    5  C7  UNL     1       0.479  -0.711   0.287  1.00  0.00     0.023 A 
HETATM    6  C8  UNL     1      -0.805  -0.857   0.691  1.00  0.00     0.067 A 
HETATM    7  C15 UNL     1      -1.180  -2.185   0.884  1.00  0.00     0.089 A 
HETATM    8  C16 UNL     1      -2.536  -2.469   1.337  1.00  0.00     0.103 C 
HETATM    9  N3  UNL     1      -3.607  -2.701   1.679  1.00  0.00    -0.191 NA
HETATM   10  C17 UNL     1      -0.344  -3.263   0.689  1.00  0.00     0.142 A 
HETATM   11  N4  UNL     1       0.869  -2.953   0.297  1.00  0.00    -0.259 NA
HETATM   12  C18 UNL     1       1.358  -1.743   0.076  1.00  0.00     0.064 A 
ENDROOT
BRANCH   6  13
HETATM   13  N2  UNL     1      -1.729   0.144   0.903  1.00  0.00    -0.354 N 
HETATM   14  H9  UNL     1      -1.387   0.245   1.915  1.00  0.00     0.166 HD
BRANCH  13  15
HETATM   15  C9  UNL     1      -2.722   1.096   0.848  1.00  0.00     0.033 A 
HETATM   16  C10 UNL     1      -2.950   2.243   1.573  1.00  0.00     0.029 A 
HETATM   17  C11 UNL     1      -4.091   2.928   1.246  1.00  0.00     0.004 A 
HETATM   18  C12 UNL     1      -4.969   2.530   0.269  1.00  0.00     0.019 A 
HETATM   19  C13 UNL     1      -4.748   1.378  -0.467  1.00  0.00     0.013 A 
HETATM   20 BR1  UNL     1      -6.089   1.026  -1.762  1.00  0.00    -0.051 Br
HETATM   21  C14 UNL     1      -3.599   0.659  -0.159  1.00  0.00     0.048 A 
ENDBRANCH  13  15
ENDBRANCH   6  13
BRANCH   3  22
HETATM   22  N1  UNL     1       2.559   2.188  -0.501  1.00  0.00    -0.345 N 
HETATM   23  H6  UNL     1       2.871   3.033   0.073  1.00  0.00     0.167 HD
BRANCH  22  24
HETATM   24  C5  UNL     1       2.516   2.968  -1.661  1.00  0.00     0.474 C 
HETATM   25  O1  UNL     1       2.244   2.872  -2.916  1.00  0.00    -0.392 OA
ENDBRANCH  22  24
ENDBRANCH   3  22
BRANCH   1  26
HETATM   26  B1  UNL     1       3.598  -2.733  -0.564  1.00  0.00     0.193 B 
HETATM   27  C1  UNL     1       5.041  -2.504  -1.132  1.00  0.00    -0.053 C 
HETATM   28  H4  UNL     1       3.454  -3.657   0.168  1.00  0.00    -0.021 HD
ENDBRANCH   1  26
TORSDOF 5
