REMARK  5 active torsions:
REMARK  status: ('A' for Active; 'I' for Inactive)
REMARK    1  A    between atoms: O1_2  and  C2_3 
REMARK    2  A    between atoms: C4_5  and  N1_6 
REMARK       I    between atoms: N1_6  and  C5_7 
REMARK    3  A    between atoms: C5_7  and  C6_9 
REMARK    4  A    between atoms: C7_10  and  C8_11 
REMARK    5  A    between atoms: C8_11  and  N2_12 
ROOT
HETATM    1  C2  UNL     1      -0.951   1.596  -0.560  1.00  0.00     0.095 A 
HETATM    2  C3  UNL     1       0.342   1.750  -0.344  1.00  0.00     0.068 A 
HETATM    3  C4  UNL     1       1.289   0.652  -0.453  1.00  0.00     0.034 A 
HETATM    4  C11 UNL     1       0.755  -0.515  -0.779  1.00  0.00     0.014 A 
HETATM    5  C12 UNL     1      -0.621  -0.861  -1.040  1.00  0.00     0.065 A 
HETATM    6  C13 UNL     1      -1.052  -1.904   0.028  1.00  0.00     0.021 C 
HETATM    7  C14 UNL     1      -2.336  -1.348   0.610  1.00  0.00     0.011 C 
HETATM    8  C15 UNL     1      -3.487  -1.948   0.529  1.00  0.00     0.095 A 
HETATM    9  C16 UNL     1      -4.660  -2.766   0.336  1.00  0.00    -0.009 A 
HETATM   10 BR1  UNL     1      -3.481  -4.014  -0.456  1.00  0.00    -0.122 Br
HETATM   11  C17 UNL     1      -5.938  -2.615   0.627  1.00  0.00     0.018 C 
HETATM   12  C18 UNL     1      -6.272  -1.316   1.304  1.00  0.00     0.298 C 
HETATM   13  N3  UNL     1      -6.957  -0.459   0.325  1.00  0.00     0.086 N 
HETATM   14  C19 UNL     1      -5.968  -0.017  -0.675  1.00  0.00     0.271 C 
HETATM   15  C20 UNL     1      -5.023   1.007  -0.223  1.00  0.00     0.052 C 
HETATM   16  C21 UNL     1      -3.839   1.232  -1.121  1.00  0.00     0.151 C 
HETATM   17  N4  UNL     1      -2.829   0.251  -1.163  1.00  0.00    -0.290 NA
HETATM   18  C22 UNL     1      -1.565   0.331  -0.935  1.00  0.00     0.070 A 
HETATM   19  H25 UNL     1      -7.557  -1.146  -0.224  1.00  0.00     0.316 HD
ENDROOT
BRANCH   3  20
HETATM   20  N1  UNL     1       2.700   0.704  -0.252  1.00  0.00    -0.324 N 
HETATM   21  C5  UNL     1       3.186   1.103   1.008  1.00  0.00     0.245 C 
HETATM   22  O2  UNL     1       2.498   1.420   1.996  1.00  0.00    -0.268 OA
HETATM   23  H5  UNL     1       3.332   0.444  -1.040  1.00  0.00     0.169 HD
BRANCH  21  24
HETATM   24  C6  UNL     1       4.606   1.189   1.289  1.00  0.00     0.072 C 
HETATM   25  C7  UNL     1       5.622   0.947   0.520  1.00  0.00    -0.002 C 
BRANCH  25  26
HETATM   26  C8  UNL     1       7.096   0.883   0.328  1.00  0.00     0.143 C 
BRANCH  26  27
HETATM   27  N2  UNL     1       7.563  -0.383  -0.033  1.00  0.00    -0.418 N 
HETATM   28  C9  UNL     1       7.258  -0.954  -1.272  1.00  0.00     0.142 C 
HETATM   29  C10 UNL     1       8.210  -1.194   0.904  1.00  0.00     0.142 C 
ENDBRANCH  26  27
ENDBRANCH  25  26
ENDBRANCH  21  24
ENDBRANCH   3  20
BRANCH   1  30
HETATM   30  O1  UNL     1      -1.522   2.816  -0.367  1.00  0.00    -0.354 OA
HETATM   31  C1  UNL     1      -1.723   3.436   0.873  1.00  0.00     0.210 C 
ENDBRANCH   1  30
TORSDOF 5
