REMARK  8 active torsions:
REMARK  status: ('A' for Active; 'I' for Inactive)
REMARK    1  A    between atoms: O1_2  and  C2_3 
REMARK    2  A    between atoms: C4_5  and  N1_6 
REMARK    3  A    between atoms: N1_6  and  C5_7 
REMARK    4  A    between atoms: C7_9  and  C8_10 
REMARK    5  A    between atoms: C8_10  and  N2_11 
REMARK    6  A    between atoms: N2_11  and  O2_13 
REMARK    7  A    between atoms: C16_22  and  N5_23 
REMARK    8  A    between atoms: N5_23  and  C17_24 
ROOT
HETATM    1  C2  UNL     1      -0.613   0.019  -3.620  1.00  0.00     0.096 A 
HETATM    2  C3  UNL     1       0.247   0.344  -2.668  1.00  0.00     0.042 A 
HETATM    3  C4  UNL     1      -0.426   0.650  -1.391  1.00  0.00     0.145 A 
HETATM    4  C11 UNL     1      -1.877   0.468  -1.679  1.00  0.00     0.028 A 
HETATM    5  C12 UNL     1      -1.945   0.090  -3.024  1.00  0.00     0.100 A 
HETATM    6  N3  UNL     1      -3.133  -0.156  -3.607  1.00  0.00    -0.256 NA
HETATM    7  C13 UNL     1      -4.305  -0.052  -2.936  1.00  0.00     0.142 A 
HETATM    8  C14 UNL     1      -4.274   0.321  -1.601  1.00  0.00     0.089 A 
HETATM    9  C15 UNL     1      -5.504   0.439  -0.865  1.00  0.00     0.103 C 
HETATM   10  N4  UNL     1      -6.508   0.538  -0.285  1.00  0.00    -0.191 NA
HETATM   11  C16 UNL     1      -3.053   0.583  -0.967  1.00  0.00     0.066 A 
ENDROOT
BRANCH  11  12
HETATM   12  N5  UNL     1      -3.000   0.967   0.399  1.00  0.00    -0.354 N 
HETATM   13  H20 UNL     1      -3.052   2.007   0.248  1.00  0.00     0.166 HD
BRANCH  12  14
HETATM   14  C17 UNL     1      -2.908   0.372   1.664  1.00  0.00     0.033 A 
HETATM   15  C18 UNL     1      -2.877   1.196   2.765  1.00  0.00     0.029 A 
HETATM   16  C19 UNL     1      -2.788   0.545   3.980  1.00  0.00     0.004 A 
HETATM   17  C20 UNL     1      -2.734  -0.828   4.094  1.00  0.00     0.019 A 
HETATM   18  C21 UNL     1      -2.767  -1.630   2.973  1.00  0.00     0.013 A 
HETATM   19 BR1  UNL     1      -2.692  -3.520   3.130  1.00  0.00    -0.051 Br
HETATM   20  C22 UNL     1      -2.856  -1.003   1.746  1.00  0.00     0.048 A 
ENDBRANCH  12  14
ENDBRANCH  11  12
BRANCH   3  21
HETATM   21  N1  UNL     1       0.015  -0.192  -0.304  1.00  0.00    -0.381 N 
HETATM   22  H6  UNL     1      -0.286  -0.889   0.415  1.00  0.00     0.160 HD
BRANCH  21  23
HETATM   23  C5  UNL     1       1.406  -0.149   0.026  1.00  0.00    -0.001 C 
HETATM   24  C6  UNL     1       2.224  -1.179  -0.650  1.00  0.00     0.067 C 
HETATM   25  C7  UNL     1       2.173   0.624   0.820  1.00  0.00     0.014 C 
BRANCH  25  26
HETATM   26  C8  UNL     1       3.437   1.055   1.440  1.00  0.00     0.149 C 
BRANCH  26  27
HETATM   27  N2  UNL     1       4.586   0.282   1.069  1.00  0.00    -0.198 NA
HETATM   28  C9  UNL     1       4.606  -1.061   1.564  1.00  0.00     0.144 C 
BRANCH  27  29
HETATM   29  O2  UNL     1       5.679   0.976   1.380  1.00  0.00    -0.309 OA
HETATM   30  C10 UNL     1       5.861   1.148   2.755  1.00  0.00     0.229 C 
ENDBRANCH  27  29
ENDBRANCH  26  27
ENDBRANCH  25  26
ENDBRANCH  21  23
ENDBRANCH   3  21
BRANCH   1  31
HETATM   31  O1  UNL     1      -0.303  -0.322  -4.930  1.00  0.00    -0.354 OA
HETATM   32  C1  UNL     1      -0.904   0.418  -5.986  1.00  0.00     0.210 C 
ENDBRANCH   1  31
TORSDOF 8
