REMARK  9 active torsions:
REMARK  status: ('A' for Active; 'I' for Inactive)
REMARK    1  A    between atoms: N1_2  and  C2_3 
REMARK    2  A    between atoms: N1_2  and  C3_5 
REMARK    3  A    between atoms: C3_5  and  C4_6 
REMARK    4  A    between atoms: C4_6  and  N2_7 
REMARK    5  A    between atoms: C6_9  and  C7_10 
REMARK    6  A    between atoms: C7_10  and  C8_11 
REMARK    7  A    between atoms: C9_12  and  C10_13 
REMARK    8  A    between atoms: C12_15  and  N3_16 
REMARK    9  A    between atoms: N3_16  and  C13_17 
ROOT
HETATM    1  C10 UNL     1      -1.573   0.448  -0.460  1.00  0.00     0.058 A 
HETATM    2  C11 UNL     1      -2.848   0.931  -0.281  1.00  0.00     0.062 A 
HETATM    3  C12 UNL     1      -3.970   0.501  -0.956  1.00  0.00     0.057 A 
HETATM    4  C19 UNL     1      -3.790  -0.501  -1.893  1.00  0.00     0.088 A 
HETATM    5  C20 UNL     1      -4.890  -1.018  -2.653  1.00  0.00     0.103 C 
HETATM    6  N4  UNL     1      -5.787  -1.434  -3.254  1.00  0.00    -0.191 NA
HETATM    7  C21 UNL     1      -2.499  -0.957  -2.042  1.00  0.00     0.142 A 
HETATM    8  N5  UNL     1      -1.411  -0.532  -1.378  1.00  0.00    -0.260 NA
ENDROOT
BRANCH   3   9
HETATM    9  N3  UNL     1      -5.247   1.067  -0.702  1.00  0.00    -0.355 N 
HETATM   10  H17 UNL     1      -5.132   2.075  -0.942  1.00  0.00     0.166 HD
BRANCH   9  11
HETATM   11  C13 UNL     1      -6.458   0.513  -0.240  1.00  0.00     0.033 A 
HETATM   12  C14 UNL     1      -6.584  -0.801   0.114  1.00  0.00     0.029 A 
HETATM   13  C15 UNL     1      -7.774  -1.328   0.564  1.00  0.00     0.004 A 
HETATM   14  C16 UNL     1      -8.888  -0.508   0.666  1.00  0.00     0.019 A 
HETATM   15  C17 UNL     1      -8.724   0.818   0.299  1.00  0.00     0.013 A 
HETATM   16 BR1  UNL     1     -10.239   1.998   0.422  1.00  0.00    -0.051 Br
HETATM   17  C18 UNL     1      -7.539   1.360  -0.154  1.00  0.00     0.048 A 
ENDBRANCH   9  11
ENDBRANCH   3   9
BRANCH   1  18
HETATM   18  C9  UNL     1      -0.448   0.971   0.303  1.00  0.00     0.027 C 
HETATM   19  C8  UNL     1       0.792   0.533   0.162  1.00  0.00    -0.024 C 
BRANCH  19  20
HETATM   20  C7  UNL     1       1.888   1.130   0.991  1.00  0.00     0.035 C 
BRANCH  20  21
HETATM   21  C6  UNL     1       2.494   0.014   1.810  1.00  0.00     0.045 C 
HETATM   22  C5  UNL     1       3.094  -1.126   1.005  1.00  0.00     0.279 C 
HETATM   23  N2  UNL     1       4.307  -0.929   1.735  1.00  0.00     0.090 N 
HETATM   24  C22 UNL     1       3.895   0.302   2.323  1.00  0.00     0.279 C 
BRANCH  23  25
HETATM   25  C4  UNL     1       5.468  -0.935   0.925  1.00  0.00     0.292 C 
BRANCH  25  26
HETATM   26  C3  UNL     1       5.628   0.207  -0.024  1.00  0.00     0.154 C 
BRANCH  26  27
HETATM   27  N1  UNL     1       6.890  -0.043  -0.741  1.00  0.00    -0.362 N 
HETATM   28  C1  UNL     1       6.968  -0.793  -1.970  1.00  0.00     0.152 C 
BRANCH  27  29
HETATM   29  C2  UNL     1       8.020   0.510  -0.130  1.00  0.00     0.350 C 
HETATM   30  O1  UNL     1       8.307   1.193   0.903  1.00  0.00    -0.284 OA
ENDBRANCH  27  29
ENDBRANCH  26  27
ENDBRANCH  25  26
ENDBRANCH  23  25
ENDBRANCH  20  21
ENDBRANCH  19  20
ENDBRANCH   1  18
TORSDOF 9
