REMARK  1 active torsions:
REMARK  status: ('A' for Active; 'I' for Inactive)
REMARK    1  A    between atoms: N1_2  and  C2_3 
ROOT
HETATM    1  C2  UNL     1       2.104   1.884  -0.401  1.00  0.00     0.341 C 
HETATM    2  C3  UNL     1       2.172   0.467   0.089  1.00  0.00     0.177 C 
HETATM    3  N2  UNL     1       1.184  -0.421  -0.480  1.00  0.00    -0.386 N 
HETATM    4  C4  UNL     1       1.140  -1.823  -0.159  1.00  0.00     0.036 A 
HETATM    5  C5  UNL     1       2.187  -2.437  -0.864  1.00  0.00     0.048 A 
HETATM    6  C6  UNL     1       2.545  -3.793  -0.852  1.00  0.00     0.013 A 
HETATM    7 BR1  UNL     1       3.971  -4.536  -1.832  1.00  0.00    -0.051 Br
HETATM    8  C7  UNL     1       1.737  -4.553  -0.036  1.00  0.00     0.020 A 
HETATM    9  C8  UNL     1       0.714  -3.960   0.653  1.00  0.00     0.011 A 
HETATM   10  C9  UNL     1       0.369  -2.622   0.634  1.00  0.00    -0.028 A 
HETATM   11  C10 UNL     1      -0.809  -2.347   1.488  1.00  0.00     0.069 C 
HETATM   12  C11 UNL     1      -1.776  -1.447   0.809  1.00  0.00    -0.005 C 
HETATM   13  C12 UNL     1      -2.502  -0.364   0.809  1.00  0.00     0.081 C 
HETATM   14  N3  UNL     1      -3.392   0.651   0.413  1.00  0.00    -0.391 N 
HETATM   15  C13 UNL     1      -4.520  -0.127  -0.030  1.00  0.00     0.149 C 
HETATM   16  C14 UNL     1      -2.886   2.014   0.596  1.00  0.00     0.149 C 
HETATM   17  C15 UNL     1      -1.736   2.269  -0.331  1.00  0.00    -0.003 C 
HETATM   18  C16 UNL     1      -0.881   1.955  -1.282  1.00  0.00     0.052 C 
HETATM   19  C17 UNL     1       0.260   2.441  -2.071  1.00  0.00     0.173 C 
HETATM   20  O1  UNL     1       0.485   1.456  -2.867  1.00  0.00    -0.288 OA
HETATM   21  C18 UNL     1       0.602   3.803  -1.589  1.00  0.00     0.088 C 
HETATM   22  C19 UNL     1       0.960   3.863  -0.334  1.00  0.00     0.086 C 
HETATM   23  N4  UNL     1       1.137   2.711   0.219  1.00  0.00    -0.251 NA
HETATM   24  H6  UNL     1       0.380  -0.627  -1.089  1.00  0.00     0.159 HD
ENDROOT
BRANCH   1  25
HETATM   25  N1  UNL     1       3.280   2.458   0.349  1.00  0.00     0.039 NA
HETATM   26  C1  UNL     1       3.226   2.420   1.634  1.00  0.00     0.713 C 
ENDBRANCH   1  25
TORSDOF 1
