REMARK  11 active torsions:
REMARK  status: ('A' for Active; 'I' for Inactive)
REMARK    1  A    between atoms: C2_2  and  C3_3 
REMARK    2  A    between atoms: C3_3  and  C4_4 
REMARK    3  A    between atoms: C3_3  and  N1_7 
REMARK    4  A    between atoms: C4_4  and  O1_5 
REMARK    5  A    between atoms: N1_7  and  S1_8 
REMARK    6  A    between atoms: S1_8  and  C6_9 
REMARK    7  A    between atoms: C6_9  and  C7_10 
REMARK    8  A    between atoms: C8_11  and  C9_12 
REMARK       I    between atoms: C9_12  and  N2_14 
REMARK    9  A    between atoms: N2_14  and  C10_15 
REMARK   10  A    between atoms: C14_19  and  C15_20 
REMARK   11  A    between atoms: C15_20  and  N3_21 
ROOT
HETATM    1  C7  UNL     1       0.641  -0.091   0.888  1.00  0.00    -0.086 C 
HETATM    2  C8  UNL     1       1.776  -0.015   0.829  1.00  0.00    -0.005 C 
ENDROOT
BRANCH   2   3
HETATM    3  C9  UNL     1       3.168   0.062   0.776  1.00  0.00     0.297 C 
HETATM    4  O2  UNL     1       3.598   0.171  -0.440  1.00  0.00    -0.258 OA
HETATM    5  N2  UNL     1       4.268   0.057   1.580  1.00  0.00    -0.335 N 
HETATM    6  H15 UNL     1       4.028  -0.019   2.536  1.00  0.00     0.164 HD
BRANCH   5   7
HETATM    7  C10 UNL     1       5.680   0.166   1.187  1.00  0.00     0.110 A 
HETATM    8  C11 UNL     1       6.471   0.107   2.360  1.00  0.00     0.035 A 
HETATM    9  C12 UNL     1       7.577   0.214   1.546  1.00  0.00     0.075 A 
HETATM   10  C13 UNL     1       7.011   0.302   0.241  1.00  0.00     0.195 A 
HETATM   11  C15 UNL     1       6.675   0.293   0.169  1.00  0.00     0.195 A 
HETATM   12  C14 UNL     1       7.793   0.420  -0.753  1.00  0.00     0.269 A 
HETATM   13  N3  UNL     1       6.343   0.392  -1.151  1.00  0.00    -0.034 N 
HETATM   14  H19 UNL     1       5.666   0.364  -2.020  1.00  0.00     0.282 HD
ENDBRANCH   5   7
ENDBRANCH   2   3
BRANCH   1  15
HETATM   15  C6  UNL     1      -0.842  -0.188   0.937  1.00  0.00     0.177 C 
BRANCH  15  16
HETATM   16  S1  UNL     1      -1.268  -0.809  -0.704  1.00  0.00    -0.106 SA
HETATM   17  H12 UNL     1      -0.916  -2.169  -0.780  1.00  0.00     0.115 HD
BRANCH  16  18
HETATM   18  N1  UNL     1      -2.662  -0.459  -1.179  1.00  0.00    -0.264 NA
BRANCH  18  19
HETATM   19  C3  UNL     1      -3.735   0.255  -0.637  1.00  0.00     0.138 C 
BRANCH  19  20
HETATM   20  C2  UNL     1      -4.585   0.887  -1.683  1.00  0.00     0.025 C 
HETATM   21  C1  UNL     1      -5.597   1.842  -1.077  1.00  0.00     0.007 C 
ENDBRANCH  19  20
BRANCH  19  22
HETATM   22  C4  UNL     1      -4.464  -0.556   0.391  1.00  0.00     0.195 C 
BRANCH  22  23
HETATM   23  O1  UNL     1      -4.904  -1.773   0.018  1.00  0.00    -0.394 OA
HETATM   24  C5  UNL     1      -5.748  -2.000  -1.008  1.00  0.00     0.201 C 
ENDBRANCH  22  23
ENDBRANCH  19  22
ENDBRANCH  18  19
ENDBRANCH  16  18
ENDBRANCH  15  16
ENDBRANCH   1  15
TORSDOF 11
