REMARK  5 active torsions:
REMARK  status: ('A' for Active; 'I' for Inactive)
REMARK    1  A    between atoms: C6_6  and  N1_7 
REMARK    2  A    between atoms: N1_7  and  C7_8 
REMARK    3  A    between atoms: C12_15  and  N4_16 
REMARK       I    between atoms: N4_16  and  C13_17 
REMARK       I    between atoms: C13_17  and  N5_19 
REMARK    4  A    between atoms: N5_19  and  C15_21 
REMARK    5  A    between atoms: C15_21  and  C16_22 
ROOT
HETATM    1  C7  UNL     1      -1.784  -1.818  -0.526  1.00  0.00     0.138 A 
HETATM    2  N2  UNL     1      -2.306  -3.070  -0.575  1.00  0.00    -0.224 NA
HETATM    3  C8  UNL     1      -1.663  -4.132  -0.060  1.00  0.00     0.235 A 
HETATM    4  N3  UNL     1      -0.452  -3.988   0.535  1.00  0.00    -0.241 NA
HETATM    5  C9  UNL     1       0.147  -2.787   0.632  1.00  0.00     0.070 A 
HETATM    6  C10 UNL     1      -0.535  -1.712   0.096  1.00  0.00     0.022 A 
HETATM    7  C11 UNL     1       0.278  -0.467   0.289  1.00  0.00     0.102 A 
HETATM    8  C12 UNL     1       1.494  -0.959   0.983  1.00  0.00     0.020 A 
HETATM    9  C17 UNL     1       1.417  -2.289   1.180  1.00  0.00     0.057 A 
ENDROOT
BRANCH   1  10
HETATM   10  N1  UNL     1      -2.396  -0.656  -1.070  1.00  0.00    -0.340 N 
HETATM   11  H7  UNL     1      -1.839  -0.570  -1.945  1.00  0.00     0.167 HD
BRANCH  10  12
HETATM   12  C6  UNL     1      -3.440   0.233  -0.688  1.00  0.00     0.034 A 
HETATM   13  C5  UNL     1      -3.563   1.369  -1.457  1.00  0.00     0.029 A 
HETATM   14  C4  UNL     1      -4.581   2.228  -1.109  1.00  0.00     0.003 A 
HETATM   15  C3  UNL     1      -5.410   1.941  -0.053  1.00  0.00     0.007 A 
HETATM   16  C2  UNL     1      -5.264   0.793   0.702  1.00  0.00    -0.060 A 
HETATM   17  C1  UNL     1      -6.198   0.538   1.825  1.00  0.00     0.048 C 
HETATM   18  C18 UNL     1      -4.247  -0.097   0.380  1.00  0.00     0.036 A 
ENDBRANCH  10  12
ENDBRANCH   1  10
BRANCH   8  19
HETATM   19  N4  UNL     1       2.667  -0.297   1.442  1.00  0.00    -0.312 N 
HETATM   20  C13 UNL     1       3.314   0.334   0.356  1.00  0.00     0.322 C 
HETATM   21  O1  UNL     1       2.765   0.205  -0.776  1.00  0.00    -0.247 OA
HETATM   22  N5  UNL     1       4.535   1.094   0.476  1.00  0.00    -0.337 N 
HETATM   23  C14 UNL     1       5.211   1.260   1.742  1.00  0.00     0.154 C 
HETATM   24  H11 UNL     1       3.084  -0.217   2.394  1.00  0.00     0.170 HD
BRANCH  22  25
HETATM   25  C15 UNL     1       5.067   1.703  -0.726  1.00  0.00     0.142 C 
BRANCH  25  26
HETATM   26  C16 UNL     1       6.012   0.791  -1.461  1.00  0.00     0.134 C 
HETATM   27 CL1  UNL     1       6.581   1.647  -2.906  1.00  0.00    -0.129 Cl
ENDBRANCH  25  26
ENDBRANCH  22  25
ENDBRANCH   8  19
TORSDOF 5
