REMARK  6 active torsions:
REMARK  status: ('A' for Active; 'I' for Inactive)
REMARK    1  A    between atoms: C2_2  and  O1_3 
REMARK    2  A    between atoms: O1_3  and  C3_4 
REMARK    3  A    between atoms: C3_4  and  N1_5 
REMARK    4  A    between atoms: C3_4  and  C4_6 
REMARK    5  A    between atoms: C9_12  and  N3_13 
REMARK    6  A    between atoms: N3_13  and  C10_14 
ROOT
HETATM    1  C4  UNL     1       2.230  -0.716   0.021  1.00  0.00     0.044 C 
HETATM    2  C5  UNL     1       0.879  -0.973  -0.162  1.00  0.00    -0.014 A 
HETATM    3  C6  UNL     1      -0.179  -1.269  -0.344  1.00  0.00     0.123 A 
HETATM    4  C7  UNL     1      -0.665  -1.300  -1.401  1.00  0.00     0.140 A 
HETATM    5  C8  UNL     1      -1.646  -0.935  -2.383  1.00  0.00     0.077 C 
HETATM    6  N2  UNL     1      -2.454  -0.650  -3.197  1.00  0.00    -0.196 NA
HETATM    7  C9  UNL     1      -0.611  -0.734  -0.020  1.00  0.00     0.108 A 
HETATM    8  C16 UNL     1      -1.465  -1.674   0.802  1.00  0.00     0.174 A 
HETATM    9  N4  UNL     1      -0.377  -1.441   1.156  1.00  0.00    -0.299 NA
ENDROOT
BRANCH   7  10
HETATM   10  N3  UNL     1      -0.948   0.644   0.109  1.00  0.00    -0.373 N 
HETATM   11  H8  UNL     1      -0.117   1.313   0.133  1.00  0.00     0.161 HD
BRANCH  10  12
HETATM   12  C10 UNL     1      -2.164   1.367   0.218  1.00  0.00     0.030 A 
HETATM   13  C11 UNL     1      -2.260   2.741   0.358  1.00  0.00     0.029 A 
HETATM   14  C12 UNL     1      -3.512   3.304   0.447  1.00  0.00     0.004 A 
HETATM   15  C13 UNL     1      -4.667   2.559   0.404  1.00  0.00     0.019 A 
HETATM   16  C14 UNL     1      -4.604   1.166   0.263  1.00  0.00     0.013 A 
HETATM   17 BR1  UNL     1      -6.240   0.192   0.208  1.00  0.00    -0.051 Br
HETATM   18  C15 UNL     1      -3.322   0.618   0.174  1.00  0.00     0.048 A 
ENDBRANCH  10  12
ENDBRANCH   7  10
BRANCH   1  19
HETATM   19  C3  UNL     1       3.325  -1.693  -0.315  1.00  0.00     0.382 C 
BRANCH  19  20
HETATM   20  O1  UNL     1       4.199  -1.168  -1.274  1.00  0.00    -0.326 OA
BRANCH  20  21
HETATM   21  C2  UNL     1       4.915   0.004  -1.065  1.00  0.00     0.127 C 
HETATM   22  C1  UNL     1       5.480   0.224   0.136  1.00  0.00     0.037 C 
ENDBRANCH  20  21
ENDBRANCH  19  20
BRANCH  19  23
HETATM   23  N1  UNL     1       2.720  -2.945  -0.751  1.00  0.00     0.111 N 
HETATM   24  H5  UNL     1       2.131  -3.309   0.036  1.00  0.00     0.316 HD
HETATM   25  H6  UNL     1       2.122  -2.812  -1.594  1.00  0.00     0.316 HD
ENDBRANCH  19  23
ENDBRANCH   1  19
TORSDOF 6
