REMARK  6 active torsions:
REMARK  status: ('A' for Active; 'I' for Inactive)
REMARK    1  A    between atoms: C7_9  and  N3_10 
REMARK       I    between atoms: N3_10  and  C8_11 
REMARK    2  A    between atoms: C8_11  and  C9_13 
REMARK    3  A    between atoms: C10_14  and  C11_15 
REMARK    4  A    between atoms: C11_15  and  N4_16 
REMARK    5  A    between atoms: C17_22  and  N5_23 
REMARK    6  A    between atoms: N5_23  and  C18_24 
ROOT
HETATM    1  N1  UNL     1      -6.306   2.725   1.833  1.00  0.00    -0.191 NA
HETATM    2  C1  UNL     1      -5.265   2.729   1.330  1.00  0.00     0.103 C 
HETATM    3  C2  UNL     1      -3.962   2.731   0.727  1.00  0.00     0.089 A 
HETATM    4  C3  UNL     1      -3.640   3.873   0.004  1.00  0.00     0.142 A 
HETATM    5  N2  UNL     1      -2.432   3.967  -0.601  1.00  0.00    -0.259 NA
HETATM    6  C4  UNL     1      -1.536   2.966  -0.513  1.00  0.00     0.069 A 
HETATM    7  C5  UNL     1      -0.300   3.065  -1.131  1.00  0.00     0.035 A 
HETATM    8  C6  UNL     1       0.586   1.992  -0.997  1.00  0.00     0.032 A 
HETATM    9  C7  UNL     1       0.252   0.858  -0.273  1.00  0.00     0.036 A 
HETATM   10  C15 UNL     1      -0.978   0.778   0.333  1.00  0.00     0.045 A 
HETATM   11  C16 UNL     1      -1.857   1.833   0.204  1.00  0.00     0.023 A 
HETATM   12  C17 UNL     1      -3.061   1.672   0.842  1.00  0.00     0.067 A 
ENDROOT
BRANCH  12  13
HETATM   13  N5  UNL     1      -3.438   0.532   1.591  1.00  0.00    -0.354 N 
HETATM   14  H14 UNL     1      -3.224   0.404   2.596  1.00  0.00     0.166 HD
BRANCH  13  15
HETATM   15  C18 UNL     1      -4.157  -0.496   0.903  1.00  0.00     0.033 A 
HETATM   16  C19 UNL     1      -4.434  -0.291  -0.444  1.00  0.00     0.029 A 
HETATM   17  C20 UNL     1      -5.138  -1.279  -1.139  1.00  0.00     0.004 A 
HETATM   18  C21 UNL     1      -5.551  -2.427  -0.515  1.00  0.00     0.019 A 
HETATM   19  C22 UNL     1      -5.274  -2.633   0.832  1.00  0.00     0.013 A 
HETATM   20 BR1  UNL     1      -5.860  -4.249   1.699  1.00  0.00    -0.051 Br
HETATM   21  C23 UNL     1      -4.577  -1.656   1.521  1.00  0.00     0.048 A 
ENDBRANCH  13  15
ENDBRANCH  12  13
BRANCH   9  22
HETATM   22  N3  UNL     1       1.337  -0.055  -0.308  1.00  0.00    -0.316 N 
HETATM   23  C8  UNL     1       1.823  -1.136  -1.094  1.00  0.00     0.301 C 
HETATM   24  O1  UNL     1       1.257  -1.588  -2.135  1.00  0.00    -0.258 OA
HETATM   25  H4  UNL     1       1.875   0.257   0.554  1.00  0.00     0.170 HD
BRANCH  23  26
HETATM   26  C9  UNL     1       3.058  -1.739  -0.642  1.00  0.00    -0.004 C 
HETATM   27  C10 UNL     1       4.103  -2.260  -0.277  1.00  0.00    -0.066 C 
BRANCH  27  28
HETATM   28  C11 UNL     1       5.351  -2.875   0.173  1.00  0.00     0.366 C 
BRANCH  28  29
HETATM   29  N4  UNL     1       6.346  -1.872   0.389  1.00  0.00     0.099 N 
HETATM   30  C12 UNL     1       6.173  -0.953   1.470  1.00  0.00     0.275 C 
HETATM   31  C13 UNL     1       6.634   0.148   0.519  1.00  0.00     0.060 C 
HETATM   32  C14 UNL     1       6.501  -0.860  -0.615  1.00  0.00     0.275 C 
ENDBRANCH  28  29
ENDBRANCH  27  28
ENDBRANCH  23  26
ENDBRANCH   9  22
TORSDOF 6
