REMARK  6 active torsions:
REMARK  status: ('A' for Active; 'I' for Inactive)
REMARK    1  A    between atoms: N1_2  and  C2_3 
REMARK    2  A    between atoms: C2_3  and  C3_4 
REMARK    3  A    between atoms: C4_5  and  C5_6 
REMARK       I    between atoms: C5_6  and  N2_8 
REMARK    4  A    between atoms: N2_8  and  C6_9 
REMARK    5  A    between atoms: C13_18  and  N5_19 
REMARK    6  A    between atoms: N5_19  and  C14_20 
ROOT
HETATM    1  C6  UNL     1       0.595   1.293  -0.083  1.00  0.00     0.035 A 
HETATM    2  C7  UNL     1       0.892   2.433  -0.817  1.00  0.00     0.032 A 
HETATM    3  C8  UNL     1      -0.096   3.343  -1.173  1.00  0.00     0.035 A 
HETATM    4  C9  UNL     1      -1.408   3.079  -0.769  1.00  0.00     0.069 A 
HETATM    5  N3  UNL     1      -2.399   3.931  -1.089  1.00  0.00    -0.259 NA
HETATM    6  C10 UNL     1      -3.643   3.632  -0.676  1.00  0.00     0.142 A 
HETATM    7  C11 UNL     1      -3.985   2.514   0.054  1.00  0.00     0.089 A 
HETATM    8  C12 UNL     1      -5.336   2.311   0.430  1.00  0.00     0.103 C 
HETATM    9  N4  UNL     1      -6.432   2.156   0.748  1.00  0.00    -0.191 NA
HETATM   10  C13 UNL     1      -2.963   1.624   0.391  1.00  0.00     0.067 A 
HETATM   11  C20 UNL     1      -1.683   1.941  -0.040  1.00  0.00     0.023 A 
HETATM   12  C21 UNL     1      -0.700   1.046   0.308  1.00  0.00     0.045 A 
ENDROOT
BRANCH  10  13
HETATM   13  N5  UNL     1      -3.268   0.461   1.145  1.00  0.00    -0.354 N 
HETATM   14  H13 UNL     1      -3.190   0.579   2.182  1.00  0.00     0.166 HD
BRANCH  13  15
HETATM   15  C14 UNL     1      -3.645  -0.756   0.561  1.00  0.00     0.033 A 
HETATM   16  C15 UNL     1      -3.763  -0.819  -0.824  1.00  0.00     0.029 A 
HETATM   17  C16 UNL     1      -4.132  -2.004  -1.419  1.00  0.00     0.004 A 
HETATM   18  C17 UNL     1      -4.377  -3.111  -0.603  1.00  0.00     0.019 A 
HETATM   19  C18 UNL     1      -4.260  -3.050   0.782  1.00  0.00     0.013 A 
HETATM   20 BR1  UNL     1      -4.596  -4.566   1.874  1.00  0.00    -0.051 Br
HETATM   21  C19 UNL     1      -3.887  -1.849   1.368  1.00  0.00     0.048 A 
ENDBRANCH  13  15
ENDBRANCH  10  13
BRANCH   1  22
HETATM   22  N2  UNL     1       1.780   0.507   0.164  1.00  0.00    -0.324 N 
HETATM   23  C5  UNL     1       2.562   0.734   1.350  1.00  0.00     0.245 C 
HETATM   24  O1  UNL     1       1.978   1.659   1.966  1.00  0.00    -0.268 OA
HETATM   25  H9  UNL     1       1.859  -0.155  -0.656  1.00  0.00     0.169 HD
BRANCH  23  26
HETATM   26  C4  UNL     1       3.705  -0.167   1.392  1.00  0.00     0.072 C 
HETATM   27  C3  UNL     1       4.369  -1.136   0.802  1.00  0.00     0.008 C 
BRANCH  27  28
HETATM   28  C2  UNL     1       5.579  -1.670   1.425  1.00  0.00     0.296 C 
BRANCH  28  29
HETATM   29  N1  UNL     1       6.773  -1.530   0.602  1.00  0.00     0.082 N 
HETATM   30  C1  UNL     1       6.746  -2.348  -0.570  1.00  0.00     0.307 C 
HETATM   31  H4  UNL     1       6.917  -0.532   0.319  1.00  0.00     0.315 HD
ENDBRANCH  28  29
ENDBRANCH  27  28
ENDBRANCH  23  26
ENDBRANCH   1  22
TORSDOF 6
