REMARK  7 active torsions:
REMARK  status: ('A' for Active; 'I' for Inactive)
REMARK    1  A    between atoms: N1_2  and  C2_3 
REMARK    2  A    between atoms: C2_3  and  C3_4 
REMARK    3  A    between atoms: C4_5  and  C5_6 
REMARK    4  A    between atoms: C5_6  and  N2_7 
REMARK    5  A    between atoms: C5_6  and  C6_8 
REMARK    6  A    between atoms: C13_17  and  N5_18 
REMARK    7  A    between atoms: N5_18  and  C14_19 
ROOT
HETATM    1  C6  UNL     1       1.019   0.629   0.425  1.00  0.00    -0.021 A 
HETATM    2  C7  UNL     1       1.410   0.232   1.699  1.00  0.00     0.012 A 
HETATM    3  C8  UNL     1       0.504   0.002   2.727  1.00  0.00     0.033 A 
HETATM    4  C9  UNL     1      -0.851   0.178   2.469  1.00  0.00     0.069 A 
HETATM    5  N3  UNL     1      -1.765  -0.026   3.432  1.00  0.00    -0.259 NA
HETATM    6  C10 UNL     1      -3.082   0.142   3.217  1.00  0.00     0.142 A 
HETATM    7  C11 UNL     1      -3.491   0.541   1.941  1.00  0.00     0.089 A 
HETATM    8  C12 UNL     1      -4.903   0.703   1.773  1.00  0.00     0.103 C 
HETATM    9  N4  UNL     1      -6.043   0.840   1.619  1.00  0.00    -0.191 NA
HETATM   10  C13 UNL     1      -2.542   0.753   0.940  1.00  0.00     0.067 A 
HETATM   11  C20 UNL     1      -1.212   0.572   1.198  1.00  0.00     0.021 A 
HETATM   12  C21 UNL     1      -0.326   0.809   0.148  1.00  0.00     0.025 A 
ENDROOT
BRANCH  10  13
HETATM   13  N5  UNL     1      -3.123   1.159  -0.270  1.00  0.00    -0.354 N 
HETATM   14  H15 UNL     1      -3.188   2.144  -0.668  1.00  0.00     0.166 HD
BRANCH  13  15
HETATM   15  C14 UNL     1      -3.700   0.137  -1.076  1.00  0.00     0.033 A 
HETATM   16  C15 UNL     1      -3.699  -1.186  -0.647  1.00  0.00     0.029 A 
HETATM   17  C16 UNL     1      -4.244  -2.220  -1.361  1.00  0.00     0.004 A 
HETATM   18  C17 UNL     1      -4.816  -1.871  -2.572  1.00  0.00     0.019 A 
HETATM   19  C18 UNL     1      -4.872  -0.596  -3.090  1.00  0.00     0.013 A 
HETATM   20 BR1  UNL     1      -5.682  -0.186  -4.774  1.00  0.00    -0.051 Br
HETATM   21  C19 UNL     1      -4.293   0.377  -2.293  1.00  0.00     0.048 A 
ENDBRANCH  13  15
ENDBRANCH  10  13
BRANCH   1  22
HETATM   22  C5  UNL     1       2.084   0.852  -0.599  1.00  0.00     0.273 C 
BRANCH  22  23
HETATM   23  C4  UNL     1       2.623  -0.448  -1.091  1.00  0.00     0.010 C 
HETATM   24  C3  UNL     1       3.612  -1.175  -0.626  1.00  0.00     0.001 C 
BRANCH  24  25
HETATM   25  C2  UNL     1       4.626  -1.209   0.433  1.00  0.00     0.296 C 
BRANCH  25  26
HETATM   26  N1  UNL     1       5.985  -1.270  -0.033  1.00  0.00     0.082 N 
HETATM   27  C1  UNL     1       6.465  -0.093  -0.685  1.00  0.00     0.307 C 
HETATM   28  H4  UNL     1       6.199  -2.132  -0.562  1.00  0.00     0.315 HD
ENDBRANCH  25  26
ENDBRANCH  24  25
ENDBRANCH  22  23
BRANCH  22  29
HETATM   29  N2  UNL     1       3.116   1.659   0.001  1.00  0.00     0.090 N 
HETATM   30  H10 UNL     1       2.924   1.730   1.019  1.00  0.00     0.314 HD
HETATM   31  H11 UNL     1       3.061   2.617  -0.389  1.00  0.00     0.314 HD
ENDBRANCH  22  29
ENDBRANCH   1  22
TORSDOF 7
