REMARK  6 active torsions:
REMARK  status: ('A' for Active; 'I' for Inactive)
REMARK    1  A    between atoms: N1_2  and  C3_4 
REMARK    2  A    between atoms: C3_4  and  C4_5 
REMARK    3  A    between atoms: C5_6  and  C6_7 
REMARK    4  A    between atoms: C6_7  and  C7_8 
REMARK    5  A    between atoms: C14_17  and  N4_18 
REMARK    6  A    between atoms: N4_18  and  C15_19 
ROOT
HETATM    1  C7  UNL     1       0.964   0.391   0.751  1.00  0.00     0.056 A 
HETATM    2  C8  UNL     1       1.025   1.718   0.952  1.00  0.00     0.035 A 
HETATM    3  C9  UNL     1      -0.035   2.703   0.746  1.00  0.00     0.035 A 
HETATM    4  C10 UNL     1      -1.268   2.514   0.307  1.00  0.00     0.071 A 
HETATM    5  N2  UNL     1      -1.878   3.690   0.279  1.00  0.00    -0.259 NA
HETATM    6  C11 UNL     1      -3.170   3.741  -0.153  1.00  0.00     0.142 A 
HETATM    7  C12 UNL     1      -3.836   2.579  -0.555  1.00  0.00     0.089 A 
HETATM    8  C13 UNL     1      -5.202   2.657  -1.009  1.00  0.00     0.103 C 
HETATM    9  N3  UNL     1      -6.313   2.711  -1.396  1.00  0.00    -0.191 NA
HETATM   10  C14 UNL     1      -3.139   1.396  -0.498  1.00  0.00     0.069 A 
HETATM   11  C21 UNL     1      -1.832   1.311  -0.066  1.00  0.00     0.043 A 
HETATM   12  C22 UNL     1      -1.410   0.057  -0.098  1.00  0.00     0.158 A 
HETATM   13  O1  UNL     1      -0.135  -0.324   0.298  1.00  0.00    -0.326 OA
ENDROOT
BRANCH  10  14
HETATM   14  N4  UNL     1      -3.859   0.228  -0.918  1.00  0.00    -0.354 N 
HETATM   15  H16 UNL     1      -3.891  -0.058  -1.921  1.00  0.00     0.166 HD
BRANCH  14  16
HETATM   16  C15 UNL     1      -4.559  -0.594  -0.006  1.00  0.00     0.033 A 
HETATM   17  C16 UNL     1      -5.336  -1.709  -0.343  1.00  0.00     0.029 A 
HETATM   18  C17 UNL     1      -5.969  -2.435   0.672  1.00  0.00     0.004 A 
HETATM   19  C18 UNL     1      -5.847  -2.083   1.996  1.00  0.00     0.019 A 
HETATM   20  C19 UNL     1      -5.086  -0.990   2.346  1.00  0.00     0.013 A 
HETATM   21 BR1  UNL     1      -4.899  -0.478   4.173  1.00  0.00    -0.051 Br
HETATM   22  C20 UNL     1      -4.464  -0.275   1.346  1.00  0.00     0.048 A 
ENDBRANCH  14  16
ENDBRANCH  10  14
BRANCH   1  23
HETATM   23  C6  UNL     1       2.166  -0.440   1.025  1.00  0.00     0.091 C 
BRANCH  23  24
HETATM   24  C5  UNL     1       2.583  -1.193  -0.199  1.00  0.00    -0.022 C 
HETATM   25  C4  UNL     1       3.765  -1.044  -0.769  1.00  0.00    -0.001 C 
BRANCH  25  26
HETATM   26  C3  UNL     1       5.073  -0.370  -0.753  1.00  0.00     0.298 C 
BRANCH  26  27
HETATM   27  N1  UNL     1       6.155  -1.322  -0.631  1.00  0.00     0.083 N 
HETATM   28  C1  UNL     1       6.196  -2.091  -1.866  1.00  0.00     0.309 C 
HETATM   29  C2  UNL     1       7.393  -0.613  -0.445  1.00  0.00     0.309 C 
ENDBRANCH  26  27
ENDBRANCH  25  26
ENDBRANCH  23  24
ENDBRANCH   1  23
TORSDOF 6
