REMARK  3 active torsions:
REMARK  status: ('A' for Active; 'I' for Inactive)
REMARK    1  A    between atoms: C6_8  and  C7_9 
REMARK    2  A    between atoms: C10_13  and  C11_14 
REMARK    3  A    between atoms: C11_14  and  N3_15 
ROOT
HETATM    1  N1  UNL     1       4.943  -3.002  -0.297  1.00  0.00    -0.191 NA
HETATM    2  C1  UNL     1       5.149  -1.891   0.006  1.00  0.00     0.100 C 
HETATM    3  C2  UNL     1       5.388  -0.502   0.383  1.00  0.00     0.057 A 
HETATM    4  C3  UNL     1       6.607  -0.264   0.935  1.00  0.00     0.042 A 
HETATM    5  C4  UNL     1       6.738   1.092   1.261  1.00  0.00     0.118 A 
HETATM    6  N2  UNL     1       5.797   2.012   1.057  1.00  0.00    -0.272 NA
HETATM    7  C5  UNL     1       4.611   1.678   0.499  1.00  0.00     0.129 A 
HETATM    8  C6  UNL     1       4.343   0.350   0.123  1.00  0.00     0.004 A 
ENDROOT
BRANCH   8   9
HETATM    9  C7  UNL     1       3.116  -0.053  -0.504  1.00  0.00     0.041 C 
HETATM   10  C8  UNL     1       1.841   0.057  -0.213  1.00  0.00     0.037 C 
HETATM   11  C9  UNL     1       0.929  -0.545  -1.227  1.00  0.00     0.232 C 
HETATM   12  N4  UNL     1       1.462   0.685   1.001  1.00  0.00    -0.325 N 
HETATM   13  O1  UNL     1      -0.424  -0.460  -0.902  1.00  0.00    -0.348 OA
HETATM   14  C10 UNL     1      -1.219  -0.728   0.188  1.00  0.00     0.080 C 
HETATM   15  C16 UNL     1      -0.861  -0.372   1.436  1.00  0.00     0.108 C 
HETATM   16  C17 UNL     1       0.361   0.320   1.819  1.00  0.00     0.247 C 
HETATM   17  O3  UNL     1       0.463   0.640   3.040  1.00  0.00    -0.268 OA
HETATM   18  H18 UNL     1       2.056   1.475   1.302  1.00  0.00     0.169 HD
BRANCH  14  19
HETATM   19  C11 UNL     1      -2.525  -1.426   0.055  1.00  0.00     0.337 C 
BRANCH  19  20
HETATM   20  N3  UNL     1      -3.442  -0.683  -0.791  1.00  0.00     0.098 N 
HETATM   21  C12 UNL     1      -4.721  -1.334  -0.956  1.00  0.00     0.299 C 
HETATM   22  C13 UNL     1      -5.515  -0.441  -1.914  1.00  0.00     0.198 C 
HETATM   23  O2  UNL     1      -5.868   0.739  -1.286  1.00  0.00    -0.388 OA
HETATM   24  C14 UNL     1      -5.133   1.010  -0.154  1.00  0.00     0.198 C 
HETATM   25  C15 UNL     1      -3.700   0.628  -0.232  1.00  0.00     0.299 C 
ENDBRANCH  19  20
ENDBRANCH  14  19
ENDBRANCH   8   9
TORSDOF 3
