REMARK  4 active torsions:
REMARK  status: ('A' for Active; 'I' for Inactive)
REMARK    1  A    between atoms: N1_2  and  C3_4 
REMARK    2  A    between atoms: C3_4  and  C4_5 
REMARK    3  A    between atoms: C5_6  and  C6_7 
REMARK       I    between atoms: C6_7  and  N2_9 
REMARK    4  A    between atoms: N2_9  and  C7_10 
ROOT
HETATM    1  C7  UNL     1      -0.915   0.175  -1.106  1.00  0.00     0.127 C 
HETATM    2  C8  UNL     1      -1.862  -0.866  -0.374  1.00  0.00     0.011 C 
HETATM    3  C9  UNL     1      -3.098  -0.978   0.149  1.00  0.00    -0.012 A 
HETATM    4  C10 UNL     1      -3.178  -2.367   0.658  1.00  0.00     0.189 A 
HETATM    5  N3  UNL     1      -4.441  -2.748   1.186  1.00  0.00    -0.295 NA
HETATM    6  C11 UNL     1      -5.495  -2.039   1.303  1.00  0.00     0.135 A 
HETATM    7  C12 UNL     1      -5.313  -0.706   0.820  1.00  0.00     0.088 A 
HETATM    8  C13 UNL     1      -6.510   0.109   0.968  1.00  0.00     0.103 C 
HETATM    9  N4  UNL     1      -7.482   0.774   1.077  1.00  0.00    -0.191 NA
HETATM   10  C14 UNL     1      -4.280  -0.073   0.273  1.00  0.00     0.059 A 
HETATM   11  N5  UNL     1      -4.413   1.340  -0.099  1.00  0.00    -0.375 N 
HETATM   12  C15 UNL     1      -2.987   1.671  -0.184  1.00  0.00     0.072 A 
HETATM   13  C16 UNL     1      -3.241   1.641  -1.529  1.00  0.00     0.057 A 
HETATM   14  C17 UNL     1      -2.065   1.478  -2.212  1.00  0.00    -0.026 A 
HETATM   15  C18 UNL     1      -1.635   1.482  -0.925  1.00  0.00     0.048 A 
HETATM   16  C19 UNL     1      -1.247   1.490   0.358  1.00  0.00    -0.010 A 
HETATM   17 BR1  UNL     1      -0.434   1.506   2.029  1.00  0.00    -0.123 Br
HETATM   18  C20 UNL     1      -2.444   1.666   1.070  1.00  0.00     0.118 A 
HETATM   19  H17 UNL     1      -5.399   1.684  -0.196  1.00  0.00     0.160 HD
ENDROOT
BRANCH   1  20
HETATM   20  N2  UNL     1       0.398  -0.042  -0.832  1.00  0.00    -0.348 N 
HETATM   21  C6  UNL     1       1.733  -0.255  -0.538  1.00  0.00     0.241 C 
HETATM   22  O1  UNL     1       2.136   0.154   0.600  1.00  0.00    -0.269 OA
HETATM   23  H11 UNL     1       0.660  -0.543  -1.766  1.00  0.00     0.163 HD
BRANCH  21  24
HETATM   24  C5  UNL     1       2.960  -0.810  -1.034  1.00  0.00     0.072 C 
HETATM   25  C4  UNL     1       4.069  -0.802  -0.365  1.00  0.00     0.008 C 
BRANCH  25  26
HETATM   26  C3  UNL     1       4.801  -0.435   0.862  1.00  0.00     0.299 C 
BRANCH  26  27
HETATM   27  N1  UNL     1       5.911   0.428   0.520  1.00  0.00     0.083 N 
HETATM   28  C1  UNL     1       5.417   1.678   0.047  1.00  0.00     0.309 C 
HETATM   29  C2  UNL     1       6.790  -0.274  -0.378  1.00  0.00     0.309 C 
ENDBRANCH  26  27
ENDBRANCH  25  26
ENDBRANCH  21  24
ENDBRANCH   1  20
TORSDOF 4
