REMARK  7 active torsions:
REMARK  status: ('A' for Active; 'I' for Inactive)
REMARK    1  A    between atoms: C4_6  and  C5_7 
REMARK       I    between atoms: N3_9  and  C7_10 
REMARK    2  A    between atoms: C7_10  and  C8_12 
REMARK    3  A    between atoms: C9_13  and  C10_14 
REMARK    4  A    between atoms: C10_14  and  N4_15 
REMARK    5  A    between atoms: C15_21  and  O3_22 
REMARK    6  A    between atoms: C17_24  and  N5_25 
REMARK    7  A    between atoms: N5_25  and  C18_26 
ROOT
HETATM    1  N1  UNL     1       7.603   1.902   0.586  1.00  0.00    -0.191 NA
HETATM    2  C1  UNL     1       6.461   1.754   0.745  1.00  0.00     0.103 C 
HETATM    3  C2  UNL     1       5.043   1.573   0.919  1.00  0.00     0.088 A 
HETATM    4  C3  UNL     1       4.541   2.004   2.136  1.00  0.00     0.142 A 
HETATM    5  N2  UNL     1       3.213   1.864   2.360  1.00  0.00    -0.263 NA
HETATM    6  C4  UNL     1       2.397   1.316   1.417  1.00  0.00     0.046 A 
HETATM    7  C16 UNL     1       2.875   0.887   0.214  1.00  0.00     0.059 A 
HETATM    8  C17 UNL     1       4.241   1.011  -0.062  1.00  0.00     0.057 A 
ENDROOT
BRANCH   8   9
HETATM    9  N5  UNL     1       4.808   0.588  -1.294  1.00  0.00    -0.355 N 
HETATM   10  H20 UNL     1       4.315   1.170  -2.020  1.00  0.00     0.166 HD
BRANCH   9  11
HETATM   11  C18 UNL     1       5.800  -0.368  -1.657  1.00  0.00     0.034 A 
HETATM   12  C19 UNL     1       6.148  -0.471  -2.982  1.00  0.00     0.032 A 
HETATM   13  C20 UNL     1       7.097  -1.394  -3.305  1.00  0.00     0.046 A 
HETATM   14  C21 UNL     1       7.665  -2.175  -2.325  1.00  0.00     0.138 A 
HETATM   15  F1  UNL     1       8.621  -3.107  -2.646  1.00  0.00    -0.204 F 
HETATM   16  C22 UNL     1       7.325  -2.082  -0.987  1.00  0.00     0.074 A 
HETATM   17 CL1  UNL     1       8.066  -3.088   0.236  1.00  0.00    -0.081 Cl
HETATM   18  C23 UNL     1       6.362  -1.143  -0.671  1.00  0.00     0.056 A 
ENDBRANCH   9  11
ENDBRANCH   8   9
BRANCH   6  19
HETATM   19  C5  UNL     1       0.963   1.211   1.766  1.00  0.00     0.105 C 
HETATM   20  C6  UNL     1       0.297  -0.081   1.420  1.00  0.00     0.144 C 
HETATM   21  N3  UNL     1      -0.893   0.692   1.115  1.00  0.00    -0.320 N 
HETATM   22  C7  UNL     1      -2.247   0.293   1.274  1.00  0.00     0.245 C 
HETATM   23  C15 UNL     1       0.008   1.750   0.692  1.00  0.00     0.234 C 
HETATM   24  O1  UNL     1      -2.269  -0.872   1.744  1.00  0.00    -0.268 OA
BRANCH  22  25
HETATM   25  C8  UNL     1      -3.375   1.129   0.936  1.00  0.00     0.072 C 
HETATM   26  C9  UNL     1      -4.625   0.751   1.091  1.00  0.00     0.008 C 
BRANCH  26  27
HETATM   27  C10 UNL     1      -5.306  -0.446   1.577  1.00  0.00     0.300 C 
BRANCH  27  28
HETATM   28  N4  UNL     1      -6.171  -1.084   0.604  1.00  0.00     0.096 N 
HETATM   29  C11 UNL     1      -5.392  -1.671  -0.481  1.00  0.00     0.299 C 
HETATM   30  C12 UNL     1      -6.327  -2.181  -1.555  1.00  0.00     0.198 C 
HETATM   31  O2  UNL     1      -7.632  -2.225  -1.062  1.00  0.00    -0.388 OA
HETATM   32  C13 UNL     1      -8.122  -0.949  -0.759  1.00  0.00     0.198 C 
HETATM   33  C14 UNL     1      -7.127  -0.147   0.041  1.00  0.00     0.299 C 
ENDBRANCH  27  28
ENDBRANCH  26  27
ENDBRANCH  22  25
BRANCH  23  34
HETATM   34  O3  UNL     1      -0.438   3.038   0.949  1.00  0.00    -0.376 OA
HETATM   35  H18 UNL     1       0.314   3.553   1.348  1.00  0.00     0.212 HD
ENDBRANCH  23  34
ENDBRANCH   6  19
TORSDOF 7
