REMARK  6 active torsions:
REMARK  status: ('A' for Active; 'I' for Inactive)
REMARK    1  A    between atoms: C2_2  and  C3_3 
REMARK    2  A    between atoms: C3_3  and  C4_4 
REMARK    3  A    between atoms: C3_3  and  C6_7 
REMARK    4  A    between atoms: C13_16  and  N3_17 
REMARK    5  A    between atoms: N3_17  and  C14_18 
REMARK    6  A    between atoms: C14_18  and  C15_19 
ROOT
HETATM    1  C6  UNL     1      -1.392  -0.782  -0.655  1.00  0.00    -0.015 A 
HETATM    2  C7  UNL     1      -1.979  -1.675  -1.564  1.00  0.00     0.070 A 
HETATM    3  C8  UNL     1      -3.423  -1.834  -1.497  1.00  0.00     0.101 C 
HETATM    4  N1  UNL     1      -4.572  -1.959  -1.424  1.00  0.00    -0.191 NA
HETATM    5  C9  UNL     1      -1.323  -2.422  -2.520  1.00  0.00     0.140 A 
HETATM    6  N2  UNL     1       0.030  -2.279  -2.590  1.00  0.00    -0.259 NA
HETATM    7  C10 UNL     1       0.686  -1.446  -1.762  1.00  0.00     0.067 A 
HETATM    8  C11 UNL     1       2.059  -1.287  -1.833  1.00  0.00     0.035 A 
HETATM    9  C12 UNL     1       2.762  -0.420  -0.991  1.00  0.00     0.031 A 
HETATM   10  C13 UNL     1       2.033   0.309  -0.046  1.00  0.00     0.029 A 
HETATM   11  C16 UNL     1       0.669   0.120  -0.009  1.00  0.00     0.043 A 
HETATM   12  C17 UNL     1      -0.028  -0.732  -0.833  1.00  0.00     0.003 A 
ENDROOT
BRANCH   1  13
HETATM   13  C3  UNL     1      -2.223  -0.046   0.310  1.00  0.00     0.048 C 
BRANCH  13  14
HETATM   14  C2  UNL     1      -1.764  -0.071   1.700  1.00  0.00     0.003 C 
HETATM   15  C1  UNL     1      -2.314  -0.892   2.618  1.00  0.00     0.006 C 
ENDBRANCH  13  14
BRANCH  13  16
HETATM   16  C4  UNL     1      -2.485   1.359  -0.168  1.00  0.00    -0.010 C 
HETATM   17  C5  UNL     1      -3.668   1.960   0.044  1.00  0.00     0.052 C 
HETATM   18 BR1  UNL     1      -4.005   3.729  -0.554  1.00  0.00    -0.064 Br
ENDBRANCH  13  16
ENDBRANCH   1  13
BRANCH  10  19
HETATM   19  N3  UNL     1       2.730   1.197   0.819  1.00  0.00    -0.384 N 
HETATM   20  H10 UNL     1       2.167   1.735   1.522  1.00  0.00     0.160 HD
BRANCH  19  21
HETATM   21  C14 UNL     1       4.178   1.268   0.636  1.00  0.00     0.189 C 
BRANCH  21  22
HETATM   22  C15 UNL     1       4.758   2.237   1.612  1.00  0.00     0.250 C 
HETATM   23  O1  UNL     1       4.138   2.890   2.453  1.00  0.00    -0.305 OA
ENDBRANCH  21  22
ENDBRANCH  19  21
ENDBRANCH  10  19
TORSDOF 6
