REMARK  7 active torsions:
REMARK  status: ('A' for Active; 'I' for Inactive)
REMARK    1  A    between atoms: C2_2  and  C3_3 
REMARK    2  A    between atoms: C2_2  and  N2_8 
REMARK    3  A    between atoms: C3_3  and  C4_4 
REMARK    4  A    between atoms: C4_4  and  N1_5 
REMARK    5  A    between atoms: N2_8  and  C7_9 
REMARK    6  A    between atoms: C14_18  and  N5_19 
REMARK    7  A    between atoms: N5_19  and  C15_20 
ROOT
HETATM    1  C7  UNL     1      -0.479  -0.356  -0.963  1.00  0.00     0.029 A 
HETATM    2  C8  UNL     1      -0.748  -1.190  -2.026  1.00  0.00     0.031 A 
HETATM    3  C9  UNL     1       0.068  -2.210  -2.468  1.00  0.00     0.035 A 
HETATM    4  C10 UNL     1       1.252  -2.410  -1.790  1.00  0.00     0.069 A 
HETATM    5  N3  UNL     1       2.088  -3.384  -2.170  1.00  0.00    -0.259 NA
HETATM    6  C11 UNL     1       3.236  -3.556  -1.490  1.00  0.00     0.142 A 
HETATM    7  C12 UNL     1       3.629  -2.798  -0.413  1.00  0.00     0.089 A 
HETATM    8  C13 UNL     1       4.882  -3.039   0.276  1.00  0.00     0.103 C 
HETATM    9  N4  UNL     1       5.892  -3.232   0.846  1.00  0.00    -0.191 NA
HETATM   10  C14 UNL     1       2.763  -1.796  -0.026  1.00  0.00     0.067 A 
HETATM   11  C21 UNL     1       1.574  -1.606  -0.719  1.00  0.00     0.023 A 
HETATM   12  C22 UNL     1       0.714  -0.615  -0.339  1.00  0.00     0.045 A 
ENDROOT
BRANCH  10  13
HETATM   13  N5  UNL     1       3.101  -0.983   1.067  1.00  0.00    -0.354 N 
HETATM   14  H19 UNL     1       2.738  -1.391   1.964  1.00  0.00     0.166 HD
BRANCH  13  15
HETATM   15  C15 UNL     1       3.821   0.222   1.045  1.00  0.00     0.033 A 
HETATM   16  C16 UNL     1       4.083   0.922   2.208  1.00  0.00     0.029 A 
HETATM   17  C17 UNL     1       4.791   2.108   2.197  1.00  0.00     0.004 A 
HETATM   18  C18 UNL     1       5.231   2.568   0.956  1.00  0.00     0.019 A 
HETATM   19  C19 UNL     1       4.973   1.875  -0.209  1.00  0.00     0.013 A 
HETATM   20 BR1  UNL     1       5.608   2.565  -1.883  1.00  0.00    -0.051 Br
HETATM   21  C20 UNL     1       4.263   0.686  -0.189  1.00  0.00     0.048 A 
ENDBRANCH  13  15
ENDBRANCH  10  13
BRANCH   1  22
HETATM   22  N2  UNL     1      -1.318   0.678  -0.513  1.00  0.00    -0.386 N 
HETATM   23  H15 UNL     1      -0.959   1.247   0.313  1.00  0.00     0.160 HD
BRANCH  22  24
HETATM   24  C2  UNL     1      -2.614   1.078  -1.023  1.00  0.00     0.079 C 
HETATM   25  C1  UNL     1      -2.524   1.386  -2.494  1.00  0.00     0.032 C 
BRANCH  24  26
HETATM   26  C3  UNL     1      -3.706   0.097  -0.774  1.00  0.00     0.055 C 
BRANCH  26  27
HETATM   27  C4  UNL     1      -3.844  -0.254   0.697  1.00  0.00     0.273 C 
BRANCH  27  28
HETATM   28  N1  UNL     1      -4.140   0.986   1.423  1.00  0.00     0.080 N 
HETATM   29  C5  UNL     1      -4.273   0.654   2.841  1.00  0.00     0.309 C 
HETATM   30  C6  UNL     1      -5.369   1.567   0.918  1.00  0.00     0.309 C 
ENDBRANCH  27  28
ENDBRANCH  26  27
ENDBRANCH  24  26
ENDBRANCH  22  24
ENDBRANCH   1  22
TORSDOF 7
