REMARK  6 active torsions:
REMARK  status: ('A' for Active; 'I' for Inactive)
REMARK    1  A    between atoms: C2_2  and  C3_3 
REMARK       I    between atoms: C3_3  and  N1_5 
REMARK    2  A    between atoms: N1_5  and  C4_6 
REMARK    3  A    between atoms: C6_8  and  C7_9 
REMARK    4  A    between atoms: C9_11  and  N2_12 
REMARK    5  A    between atoms: N2_12  and  C10_13 
REMARK    6  A    between atoms: C16_20  and  C17_21 
ROOT
HETATM    1  C7  UNL     1       1.575  -0.291  -0.192  1.00  0.00     0.138 A 
HETATM    2  C8  UNL     1       0.452  -0.352   0.769  1.00  0.00     0.089 A 
HETATM    3  C9  UNL     1      -0.828  -0.648   0.124  1.00  0.00     0.023 A 
HETATM    4  C16 UNL     1      -1.103  -0.857  -1.137  1.00  0.00    -0.000 A 
HETATM    5  C19 UNL     1       0.060  -0.774  -1.982  1.00  0.00     0.124 A 
HETATM    6  N3  UNL     1       1.184  -0.529  -1.532  1.00  0.00    -0.291 NA
ENDROOT
BRANCH   1   7
HETATM    7  C6  UNL     1       2.340   1.008  -0.069  1.00  0.00     0.025 C 
HETATM    8  C4  UNL     1       3.661   1.116  -0.060  1.00  0.00     0.006 C 
HETATM    9  C5  UNL     1       4.153   2.505   0.072  1.00  0.00     0.068 C 
BRANCH   8  10
HETATM   10  N1  UNL     1       4.320  -0.145  -0.180  1.00  0.00    -0.328 N 
HETATM   11  C3  UNL     1       5.153  -0.426   0.940  1.00  0.00     0.244 C 
HETATM   12  O1  UNL     1       5.138   0.488   1.800  1.00  0.00    -0.268 OA
HETATM   13  H4  UNL     1       4.212  -0.794  -0.990  1.00  0.00     0.169 HD
BRANCH  11  14
HETATM   14  C2  UNL     1       5.910  -1.676   0.994  1.00  0.00     0.064 C 
HETATM   15  C1  UNL     1       5.938  -2.659   0.088  1.00  0.00     0.017 C 
ENDBRANCH  11  14
ENDBRANCH   8  10
ENDBRANCH   1   7
BRANCH   3  16
HETATM   16  N2  UNL     1      -1.837  -0.686   1.132  1.00  0.00    -0.358 N 
HETATM   17  H12 UNL     1      -1.800  -1.077   2.097  1.00  0.00     0.166 HD
BRANCH  16  18
HETATM   18  C10 UNL     1      -3.103  -0.117   0.828  1.00  0.00     0.046 A 
HETATM   19  C11 UNL     1      -4.214  -0.831   0.855  1.00  0.00     0.019 A 
HETATM   20 BR1  UNL     1      -4.222  -2.686   1.302  1.00  0.00    -0.053 Br
HETATM   21  C12 UNL     1      -5.383   0.024   0.494  1.00  0.00     0.082 A 
HETATM   22  C13 UNL     1      -4.749   1.353   0.256  1.00  0.00    -0.077 A 
HETATM   23  C14 UNL     1      -5.488   2.582  -0.138  1.00  0.00     0.044 C 
HETATM   24  C15 UNL     1      -3.426   1.257   0.453  1.00  0.00     0.033 A 
ENDBRANCH  16  18
ENDBRANCH   3  16
BRANCH   4  25
HETATM   25  C17 UNL     1      -2.451  -1.136  -1.562  1.00  0.00     0.006 C 
HETATM   26  C18 UNL     1      -2.586  -1.329  -2.880  1.00  0.00     0.014 C 
ENDBRANCH   4  25
TORSDOF 6
