REMARK  4 active torsions:
REMARK  status: ('A' for Active; 'I' for Inactive)
REMARK    1  A    between atoms: C7_9  and  N3_10 
REMARK    2  A    between atoms: C15_20  and  C16_21 
REMARK    3  A    between atoms: C16_21  and  C17_22 
REMARK    4  A    between atoms: C17_22  and  O1_23 
ROOT
HETATM    1  C1  UNL     1      -3.526   1.525  -0.888  1.00  0.00     0.046 C 
HETATM    2  C2  UNL     1      -2.571   1.112   0.201  1.00  0.00    -0.042 C 
HETATM    3  C3  UNL     1      -2.537   1.703   1.411  1.00  0.00     0.073 C 
HETATM    4  C4  UNL     1      -3.164   2.735   2.188  1.00  0.00     0.102 C 
HETATM    5  N1  UNL     1      -3.682   3.569   2.798  1.00  0.00    -0.191 NA
HETATM    6  C5  UNL     1      -1.339   0.912   1.767  1.00  0.00     0.067 C 
HETATM    7  N2  UNL     1      -0.335   0.592   2.568  1.00  0.00    -0.285 NA
HETATM    8  C6  UNL     1       0.568  -0.489   2.109  1.00  0.00     0.206 C 
HETATM    9  C7  UNL     1       0.751  -0.296   0.618  1.00  0.00     0.029 C 
HETATM   10  C14 UNL     1      -0.297   0.012  -0.187  1.00  0.00     0.021 C 
HETATM   11  C15 UNL     1      -1.552   0.125   0.519  1.00  0.00     0.051 C 
ENDROOT
BRANCH  11  12
HETATM   12  C16 UNL     1      -2.114  -1.274   0.778  1.00  0.00     0.051 C 
BRANCH  12  13
HETATM   13  C17 UNL     1      -2.844  -1.677  -0.508  1.00  0.00     0.165 C 
BRANCH  13  14
HETATM   14  O1  UNL     1      -1.973  -1.683  -1.587  1.00  0.00    -0.401 OA
HETATM   15  H17 UNL     1      -2.331  -2.323  -2.252  1.00  0.00     0.209 HD
ENDBRANCH  13  14
ENDBRANCH  12  13
ENDBRANCH  11  12
BRANCH   9  16
HETATM   16  N3  UNL     1       2.056  -0.441   0.038  1.00  0.00    -0.349 N 
HETATM   17  C8  UNL     1       2.437  -1.760  -0.331  1.00  0.00     0.118 A 
HETATM   18  C9  UNL     1       3.637  -1.916  -0.868  1.00  0.00     0.087 A 
HETATM   19 CL1  UNL     1       4.123  -3.533  -1.328  1.00  0.00    -0.080 Cl
HETATM   20  C10 UNL     1       4.572  -0.822  -1.096  1.00  0.00     0.137 A 
HETATM   21  F1  UNL     1       5.799  -0.986  -1.646  1.00  0.00    -0.204 F 
HETATM   22  C11 UNL     1       4.164   0.379  -0.734  1.00  0.00     0.042 A 
HETATM   23  C12 UNL     1       2.865   0.753  -0.120  1.00  0.00     0.111 A 
HETATM   24  C13 UNL     1       2.189   1.723  -1.069  1.00  0.00     0.037 C 
ENDBRANCH   9  16
TORSDOF 4
