REMARK  6 active torsions:
REMARK  status: ('A' for Active; 'I' for Inactive)
REMARK    1  A    between atoms: C2_2  and  C3_3 
REMARK    2  A    between atoms: C3_3  and  C4_5 
REMARK    3  A    between atoms: C4_5  and  N1_6 
REMARK    4  A    between atoms: C5_7  and  C6_8 
REMARK    5  A    between atoms: C9_11  and  N2_12 
REMARK    6  A    between atoms: N2_12  and  C10_13 
ROOT
HETATM    1  C6  UNL     1       1.820  -0.096  -0.118  1.00  0.00     0.030 C 
HETATM    2  C7  UNL     1       0.882  -0.988   0.177  1.00  0.00     0.040 A 
HETATM    3  C8  UNL     1      -0.458  -0.860  -0.450  1.00  0.00     0.118 A 
HETATM    4  C9  UNL     1      -1.361  -1.926  -0.012  1.00  0.00     0.037 A 
HETATM    5  C16 UNL     1      -1.061  -2.899   0.832  1.00  0.00     0.085 A 
HETATM    6  C17 UNL     1      -2.008  -3.924   1.222  1.00  0.00     0.103 C 
HETATM    7  N3  UNL     1      -2.751  -4.749   1.523  1.00  0.00    -0.191 NA
HETATM    8  C18 UNL     1       0.278  -2.926   1.383  1.00  0.00     0.141 A 
HETATM    9  N4  UNL     1       1.150  -2.050   1.074  1.00  0.00    -0.264 NA
ENDROOT
BRANCH   4  10
HETATM   10  N2  UNL     1      -2.687  -1.912  -0.549  1.00  0.00    -0.358 N 
HETATM   11  H10 UNL     1      -3.152  -2.590  -1.186  1.00  0.00     0.166 HD
BRANCH  10  12
HETATM   12  C10 UNL     1      -3.540  -0.829  -0.187  1.00  0.00     0.033 A 
HETATM   13  C11 UNL     1      -4.354  -0.897   0.929  1.00  0.00     0.029 A 
HETATM   14  C12 UNL     1      -5.204   0.129   1.328  1.00  0.00     0.004 A 
HETATM   15  C13 UNL     1      -5.236   1.286   0.561  1.00  0.00     0.019 A 
HETATM   16  C14 UNL     1      -4.431   1.386  -0.567  1.00  0.00     0.013 A 
HETATM   17 BR1  UNL     1      -4.455   2.968  -1.641  1.00  0.00    -0.051 Br
HETATM   18  C15 UNL     1      -3.599   0.345  -0.931  1.00  0.00     0.048 A 
ENDBRANCH  10  12
ENDBRANCH   4  10
BRANCH   1  19
HETATM   19  C5  UNL     1       3.136  -0.219   0.496  1.00  0.00     0.035 C 
HETATM   20  C4  UNL     1       4.085   0.655   0.219  1.00  0.00     0.076 C 
BRANCH  20  21
HETATM   21  C3  UNL     1       3.939   1.788  -0.684  1.00  0.00     0.197 C 
HETATM   22  O1  UNL     1       3.129   2.375  -1.443  1.00  0.00    -0.286 OA
BRANCH  21  23
HETATM   23  C2  UNL     1       4.912   2.809  -1.060  1.00  0.00     0.047 C 
HETATM   24  C1  UNL     1       4.279   3.611  -1.909  1.00  0.00     0.015 C 
ENDBRANCH  21  23
ENDBRANCH  20  21
BRANCH  20  25
HETATM   25  N1  UNL     1       5.385   0.585   0.786  1.00  0.00    -0.396 N 
HETATM   26  H4  UNL     1       6.345   0.192   0.810  1.00  0.00     0.156 HD
HETATM   27  H5  UNL     1       5.679   1.176   1.616  1.00  0.00     0.156 HD
ENDBRANCH  20  25
ENDBRANCH   1  19
TORSDOF 6
