REMARK  6 active torsions:
REMARK  status: ('A' for Active; 'I' for Inactive)
REMARK    1  A    between atoms: C2_2  and  C3_3 
REMARK       I    between atoms: C3_3  and  N1_5 
REMARK    2  A    between atoms: N1_5  and  P1_6 
REMARK    3  A    between atoms: P1_6  and  C4_7 
REMARK    4  A    between atoms: C5_8  and  C6_9 
REMARK    5  A    between atoms: C9_12  and  N2_13 
REMARK    6  A    between atoms: N2_13  and  C10_14 
ROOT
HETATM    1  C6  UNL     1       1.433   0.361  -0.731  1.00  0.00     0.027 C 
HETATM    2  C7  UNL     1       0.148   0.672  -0.659  1.00  0.00     0.040 A 
HETATM    3  C8  UNL     1      -0.778  -0.318  -0.054  1.00  0.00     0.118 A 
HETATM    4  C9  UNL     1      -2.155   0.221  -0.100  1.00  0.00     0.037 A 
HETATM    5  C16 UNL     1      -2.575   1.380  -0.562  1.00  0.00     0.085 A 
HETATM    6  C17 UNL     1      -3.944   1.802  -0.556  1.00  0.00     0.103 C 
HETATM    7  N3  UNL     1      -5.051   2.133  -0.566  1.00  0.00    -0.191 NA
HETATM    8  C18 UNL     1      -1.548   2.252  -1.115  1.00  0.00     0.141 A 
HETATM    9  N4  UNL     1      -0.302   1.924  -1.157  1.00  0.00    -0.264 NA
ENDROOT
BRANCH   4  10
HETATM   10  N2  UNL     1      -3.090  -0.695   0.443  1.00  0.00    -0.358 N 
HETATM   11  H11 UNL     1      -2.933  -1.562   0.964  1.00  0.00     0.166 HD
BRANCH  10  12
HETATM   12  C10 UNL     1      -4.502  -0.814   0.508  1.00  0.00     0.033 A 
HETATM   13  C11 UNL     1      -5.130  -1.445  -0.557  1.00  0.00     0.029 A 
HETATM   14  C12 UNL     1      -6.484  -1.683  -0.722  1.00  0.00     0.004 A 
HETATM   15  C13 UNL     1      -7.272  -1.214   0.335  1.00  0.00     0.019 A 
HETATM   16  C14 UNL     1      -6.715  -0.578   1.423  1.00  0.00     0.013 A 
HETATM   17 BR1  UNL     1      -7.816   0.050   2.847  1.00  0.00    -0.051 Br
HETATM   18  C15 UNL     1      -5.356  -0.371   1.528  1.00  0.00     0.048 A 
ENDBRANCH  10  12
ENDBRANCH   4  10
BRANCH   1  19
HETATM   19  C5  UNL     1       2.371   1.304  -1.317  1.00  0.00     0.004 C 
HETATM   20  C4  UNL     1       3.659   1.029  -1.407  1.00  0.00     0.025 C 
BRANCH  20  21
HETATM   21  P1  UNL     1       4.504  -0.495  -0.855  1.00  0.00    -0.003 P 
HETATM   22  H5  UNL     1       4.966  -1.164  -2.066  1.00  0.00     0.084 HD
BRANCH  21  23
HETATM   23  N1  UNL     1       6.005  -0.091   0.081  1.00  0.00    -0.332 N 
HETATM   24  C3  UNL     1       6.874  -1.085   0.639  1.00  0.00     0.243 C 
HETATM   25  O1  UNL     1       6.423  -2.246   0.371  1.00  0.00    -0.268 OA
HETATM   26  H4  UNL     1       6.229   0.939   0.208  1.00  0.00     0.167 HD
BRANCH  24  27
HETATM   27  C2  UNL     1       8.067  -0.741   1.382  1.00  0.00     0.064 C 
HETATM   28  C1  UNL     1       8.469   0.490   1.618  1.00  0.00     0.017 C 
ENDBRANCH  24  27
ENDBRANCH  21  23
ENDBRANCH  20  21
ENDBRANCH   1  19
TORSDOF 6
