REMARK  6 active torsions:
REMARK  status: ('A' for Active; 'I' for Inactive)
REMARK    1  A    between atoms: C2_2  and  C3_3 
REMARK       I    between atoms: C3_3  and  N1_5 
REMARK    2  A    between atoms: N1_5  and  C4_6 
REMARK    3  A    between atoms: C7_9  and  N2_10 
REMARK    4  A    between atoms: C8_11  and  C9_12 
REMARK    5  A    between atoms: C9_12  and  N3_13 
REMARK    6  A    between atoms: C9_12  and  C11_16 
ROOT
HETATM    1  C9  UNL     1      -2.300  -0.583   0.481  1.00  0.00     0.302 C 
HETATM    2  C10 UNL     1      -2.311  -1.069   1.845  1.00  0.00     0.112 C 
HETATM    3  N4  UNL     1      -2.322  -1.460   2.935  1.00  0.00    -0.194 NA
ENDROOT
BRANCH   1   4
HETATM    4  C8  UNL     1      -1.745  -1.544  -0.492  1.00  0.00     0.319 C 
HETATM    5  N2  UNL     1      -0.554  -1.708  -0.909  1.00  0.00    -0.388 NA
BRANCH   5   6
HETATM    6  C7  UNL     1       0.582  -0.959  -0.510  1.00  0.00     0.022 A 
HETATM    7  C6  UNL     1       1.108   0.162  -1.121  1.00  0.00     0.031 A 
HETATM    8  C5  UNL     1       2.226   0.783  -0.609  1.00  0.00     0.032 A 
HETATM    9  C4  UNL     1       2.850   0.301   0.527  1.00  0.00     0.035 A 
HETATM   10  C18 UNL     1       2.329  -0.819   1.141  1.00  0.00     0.032 A 
HETATM   11  C17 UNL     1       1.222  -1.438   0.638  1.00  0.00     0.031 A 
BRANCH   9  12
HETATM   12  N1  UNL     1       3.987   1.076   0.900  1.00  0.00    -0.324 N 
HETATM   13  C3  UNL     1       5.226   0.637   0.311  1.00  0.00     0.244 C 
HETATM   14  O1  UNL     1       5.427  -0.338  -0.484  1.00  0.00    -0.268 OA
HETATM   15  H4  UNL     1       4.151   1.906   1.509  1.00  0.00     0.169 HD
BRANCH  13  16
HETATM   16  C2  UNL     1       6.541   1.254   0.526  1.00  0.00     0.064 C 
HETATM   17  C1  UNL     1       7.213   0.408  -0.264  1.00  0.00     0.017 C 
ENDBRANCH  13  16
ENDBRANCH   9  12
ENDBRANCH   5   6
ENDBRANCH   1   4
BRANCH   1  18
HETATM   18  N3  UNL     1      -1.480   0.636   0.404  1.00  0.00     0.112 N 
HETATM   19  H8  UNL     1      -1.637   0.994  -0.584  1.00  0.00     0.316 HD
HETATM   20  H9  UNL     1      -1.965   1.317   1.058  1.00  0.00     0.316 HD
ENDBRANCH   1  18
BRANCH   1  21
HETATM   21  C11 UNL     1      -3.680  -0.160   0.128  1.00  0.00     0.001 A 
HETATM   22  C12 UNL     1      -4.754  -0.061   1.001  1.00  0.00     0.011 A 
HETATM   23  C13 UNL     1      -5.992   0.348   0.540  1.00  0.00     0.002 A 
HETATM   24  C14 UNL     1      -6.172   0.664  -0.797  1.00  0.00     0.019 A 
HETATM   25  C15 UNL     1      -5.093   0.563  -1.666  1.00  0.00     0.011 A 
HETATM   26 BR1  UNL     1      -5.434   1.020  -3.498  1.00  0.00    -0.051 Br
HETATM   27  C16 UNL     1      -3.845   0.153  -1.212  1.00  0.00     0.030 A 
ENDBRANCH   1  21
TORSDOF 6
