REMARK  4 active torsions:
REMARK  status: ('A' for Active; 'I' for Inactive)
REMARK    1  A    between atoms: C2_2  and  N1_3 
REMARK    2  A    between atoms: N1_3  and  C3_4 
REMARK    3  A    between atoms: C3_4  and  C4_5 
REMARK    4  A    between atoms: C7_8  and  N2_9 
ROOT
HETATM    1  C4  UNL     1      -1.831   0.546  -1.288  1.00  0.00     0.005 C 
HETATM    2  C5  UNL     1      -0.562   0.878  -0.999  1.00  0.00     0.001 C 
HETATM    3  C6  UNL     1       0.495   1.391  -0.068  1.00  0.00     0.071 C 
HETATM    4  C7  UNL     1       0.925   2.705  -0.134  1.00  0.00     0.099 C 
HETATM    5  C9  UNL     1       1.252   3.042  -1.574  1.00  0.00     0.145 C 
HETATM    6  N3  UNL     1       1.042   1.998  -2.298  1.00  0.00    -0.281 NA
HETATM    7  C10 UNL     1       0.490   0.731  -2.053  1.00  0.00     0.217 C 
HETATM    8  C11 UNL     1       1.394  -0.439  -1.823  1.00  0.00     0.191 C 
HETATM    9  O1  UNL     1       1.940  -0.984  -2.848  1.00  0.00    -0.290 OA
HETATM   10  C12 UNL     1       1.878  -1.215  -0.630  1.00  0.00     0.039 A 
HETATM   11  C13 UNL     1       2.446  -2.440  -0.745  1.00  0.00     0.019 A 
HETATM   12  C14 UNL     1       2.860  -3.053   0.413  1.00  0.00     0.020 A 
HETATM   13  C15 UNL     1       2.723  -2.480   1.666  1.00  0.00     0.013 A 
HETATM   14 BR1  UNL     1       3.326  -3.401   3.230  1.00  0.00    -0.051 Br
HETATM   15  C16 UNL     1       2.160  -1.244   1.876  1.00  0.00     0.049 A 
HETATM   16  C17 UNL     1       1.778  -0.705   0.694  1.00  0.00     0.048 A 
HETATM   17  N4  UNL     1       1.201   0.621   0.982  1.00  0.00    -0.353 N 
HETATM   18  H15 UNL     1       1.231   1.139   1.879  1.00  0.00     0.166 HD
ENDROOT
BRANCH   1  19
HETATM   19  C3  UNL     1      -3.105   0.551  -0.588  1.00  0.00     0.147 C 
BRANCH  19  20
HETATM   20  N1  UNL     1      -3.758  -0.726  -0.465  1.00  0.00    -0.396 N 
HETATM   21  H4  UNL     1      -4.658  -0.955  -0.980  1.00  0.00     0.159 HD
BRANCH  20  22
HETATM   22  C2  UNL     1      -3.727  -1.997   0.123  1.00  0.00     0.073 C 
HETATM   23  C1  UNL     1      -4.358  -2.116   1.308  1.00  0.00     0.029 C 
ENDBRANCH  20  22
ENDBRANCH  19  20
ENDBRANCH   1  19
BRANCH   4  24
HETATM   24  N2  UNL     1       0.945   3.210   1.196  1.00  0.00    -0.268 NA
HETATM   25  C8  UNL     1       1.913   3.799   1.765  1.00  0.00     0.150 C 
ENDBRANCH   4  24
TORSDOF 4
