REMARK  10 active torsions:
REMARK  status: ('A' for Active; 'I' for Inactive)
REMARK    1  A    between atoms: C2_2  and  C3_3 
REMARK    2  A    between atoms: C4_4  and  C5_5 
REMARK    3  A    between atoms: C5_5  and  C6_6 
REMARK    4  A    between atoms: C6_6  and  C7_7 
REMARK    5  A    between atoms: C7_7  and  N1_8 
REMARK    6  A    between atoms: N1_8  and  C8_9 
REMARK    7  A    between atoms: C10_12  and  C19_23 
REMARK    8  A    between atoms: N4_17  and  C14_18 
REMARK    9  A    between atoms: C14_18  and  C15_19 
REMARK   10  A    between atoms: C18_22  and  C19_23 
ROOT
HETATM    1  C8  UNL     1       0.373  -0.682  -0.346  1.00  0.00     0.133 A 
HETATM    2  C9  UNL     1       0.304  -1.720  -1.313  1.00  0.00     0.092 C 
HETATM    3  N2  UNL     1       0.258  -2.580  -2.095  1.00  0.00    -0.195 NA
HETATM    4  C10 UNL     1       1.270   0.461  -0.641  1.00  0.00     0.043 A 
HETATM    5  N3  UNL     1      -0.038   0.431  -0.446  1.00  0.00     0.000 N 
HETATM    6  C11 UNL     1      -1.158   1.354  -0.231  1.00  0.00     0.012 A 
HETATM    7  C12 UNL     1      -2.530   1.238  -0.032  1.00  0.00     0.014 A 
HETATM    8  C13 UNL     1      -3.100  -0.016  -0.006  1.00  0.00     0.022 A 
HETATM    9  N4  UNL     1      -4.411  -0.315   0.153  1.00  0.00    -0.387 N 
HETATM   10  C17 UNL     1      -1.908  -0.705  -0.212  1.00  0.00     0.017 A 
HETATM   11  C18 UNL     1      -0.912   0.209  -0.319  1.00  0.00     0.036 A 
HETATM   12  C19 UNL     1       0.038   1.403  -0.407  1.00  0.00     0.025 A 
HETATM   13  H13 UNL     1      -4.374  -1.344   0.140  1.00  0.00     0.160 HD
ENDROOT
BRANCH   1  14
HETATM   14  N1  UNL     1       0.646  -1.230   0.935  1.00  0.00    -0.397 N 
HETATM   15  H10 UNL     1       0.245  -0.744   1.748  1.00  0.00     0.155 HD
BRANCH  14  16
HETATM   16  C7  UNL     1       1.778  -2.025   1.155  1.00  0.00     0.143 C 
BRANCH  16  17
HETATM   17  C6  UNL     1       3.026  -1.247   1.041  1.00  0.00    -0.008 C 
BRANCH  17  18
HETATM   18  C5  UNL     1       4.146  -0.595   1.071  1.00  0.00    -0.002 C 
BRANCH  18  19
HETATM   19  C4  UNL     1       5.393   0.097   1.204  1.00  0.00    -0.001 C 
HETATM   20  C3  UNL     1       5.657   0.652   0.044  1.00  0.00    -0.004 C 
BRANCH  20  21
HETATM   21  C2  UNL     1       4.837   0.582  -1.154  1.00  0.00    -0.026 C 
HETATM   22  C1  UNL     1       5.146   1.161  -2.312  1.00  0.00     0.031 C 
ENDBRANCH  20  21
ENDBRANCH  18  19
ENDBRANCH  17  18
ENDBRANCH  16  17
ENDBRANCH  14  16
ENDBRANCH   1  14
BRANCH   9  23
HETATM   23  C14 UNL     1      -5.133   0.914   0.250  1.00  0.00     0.146 C 
BRANCH  23  24
HETATM   24  C15 UNL     1      -6.585   0.689   0.399  1.00  0.00    -0.018 C 
HETATM   25  C16 UNL     1      -7.096  -0.531   0.422  1.00  0.00     0.008 C 
ENDBRANCH  23  24
ENDBRANCH   9  23
TORSDOF 10
