REMARK  5 active torsions:
REMARK  status: ('A' for Active; 'I' for Inactive)
REMARK    1  A    between atoms: C6_6  and  N1_7 
REMARK    2  A    between atoms: N1_7  and  C7_8 
REMARK    3  A    between atoms: C12_15  and  N4_16 
REMARK       I    between atoms: N4_16  and  C13_17 
REMARK       I    between atoms: C13_17  and  N5_19 
REMARK    4  A    between atoms: N5_19  and  C15_21 
REMARK    5  A    between atoms: C15_21  and  C16_22 
ROOT
HETATM    1  C7  UNL     1       2.316  -1.321  -0.495  1.00  0.00     0.138 A 
HETATM    2  N2  UNL     1       3.355  -2.154  -0.682  1.00  0.00    -0.224 NA
HETATM    3  C8  UNL     1       3.103  -3.484  -0.871  1.00  0.00     0.235 A 
HETATM    4  N3  UNL     1       1.857  -3.992  -0.879  1.00  0.00    -0.241 NA
HETATM    5  C9  UNL     1       0.824  -3.154  -0.692  1.00  0.00     0.072 A 
HETATM    6  C10 UNL     1      -0.465  -3.636  -0.693  1.00  0.00     0.035 A 
HETATM    7  C11 UNL     1      -1.483  -2.730  -0.496  1.00  0.00     0.032 A 
HETATM    8  C12 UNL     1      -1.330  -1.381  -0.297  1.00  0.00     0.037 A 
HETATM    9  C17 UNL     1      -0.029  -0.948  -0.305  1.00  0.00     0.047 A 
HETATM   10  C18 UNL     1       1.026  -1.804  -0.496  1.00  0.00     0.041 A 
ENDROOT
BRANCH   8  11
HETATM   11  N4  UNL     1      -2.355  -0.437  -0.095  1.00  0.00    -0.309 N 
HETATM   12  C13 UNL     1      -3.754  -0.614  -0.043  1.00  0.00     0.322 C 
HETATM   13  O1  UNL     1      -4.214  -1.750  -0.191  1.00  0.00    -0.247 OA
HETATM   14  N5  UNL     1      -4.708   0.415   0.169  1.00  0.00    -0.337 N 
HETATM   15  C14 UNL     1      -6.106   0.012   0.187  1.00  0.00     0.154 C 
HETATM   16  H12 UNL     1      -2.113   0.575   0.047  1.00  0.00     0.170 HD
BRANCH  14  17
HETATM   17  C15 UNL     1      -4.450   1.832   0.372  1.00  0.00     0.142 C 
BRANCH  17  18
HETATM   18  C16 UNL     1      -4.429   2.598  -0.945  1.00  0.00     0.134 C 
HETATM   19 CL1  UNL     1      -4.115   4.310  -0.662  1.00  0.00    -0.129 Cl
ENDBRANCH  17  18
ENDBRANCH  14  17
ENDBRANCH   8  11
BRANCH   1  20
HETATM   20  N1  UNL     1       2.639   0.068  -0.300  1.00  0.00    -0.362 N 
HETATM   21  H8  UNL     1       1.996   0.871  -0.140  1.00  0.00     0.162 HD
BRANCH  20  22
HETATM   22  C6  UNL     1       4.023   0.426  -0.323  1.00  0.00     0.135 A 
HETATM   23  C2  UNL     1       4.261   1.876  -0.115  1.00  0.00    -0.058 A 
HETATM   24  C1  UNL     1       3.712   2.916  -1.031  1.00  0.00     0.046 C 
HETATM   25  C3  UNL     1       5.009   2.124   0.970  1.00  0.00     0.005 A 
HETATM   26  C4  UNL     1       5.329   0.822   1.573  1.00  0.00    -0.001 A 
HETATM   27  C5  UNL     1       4.777  -0.142   0.850  1.00  0.00     0.003 A 
ENDBRANCH  20  22
ENDBRANCH   1  20
TORSDOF 5
