REMARK  3 active torsions:
REMARK  status: ('A' for Active; 'I' for Inactive)
REMARK    1  A    between atoms: C7_9  and  N3_10 
REMARK    2  A    between atoms: C10_14  and  N4_15 
REMARK    3  A    between atoms: N4_15  and  C11_16 
ROOT
HETATM    1  N1  UNL     1       1.665  -4.122  -0.024  1.00  0.00    -0.191 NA
HETATM    2  C1  UNL     1       0.744  -3.421  -0.101  1.00  0.00     0.103 C 
HETATM    3  C2  UNL     1      -0.386  -2.564  -0.180  1.00  0.00     0.089 A 
HETATM    4  C3  UNL     1      -1.566  -2.934  -0.790  1.00  0.00     0.142 A 
HETATM    5  N2  UNL     1      -2.621  -2.100  -0.850  1.00  0.00    -0.259 NA
HETATM    6  C4  UNL     1      -2.573  -0.864  -0.317  1.00  0.00     0.069 A 
HETATM    7  C5  UNL     1      -3.721  -0.109  -0.446  1.00  0.00     0.035 A 
HETATM    8  C6  UNL     1      -3.706   1.160   0.088  1.00  0.00     0.033 A 
HETATM    9  C7  UNL     1      -2.522   1.549   0.707  1.00  0.00     0.044 A 
HETATM   10  C8  UNL     1      -1.379   0.782   0.829  1.00  0.00     0.046 A 
HETATM   11  C9  UNL     1      -1.409  -0.469   0.297  1.00  0.00     0.023 A 
HETATM   12  C10 UNL     1      -0.303  -1.291   0.382  1.00  0.00     0.067 A 
ENDROOT
BRANCH  12  13
HETATM   13  N4  UNL     1       0.865  -0.831   1.024  1.00  0.00    -0.354 N 
HETATM   14  H6  UNL     1       0.923  -1.025   2.050  1.00  0.00     0.166 HD
BRANCH  13  15
HETATM   15  C11 UNL     1       1.878  -0.155   0.318  1.00  0.00     0.034 A 
HETATM   16  C12 UNL     1       1.746   0.069  -1.026  1.00  0.00     0.032 A 
HETATM   17  C13 UNL     1       2.756   0.733  -1.690  1.00  0.00     0.046 A 
HETATM   18  C14 UNL     1       3.897   1.177  -1.026  1.00  0.00     0.138 A 
HETATM   19  F1  UNL     1       4.900   1.835  -1.677  1.00  0.00    -0.204 F 
HETATM   20  C15 UNL     1       3.973   0.922   0.328  1.00  0.00     0.074 A 
HETATM   21 CL2  UNL     1       5.376   1.450   1.225  1.00  0.00    -0.081 Cl
HETATM   22  C16 UNL     1       3.003   0.268   1.038  1.00  0.00     0.056 A 
ENDBRANCH  13  15
ENDBRANCH  12  13
BRANCH   9  23
HETATM   23  N3  UNL     1      -2.502   2.853   1.259  1.00  0.00    -0.299 N 
HETATM   24 CL1  UNL     1      -1.921   3.863  -0.052  1.00  0.00     0.011 Cl
HETATM   25  H4  UNL     1      -2.498   3.788   1.689  1.00  0.00     0.180 HD
ENDBRANCH   9  23
TORSDOF 3
