REMARK  5 active torsions:
REMARK  status: ('A' for Active; 'I' for Inactive)
REMARK    1  A    between atoms: C2_2  and  O1_3 
REMARK    2  A    between atoms: O1_3  and  C3_4 
REMARK    3  A    between atoms: C3_4  and  N1_6 
REMARK    4  A    between atoms: N1_6  and  C5_7 
REMARK    5  A    between atoms: N4_16  and  C12_17 
ROOT
HETATM    1  C5  UNL     1       1.560   1.017   1.512  1.00  0.00     0.015 C 
HETATM    2  C6  UNL     1       2.018   2.277   1.376  1.00  0.00     0.020 C 
HETATM    3  C7  UNL     1       1.421   3.454   0.628  1.00  0.00     0.177 C 
HETATM    4  N2  UNL     1       0.210   3.034   0.069  1.00  0.00    -0.296 NA
HETATM    5  C8  UNL     1      -0.764   3.510  -0.534  1.00  0.00     0.134 C 
HETATM    6  C9  UNL     1      -1.892   2.646  -0.960  1.00  0.00     0.077 C 
HETATM    7  C10 UNL     1      -2.867   3.491  -1.624  1.00  0.00     0.102 C 
HETATM    8  N3  UNL     1      -3.676   4.165  -2.162  1.00  0.00    -0.191 NA
HETATM    9  C11 UNL     1      -2.034   1.365  -0.795  1.00  0.00     0.120 C 
HETATM   10  N4  UNL     1      -1.782   0.035  -0.415  1.00  0.00    -0.334 N 
HETATM   11  C18 UNL     1      -0.668  -0.286   0.460  1.00  0.00     0.081 C 
HETATM   12  C19 UNL     1       0.421   0.204   1.028  1.00  0.00     0.089 C 
ENDROOT
BRANCH  10  13
HETATM   13  C12 UNL     1      -2.455  -1.137  -0.779  1.00  0.00     0.039 A 
HETATM   14  C13 UNL     1      -2.612  -2.200   0.075  1.00  0.00     0.030 A 
HETATM   15  C14 UNL     1      -3.297  -3.305  -0.406  1.00  0.00     0.004 A 
HETATM   16  C15 UNL     1      -3.789  -3.305  -1.690  1.00  0.00     0.019 A 
HETATM   17  C16 UNL     1      -3.647  -2.254  -2.569  1.00  0.00     0.013 A 
HETATM   18 BR1  UNL     1      -4.385  -2.380  -4.323  1.00  0.00    -0.051 Br
HETATM   19  C17 UNL     1      -2.954  -1.149  -2.069  1.00  0.00     0.049 A 
ENDBRANCH  10  13
BRANCH   1  20
HETATM   20  N1  UNL     1       2.102  -0.080   2.202  1.00  0.00    -0.366 N 
HETATM   21  H8  UNL     1       2.002  -0.052   3.263  1.00  0.00     0.162 HD
BRANCH  20  22
HETATM   22  C3  UNL     1       2.771  -1.230   1.594  1.00  0.00     0.221 C 
HETATM   23  C4  UNL     1       3.318  -2.119   2.659  1.00  0.00     0.063 C 
BRANCH  22  24
HETATM   24  O1  UNL     1       3.779  -0.880   0.702  1.00  0.00    -0.339 OA
BRANCH  24  25
HETATM   25  C2  UNL     1       3.626   0.033  -0.344  1.00  0.00     0.127 C 
HETATM   26  C1  UNL     1       2.943  -0.594  -1.321  1.00  0.00     0.037 C 
ENDBRANCH  24  25
ENDBRANCH  22  24
ENDBRANCH  20  22
ENDBRANCH   1  20
TORSDOF 5
