REMARK  7 active torsions:
REMARK  status: ('A' for Active; 'I' for Inactive)
REMARK    1  A    between atoms: C2_2  and  N2_14 
REMARK    2  A    between atoms: C3_3  and  C4_4 
REMARK    3  A    between atoms: C5_5  and  N1_6 
REMARK    4  A    between atoms: N1_6  and  C6_7 
REMARK    5  A    between atoms: N2_14  and  C12_15 
REMARK    6  A    between atoms: C13_16  and  C14_17 
REMARK    7  A    between atoms: C14_17  and  N3_18 
ROOT
HETATM    1  C1  UNL     1      -0.197  -0.633   1.993  1.00  0.00     0.068 C 
HETATM    2  C2  UNL     1       0.209  -0.707   0.560  1.00  0.00     0.005 C 
HETATM    3  C3  UNL     1       1.400  -0.246   0.216  1.00  0.00     0.026 C 
ENDROOT
BRANCH   2   4
HETATM    4  N2  UNL     1      -0.683  -1.262  -0.395  1.00  0.00    -0.370 N 
HETATM    5  H12 UNL     1      -0.745  -2.299  -0.585  1.00  0.00     0.165 HD
BRANCH   4   6
HETATM    6  C12 UNL     1      -1.484  -0.333  -1.082  1.00  0.00     0.085 C 
HETATM    7  C13 UNL     1      -2.552   0.405  -0.865  1.00  0.00     0.010 C 
BRANCH   7   8
HETATM    8  C14 UNL     1      -3.399   0.533   0.343  1.00  0.00     0.154 C 
BRANCH   8   9
HETATM    9  N3  UNL     1      -4.745   0.140  -0.016  1.00  0.00    -0.345 N 
HETATM   10  C15 UNL     1      -5.414  -1.154   0.022  1.00  0.00     0.152 C 
HETATM   11  C16 UNL     1      -6.862  -0.846   0.379  1.00  0.00     0.188 C 
HETATM   12  O1  UNL     1      -7.554  -0.248  -0.666  1.00  0.00    -0.380 OA
HETATM   13  C17 UNL     1      -6.919   0.874  -1.168  1.00  0.00     0.270 C 
HETATM   14  C18 UNL     1      -5.622   1.177  -0.503  1.00  0.00     0.243 C 
HETATM   15  O2  UNL     1      -5.273   2.394  -0.358  1.00  0.00    -0.271 OA
ENDBRANCH   8   9
ENDBRANCH   7   8
ENDBRANCH   4   6
ENDBRANCH   2   4
BRANCH   3  16
HETATM   16  C4  UNL     1       2.279   0.316   1.228  1.00  0.00     0.019 C 
HETATM   17  C5  UNL     1       3.475   0.786   0.924  1.00  0.00     0.088 C 
BRANCH  17  18
HETATM   18  N1  UNL     1       4.233   0.907  -0.270  1.00  0.00    -0.366 N 
HETATM   19  H7  UNL     1       3.533   1.479  -0.831  1.00  0.00     0.165 HD
BRANCH  18  20
HETATM   20  C6  UNL     1       5.531   0.350  -0.462  1.00  0.00     0.033 A 
HETATM   21  C7  UNL     1       5.891  -0.867  -0.998  1.00  0.00     0.029 A 
HETATM   22  C8  UNL     1       7.238  -1.220  -1.087  1.00  0.00     0.004 A 
HETATM   23  C9  UNL     1       8.160  -0.305  -0.619  1.00  0.00     0.019 A 
HETATM   24  C10 UNL     1       7.861   0.921  -0.076  1.00  0.00     0.013 A 
HETATM   25 BR1  UNL     1       9.255   2.050   0.519  1.00  0.00    -0.051 Br
HETATM   26  C11 UNL     1       6.504   1.240  -0.003  1.00  0.00     0.048 A 
ENDBRANCH  18  20
ENDBRANCH  17  18
ENDBRANCH   3  16
TORSDOF 7
