REMARK  7 active torsions:
REMARK  status: ('A' for Active; 'I' for Inactive)
REMARK    1  A    between atoms: N3_9  and  C6_10 
REMARK    2  A    between atoms: C6_10  and  C7_11 
REMARK    3  A    between atoms: C7_11  and  C8_12 
REMARK    4  A    between atoms: C8_12  and  C9_13 
REMARK    5  A    between atoms: C9_13  and  N4_14 
REMARK    6  A    between atoms: C16_22  and  N5_23 
REMARK    7  A    between atoms: N5_23  and  C17_24 
ROOT
HETATM    1  N1  UNL     1      -6.689  -2.073  -1.655  1.00  0.00    -0.191 NA
HETATM    2  C1  UNL     1      -5.613  -2.321  -1.326  1.00  0.00     0.103 C 
HETATM    3  C2  UNL     1      -4.247  -2.631  -0.935  1.00  0.00     0.087 A 
HETATM    4  C3  UNL     1      -3.702  -3.751  -1.373  1.00  0.00     0.112 A 
HETATM    5  N2  UNL     1      -2.378  -4.111  -1.028  1.00  0.00    -0.378 N 
HETATM    6  C4  UNL     1      -1.879  -3.088  -0.208  1.00  0.00    -0.033 A 
HETATM    7  B1  UNL     1       0.150  -3.628   0.325  1.00  0.00     0.243 B 
HETATM    8  C5  UNL     1       0.514  -2.238   1.310  1.00  0.00     0.216 C 
HETATM    9  N3  UNL     1      -0.075  -1.014   0.843  1.00  0.00     0.087 N 
HETATM   10  C14 UNL     1      -1.480  -0.972   1.222  1.00  0.00     0.313 C 
HETATM   11  C15 UNL     1      -2.308  -1.832   0.361  1.00  0.00     0.008 A 
HETATM   12  C16 UNL     1      -3.537  -1.698  -0.079  1.00  0.00     0.064 A 
HETATM   13  H2  UNL     1      -1.822  -4.939  -1.289  1.00  0.00     0.164 HD
ENDROOT
BRANCH  12  14
HETATM   14  N5  UNL     1      -4.078  -0.462   0.423  1.00  0.00    -0.354 N 
HETATM   15  H21 UNL     1      -3.984  -0.117   1.412  1.00  0.00     0.166 HD
BRANCH  14  16
HETATM   16  C17 UNL     1      -4.824   0.630  -0.067  1.00  0.00     0.034 A 
HETATM   17  C18 UNL     1      -6.195   0.671   0.059  1.00  0.00     0.032 A 
HETATM   18  C19 UNL     1      -6.994   1.687  -0.388  1.00  0.00     0.046 A 
HETATM   19  C20 UNL     1      -6.353   2.729  -1.004  1.00  0.00     0.138 A 
HETATM   20  F1  UNL     1      -7.143   3.752  -1.454  1.00  0.00    -0.204 F 
HETATM   21  C21 UNL     1      -4.981   2.719  -1.147  1.00  0.00     0.074 A 
HETATM   22 CL1  UNL     1      -4.321   4.136  -1.964  1.00  0.00    -0.081 Cl
HETATM   23  C22 UNL     1      -4.184   1.691  -0.693  1.00  0.00     0.056 A 
ENDBRANCH  14  16
ENDBRANCH  12  14
BRANCH   9  24
HETATM   24  C6  UNL     1       0.620   0.161   1.326  1.00  0.00     0.299 C 
BRANCH  24  25
HETATM   25  C7  UNL     1       1.974   0.293   0.748  1.00  0.00     0.001 C 
BRANCH  25  26
HETATM   26  C8  UNL     1       3.095   0.311   1.476  1.00  0.00     0.001 C 
BRANCH  26  27
HETATM   27  C9  UNL     1       4.543   0.419   1.295  1.00  0.00     0.299 C 
BRANCH  27  28
HETATM   28  N4  UNL     1       4.991   0.554  -0.065  1.00  0.00     0.096 N 
HETATM   29  C10 UNL     1       4.650   1.786  -0.702  1.00  0.00     0.299 C 
HETATM   30  C11 UNL     1       5.648   1.996  -1.843  1.00  0.00     0.198 C 
HETATM   31  O1  UNL     1       6.823   2.457  -1.248  1.00  0.00    -0.388 OA
HETATM   32  C12 UNL     1       7.181   1.668  -0.172  1.00  0.00     0.198 C 
HETATM   33  C13 UNL     1       6.422   0.373  -0.122  1.00  0.00     0.299 C 
ENDBRANCH  27  28
ENDBRANCH  26  27
ENDBRANCH  25  26
ENDBRANCH  24  25
ENDBRANCH   9  24
TORSDOF 7
