REMARK  9 active torsions:
REMARK  status: ('A' for Active; 'I' for Inactive)
REMARK    1  A    between atoms: C3_3  and  C4_4 
REMARK    2  A    between atoms: C4_4  and  C5_5 
REMARK    3  A    between atoms: C5_5  and  N1_6 
REMARK       I    between atoms: N1_6  and  C6_7 
REMARK    4  A    between atoms: C6_7  and  C7_9 
REMARK    5  A    between atoms: C7_9  and  P1_10 
REMARK    6  A    between atoms: P1_10  and  C8_11 
REMARK    7  A    between atoms: C8_11  and  N2_12 
REMARK    8  A    between atoms: C16_23  and  N5_24 
REMARK    9  A    between atoms: N5_24  and  C17_25 
ROOT
HETATM    1  C1  UNL     1       2.421  -0.219   1.650  1.00  0.00     0.052 C 
HETATM    2  C2  UNL     1       3.026  -1.171   0.691  1.00  0.00    -0.009 A 
HETATM    3  C3  UNL     1       2.319  -1.968  -0.181  1.00  0.00     0.044 A 
HETATM    4  N3  UNL     1       2.929  -2.824  -1.038  1.00  0.00    -0.263 NA
HETATM    5  C13 UNL     1       4.270  -2.927  -1.066  1.00  0.00     0.142 A 
HETATM    6  C14 UNL     1       5.025  -2.158  -0.221  1.00  0.00     0.089 A 
HETATM    7  C15 UNL     1       6.448  -2.312  -0.298  1.00  0.00     0.103 C 
HETATM    8  N4  UNL     1       7.597  -2.450  -0.357  1.00  0.00    -0.191 NA
HETATM    9  C16 UNL     1       4.399  -1.288   0.649  1.00  0.00     0.063 A 
ENDROOT
BRANCH   9  10
HETATM   10  N5  UNL     1       5.294  -0.541   1.481  1.00  0.00    -0.354 N 
HETATM   11  H21 UNL     1       5.515  -1.011   2.365  1.00  0.00     0.166 HD
BRANCH  10  12
HETATM   12  C17 UNL     1       5.809   0.727   1.092  1.00  0.00     0.034 A 
HETATM   13  C18 UNL     1       5.406   1.251  -0.128  1.00  0.00     0.032 A 
HETATM   14  C19 UNL     1       5.933   2.487  -0.467  1.00  0.00     0.046 A 
HETATM   15  C20 UNL     1       6.814   3.161   0.366  1.00  0.00     0.138 A 
HETATM   16  F1  UNL     1       7.275   4.367  -0.057  1.00  0.00    -0.204 F 
HETATM   17  C21 UNL     1       7.178   2.584   1.571  1.00  0.00     0.074 A 
HETATM   18 CL1  UNL     1       8.291   3.457   2.601  1.00  0.00    -0.081 Cl
HETATM   19  C22 UNL     1       6.673   1.364   1.932  1.00  0.00     0.056 A 
ENDBRANCH  10  12
ENDBRANCH   9  10
BRANCH   3  20
HETATM   20  C4  UNL     1       0.837  -1.911  -0.212  1.00  0.00     0.079 C 
BRANCH  20  21
HETATM   21  C5  UNL     1       0.410  -0.664  -0.941  1.00  0.00     0.129 C 
BRANCH  21  22
HETATM   22  N1  UNL     1      -1.042  -0.524  -1.021  1.00  0.00    -0.357 N 
HETATM   23  C6  UNL     1      -1.878  -1.483  -1.654  1.00  0.00     0.242 C 
HETATM   24  O1  UNL     1      -1.376  -2.509  -2.178  1.00  0.00    -0.269 OA
HETATM   25  H8  UNL     1      -1.547   0.310  -0.606  1.00  0.00     0.162 HD
BRANCH  23  26
HETATM   26  C7  UNL     1      -3.341  -1.278  -1.700  1.00  0.00     0.087 C 
BRANCH  26  27
HETATM   27  P1  UNL     1      -3.995   0.079  -1.006  1.00  0.00    -0.025 P 
BRANCH  27  28
HETATM   28  C8  UNL     1      -5.836   0.309  -1.080  1.00  0.00     0.315 C 
BRANCH  28  29
HETATM   29  N2  UNL     1      -6.380  -0.177   0.149  1.00  0.00     0.097 N 
HETATM   30  C9  UNL     1      -5.928   0.484   1.334  1.00  0.00     0.299 C 
HETATM   31  C10 UNL     1      -6.405   1.879   1.363  1.00  0.00     0.198 C 
HETATM   32  O2  UNL     1      -7.525   2.225   0.718  1.00  0.00    -0.388 OA
HETATM   33  C11 UNL     1      -8.315   1.277   0.165  1.00  0.00     0.198 C 
HETATM   34  C12 UNL     1      -7.808  -0.108   0.130  1.00  0.00     0.299 C 
ENDBRANCH  28  29
ENDBRANCH  27  28
ENDBRANCH  26  27
ENDBRANCH  23  26
ENDBRANCH  21  22
ENDBRANCH  20  21
ENDBRANCH   3  20
TORSDOF 9
