REMARK  4 active torsions:
REMARK  status: ('A' for Active; 'I' for Inactive)
REMARK    1  A    between atoms: C9_11  and  C10_12 
REMARK    2  A    between atoms: C10_12  and  C11_14 
REMARK    3  A    between atoms: C12_15  and  C13_16 
REMARK    4  A    between atoms: C13_16  and  N3_17 
ROOT
HETATM    1  C1  UNL     1      -6.150  -1.711  -0.675  1.00  0.00     0.015 C 
HETATM    2  C2  UNL     1      -5.426  -0.561  -0.060  1.00  0.00     0.014 C 
HETATM    3  C3  UNL     1      -5.764   0.761  -0.741  1.00  0.00     0.051 C 
HETATM    4  C4  UNL     1      -4.721   1.237  -1.690  1.00  0.00     0.215 C 
HETATM    5  C5  UNL     1      -5.299   2.414  -2.384  1.00  0.00     0.086 C 
HETATM    6  N1  UNL     1      -5.763   3.348  -2.925  1.00  0.00    -0.195 NA
HETATM    7  N2  UNL     1      -3.495   1.700  -1.123  1.00  0.00    -0.274 NA
HETATM    8  C6  UNL     1      -2.670   1.236  -0.273  1.00  0.00     0.038 C 
HETATM    9  C7  UNL     1      -1.277   1.495  -0.030  1.00  0.00     0.030 C 
HETATM   10  C8  UNL     1      -0.347   0.578  -0.023  1.00  0.00     0.037 C 
HETATM   11  C9  UNL     1      -0.098  -0.832  -0.192  1.00  0.00     0.101 C 
HETATM   12  N4  UNL     1      -0.763  -1.797  -0.527  1.00  0.00    -0.282 NA
HETATM   13  C18 UNL     1      -1.946  -2.340  -0.932  1.00  0.00     0.177 C 
HETATM   14  C19 UNL     1      -3.226  -1.698  -0.616  1.00  0.00    -0.001 C 
HETATM   15  C20 UNL     1      -3.942  -0.748  -0.041  1.00  0.00    -0.069 C 
HETATM   16  C21 UNL     1      -3.094   0.237   0.720  1.00  0.00     0.062 C 
HETATM   17  C22 UNL     1      -3.854   0.952   1.812  1.00  0.00     0.021 C 
ENDROOT
BRANCH  11  18
HETATM   18  C10 UNL     1       1.326  -1.242   0.021  1.00  0.00     0.199 C 
HETATM   19  O1  UNL     1       1.569  -2.499  -0.124  1.00  0.00    -0.286 OA
BRANCH  18  20
HETATM   20  C11 UNL     1       2.483  -0.427   0.371  1.00  0.00     0.055 C 
HETATM   21  C12 UNL     1       3.075   0.742   0.664  1.00  0.00     0.007 C 
BRANCH  21  22
HETATM   22  C13 UNL     1       4.445   1.140   0.990  1.00  0.00     0.300 C 
BRANCH  22  23
HETATM   23  N3  UNL     1       5.402   0.032   0.982  1.00  0.00     0.096 N 
HETATM   24  C14 UNL     1       6.710   0.555   1.400  1.00  0.00     0.299 C 
HETATM   25  C15 UNL     1       7.807  -0.428   1.133  1.00  0.00     0.198 C 
HETATM   26  O2  UNL     1       8.019  -0.584  -0.221  1.00  0.00    -0.388 OA
HETATM   27  C16 UNL     1       6.969  -0.058  -0.929  1.00  0.00     0.198 C 
HETATM   28  C17 UNL     1       5.607  -0.442  -0.386  1.00  0.00     0.299 C 
ENDBRANCH  22  23
ENDBRANCH  21  22
ENDBRANCH  18  20
ENDBRANCH  11  18
TORSDOF 4
