REMARK  3 active torsions:
REMARK  status: ('A' for Active; 'I' for Inactive)
REMARK    1  A    between atoms: C3_3  and  C4_4 
REMARK    2  A    between atoms: C13_14  and  N2_15 
REMARK    3  A    between atoms: N2_15  and  C14_16 
ROOT
HETATM    1  C1  UNL     1      -7.495   0.935  -0.118  1.00  0.00     0.112 C 
HETATM    2  C2  UNL     1      -6.034   0.854  -0.068  1.00  0.00    -0.108 C 
HETATM    3  C3  UNL     1      -4.835   0.786  -0.008  1.00  0.00    -0.071 C 
ENDROOT
BRANCH   3   4
HETATM    4  C4  UNL     1      -3.388   0.726   0.076  1.00  0.00     0.222 C 
HETATM    5  C5  UNL     1      -2.970  -0.459  -0.814  1.00  0.00     0.013 C 
HETATM    6  C6  UNL     1      -2.171  -1.373  -0.338  1.00  0.00    -0.024 C 
HETATM    7  C7  UNL     1      -1.446  -1.744   0.891  1.00  0.00     0.054 C 
HETATM    8  C8  UNL     1      -1.543  -3.148   1.242  1.00  0.00    -0.021 C 
HETATM    9  C9  UNL     1      -0.205  -3.145   1.012  1.00  0.00     0.019 C 
HETATM   10  C10 UNL     1       1.013  -2.432   0.638  1.00  0.00     0.044 C 
HETATM   11  C11 UNL     1       2.136  -3.410   0.640  1.00  0.00     0.099 C 
HETATM   12  C12 UNL     1       1.272  -1.137   0.312  1.00  0.00     0.048 C 
HETATM   13  N1  UNL     1       3.045  -4.179   0.629  1.00  0.00    -0.191 NA
HETATM   14  C13 UNL     1       1.300   0.314  -0.007  1.00  0.00     0.246 C 
HETATM   15  O1  UNL     1       0.086   0.859  -0.412  1.00  0.00    -0.361 OA
HETATM   16  C20 UNL     1      -0.512   1.677   0.525  1.00  0.00     0.197 C 
HETATM   17  C21 UNL     1      -1.701   2.430   0.005  1.00  0.00     0.196 C 
HETATM   18  O2  UNL     1      -2.723   1.764  -0.520  1.00  0.00    -0.368 OA
BRANCH  14  19
HETATM   19  N2  UNL     1       2.277   0.703  -0.983  1.00  0.00    -0.360 N 
HETATM   20  H13 UNL     1       1.938   1.014  -1.944  1.00  0.00     0.162 HD
BRANCH  19  21
HETATM   21  C14 UNL     1       3.710   0.766  -0.944  1.00  0.00     0.031 A 
HETATM   22  C15 UNL     1       4.527   1.127  -2.014  1.00  0.00     0.029 A 
HETATM   23  C16 UNL     1       5.874   1.179  -1.882  1.00  0.00     0.004 A 
HETATM   24  C17 UNL     1       6.531   0.889  -0.723  1.00  0.00     0.019 A 
HETATM   25  C18 UNL     1       5.755   0.524   0.372  1.00  0.00     0.013 A 
HETATM   26 BR1  UNL     1       6.693   0.126   1.977  1.00  0.00    -0.051 Br
HETATM   27  C19 UNL     1       4.373   0.474   0.228  1.00  0.00     0.048 A 
ENDBRANCH  19  21
ENDBRANCH  14  19
ENDBRANCH   3   4
TORSDOF 3
