REMARK  4 active torsions:
REMARK  status: ('A' for Active; 'I' for Inactive)
REMARK    1  A    between atoms: C4_7  and  C5_8 
REMARK    2  A    between atoms: C6_9  and  C7_10 
REMARK    3  A    between atoms: C7_10  and  N2_11 
REMARK    4  A    between atoms: N3_12  and  C8_13 
ROOT
HETATM    1  N2  UNL     1       0.127  -2.336   0.041  1.00  0.00    -0.189 NA
HETATM    2  N3  UNL     1       1.254  -2.527   0.562  1.00  0.00    -0.155 NA
ENDROOT
BRANCH   1   3
HETATM    3  C7  UNL     1      -0.225  -1.255  -0.840  1.00  0.00     0.200 C 
BRANCH   3   4
HETATM    4  C6  UNL     1      -1.126  -0.316  -0.102  1.00  0.00    -0.005 C 
HETATM    5  C5  UNL     1      -2.367   0.100  -0.315  1.00  0.00     0.016 C 
BRANCH   5   6
HETATM    6  C4  UNL     1      -3.367   1.005   0.311  1.00  0.00     0.342 C 
HETATM    7  C1  UNL     1      -4.072   1.734  -0.764  1.00  0.00     0.296 C 
HETATM    8  O1  UNL     1      -3.758   2.952  -0.932  1.00  0.00    -0.262 OA
HETATM    9  O2  UNL     1      -4.998   0.961  -1.450  1.00  0.00    -0.318 OA
HETATM   10  C2  UNL     1      -5.881   0.157  -0.669  1.00  0.00     0.209 C 
HETATM   11  C3  UNL     1      -5.638   0.545   0.769  1.00  0.00     0.297 C 
HETATM   12  N1  UNL     1      -4.275   0.177   1.092  1.00  0.00     0.103 N 
HETATM   13  H5  UNL     1      -4.193  -0.842   0.799  1.00  0.00     0.317 HD
ENDBRANCH   5   6
ENDBRANCH   3   4
ENDBRANCH   1   3
BRANCH   2  14
HETATM   14  C8  UNL     1       2.404  -1.730   0.397  1.00  0.00     0.079 A 
HETATM   15  C9  UNL     1       3.525  -2.531   0.151  1.00  0.00     0.036 A 
HETATM   16  C10 UNL     1       4.791  -1.977  -0.049  1.00  0.00     0.035 A 
HETATM   17  C11 UNL     1       4.924  -0.602   0.001  1.00  0.00     0.067 A 
HETATM   18  N4  UNL     1       6.132  -0.012  -0.186  1.00  0.00    -0.257 NA
HETATM   19  C15 UNL     1       3.820   0.189   0.243  1.00  0.00    -0.002 A 
HETATM   20  C12 UNL     1       6.248   1.329  -0.135  1.00  0.00     0.159 A 
HETATM   21  C13 UNL     1       5.132   2.137   0.110  1.00  0.00     0.134 A 
HETATM   22  F1  UNL     1       5.297   3.479   0.153  1.00  0.00    -0.205 F 
HETATM   23  C14 UNL     1       3.880   1.582   0.307  1.00  0.00     0.057 A 
HETATM   24  C16 UNL     1       2.570  -0.364   0.440  1.00  0.00     0.047 A 
ENDBRANCH   2  14
TORSDOF 4
