REMARK  4 active torsions:
REMARK  status: ('A' for Active; 'I' for Inactive)
REMARK    1  A    between atoms: C6_6  and  N1_7 
REMARK    2  A    between atoms: C10_13  and  C11_14 
REMARK       I    between atoms: C11_14  and  N3_16 
REMARK    3  A    between atoms: N3_16  and  C13_18 
REMARK    4  A    between atoms: C13_18  and  C14_19 
ROOT
HETATM    1  N1  UNL     1      -2.245   0.455   0.221  1.00  0.00    -0.337 N 
HETATM    2  C7  UNL     1      -2.137   1.312   1.351  1.00  0.00     0.211 A 
HETATM    3  N2  UNL     1      -1.034   1.620   1.945  1.00  0.00    -0.236 NA
HETATM    4  C8  UNL     1       0.176   1.072   1.445  1.00  0.00     0.107 A 
HETATM    5  S1  UNL     1       1.620   1.423   2.153  1.00  0.00    -0.068 SA
HETATM    6  C9  UNL     1       2.909   0.930   1.279  1.00  0.00     0.041 C 
HETATM    7  C10 UNL     1       2.577  -0.019   0.450  1.00  0.00     0.051 C 
HETATM    8  C15 UNL     1       1.293  -0.321  -0.166  1.00  0.00     0.030 C 
HETATM    9  C16 UNL     1       0.146   0.185   0.290  1.00  0.00    -0.003 A 
HETATM   10  C17 UNL     1      -1.110  -0.185  -0.408  1.00  0.00     0.171 A 
ENDROOT
BRANCH   1  11
HETATM   11  C6  UNL     1      -3.521   0.189  -0.350  1.00  0.00     0.036 A 
HETATM   12  C5  UNL     1      -3.673  -0.651  -1.456  1.00  0.00     0.029 A 
HETATM   13  C4  UNL     1      -4.866  -0.963  -2.071  1.00  0.00     0.003 A 
HETATM   14  C3  UNL     1      -6.014  -0.400  -1.554  1.00  0.00     0.007 A 
HETATM   15  C2  UNL     1      -5.940   0.441  -0.462  1.00  0.00    -0.060 A 
HETATM   16  C1  UNL     1      -7.195   1.042   0.084  1.00  0.00     0.048 C 
HETATM   17  C18 UNL     1      -4.709   0.700   0.093  1.00  0.00     0.036 A 
ENDBRANCH   1  11
BRANCH   7  18
HETATM   18  C11 UNL     1       3.676  -0.909   0.095  1.00  0.00     0.254 C 
HETATM   19  O1  UNL     1       3.505  -1.875  -0.699  1.00  0.00    -0.267 OA
HETATM   20  N3  UNL     1       5.027  -0.883   0.520  1.00  0.00    -0.351 N 
HETATM   21  C12 UNL     1       5.618  -2.013  -0.175  1.00  0.00     0.152 C 
BRANCH  20  22
HETATM   22  C13 UNL     1       5.821  -0.053   1.400  1.00  0.00     0.140 C 
BRANCH  22  23
HETATM   23  C14 UNL     1       6.449   1.102   0.645  1.00  0.00     0.134 C 
HETATM   24 CL1  UNL     1       7.487   0.448  -0.620  1.00  0.00    -0.129 Cl
ENDBRANCH  22  23
ENDBRANCH  20  22
ENDBRANCH   7  18
TORSDOF 4
