REMARK  6 active torsions:
REMARK  status: ('A' for Active; 'I' for Inactive)
REMARK    1  A    between atoms: N1_5  and  C4_6 
REMARK    2  A    between atoms: C7_9  and  N2_10 
REMARK    3  A    between atoms: N2_10  and  C8_11 
REMARK    4  A    between atoms: C8_11  and  C9_12 
REMARK    5  A    between atoms: C10_13  and  C11_14 
REMARK    6  A    between atoms: C11_14  and  N3_15 
ROOT
HETATM    1  C4  UNL     1      -3.496   0.488  -0.691  1.00  0.00     0.036 C 
HETATM    2  C5  UNL     1      -2.511   1.390  -1.083  1.00  0.00    -0.028 C 
HETATM    3  C6  UNL     1      -0.945   1.676  -0.805  1.00  0.00     0.041 C 
HETATM    4  C7  UNL     1      -0.760   0.397  -1.336  1.00  0.00     0.055 C 
HETATM    5  C16 UNL     1      -1.518   0.646  -2.632  1.00  0.00     0.051 C 
HETATM    6  C17 UNL     1      -2.167   1.582  -3.387  1.00  0.00     0.009 C 
HETATM    7  C18 UNL     1      -3.022   2.231  -2.274  1.00  0.00     0.070 C 
HETATM    8  N4  UNL     1      -2.554  -0.596  -2.775  1.00  0.00    -0.383 N 
HETATM    9  C19 UNL     1      -3.743  -0.564  -1.806  1.00  0.00     0.177 C 
HETATM   10  H21 UNL     1      -2.949  -1.553  -3.209  1.00  0.00     0.160 HD
ENDROOT
BRANCH   4  11
HETATM   11  N2  UNL     1       0.208  -0.462  -0.594  1.00  0.00    -0.385 N 
HETATM   12  H5  UNL     1       0.060  -1.398  -0.209  1.00  0.00     0.160 HD
BRANCH  11  13
HETATM   13  C8  UNL     1       1.470   0.292  -0.519  1.00  0.00     0.147 C 
BRANCH  13  14
HETATM   14  C9  UNL     1       2.477  -0.548   0.180  1.00  0.00    -0.010 C 
HETATM   15  C10 UNL     1       3.657  -1.047  -0.146  1.00  0.00     0.001 C 
BRANCH  15  16
HETATM   16  C11 UNL     1       4.521  -1.876   0.708  1.00  0.00     0.300 C 
BRANCH  16  17
HETATM   17  N3  UNL     1       5.814  -1.341   0.987  1.00  0.00     0.098 N 
HETATM   18  C12 UNL     1       5.825  -0.178   1.809  1.00  0.00     0.300 C 
HETATM   19  C13 UNL     1       6.844   0.745   1.288  1.00  0.00     0.001 C 
HETATM   20  C14 UNL     1       7.273   0.267   0.130  1.00  0.00     0.001 C 
HETATM   21  C15 UNL     1       6.572  -0.994  -0.191  1.00  0.00     0.300 C 
ENDBRANCH  16  17
ENDBRANCH  15  16
ENDBRANCH  13  14
ENDBRANCH  11  13
ENDBRANCH   4  11
BRANCH   1  22
HETATM   22  N1  UNL     1      -4.320   0.247   0.500  1.00  0.00    -0.353 N 
HETATM   23  C3  UNL     1      -3.831  -0.846   1.260  1.00  0.00     0.158 A 
HETATM   24  C2  UNL     1      -4.704  -1.025   2.449  1.00  0.00     0.037 A 
HETATM   25  C1  UNL     1      -5.777  -0.348   2.827  1.00  0.00     0.137 A 
HETATM   26  F1  UNL     1      -6.491  -0.616   3.946  1.00  0.00    -0.205 F 
HETATM   27  C21 UNL     1      -6.143   0.746   1.921  1.00  0.00     0.087 A 
HETATM   28  C20 UNL     1      -5.461   1.030   0.825  1.00  0.00     0.118 A 
HETATM   29 CL1  UNL     1      -7.552   1.700   2.340  1.00  0.00    -0.080 Cl
ENDBRANCH   1  22
TORSDOF 6
