REMARK  3 active torsions:
REMARK  status: ('A' for Active; 'I' for Inactive)
REMARK    1  A    between atoms: C3_3  and  C4_4 
REMARK       I    between atoms: C4_4  and  N1_6 
REMARK    2  A    between atoms: N1_6  and  C5_7 
REMARK    3  A    between atoms: C6_8  and  C7_9 
ROOT
HETATM    1  C1  UNL     1       7.941  -0.372   0.423  1.00  0.00     0.112 C 
HETATM    2  C2  UNL     1       6.569   0.039   0.085  1.00  0.00    -0.101 C 
HETATM    3  C3  UNL     1       5.436   0.359  -0.201  1.00  0.00    -0.006 C 
ENDROOT
BRANCH   3   4
HETATM    4  C4  UNL     1       4.093   0.739  -0.553  1.00  0.00     0.300 C 
HETATM    5  O1  UNL     1       3.783   1.220  -1.655  1.00  0.00    -0.258 OA
HETATM    6  N1  UNL     1       3.072   0.542   0.440  1.00  0.00    -0.327 N 
HETATM    7  H4  UNL     1       3.283   0.134   1.399  1.00  0.00     0.169 HD
BRANCH   6   8
HETATM    8  C5  UNL     1       1.760   0.950   0.000  1.00  0.00     0.089 C 
HETATM    9  C6  UNL     1       0.703   0.123  -0.078  1.00  0.00     0.008 C 
BRANCH   9  10
HETATM   10  C7  UNL     1      -0.757   0.070  -0.446  1.00  0.00     0.019 C 
HETATM   11  C8  UNL     1      -0.913  -0.893  -1.558  1.00  0.00     0.014 C 
HETATM   12  C9  UNL     1      -2.022  -1.548  -1.281  1.00  0.00     0.048 C 
HETATM   13  C10 UNL     1      -2.683  -2.384  -2.258  1.00  0.00     0.099 C 
HETATM   14  C11 UNL     1      -2.408  -1.265   0.120  1.00  0.00    -0.037 C 
HETATM   15  N2  UNL     1      -3.226  -3.057  -3.026  1.00  0.00    -0.191 NA
HETATM   16  C12 UNL     1      -1.548  -0.452   0.690  1.00  0.00     0.000 C 
HETATM   17  C13 UNL     1      -3.615  -1.817   0.779  1.00  0.00     0.067 C 
HETATM   18  C14 UNL     1      -4.657  -0.756   0.940  1.00  0.00    -0.021 C 
HETATM   19  C15 UNL     1      -4.665   0.557   0.649  1.00  0.00     0.015 C 
HETATM   20  C16 UNL     1      -3.934   1.726   0.113  1.00  0.00     0.007 C 
HETATM   21 BR1  UNL     1      -5.009   3.352   0.112  1.00  0.00    -0.051 Br
HETATM   22  C17 UNL     1      -2.660   1.689  -0.331  1.00  0.00    -0.006 C 
HETATM   23  C18 UNL     1      -1.272   1.454  -0.767  1.00  0.00     0.050 C 
ENDBRANCH   9  10
ENDBRANCH   6   8
ENDBRANCH   3   4
TORSDOF 3
