REMARK  3 active torsions:
REMARK  status: ('A' for Active; 'I' for Inactive)
REMARK    1  A    between atoms: C3_4  and  C4_5 
REMARK    2  A    between atoms: C5_6  and  N2_7 
REMARK       I    between atoms: C6_8  and  N3_9 
REMARK       I    between atoms: C6_8  and  N4_10 
REMARK    3  A    between atoms: C7_11  and  C8_12 
ROOT
HETATM    1  C1  UNL     1      -0.731  -4.296   0.176  1.00  0.00     0.144 C 
HETATM    2  N1  UNL     1      -1.057  -2.906   0.268  1.00  0.00    -0.197 NA
HETATM    3  C2  UNL     1      -0.097  -2.116  -0.461  1.00  0.00     0.159 C 
HETATM    4  C3  UNL     1      -0.308  -0.662  -0.267  1.00  0.00    -0.032 C 
HETATM    5  C7  UNL     1      -1.604  -0.424  -0.380  1.00  0.00    -0.011 C 
HETATM    6  C14 UNL     1      -2.601  -1.492  -0.648  1.00  0.00     0.234 C 
HETATM    7  O1  UNL     1      -2.329  -2.672   0.007  1.00  0.00    -0.299 OA
ENDROOT
BRANCH   4   8
HETATM    8  C4  UNL     1       0.696   0.311   0.058  1.00  0.00     0.029 C 
HETATM    9  C5  UNL     1       1.989   0.040   0.155  1.00  0.00     0.137 C 
BRANCH   9  10
HETATM   10  N2  UNL     1       2.972   1.012   0.478  1.00  0.00    -0.078 NA
HETATM   11  C6  UNL     1       4.184   0.678   0.748  1.00  0.00     0.691 C 
HETATM   12  N3  UNL     1       5.317  -0.194   0.953  1.00  0.00    -0.233 N 
HETATM   13  N4  UNL     1       4.413   2.064   0.920  1.00  0.00    -0.233 N 
HETATM   14  H8  UNL     1       5.664  -0.124   1.940  1.00  0.00     0.174 HD
HETATM   15  H9  UNL     1       5.613  -0.754   0.102  1.00  0.00     0.174 HD
HETATM   16  H10 UNL     1       5.028   2.708   0.391  1.00  0.00     0.174 HD
HETATM   17  H11 UNL     1       4.541   3.086   1.097  1.00  0.00     0.174 HD
ENDBRANCH   9  10
ENDBRANCH   4   8
BRANCH   5  18
HETATM   18  C8  UNL     1      -2.094   0.938  -0.241  1.00  0.00     0.016 A 
HETATM   19  C9  UNL     1      -1.494   1.797  -1.167  1.00  0.00     0.046 A 
HETATM   20 CL1  UNL     1      -0.353   1.470  -2.476  1.00  0.00    -0.083 Cl
HETATM   21  C10 UNL     1      -1.825   3.148  -1.150  1.00  0.00     0.025 A 
HETATM   22  C11 UNL     1      -2.745   3.646  -0.226  1.00  0.00     0.003 A 
HETATM   23  C12 UNL     1      -3.331   2.786   0.681  1.00  0.00     0.025 A 
HETATM   24  C13 UNL     1      -2.996   1.466   0.654  1.00  0.00     0.046 A 
HETATM   25 CL2  UNL     1      -3.668   0.275   1.749  1.00  0.00    -0.083 Cl
ENDBRANCH   5  18
TORSDOF 3
