REMARK  5 active torsions:
REMARK  status: ('A' for Active; 'I' for Inactive)
REMARK    1  A    between atoms: C3_3  and  C4_5 
REMARK    2  A    between atoms: C13_17  and  N4_18 
REMARK    3  A    between atoms: N4_18  and  C14_19 
REMARK    4  A    between atoms: C14_19  and  O1_21 
REMARK    5  A    between atoms: O1_21  and  C16_22 
ROOT
HETATM    1  C4  UNL     1      -1.546   0.855  -0.067  1.00  0.00    -0.013 C 
HETATM    2  C5  UNL     1      -2.526   0.638  -0.910  1.00  0.00     0.030 C 
HETATM    3  C6  UNL     1      -2.758  -0.587  -1.670  1.00  0.00     0.118 C 
HETATM    4  N1  UNL     1      -2.420  -1.824  -1.400  1.00  0.00    -0.259 NA
HETATM    5  C7  UNL     1      -1.704  -2.240  -0.219  1.00  0.00     0.088 A 
HETATM    6  C8  UNL     1      -1.998  -3.551   0.085  1.00  0.00     0.091 A 
HETATM    7  C9  UNL     1      -2.903  -4.303  -0.728  1.00  0.00     0.103 C 
HETATM    8  N2  UNL     1      -3.636  -4.921  -1.397  1.00  0.00    -0.191 NA
HETATM    9  C10 UNL     1      -1.399  -4.116   1.190  1.00  0.00     0.141 A 
HETATM   10  N3  UNL     1      -0.546  -3.371   1.938  1.00  0.00    -0.271 NA
HETATM   11  C11 UNL     1      -0.294  -2.107   1.602  1.00  0.00     0.128 A 
HETATM   12  C12 UNL     1      -0.833  -1.415   0.510  1.00  0.00     0.017 A 
HETATM   13  C13 UNL     1      -0.407  -0.025   0.370  1.00  0.00     0.151 C 
ENDROOT
BRANCH  13  14
HETATM   14  N4  UNL     1       0.673   0.230  -0.480  1.00  0.00    -0.385 N 
HETATM   15  H10 UNL     1       0.647   1.122  -1.013  1.00  0.00     0.156 HD
BRANCH  14  16
HETATM   16  C14 UNL     1       1.936  -0.348  -0.301  1.00  0.00     0.212 C 
HETATM   17  C15 UNL     1       1.945  -1.811  -0.555  1.00  0.00     0.063 C 
BRANCH  16  18
HETATM   18  O1  UNL     1       2.834   0.351  -1.115  1.00  0.00    -0.368 OA
BRANCH  18  19
HETATM   19  C16 UNL     1       3.859   0.931  -0.383  1.00  0.00     0.166 C 
HETATM   20  C17 UNL     1       4.766   1.655  -1.343  1.00  0.00     0.033 C 
ENDBRANCH  18  19
ENDBRANCH  16  18
ENDBRANCH  14  16
ENDBRANCH  13  14
BRANCH   1  21
HETATM   21  C3  UNL     1      -1.559   2.173   0.553  1.00  0.00     0.015 C 
HETATM   22  C2  UNL     1      -2.457   3.115   0.324  1.00  0.00    -0.011 C 
HETATM   23  C1  UNL     1      -2.334   4.410   1.035  1.00  0.00     0.037 C 
HETATM   24 BR1  UNL     1      -0.198   2.664   1.814  1.00  0.00    -0.051 Br
ENDBRANCH   1  21
TORSDOF 5
