REMARK  4 active torsions:
REMARK  status: ('A' for Active; 'I' for Inactive)
REMARK    1  A    between atoms: N1_2  and  C3_4 
REMARK    2  A    between atoms: C3_4  and  C4_5 
REMARK    3  A    between atoms: C5_6  and  C6_7 
REMARK       I    between atoms: C6_7  and  N2_9 
REMARK    4  A    between atoms: N2_9  and  C7_10 
ROOT
HETATM    1  C7  UNL     1       0.619   0.586   0.473  1.00  0.00     0.042 C 
HETATM    2  C8  UNL     1       1.532   0.559  -0.535  1.00  0.00    -0.032 C 
HETATM    3  C9  UNL     1       0.805  -0.160  -1.647  1.00  0.00     0.017 C 
HETATM    4  C10 UNL     1       0.488  -1.442  -1.894  1.00  0.00    -0.041 C 
HETATM    5  C11 UNL     1       1.193  -2.194  -1.036  1.00  0.00     0.010 C 
HETATM    6  C12 UNL     1       2.444  -1.693  -1.129  1.00  0.00     0.025 C 
HETATM    7  C13 UNL     1       3.073  -1.535  -2.418  1.00  0.00    -0.007 C 
HETATM    8  C14 UNL     1       4.410  -1.327  -2.244  1.00  0.00    -0.022 C 
HETATM    9  C15 UNL     1       4.725  -1.319  -0.826  1.00  0.00     0.077 C 
HETATM   10  C16 UNL     1       5.428  -0.099  -0.330  1.00  0.00     0.022 C 
HETATM   11  C17 UNL     1       6.818   0.071  -0.745  1.00  0.00     0.095 C 
HETATM   12  N3  UNL     1       7.934   0.209  -1.099  1.00  0.00    -0.192 NA
HETATM   13  C18 UNL     1       4.958   0.891   0.453  1.00  0.00    -0.001 C 
HETATM   14  C19 UNL     1       3.507   0.721   0.848  1.00  0.00     0.037 C 
HETATM   15  C20 UNL     1       3.099   1.630   1.960  1.00  0.00     0.177 C 
HETATM   16  O2  UNL     1       1.746   1.745   2.106  1.00  0.00    -0.385 OA
HETATM   17  C21 UNL     1       0.974   0.604   1.911  1.00  0.00     0.225 C 
HETATM   18  C22 UNL     1       2.842   1.196  -0.425  1.00  0.00     0.051 C 
ENDROOT
BRANCH   1  19
HETATM   19  N2  UNL     1      -0.695   0.619  -0.151  1.00  0.00    -0.325 N 
HETATM   20  C6  UNL     1      -1.963   0.660   0.460  1.00  0.00     0.245 C 
HETATM   21  O1  UNL     1      -1.986   0.659   1.718  1.00  0.00    -0.268 OA
HETATM   22  H11 UNL     1      -0.935   0.608  -1.158  1.00  0.00     0.169 HD
BRANCH  20  23
HETATM   23  C5  UNL     1      -3.274   0.708  -0.109  1.00  0.00     0.072 C 
HETATM   24  C4  UNL     1      -4.337   0.741   0.637  1.00  0.00     0.008 C 
BRANCH  24  25
HETATM   25  C3  UNL     1      -5.652   0.792  -0.049  1.00  0.00     0.299 C 
BRANCH  25  26
HETATM   26  N1  UNL     1      -6.400  -0.384   0.343  1.00  0.00     0.083 N 
HETATM   27  C1  UNL     1      -5.814  -1.588  -0.202  1.00  0.00     0.309 C 
HETATM   28  C2  UNL     1      -7.783  -0.264  -0.011  1.00  0.00     0.309 C 
ENDBRANCH  25  26
ENDBRANCH  24  25
ENDBRANCH  20  23
ENDBRANCH   1  19
TORSDOF 4
