REMARK  9 active torsions:
REMARK  status: ('A' for Active; 'I' for Inactive)
REMARK    1  A    between atoms: C2_2  and  C3_3 
REMARK    2  A    between atoms: C3_3  and  N1_4 
REMARK    3  A    between atoms: N1_4  and  C4_5 
REMARK    4  A    between atoms: C4_5  and  C5_6 
REMARK    5  A    between atoms: C5_6  and  C6_7 
REMARK    6  A    between atoms: C6_7  and  C7_8 
REMARK    7  A    between atoms: C10_13  and  C11_14 
REMARK    8  A    between atoms: C11_14  and  C12_15 
REMARK    9  A    between atoms: C17_21  and  O1_22 
ROOT
HETATM    1  C7  UNL     1       0.616   0.565   1.979  1.00  0.00     0.069 A 
HETATM    2  N2  UNL     1       1.245   1.019   3.064  1.00  0.00    -0.241 NA
HETATM    3  C8  UNL     1       0.638   1.519   4.115  1.00  0.00     0.233 A 
HETATM    4  N3  UNL     1      -0.681   1.534   4.003  1.00  0.00    -0.253 NA
HETATM    5  C9  UNL     1      -1.360   1.097   2.951  1.00  0.00     0.131 A 
HETATM    6  C10 UNL     1      -0.752   0.571   1.841  1.00  0.00     0.011 A 
ENDROOT
BRANCH   6   7
HETATM    7  C11 UNL     1      -1.555   0.224   0.878  1.00  0.00     0.025 C 
BRANCH   7   8
HETATM    8  C12 UNL     1      -2.955   0.137   0.514  1.00  0.00    -0.022 C 
HETATM    9  C13 UNL     1      -3.003  -0.318  -0.749  1.00  0.00     0.011 C 
HETATM   10  C14 UNL     1      -4.147  -0.580  -1.591  1.00  0.00     0.008 C 
HETATM   11  C15 UNL     1      -5.319  -0.339  -1.062  1.00  0.00    -0.057 C 
HETATM   12  C16 UNL     1      -6.584  -0.537  -1.736  1.00  0.00     0.049 C 
HETATM   13  P1  UNL     1      -5.708   0.329   0.569  1.00  0.00    -0.062 P 
HETATM   14  C17 UNL     1      -4.040   0.455   1.462  1.00  0.00     0.206 C 
HETATM   15  H20 UNL     1      -6.673  -0.400   1.322  1.00  0.00     0.065 HD
BRANCH  14  16
HETATM   16  O1  UNL     1      -4.170  -0.503   2.473  1.00  0.00    -0.269 OA
HETATM   17 CL1  UNL     1      -4.840   0.044   3.903  1.00  0.00     0.062 Cl
ENDBRANCH  14  16
ENDBRANCH   7   8
ENDBRANCH   6   7
BRANCH   1  18
HETATM   18  C6  UNL     1       1.225   0.074   0.955  1.00  0.00     0.030 C 
BRANCH  18  19
HETATM   19  C5  UNL     1       1.832  -0.484  -0.218  1.00  0.00     0.002 C 
BRANCH  19  20
HETATM   20  C4  UNL     1       2.719  -0.903  -1.057  1.00  0.00     0.125 C 
BRANCH  20  21
HETATM   21  N1  UNL     1       4.046  -1.127  -1.419  1.00  0.00    -0.412 N 
HETATM   22  H8  UNL     1       3.845  -2.063  -1.896  1.00  0.00     0.153 HD
BRANCH  21  23
HETATM   23  C3  UNL     1       5.437  -0.664  -1.426  1.00  0.00     0.114 C 
BRANCH  23  24
HETATM   24  C2  UNL     1       5.557   0.529  -2.314  1.00  0.00     0.015 C 
HETATM   25  C1  UNL     1       6.975   1.061  -2.359  1.00  0.00     0.006 C 
ENDBRANCH  23  24
ENDBRANCH  21  23
ENDBRANCH  20  21
ENDBRANCH  19  20
ENDBRANCH  18  19
ENDBRANCH   1  18
TORSDOF 9
