REMARK  4 active torsions:
REMARK  status: ('A' for Active; 'I' for Inactive)
REMARK    1  A    between atoms: C3_3  and  C4_4 
REMARK       I    between atoms: C4_4  and  N1_6 
REMARK    2  A    between atoms: N1_6  and  C5_7 
REMARK    3  A    between atoms: C18_23  and  N4_24 
REMARK    4  A    between atoms: C18_23  and  O2_25 
ROOT
HETATM    1  C1  UNL     1       6.808   0.770  -1.611  1.00  0.00     0.112 C 
HETATM    2  C2  UNL     1       5.524   0.557  -0.918  1.00  0.00    -0.101 C 
HETATM    3  C3  UNL     1       4.458   0.359  -0.340  1.00  0.00    -0.006 C 
ENDROOT
BRANCH   3   4
HETATM    4  C4  UNL     1       3.204   0.102   0.330  1.00  0.00     0.300 C 
HETATM    5  O1  UNL     1       3.328   0.067   1.601  1.00  0.00    -0.258 OA
HETATM    6  N1  UNL     1       2.035  -0.072  -0.499  1.00  0.00    -0.315 N 
HETATM    7  H4  UNL     1       2.233  -0.028  -1.553  1.00  0.00     0.169 HD
BRANCH   6   8
HETATM    8  C5  UNL     1       0.634  -0.322  -0.195  1.00  0.00     0.079 C 
HETATM    9  C6  UNL     1       0.161   0.893  -0.605  1.00  0.00     0.015 C 
HETATM   10  C7  UNL     1      -0.628   1.998  -0.924  1.00  0.00     0.061 C 
HETATM   11  C8  UNL     1      -1.663   2.934  -1.135  1.00  0.00     0.070 C 
HETATM   12  N2  UNL     1      -3.113   3.049  -0.950  1.00  0.00    -0.369 N 
HETATM   13  C9  UNL     1      -3.334   1.833  -0.194  1.00  0.00     0.033 A 
HETATM   14  H8  UNL     1      -3.197   3.946  -1.467  1.00  0.00     0.165 HD
HETATM   15  C10 UNL     1      -2.990   1.936   1.127  1.00  0.00     0.030 A 
HETATM   16  C14 UNL     1      -3.715   0.793  -1.009  1.00  0.00     0.049 A 
HETATM   17  C11 UNL     1      -2.958   0.853   1.984  1.00  0.00     0.016 A 
HETATM   18  C12 UNL     1      -3.349   0.163   0.873  1.00  0.00     0.002 A 
HETATM   19  C13 UNL     1      -3.736  -0.393  -0.299  1.00  0.00     0.025 A 
HETATM   20  C15 UNL     1      -2.655  -1.028   1.469  1.00  0.00     0.057 C 
HETATM   21 BR1  UNL     1      -4.161  -2.177  -0.794  1.00  0.00    -0.050 Br
HETATM   22  C16 UNL     1      -3.131  -1.895   2.499  1.00  0.00     0.100 C 
HETATM   23  C17 UNL     1      -1.441  -1.197   0.875  1.00  0.00     0.073 C 
HETATM   24  N3  UNL     1      -3.501  -2.594   3.342  1.00  0.00    -0.191 NA
HETATM   25  C18 UNL     1      -0.132  -1.484   0.325  1.00  0.00     0.319 C 
BRANCH  25  26
HETATM   26  N4  UNL     1      -0.247  -2.364  -0.882  1.00  0.00     0.124 N 
HETATM   27  H13 UNL     1      -0.849  -1.854  -1.544  1.00  0.00     0.317 HD
HETATM   28  H14 UNL     1      -0.600  -3.291  -0.606  1.00  0.00     0.317 HD
ENDBRANCH  25  26
BRANCH  25  29
HETATM   29  O2  UNL     1       0.590  -2.194   1.259  1.00  0.00    -0.350 OA
HETATM   30  C19 UNL     1       1.639  -2.935   0.802  1.00  0.00     0.205 C 
ENDBRANCH  25  29
ENDBRANCH   6   8
ENDBRANCH   3   4
TORSDOF 4
