REMARK  5 active torsions:
REMARK  status: ('A' for Active; 'I' for Inactive)
REMARK    1  A    between atoms: O1_2  and  C2_3 
REMARK    2  A    between atoms: C3_4  and  N1_5 
REMARK       I    between atoms: N1_5  and  C4_6 
REMARK    3  A    between atoms: C4_6  and  C5_8 
REMARK    4  A    between atoms: C6_9  and  C7_10 
REMARK    5  A    between atoms: C7_10  and  N2_11 
ROOT
HETATM    1  C2  UNL     1      -1.346  -1.052   1.132  1.00  0.00     0.196 C 
HETATM    2  C3  UNL     1      -0.955  -0.410  -0.186  1.00  0.00     0.056 C 
HETATM    3  C10 UNL     1      -0.844   0.187  -1.394  1.00  0.00     0.115 C 
HETATM    4  C11 UNL     1      -1.794   0.704  -2.343  1.00  0.00    -0.004 C 
HETATM    5  C12 UNL     1      -3.108   0.973  -2.681  1.00  0.00    -0.015 A 
HETATM    6 BR1  UNL     1      -4.231   1.677  -4.060  1.00  0.00    -0.127 Br
HETATM    7  C13 UNL     1      -4.500   1.257  -2.001  1.00  0.00     0.077 A 
HETATM    8  C14 UNL     1      -5.871   1.532  -1.489  1.00  0.00     0.144 C 
HETATM    9  C15 UNL     1      -5.216   1.462  -0.276  1.00  0.00    -0.093 C 
HETATM   10  C16 UNL     1      -4.668   1.407   0.695  1.00  0.00    -0.065 C 
HETATM   11  C17 UNL     1      -3.975   1.338   1.868  1.00  0.00     0.042 A 
HETATM   12  C18 UNL     1      -3.050   0.379   1.423  1.00  0.00     0.052 A 
HETATM   13  C19 UNL     1      -1.910  -0.087   2.105  1.00  0.00     0.066 A 
HETATM   14  N3  UNL     1      -1.838   0.532   3.283  1.00  0.00    -0.261 NA
HETATM   15  C20 UNL     1      -2.726   1.437   3.703  1.00  0.00     0.141 A 
HETATM   16  C21 UNL     1      -3.844   1.917   3.063  1.00  0.00     0.081 A 
HETATM   17  C22 UNL     1      -4.846   2.838   3.355  1.00  0.00     0.102 C 
HETATM   18  N4  UNL     1      -5.671   3.578   3.607  1.00  0.00    -0.191 NA
ENDROOT
BRANCH   1  19
HETATM   19  O1  UNL     1      -2.376  -1.993   0.860  1.00  0.00    -0.382 OA
HETATM   20  C1  UNL     1      -2.101  -3.278   1.204  1.00  0.00     0.202 C 
ENDBRANCH   1  19
BRANCH   2  21
HETATM   21  N1  UNL     1       0.503  -0.197  -0.135  1.00  0.00    -0.349 N 
HETATM   22  C4  UNL     1       1.347  -1.359  -0.077  1.00  0.00     0.241 C 
HETATM   23  O2  UNL     1       0.924  -2.539  -0.071  1.00  0.00    -0.269 OA
HETATM   24  H5  UNL     1       1.174   0.630  -0.116  1.00  0.00     0.163 HD
BRANCH  22  25
HETATM   25  C5  UNL     1       2.804  -1.327  -0.016  1.00  0.00     0.072 C 
HETATM   26  C6  UNL     1       3.703  -0.384   0.002  1.00  0.00     0.008 C 
BRANCH  26  27
HETATM   27  C7  UNL     1       5.145  -0.135   0.059  1.00  0.00     0.299 C 
BRANCH  27  28
HETATM   28  N2  UNL     1       5.571   0.597  -1.134  1.00  0.00     0.083 N 
HETATM   29  C8  UNL     1       7.011   0.828  -1.010  1.00  0.00     0.309 C 
HETATM   30  C9  UNL     1       5.377  -0.253  -2.321  1.00  0.00     0.309 C 
ENDBRANCH  27  28
ENDBRANCH  26  27
ENDBRANCH  22  25
ENDBRANCH   2  21
TORSDOF 5
