REMARK  4 active torsions:
REMARK  status: ('A' for Active; 'I' for Inactive)
REMARK    1  A    between atoms: N1_2  and  O1_3 
REMARK    2  A    between atoms: N1_2  and  C2_4 
REMARK    3  A    between atoms: C2_4  and  C3_5 
REMARK    4  A    between atoms: C4_6  and  C5_7 
ROOT
HETATM    1  C5  UNL     1      -0.011  -0.319   0.228  1.00  0.00     0.029 C 
HETATM    2  C6  UNL     1       0.321  -1.313  -0.577  1.00  0.00     0.053 C 
HETATM    3  C7  UNL     1       1.511  -2.130  -0.668  1.00  0.00     0.064 C 
HETATM    4  C8  UNL     1       1.559  -3.165  -1.696  1.00  0.00     0.101 C 
HETATM    5  N2  UNL     1       1.585  -3.995  -2.543  1.00  0.00    -0.191 NA
HETATM    6  C9  UNL     1       2.623  -2.121   0.034  1.00  0.00     0.139 C 
HETATM    7  N3  UNL     1       3.318  -1.504   1.098  1.00  0.00    -0.264 NA
HETATM    8  C10 UNL     1       3.332  -0.217   1.121  1.00  0.00     0.038 C 
HETATM    9  C11 UNL     1       4.106   0.207   2.313  1.00  0.00     0.051 C 
HETATM   10  C12 UNL     1       3.915   1.354   2.995  1.00  0.00     0.136 C 
HETATM   11  O2  UNL     1       2.975   2.336   2.728  1.00  0.00    -0.361 OA
HETATM   12  C13 UNL     1       1.869   2.443   1.920  1.00  0.00     0.199 C 
HETATM   13  C14 UNL     1       1.553   1.472   0.884  1.00  0.00     0.111 C 
HETATM   14  C15 UNL     1       2.704   0.788   0.174  1.00  0.00     0.086 C 
HETATM   15  N4  UNL     1       0.689   0.349   1.305  1.00  0.00    -0.383 N 
HETATM   16  H18 UNL     1       0.308  -0.241   2.067  1.00  0.00     0.160 HD
ENDROOT
BRANCH   1  17
HETATM   17  C4  UNL     1      -1.331   0.325   0.067  1.00  0.00     0.026 C 
HETATM   18  C3  UNL     1      -2.388   0.170  -0.746  1.00  0.00    -0.008 C 
BRANCH  18  19
HETATM   19  C2  UNL     1      -3.747   0.803  -0.938  1.00  0.00     0.147 C 
BRANCH  19  20
HETATM   20  N1  UNL     1      -4.717  -0.253  -0.737  1.00  0.00    -0.200 NA
HETATM   21  C1  UNL     1      -4.617  -1.198  -1.820  1.00  0.00     0.143 C 
BRANCH  20  22
HETATM   22  O1  UNL     1      -5.977   0.215  -0.590  1.00  0.00    -0.313 OA
HETATM   23  H4  UNL     1      -6.208   0.745  -1.413  1.00  0.00     0.237 HD
ENDBRANCH  20  22
ENDBRANCH  19  20
ENDBRANCH  18  19
ENDBRANCH   1  17
TORSDOF 4
