REMARK  8 active torsions:
REMARK  status: ('A' for Active; 'I' for Inactive)
REMARK    1  A    between atoms: C3_5  and  C4_6 
REMARK    2  A    between atoms: C4_6  and  C5_7 
REMARK    3  A    between atoms: C5_7  and  O1_8 
REMARK    4  A    between atoms: N3_12  and  C9_13 
REMARK    5  A    between atoms: C9_13  and  C10_14 
REMARK    6  A    between atoms: C10_14  and  C11_16 
REMARK    7  A    between atoms: C12_17  and  C13_18 
REMARK    8  A    between atoms: C13_18  and  N4_19 
ROOT
HETATM    1  N1  UNL     1      -2.020  -0.585  -3.247  1.00  0.00    -0.193 NA
HETATM    2  C1  UNL     1      -2.231  -0.712  -2.121  1.00  0.00     0.108 C 
HETATM    3  C2  UNL     1      -2.514  -0.868  -0.704  1.00  0.00     0.317 C 
HETATM    4  N2  UNL     1      -3.885  -1.125  -0.426  1.00  0.00    -0.254 NA
HETATM    5  C3  UNL     1      -4.949  -0.444  -0.200  1.00  0.00     0.037 C 
HETATM    6  C6  UNL     1      -5.013   1.017  -0.170  1.00  0.00     0.087 C 
HETATM    7  C7  UNL     1      -4.007   1.496   0.831  1.00  0.00    -0.004 C 
HETATM    8  C8  UNL     1      -2.738   1.117   0.886  1.00  0.00     0.085 C 
HETATM    9  N3  UNL     1      -1.978   0.228   0.105  1.00  0.00    -0.349 N 
ENDROOT
BRANCH   9  10
HETATM   10  C9  UNL     1      -0.574   0.472   0.151  1.00  0.00     0.208 C 
BRANCH  10  11
HETATM   11  C10 UNL     1       0.038   0.186   1.469  1.00  0.00     0.166 C 
HETATM   12  O2  UNL     1      -0.458  -0.236   2.547  1.00  0.00    -0.291 OA
BRANCH  11  13
HETATM   13  C11 UNL     1       1.471   0.446   1.505  1.00  0.00     0.049 C 
HETATM   14  C12 UNL     1       2.259   0.888   0.543  1.00  0.00     0.007 C 
BRANCH  14  15
HETATM   15  C13 UNL     1       3.703   1.186   0.458  1.00  0.00     0.300 C 
BRANCH  15  16
HETATM   16  N4  UNL     1       4.353   0.369  -0.559  1.00  0.00     0.096 N 
HETATM   17  C14 UNL     1       5.767   0.653  -0.652  1.00  0.00     0.299 C 
HETATM   18  C15 UNL     1       6.591  -0.600  -0.490  1.00  0.00     0.198 C 
HETATM   19  O3  UNL     1       6.204  -1.165   0.727  1.00  0.00    -0.388 OA
HETATM   20  C16 UNL     1       4.939  -1.742   0.585  1.00  0.00     0.198 C 
HETATM   21  C17 UNL     1       4.059  -1.026  -0.399  1.00  0.00     0.299 C 
ENDBRANCH  15  16
ENDBRANCH  14  15
ENDBRANCH  11  13
ENDBRANCH  10  11
ENDBRANCH   9  10
BRANCH   5  22
HETATM   22  C4  UNL     1      -6.131  -1.222   0.032  1.00  0.00     0.051 C 
BRANCH  22  23
HETATM   23  C5  UNL     1      -7.313  -0.703   0.280  1.00  0.00     0.133 C 
BRANCH  23  24
HETATM   24  O1  UNL     1      -8.338   0.200   0.501  1.00  0.00    -0.373 OA
HETATM   25  H4  UNL     1      -8.171   1.090   0.968  1.00  0.00     0.216 HD
ENDBRANCH  23  24
ENDBRANCH  22  23
ENDBRANCH   5  22
TORSDOF 8
