REMARK  6 active torsions:
REMARK  status: ('A' for Active; 'I' for Inactive)
REMARK    1  A    between atoms: C2_2  and  N1_3 
REMARK    2  A    between atoms: N1_3  and  C4_5 
REMARK    3  A    between atoms: C4_5  and  C5_6 
REMARK    4  A    between atoms: C5_6  and  C6_7 
REMARK       I    between atoms: C6_7  and  N2_9 
REMARK    5  A    between atoms: N2_9  and  C7_10 
REMARK    6  A    between atoms: C9_12  and  O2_13 
ROOT
HETATM    1  C7  UNL     1      -0.306   0.578   0.260  1.00  0.00     0.085 C 
HETATM    2  C8  UNL     1       0.346   1.043   1.537  1.00  0.00     0.047 C 
HETATM    3  C9  UNL     1      -1.310   1.769  -0.099  1.00  0.00     0.077 C 
HETATM    4  C11 UNL     1      -1.552   3.171   0.266  1.00  0.00     0.134 C 
HETATM    5  C12 UNL     1      -2.767   3.672  -0.481  1.00  0.00     0.070 A 
HETATM    6  C13 UNL     1      -3.395   2.547   0.000  1.00  0.00     0.140 A 
HETATM    7  C14 UNL     1      -4.195   1.415   0.427  1.00  0.00     0.051 A 
HETATM    8  C15 UNL     1      -5.368   1.775  -0.192  1.00  0.00     0.079 A 
HETATM    9  C16 UNL     1      -6.467   0.898  -0.027  1.00  0.00     0.102 C 
HETATM   10  N3  UNL     1      -7.350   0.206   0.092  1.00  0.00    -0.191 NA
HETATM   11  C17 UNL     1      -5.109   2.987  -0.853  1.00  0.00     0.086 A 
HETATM   12  N4  UNL     1      -3.988   3.630  -0.869  1.00  0.00    -0.265 NA
HETATM   13  N5  UNL     1      -3.844   0.201   1.158  1.00  0.00    -0.358 N 
HETATM   14  C18 UNL     1      -2.631  -0.569   0.842  1.00  0.00     0.036 A 
HETATM   15  C19 UNL     1      -1.313  -0.484   0.507  1.00  0.00    -0.004 A 
HETATM   16  C20 UNL     1      -0.911  -1.866   0.361  1.00  0.00     0.009 A 
HETATM   17  C21 UNL     1      -1.833  -2.752   0.570  1.00  0.00    -0.004 A 
HETATM   18  C22 UNL     1      -3.056  -1.999   0.904  1.00  0.00     0.131 A 
HETATM   19 BR1  UNL     1      -3.804  -2.504   2.613  1.00  0.00    -0.080 Br
HETATM   20  H21 UNL     1      -4.633   0.169   1.803  1.00  0.00     0.165 HD
ENDROOT
BRANCH   3  21
HETATM   21  O2  UNL     1      -2.164   1.094  -1.116  1.00  0.00    -0.387 OA
HETATM   22  C10 UNL     1      -1.704   0.844  -2.391  1.00  0.00     0.202 C 
ENDBRANCH   3  21
BRANCH   1  23
HETATM   23  N2  UNL     1       0.498   0.457  -0.863  1.00  0.00    -0.345 N 
HETATM   24  C6  UNL     1       1.641  -0.257  -0.360  1.00  0.00     0.220 C 
HETATM   25  O1  UNL     1       2.026  -0.727   0.756  1.00  0.00    -0.274 OA
HETATM   26  H11 UNL     1       0.841   0.544  -1.858  1.00  0.00     0.163 HD
BRANCH  24  27
HETATM   27  C5  UNL     1       2.920  -0.766  -0.985  1.00  0.00     0.122 C 
BRANCH  27  28
HETATM   28  C4  UNL     1       3.870  -1.037   0.152  1.00  0.00     0.126 C 
BRANCH  28  29
HETATM   29  N1  UNL     1       5.157  -1.488  -0.301  1.00  0.00    -0.410 N 
HETATM   30  C3  UNL     1       5.868  -0.445  -1.007  1.00  0.00     0.143 C 
BRANCH  29  31
HETATM   31  C2  UNL     1       5.704  -2.779  -0.106  1.00  0.00     0.101 C 
HETATM   32  C1  UNL     1       6.650  -2.447   0.767  1.00  0.00     0.029 C 
ENDBRANCH  29  31
ENDBRANCH  28  29
ENDBRANCH  27  28
ENDBRANCH  24  27
ENDBRANCH   1  23
TORSDOF 6
