REMARK  5 active torsions:
REMARK  status: ('A' for Active; 'I' for Inactive)
REMARK    1  A    between atoms: O1_2  and  C2_3 
REMARK    2  A    between atoms: C3_5  and  C4_6 
REMARK    3  A    between atoms: C4_6  and  C5_7 
REMARK    4  A    between atoms: C5_7  and  N2_8 
REMARK    5  A    between atoms: N2_8  and  O2_10 
ROOT
HETATM    1  C2  UNL     1       0.162   1.813  -0.490  1.00  0.00     0.267 C 
HETATM    2  N1  UNL     1       1.222   0.922  -0.785  1.00  0.00    -0.382 N 
HETATM    3  C3  UNL     1       1.295  -0.371  -0.197  1.00  0.00     0.130 C 
HETATM    4  C8  UNL     1       0.177  -1.248  -0.531  1.00  0.00     0.035 A 
HETATM    5  C9  UNL     1      -0.211  -2.451  -0.101  1.00  0.00     0.032 A 
HETATM    6  C10 UNL     1      -1.313  -2.509  -0.823  1.00  0.00    -0.049 A 
HETATM    7  C11 UNL     1      -1.917  -1.692  -1.720  1.00  0.00     0.169 A 
HETATM    8  C12 UNL     1      -1.473  -0.473  -2.110  1.00  0.00     0.042 C 
HETATM    9  N3  UNL     1      -0.636  -0.866  -1.309  1.00  0.00    -0.335 N 
HETATM   10  C13 UNL     1      -0.991   0.891  -2.557  1.00  0.00     0.057 C 
HETATM   11  C14 UNL     1      -1.084   1.513  -1.311  1.00  0.00     0.056 C 
HETATM   12  N4  UNL     1      -2.314   1.825  -0.587  1.00  0.00    -0.385 N 
HETATM   13  C15 UNL     1      -3.502   1.173  -1.043  1.00  0.00     0.171 C 
HETATM   14  C16 UNL     1      -4.467   0.967   0.068  1.00  0.00     0.057 C 
HETATM   15  C17 UNL     1      -5.166   2.024   0.709  1.00  0.00     0.098 C 
HETATM   16  N5  UNL     1      -5.739   2.907   1.248  1.00  0.00    -0.192 NA
HETATM   17  C18 UNL     1      -4.833  -0.199   0.638  1.00  0.00     0.026 C 
HETATM   18 BR1  UNL     1      -6.085  -0.539   2.072  1.00  0.00    -0.050 Br
HETATM   19  C19 UNL     1      -4.544  -1.693   0.732  1.00  0.00     0.021 C 
HETATM   20  C20 UNL     1      -3.561  -2.436   0.075  1.00  0.00     0.004 C 
HETATM   21  C21 UNL     1      -2.499  -3.385  -0.597  1.00  0.00     0.041 C 
HETATM   22  H5  UNL     1       1.521   0.937  -1.790  1.00  0.00     0.156 HD
HETATM   23  H20 UNL     1      -2.120   2.484   0.160  1.00  0.00     0.159 HD
ENDROOT
BRANCH   1  24
HETATM   24  O1  UNL     1       0.585   3.089  -0.829  1.00  0.00    -0.366 OA
HETATM   25  C1  UNL     1       0.517   4.007   0.200  1.00  0.00     0.204 C 
ENDBRANCH   1  24
BRANCH   3  26
HETATM   26  C4  UNL     1       1.755  -0.369   1.231  1.00  0.00     0.048 C 
BRANCH  26  27
HETATM   27  C5  UNL     1       3.158   0.274   1.188  1.00  0.00     0.122 C 
BRANCH  27  28
HETATM   28  N2  UNL     1       4.047  -0.487   0.356  1.00  0.00    -0.202 NA
HETATM   29  C6  UNL     1       5.344   0.154   0.278  1.00  0.00     0.143 C 
BRANCH  28  30
HETATM   30  O2  UNL     1       4.259  -1.742   0.845  1.00  0.00    -0.309 OA
HETATM   31  C7  UNL     1       5.180  -1.721   1.865  1.00  0.00     0.229 C 
ENDBRANCH  28  30
ENDBRANCH  27  28
ENDBRANCH  26  27
ENDBRANCH   3  26
TORSDOF 5
