REMARK  1 active torsions:
REMARK  status: ('A' for Active; 'I' for Inactive)
REMARK    1  A    between atoms: C3_3  and  N1_4 
ROOT
HETATM    1  C1  UNL     1       0.679  -2.504   0.195  1.00  0.00     0.001 C 
HETATM    2  C2  UNL     1      -0.379  -1.659   0.065  1.00  0.00     0.000 C 
HETATM    3  C3  UNL     1      -1.139  -0.580   0.845  1.00  0.00     0.131 C 
HETATM    4  C8  UNL     1       0.018   0.324   1.337  1.00  0.00    -0.048 C 
HETATM    5  C9  UNL     1       0.089   1.051   2.393  1.00  0.00     0.000 C 
HETATM    6  C10 UNL     1       1.400   1.781   2.496  1.00  0.00     0.175 C 
HETATM    7  N2  UNL     1       2.224   1.516   1.430  1.00  0.00    -0.300 NA
HETATM    8  C11 UNL     1       3.415   1.804   1.249  1.00  0.00     0.109 C 
HETATM    9  C12 UNL     1       3.383   1.127  -0.100  1.00  0.00     0.214 C 
HETATM   10  O2  UNL     1       3.001  -0.238   0.011  1.00  0.00    -0.378 OA
HETATM   11  C13 UNL     1       1.746  -0.656  -0.513  1.00  0.00     0.078 C 
HETATM   12  C14 UNL     1       1.014  -0.146   0.425  1.00  0.00     0.137 C 
HETATM   13  C15 UNL     1       1.890  -1.413  -1.808  1.00  0.00     0.302 C 
HETATM   14  N3  UNL     1       2.331  -2.807  -1.443  1.00  0.00     0.089 N 
HETATM   15  C16 UNL     1       0.986  -3.361  -0.979  1.00  0.00     0.296 C 
HETATM   16  H21 UNL     1       2.912  -2.672  -0.592  1.00  0.00     0.316 HD
ENDROOT
BRANCH   3  17
HETATM   17  N1  UNL     1      -2.054   0.039   0.035  1.00  0.00    -0.397 N 
HETATM   18  C4  UNL     1      -2.878   1.052   0.662  1.00  0.00     0.144 C 
HETATM   19  C5  UNL     1      -4.261   0.932   0.023  1.00  0.00     0.187 C 
HETATM   20  O1  UNL     1      -4.135   0.503  -1.318  1.00  0.00    -0.388 OA
HETATM   21  C6  UNL     1      -2.983   1.127  -1.853  1.00  0.00     0.187 C 
HETATM   22  C7  UNL     1      -1.705   0.506  -1.258  1.00  0.00     0.144 C 
ENDBRANCH   3  17
TORSDOF 1
