REMARK  8 active torsions:
REMARK  status: ('A' for Active; 'I' for Inactive)
REMARK    1  A    between atoms: C2_2  and  O1_3 
REMARK    2  A    between atoms: O1_3  and  C3_4 
REMARK    3  A    between atoms: C3_4  and  C4_5 
REMARK    4  A    between atoms: C4_5  and  C5_6 
REMARK    5  A    between atoms: C5_6  and  C6_8 
REMARK    6  A    between atoms: C7_9  and  C8_10 
REMARK    7  A    between atoms: C8_10  and  N1_11 
REMARK    8  A    between atoms: C19_24  and  C20_25 
ROOT
HETATM    1  C3  UNL     1      -2.122  -0.113  -0.663  1.00  0.00     0.076 C 
HETATM    2  C13 UNL     1      -2.659  -1.224  -0.191  1.00  0.00     0.046 C 
HETATM    3  N2  UNL     1      -2.808  -2.571  -0.640  1.00  0.00    -0.390 N 
HETATM    4  C14 UNL     1      -3.739  -3.470   0.040  1.00  0.00     0.132 C 
HETATM    5  C15 UNL     1      -3.994  -2.881   1.377  1.00  0.00     0.005 A 
HETATM    6  C16 UNL     1      -3.983  -1.929   2.174  1.00  0.00    -0.005 A 
HETATM    7  C17 UNL     1      -4.504  -1.860   3.461  1.00  0.00     0.013 A 
HETATM    8  C18 UNL     1      -3.989  -1.736   2.353  1.00  0.00    -0.005 A 
HETATM    9  C19 UNL     1      -3.431  -0.325   2.172  1.00  0.00     0.024 A 
HETATM   10  C20 UNL     1      -3.285  -1.157   1.158  1.00  0.00     0.028 A 
HETATM   11  H20 UNL     1      -2.210  -2.781  -1.435  1.00  0.00     0.159 HD
ENDROOT
BRANCH   1  12
HETATM   12  O1  UNL     1      -2.162   1.049   0.060  1.00  0.00    -0.353 OA
BRANCH  12  13
HETATM   13  C2  UNL     1      -2.444   2.312  -0.515  1.00  0.00     0.171 C 
HETATM   14  C1  UNL     1      -2.930   3.178   0.646  1.00  0.00     0.034 C 
ENDBRANCH  12  13
ENDBRANCH   1  12
BRANCH   1  15
HETATM   15  C4  UNL     1      -1.520  -0.264  -1.953  1.00  0.00     0.149 C 
BRANCH  15  16
HETATM   16  C5  UNL     1      -0.034   0.005  -1.863  1.00  0.00     0.155 C 
HETATM   17  O2  UNL     1       0.584   1.098  -1.845  1.00  0.00    -0.293 OA
BRANCH  16  18
HETATM   18  C6  UNL     1       0.867  -1.168  -1.784  1.00  0.00     0.048 C 
HETATM   19  C7  UNL     1       2.182  -1.080  -1.720  1.00  0.00     0.007 C 
BRANCH  19  20
HETATM   20  C8  UNL     1       3.282  -0.098  -1.693  1.00  0.00     0.300 C 
BRANCH  20  21
HETATM   21  N1  UNL     1       4.052  -0.260  -0.478  1.00  0.00     0.096 N 
HETATM   22  C9  UNL     1       3.280   0.122   0.651  1.00  0.00     0.299 C 
HETATM   23  C10 UNL     1       4.060   0.665   1.812  1.00  0.00     0.198 C 
HETATM   24  O3  UNL     1       5.188   1.394   1.481  1.00  0.00    -0.388 OA
HETATM   25  C11 UNL     1       5.229   1.721   0.129  1.00  0.00     0.198 C 
HETATM   26  C12 UNL     1       5.321   0.424  -0.618  1.00  0.00     0.299 C 
ENDBRANCH  20  21
ENDBRANCH  19  20
ENDBRANCH  16  18
ENDBRANCH  15  16
ENDBRANCH   1  15
TORSDOF 8
