REMARK  4 active torsions:
REMARK  status: ('A' for Active; 'I' for Inactive)
REMARK    1  A    between atoms: C3_3  and  C4_4 
REMARK    2  A    between atoms: C4_4  and  N1_5 
REMARK    3  A    between atoms: C12_14  and  N3_15 
REMARK    4  A    between atoms: N3_15  and  C13_16 
ROOT
HETATM    1  C1  UNL     1       4.980  -0.561  -2.576  1.00  0.00     0.112 C 
HETATM    2  C2  UNL     1       4.273  -0.527  -1.315  1.00  0.00    -0.109 C 
HETATM    3  C3  UNL     1       3.692  -0.482  -0.270  1.00  0.00    -0.087 C 
ENDROOT
BRANCH   3   4
HETATM    4  C4  UNL     1       2.984  -0.426   1.013  1.00  0.00     0.221 C 
BRANCH   4   5
HETATM    5  N1  UNL     1       1.715  -1.144   0.934  1.00  0.00    -0.355 N 
HETATM    6  C5  UNL     1       1.807  -2.555   0.786  1.00  0.00     0.092 A 
HETATM    7  C6  UNL     1       0.769  -3.377   0.696  1.00  0.00     0.030 A 
HETATM    8  C7  UNL     1      -0.537  -2.720   0.762  1.00  0.00    -0.010 A 
HETATM    9  C8  UNL     1      -1.592  -3.503   0.676  1.00  0.00    -0.012 A 
HETATM   10  C19 UNL     1      -0.628  -1.264   0.916  1.00  0.00     0.019 A 
HETATM   11  C9  UNL     1      -2.789  -2.990   0.728  1.00  0.00     0.038 A 
HETATM   12  C10 UNL     1      -2.967  -1.552   0.880  1.00  0.00     0.073 A 
HETATM   13  C11 UNL     1      -4.298  -1.020   0.933  1.00  0.00     0.102 C 
HETATM   14  C12 UNL     1      -1.958  -0.669   0.975  1.00  0.00     0.066 A 
HETATM   15  N2  UNL     1      -5.398  -0.601   0.969  1.00  0.00    -0.191 NA
HETATM   16  C20 UNL     1       0.448  -0.501   0.999  1.00  0.00     0.106 A 
BRANCH  14  17
HETATM   17  N3  UNL     1      -2.143   0.717   1.121  1.00  0.00    -0.354 N 
HETATM   18  H9  UNL     1      -2.547   0.744   2.077  1.00  0.00     0.166 HD
BRANCH  17  19
HETATM   19  C13 UNL     1      -1.918   1.880   0.338  1.00  0.00     0.033 A 
HETATM   20  C14 UNL     1      -2.286   3.082   0.909  1.00  0.00     0.029 A 
HETATM   21  C15 UNL     1      -2.078   4.223   0.165  1.00  0.00     0.004 A 
HETATM   22  C16 UNL     1      -1.526   4.104  -1.078  1.00  0.00     0.019 A 
HETATM   23  C17 UNL     1      -1.140   2.938  -1.698  1.00  0.00     0.013 A 
HETATM   24 BR1  UNL     1      -0.376   2.807  -3.429  1.00  0.00    -0.051 Br
HETATM   25  C18 UNL     1      -1.364   1.796  -0.918  1.00  0.00     0.048 A 
ENDBRANCH  17  19
ENDBRANCH  14  17
ENDBRANCH   4   5
ENDBRANCH   3   4
TORSDOF 4
