REMARK  7 active torsions:
REMARK  status: ('A' for Active; 'I' for Inactive)
REMARK    1  A    between atoms: C3_3  and  C4_4 
REMARK       I    between atoms: C4_4  and  N1_6 
REMARK    2  A    between atoms: N1_6  and  C5_7 
REMARK    3  A    between atoms: C10_13  and  N3_14 
REMARK    4  A    between atoms: C11_15  and  N4_16 
REMARK    5  A    between atoms: N4_16  and  C12_17 
REMARK    6  A    between atoms: C13_18  and  C14_19 
REMARK    7  A    between atoms: C16_21  and  C17_22 
ROOT
HETATM    1  C1  UNL     1       5.997   3.675  -1.576  1.00  0.00     0.112 C 
HETATM    2  C2  UNL     1       5.009   2.644  -1.896  1.00  0.00    -0.101 C 
HETATM    3  C3  UNL     1       4.189   1.768  -2.149  1.00  0.00    -0.006 C 
ENDROOT
BRANCH   3   4
HETATM    4  C4  UNL     1       3.211   0.747  -2.440  1.00  0.00     0.300 C 
HETATM    5  O1  UNL     1       2.801   0.545  -3.613  1.00  0.00    -0.258 OA
HETATM    6  N1  UNL     1       2.765   0.009  -1.307  1.00  0.00    -0.316 N 
HETATM    7  H4  UNL     1       3.121   0.193  -0.333  1.00  0.00     0.170 HD
BRANCH   6   8
HETATM    8  C5  UNL     1       1.861  -1.058  -1.009  1.00  0.00     0.036 A 
HETATM    9  C6  UNL     1       2.175  -2.406  -1.001  1.00  0.00     0.032 A 
HETATM   10  C7  UNL     1       1.214  -3.337  -0.698  1.00  0.00     0.035 A 
HETATM   11  C8  UNL     1      -0.066  -2.885  -0.404  1.00  0.00     0.069 A 
HETATM   12  N2  UNL     1      -0.961  -3.850  -0.115  1.00  0.00    -0.258 NA
HETATM   13  C18 UNL     1      -0.420  -1.547  -0.401  1.00  0.00     0.024 A 
HETATM   14  C9  UNL     1      -2.229  -3.490   0.183  1.00  0.00     0.148 A 
HETATM   15  C10 UNL     1      -2.636  -2.172   0.200  1.00  0.00     0.071 A 
HETATM   16  C11 UNL     1      -1.732  -1.173  -0.093  1.00  0.00     0.069 A 
HETATM   17  C19 UNL     1       0.587  -0.627  -0.715  1.00  0.00     0.045 A 
BRANCH  15  18
HETATM   18  N3  UNL     1      -3.943  -1.729   0.502  1.00  0.00    -0.396 N 
HETATM   19  H8  UNL     1      -4.443  -1.333   1.330  1.00  0.00     0.156 HD
HETATM   20  H9  UNL     1      -4.361  -1.917  -0.436  1.00  0.00     0.156 HD
ENDBRANCH  15  18
BRANCH  16  21
HETATM   21  N4  UNL     1      -1.969   0.238  -0.125  1.00  0.00    -0.371 N 
HETATM   22  H10 UNL     1      -2.267   0.570  -1.051  1.00  0.00     0.161 HD
BRANCH  21  23
HETATM   23  C12 UNL     1      -1.719   0.754   1.141  1.00  0.00     0.093 A 
HETATM   24  C13 UNL     1      -2.074   1.314   2.095  1.00  0.00    -0.038 A 
HETATM   25  C17 UNL     1      -3.198   1.305   1.321  1.00  0.00     0.062 A 
BRANCH  24  26
HETATM   26  C14 UNL     1      -2.421   1.833   2.966  1.00  0.00    -0.063 A 
HETATM   27  C15 UNL     1      -2.819   2.396   3.898  1.00  0.00     0.033 A 
HETATM   28  C16 UNL     1      -3.724   2.080   2.618  1.00  0.00     0.035 A 
ENDBRANCH  24  26
ENDBRANCH  21  23
ENDBRANCH  16  21
ENDBRANCH   6   8
ENDBRANCH   3   4
TORSDOF 7
