REMARK  2 active torsions:
REMARK  status: ('A' for Active; 'I' for Inactive)
REMARK    1  A    between atoms: C2_2  and  C3_4 
REMARK    2  A    between atoms: N2_14  and  C12_15 
ROOT
HETATM    1  C3  UNL     1      -2.835  -0.798  -0.856  1.00  0.00     0.095 C 
HETATM    2  C4  UNL     1      -4.034   0.056  -0.732  1.00  0.00     0.104 C 
HETATM    3  N1  UNL     1      -4.067   1.350  -0.495  1.00  0.00    -0.264 NA
HETATM    4  C5  UNL     1      -2.973   1.982   0.149  1.00  0.00     0.058 C 
HETATM    5  C6  UNL     1      -2.381   0.835   0.206  1.00  0.00     0.039 C 
HETATM    6  C7  UNL     1      -1.931  -0.494   0.292  1.00  0.00    -0.046 C 
HETATM    7  C8  UNL     1      -1.093  -1.193   1.029  1.00  0.00    -0.017 C 
HETATM    8  C9  UNL     1      -0.105  -1.235   2.161  1.00  0.00     0.063 C 
HETATM    9  C10 UNL     1       1.280  -1.634   1.634  1.00  0.00     0.224 C 
HETATM   10  C11 UNL     1       1.177  -3.020   1.137  1.00  0.00     0.043 C 
HETATM   11  N2  UNL     1       1.737  -0.630   0.694  1.00  0.00     0.107 N 
HETATM   12  C15 UNL     1       2.019   0.603   1.460  1.00  0.00     0.366 C 
HETATM   13  C16 UNL     1       1.662   1.761   0.771  1.00  0.00    -0.071 C 
HETATM   14  C17 UNL     1       1.359   2.674   0.225  1.00  0.00    -0.024 C 
HETATM   15  C18 UNL     1       0.957   3.804  -0.453  1.00  0.00     0.430 A 
HETATM   16  O1  UNL     1       0.173   4.682  -0.771  1.00  0.00    -0.130 OA
HETATM   17  N3  UNL     1      -0.411   3.897   0.107  1.00  0.00     0.122 N 
HETATM   18  C19 UNL     1      -1.800   4.211   0.494  1.00  0.00     0.243 C 
HETATM   19  C20 UNL     1      -2.857   3.361   0.492  1.00  0.00     0.059 C 
HETATM   20  H22 UNL     1      -0.685   3.291   0.915  1.00  0.00     0.329 HD
ENDROOT
BRANCH   1  21
HETATM   21  C2  UNL     1      -2.115  -0.625  -2.143  1.00  0.00    -0.021 A 
HETATM   22  C1  UNL     1      -2.002  -1.698  -2.955  1.00  0.00     0.121 A 
HETATM   23 BR1  UNL     1      -1.174  -0.295  -3.767  1.00  0.00    -0.131 Br
ENDBRANCH   1  21
BRANCH  11  24
HETATM   24  C12 UNL     1       2.889  -0.976  -0.090  1.00  0.00     0.216 C 
HETATM   25  C13 UNL     1       2.756  -2.102  -1.046  1.00  0.00     0.042 C 
HETATM   26  C14 UNL     1       3.260   0.282  -0.901  1.00  0.00     0.042 C 
ENDBRANCH  11  24
TORSDOF 2
