REMARK  6 active torsions:
REMARK  status: ('A' for Active; 'I' for Inactive)
REMARK    1  A    between atoms: C2_2  and  C3_3 
REMARK    2  A    between atoms: C2_2  and  N1_5 
REMARK    3  A    between atoms: N1_5  and  C4_6 
REMARK    4  A    between atoms: C7_9  and  N2_10 
REMARK    5  A    between atoms: C8_11  and  C9_12 
REMARK    6  A    between atoms: N4_15  and  C11_16 
ROOT
HETATM    1  C9  UNL     1       2.791  -0.001   0.891  1.00  0.00     0.154 C 
HETATM    2  C10 UNL     1       3.430   1.302   1.133  1.00  0.00     0.121 C 
HETATM    3  N3  UNL     1       3.962   2.342   1.331  1.00  0.00    -0.190 NA
HETATM    4  N4  UNL     1       3.532  -0.997   1.187  1.00  0.00    -0.237 NA
ENDROOT
BRANCH   1   5
HETATM    5  C8  UNL     1       1.460   0.268   0.370  1.00  0.00     0.160 C 
HETATM    6  N2  UNL     1       0.807   1.361   0.107  1.00  0.00    -0.258 NA
BRANCH   6   7
HETATM    7  C7  UNL     1      -0.516   1.151  -0.406  1.00  0.00     0.056 A 
HETATM    8  C6  UNL     1      -1.163   1.432  -1.585  1.00  0.00     0.034 A 
HETATM    9  C5  UNL     1      -2.470   1.089  -1.765  1.00  0.00     0.031 A 
HETATM   10  C4  UNL     1      -3.206   0.444  -0.774  1.00  0.00     0.028 A 
HETATM   11  C18 UNL     1      -2.590   0.148   0.417  1.00  0.00     0.031 A 
HETATM   12  C17 UNL     1      -1.258   0.498   0.597  1.00  0.00     0.034 A 
BRANCH  10  13
HETATM   13  N1  UNL     1      -4.564   0.096  -0.980  1.00  0.00    -0.385 N 
HETATM   14  H7  UNL     1      -5.093  -0.389  -0.229  1.00  0.00     0.160 HD
BRANCH  13  15
HETATM   15  C2  UNL     1      -5.297   0.369  -2.200  1.00  0.00     0.087 C 
HETATM   16  C1  UNL     1      -4.680  -0.324  -3.392  1.00  0.00     0.033 C 
BRANCH  15  17
HETATM   17  C3  UNL     1      -6.755  -0.017  -2.078  1.00  0.00     0.109 C 
HETATM   18 BR1  UNL     1      -6.930  -1.927  -1.852  1.00  0.00    -0.094 Br
ENDBRANCH  15  17
ENDBRANCH  13  15
ENDBRANCH  10  13
ENDBRANCH   6   7
ENDBRANCH   1   5
BRANCH   4  19
HETATM   19  C11 UNL     1       4.825  -0.851   1.694  1.00  0.00     0.058 A 
HETATM   20  C12 UNL     1       4.941  -1.607   2.870  1.00  0.00     0.031 A 
HETATM   21  C13 UNL     1       6.138  -1.656   3.600  1.00  0.00     0.002 A 
HETATM   22  C14 UNL     1       7.181  -0.924   3.093  1.00  0.00     0.000 A 
HETATM   23  C15 UNL     1       7.151  -0.158   1.946  1.00  0.00     0.002 A 
HETATM   24  C16 UNL     1       5.950  -0.157   1.285  1.00  0.00     0.031 A 
ENDBRANCH   4  19
TORSDOF 6
