REMARK  3 active torsions:
REMARK  status: ('A' for Active; 'I' for Inactive)
REMARK       I    between atoms: C3_3  and  N1_5 
REMARK    1  A    between atoms: N1_5  and  C4_6 
REMARK    2  A    between atoms: C11_15  and  N4_16 
REMARK    3  A    between atoms: N4_16  and  C12_17 
ROOT
HETATM    1  C1  UNL     1      -4.314   4.552   0.092  1.00  0.00     0.022 C 
HETATM    2  C2  UNL     1      -4.019   3.415  -0.209  1.00  0.00    -0.016 C 
HETATM    3  C3  UNL     1      -3.687   2.066  -0.574  1.00  0.00     0.300 C 
HETATM    4  O1  UNL     1      -3.999   1.555  -1.698  1.00  0.00    -0.258 OA
HETATM    5  N1  UNL     1      -2.982   1.293   0.375  1.00  0.00    -0.316 N 
HETATM    6  H2  UNL     1      -2.675   1.617   1.334  1.00  0.00     0.170 HD
ENDROOT
BRANCH   5   7
HETATM    7  C4  UNL     1      -2.523  -0.071   0.283  1.00  0.00     0.036 A 
HETATM    8  C5  UNL     1      -3.231  -1.194   0.660  1.00  0.00     0.032 A 
HETATM    9  C6  UNL     1      -2.633  -2.426   0.500  1.00  0.00     0.035 A 
HETATM   10  C7  UNL     1      -1.357  -2.550  -0.024  1.00  0.00     0.069 A 
HETATM   11  N2  UNL     1      -0.794  -3.769  -0.170  1.00  0.00    -0.259 NA
HETATM   12  C18 UNL     1      -0.644  -1.409  -0.405  1.00  0.00     0.023 A 
HETATM   13  C8  UNL     1       0.442  -3.883  -0.678  1.00  0.00     0.142 A 
HETATM   14  C9  UNL     1       1.177  -2.765  -1.066  1.00  0.00     0.089 A 
HETATM   15  C10 UNL     1       2.500  -2.914  -1.608  1.00  0.00     0.103 C 
HETATM   16  C11 UNL     1       0.649  -1.485  -0.939  1.00  0.00     0.067 A 
HETATM   17  N3  UNL     1       3.563  -3.051  -2.034  1.00  0.00    -0.191 NA
HETATM   18  C19 UNL     1      -1.232  -0.152  -0.250  1.00  0.00     0.045 A 
BRANCH  16  19
HETATM   19  N4  UNL     1       1.359  -0.314  -1.321  1.00  0.00    -0.354 N 
HETATM   20  H6  UNL     1       1.160  -0.086  -2.319  1.00  0.00     0.166 HD
BRANCH  19  21
HETATM   21  C12 UNL     1       2.211   0.435  -0.476  1.00  0.00     0.033 A 
HETATM   22  C13 UNL     1       2.366  -0.004   0.823  1.00  0.00     0.029 A 
HETATM   23  C14 UNL     1       3.210   0.746   1.647  1.00  0.00     0.004 A 
HETATM   24  C15 UNL     1       3.830   1.863   1.123  1.00  0.00     0.019 A 
HETATM   25  C16 UNL     1       3.646   2.269  -0.186  1.00  0.00     0.013 A 
HETATM   26 BR1  UNL     1       4.513   3.817  -0.884  1.00  0.00    -0.051 Br
HETATM   27  C17 UNL     1       2.810   1.544  -1.037  1.00  0.00     0.048 A 
ENDBRANCH  19  21
ENDBRANCH  16  19
ENDBRANCH   5   7
TORSDOF 3
