REMARK  8 active torsions:
REMARK  status: ('A' for Active; 'I' for Inactive)
REMARK    1  A    between atoms: C2_2  and  N1_3 
REMARK    2  A    between atoms: N1_3  and  C4_5 
REMARK    3  A    between atoms: C4_5  and  C5_6 
REMARK    4  A    between atoms: C6_7  and  N2_8 
REMARK    5  A    between atoms: N2_8  and  O1_9 
REMARK    6  A    between atoms: N2_8  and  C7_10 
REMARK    7  A    between atoms: C13_18  and  N5_19 
REMARK    8  A    between atoms: C19_26  and  O2_27 
ROOT
HETATM    1  C7  UNL     1      -0.443  -0.049   0.991  1.00  0.00     0.186 A 
HETATM    2  C8  UNL     1      -1.630  -0.892   0.908  1.00  0.00     0.026 A 
HETATM    3  C9  UNL     1      -1.275  -1.577   2.033  1.00  0.00     0.076 A 
HETATM    4  N3  UNL     1      -1.924  -2.614   2.623  1.00  0.00    -0.260 NA
HETATM    5  C10 UNL     1      -3.087  -3.068   2.064  1.00  0.00     0.142 A 
HETATM    6  C11 UNL     1      -3.474  -2.377   0.908  1.00  0.00     0.089 A 
HETATM    7  C12 UNL     1      -4.751  -2.908   0.454  1.00  0.00     0.103 C 
HETATM    8  N4  UNL     1      -5.795  -3.329   0.104  1.00  0.00    -0.191 NA
HETATM    9  C13 UNL     1      -2.831  -1.324   0.291  1.00  0.00     0.067 A 
HETATM   10  C19 UNL     1      -0.103  -0.766   2.264  1.00  0.00     0.203 A 
ENDROOT
BRANCH   9  11
HETATM   11  N5  UNL     1      -3.350  -0.665  -0.827  1.00  0.00    -0.349 N 
HETATM   12  C14 UNL     1      -4.368  -0.973  -1.742  1.00  0.00     0.133 C 
HETATM   13  C15 UNL     1      -4.942  -0.227  -2.656  1.00  0.00     0.131 C 
HETATM   14  F1  UNL     1      -5.919  -0.668  -3.453  1.00  0.00    -0.205 F 
HETATM   15  C16 UNL     1      -4.404   1.106  -2.891  1.00  0.00     0.041 C 
HETATM   16  C17 UNL     1      -3.366   1.346  -2.113  1.00  0.00    -0.004 C 
HETATM   17  C18 UNL     1      -2.639   0.574  -1.080  1.00  0.00     0.156 C 
ENDBRANCH   9  11
BRANCH   1  18
HETATM   18  N2  UNL     1       0.611  -0.323  -0.019  1.00  0.00    -0.260 N 
BRANCH  18  19
HETATM   19  C6  UNL     1       1.165  -0.143  -1.317  1.00  0.00     0.115 C 
HETATM   20  C5  UNL     1       2.062   0.801  -1.540  1.00  0.00     0.012 C 
BRANCH  20  21
HETATM   21  C4  UNL     1       2.672   1.809  -0.640  1.00  0.00     0.150 C 
BRANCH  21  22
HETATM   22  N1  UNL     1       4.125   1.645  -0.574  1.00  0.00    -0.392 N 
HETATM   23  C3  UNL     1       5.140   2.553  -1.096  1.00  0.00     0.149 C 
BRANCH  22  24
HETATM   24  C2  UNL     1       4.738   0.519   0.039  1.00  0.00     0.075 C 
HETATM   25  C1  UNL     1       5.291   0.233   1.207  1.00  0.00     0.029 C 
ENDBRANCH  22  24
ENDBRANCH  21  22
ENDBRANCH  20  21
ENDBRANCH  18  19
BRANCH  18  26
HETATM   26  O1  UNL     1       1.653  -1.162   0.311  1.00  0.00    -0.287 OA
HETATM   27  H11 UNL     1       2.270  -0.720   0.930  1.00  0.00     0.244 HD
ENDBRANCH  18  26
ENDBRANCH   1  18
BRANCH  10  28
HETATM   28  O2  UNL     1      -0.156   0.116   3.351  1.00  0.00    -0.382 OA
HETATM   29  C20 UNL     1       0.967   0.046   4.137  1.00  0.00     0.202 C 
ENDBRANCH  10  28
TORSDOF 8
