REMARK  5 active torsions:
REMARK  status: ('A' for Active; 'I' for Inactive)
REMARK    1  A    between atoms: O1_2  and  C2_3 
REMARK    2  A    between atoms: C12_16  and  C13_17 
REMARK       I    between atoms: N4_22  and  C16_23 
REMARK    3  A    between atoms: C16_23  and  C17_25 
REMARK    4  A    between atoms: C17_25  and  C18_26 
REMARK    5  A    between atoms: C18_26  and  N5_27 
ROOT
HETATM    1  C2  UNL     1      -1.110  -3.039  -0.041  1.00  0.00     0.073 C 
HETATM    2  C3  UNL     1      -1.979  -2.444   0.745  1.00  0.00     0.013 A 
HETATM    3  C4  UNL     1      -2.802  -3.261   1.630  1.00  0.00     0.127 A 
HETATM    4  N1  UNL     1      -3.626  -2.672   2.424  1.00  0.00    -0.271 NA
HETATM    5  C5  UNL     1      -3.711  -1.254   2.415  1.00  0.00     0.136 A 
HETATM    6  C6  UNL     1      -2.997  -0.463   1.635  1.00  0.00     0.062 A 
HETATM    7  C7  UNL     1      -3.149   0.954   1.696  1.00  0.00     0.098 C 
HETATM    8  N2  UNL     1      -3.289   2.106   1.753  1.00  0.00    -0.192 NA
HETATM    9  C8  UNL     1      -2.024  -0.984   0.647  1.00  0.00     0.105 A 
HETATM   10  C9  UNL     1      -2.548  -0.534  -0.691  1.00  0.00     0.036 C 
HETATM   11 CL1  UNL     1      -3.743  -1.572  -1.440  1.00  0.00    -0.087 Cl
HETATM   12  C10 UNL     1      -2.195   0.574  -1.350  1.00  0.00     0.050 C 
HETATM   13  C11 UNL     1      -1.206   1.455  -0.740  1.00  0.00     0.030 C 
HETATM   14  C12 UNL     1      -0.806   2.561  -1.319  1.00  0.00     0.028 C 
HETATM   15  N3  UNL     1      -0.696   1.053   0.525  1.00  0.00    -0.367 N 
HETATM   16  C15 UNL     1      -0.652  -0.380   0.781  1.00  0.00     0.211 C 
HETATM   17  N4  UNL     1       0.229  -1.078  -0.159  1.00  0.00    -0.323 N 
HETATM   18  C16 UNL     1       1.589  -0.683  -0.341  1.00  0.00     0.223 C 
HETATM   19  O2  UNL     1       2.338  -1.305  -1.158  1.00  0.00    -0.273 OA
HETATM   20  C21 UNL     1      -0.260  -2.217  -0.950  1.00  0.00     0.193 C 
HETATM   21  H10 UNL     1      -0.378   1.795   1.213  1.00  0.00     0.161 HD
ENDROOT
BRANCH   1  22
HETATM   22  O1  UNL     1      -1.032  -4.444   0.024  1.00  0.00    -0.358 OA
HETATM   23  C1  UNL     1      -1.135  -5.233  -1.147  1.00  0.00     0.209 C 
ENDBRANCH   1  22
BRANCH  18  24
HETATM   24  C17 UNL     1       2.158   0.474   0.428  1.00  0.00     0.122 C 
BRANCH  24  25
HETATM   25  C18 UNL     1       3.620   0.607   0.097  1.00  0.00     0.125 C 
BRANCH  25  26
HETATM   26  N5  UNL     1       4.185   1.693   0.818  1.00  0.00    -0.420 N 
HETATM   27  C19 UNL     1       4.271   1.531   2.236  1.00  0.00     0.142 C 
HETATM   28  C20 UNL     1       3.809   3.002   0.393  1.00  0.00     0.142 C 
ENDBRANCH  25  26
ENDBRANCH  24  25
ENDBRANCH  18  24
BRANCH  14  29
HETATM   29  C13 UNL     1      -1.312   3.000  -2.611  1.00  0.00     0.014 C 
HETATM   30  C14 UNL     1      -0.947   4.104  -3.244  1.00  0.00     0.441 C 
HETATM   31  F1  UNL     1      -0.086   5.152  -3.024  1.00  0.00    -0.452 F 
ENDBRANCH  14  29
TORSDOF 5
