REMARK  2 active torsions:
REMARK  status: ('A' for Active; 'I' for Inactive)
REMARK    1  A    between atoms: O1_2  and  C2_3 
REMARK    2  A    between atoms: C17_23  and  N4_24 
REMARK       I    between atoms: N4_24  and  C18_25 
ROOT
HETATM    1  C2  UNL     1      -1.197  -1.250   0.377  1.00  0.00     0.094 C 
HETATM    2  C3  UNL     1       0.086  -1.433   0.047  1.00  0.00     0.047 C 
HETATM    3  C4  UNL     1       1.297  -0.620  -0.138  1.00  0.00     0.074 A 
HETATM    4  C5  UNL     1       2.451  -1.420  -0.629  1.00  0.00     0.035 A 
HETATM    5  C6  UNL     1       3.665  -1.734  -0.211  1.00  0.00     0.071 A 
HETATM    6 CL1  UNL     1       4.826  -2.726  -1.039  1.00  0.00    -0.081 Cl
HETATM    7  C7  UNL     1       3.998  -1.163   1.082  1.00  0.00     0.134 A 
HETATM    8  F1  UNL     1       5.170  -1.337   1.712  1.00  0.00    -0.205 F 
HETATM    9  C8  UNL     1       3.039  -0.433   1.618  1.00  0.00     0.020 A 
HETATM   10  C9  UNL     1       1.667  -0.045   1.209  1.00  0.00     0.070 A 
HETATM   11  N1  UNL     1       1.137   0.481  -1.053  1.00  0.00    -0.371 N 
HETATM   12  C10 UNL     1       0.276   1.636  -1.149  1.00  0.00     0.063 A 
HETATM   13  C11 UNL     1       0.902   2.540  -2.010  1.00  0.00     0.089 A 
HETATM   14  C12 UNL     1       2.166   2.215  -2.600  1.00  0.00     0.103 C 
HETATM   15  N2  UNL     1       3.199   1.970  -3.086  1.00  0.00    -0.191 NA
HETATM   16  C13 UNL     1       0.216   3.715  -2.221  1.00  0.00     0.141 A 
HETATM   17  N3  UNL     1      -0.969   4.021  -1.669  1.00  0.00    -0.271 NA
HETATM   18  C14 UNL     1      -1.595   3.152  -0.827  1.00  0.00     0.130 A 
HETATM   19  C15 UNL     1      -0.944   1.975  -0.593  1.00  0.00     0.012 A 
HETATM   20  C16 UNL     1      -1.828   1.247   0.326  1.00  0.00     0.047 C 
HETATM   21  C17 UNL     1      -1.920  -0.034   0.704  1.00  0.00     0.071 C 
HETATM   22  H9  UNL     1       1.796   0.497  -1.888  1.00  0.00     0.161 HD
ENDROOT
BRANCH  21  23
HETATM   23  N4  UNL     1      -2.966  -0.324   1.656  1.00  0.00    -0.296 N 
HETATM   24  C18 UNL     1      -2.935  -0.875   2.974  1.00  0.00     0.403 C 
HETATM   25  O2  UNL     1      -1.759  -1.159   3.368  1.00  0.00    -0.233 OA
HETATM   26  F2  UNL     1      -4.138  -1.004   3.580  1.00  0.00    -0.141 F 
HETATM   27  H13 UNL     1      -3.812   0.002   1.098  1.00  0.00     0.171 HD
ENDBRANCH  21  23
BRANCH   1  28
HETATM   28  O1  UNL     1      -1.891  -2.416   0.394  1.00  0.00    -0.354 OA
HETATM   29  C1  UNL     1      -3.168  -2.758   0.051  1.00  0.00     0.210 C 
ENDBRANCH   1  28
TORSDOF 2
