REMARK  6 active torsions:
REMARK  status: ('A' for Active; 'I' for Inactive)
REMARK    1  A    between atoms: O1_2  and  C2_3 
REMARK    2  A    between atoms: C8_11  and  N3_12 
REMARK    3  A    between atoms: N3_12  and  C9_13 
REMARK    4  A    between atoms: C16_23  and  C17_24 
REMARK    5  A    between atoms: C17_24  and  N5_25 
REMARK    6  A    between atoms: N5_25  and  C19_27 
ROOT
HETATM    1  C2  UNL     1       0.782   2.055  -0.237  1.00  0.00     0.098 C 
HETATM    2  C3  UNL     1       1.664   2.356  -1.284  1.00  0.00     0.066 C 
HETATM    3  C4  UNL     1       1.616   1.430  -2.506  1.00  0.00     0.039 C 
HETATM    4  N1  UNL     1       0.847   1.782  -3.558  1.00  0.00    -0.264 NA
HETATM    5  C5  UNL     1      -0.659   1.600  -3.638  1.00  0.00     0.142 C 
HETATM    6  C6  UNL     1      -1.560   1.113  -2.673  1.00  0.00     0.091 C 
HETATM    7  C7  UNL     1      -2.898   1.053  -2.708  1.00  0.00     0.103 C 
HETATM    8  N2  UNL     1      -3.986   1.002  -2.719  1.00  0.00    -0.191 NA
HETATM    9  C8  UNL     1      -1.004   0.472  -1.381  1.00  0.00     0.084 C 
HETATM   10  C15 UNL     1       0.175   0.743  -0.705  1.00  0.00     0.091 C 
HETATM   11  N4  UNL     1       0.617  -0.673  -0.765  1.00  0.00    -0.379 N 
HETATM   12  C16 UNL     1       2.041  -0.759  -1.247  1.00  0.00     0.105 C 
HETATM   13  C20 UNL     1       2.367   0.097  -2.455  1.00  0.00     0.086 C 
HETATM   14  H10 UNL     1      -0.269  -1.080  -0.459  1.00  0.00     0.160 HD
ENDROOT
BRANCH   9  15
HETATM   15  N3  UNL     1      -1.712  -0.593  -0.818  1.00  0.00    -0.353 N 
HETATM   16  H6  UNL     1      -1.865  -1.526  -1.336  1.00  0.00     0.166 HD
BRANCH  15  17
HETATM   17  C9  UNL     1      -2.445  -0.915   0.386  1.00  0.00     0.034 A 
HETATM   18  C10 UNL     1      -2.250  -1.964   1.248  1.00  0.00     0.032 A 
HETATM   19  C11 UNL     1      -3.030  -2.137   2.344  1.00  0.00     0.046 A 
HETATM   20  C12 UNL     1      -4.040  -1.259   2.617  1.00  0.00     0.138 A 
HETATM   21  F1  UNL     1      -4.751  -1.537   3.741  1.00  0.00    -0.204 F 
HETATM   22  C13 UNL     1      -4.275  -0.186   1.774  1.00  0.00     0.074 A 
HETATM   23 CL1  UNL     1      -5.607   0.832   2.278  1.00  0.00    -0.081 Cl
HETATM   24  C14 UNL     1      -3.462  -0.020   0.647  1.00  0.00     0.056 A 
ENDBRANCH  15  17
ENDBRANCH   9  15
BRANCH   1  25
HETATM   25  O1  UNL     1       0.811   3.016   0.750  1.00  0.00    -0.354 OA
HETATM   26  C1  UNL     1       0.260   3.022   2.011  1.00  0.00     0.210 C 
ENDBRANCH   1  25
BRANCH  12  27
HETATM   27  C17 UNL     1       2.905  -0.364  -0.099  1.00  0.00     0.150 C 
BRANCH  27  28
HETATM   28  N5  UNL     1       2.732  -1.246   1.041  1.00  0.00    -0.362 N 
HETATM   29  C18 UNL     1       3.573  -2.445   1.120  1.00  0.00     0.152 C 
BRANCH  28  30
HETATM   30  C19 UNL     1       1.797  -1.077   2.097  1.00  0.00     0.350 C 
HETATM   31  O2  UNL     1       0.930  -0.205   2.310  1.00  0.00    -0.284 OA
ENDBRANCH  28  30
ENDBRANCH  27  28
ENDBRANCH  12  27
TORSDOF 6
