REMARK  5 active torsions:
REMARK  status: ('A' for Active; 'I' for Inactive)
REMARK    1  A    between atoms: C7_9  and  N3_10 
REMARK    2  A    between atoms: N3_10  and  C8_11 
REMARK    3  A    between atoms: C8_11  and  C9_12 
REMARK    4  A    between atoms: C12_16  and  N4_17 
REMARK    5  A    between atoms: N4_17  and  C13_18 
ROOT
HETATM    1  N1  UNL     1       3.406  -3.831  -0.509  1.00  0.00    -0.191 NA
HETATM    2  C1  UNL     1       2.349  -3.411  -0.274  1.00  0.00     0.103 C 
HETATM    3  C2  UNL     1       1.039  -2.898   0.007  1.00  0.00     0.089 A 
HETATM    4  C3  UNL     1       0.134  -3.677   0.695  1.00  0.00     0.142 A 
HETATM    5  N2  UNL     1      -1.111  -3.252   0.989  1.00  0.00    -0.259 NA
HETATM    6  C4  UNL     1      -1.495  -2.030   0.605  1.00  0.00     0.069 A 
HETATM    7  C5  UNL     1      -2.764  -1.559   0.888  1.00  0.00     0.035 A 
HETATM    8  C6  UNL     1      -3.119  -0.289   0.471  1.00  0.00     0.031 A 
HETATM    9  C7  UNL     1      -2.296   0.558  -0.215  1.00  0.00     0.029 A 
HETATM   10  C10 UNL     1      -1.043   0.056  -0.479  1.00  0.00     0.045 A 
HETATM   11  C11 UNL     1      -0.637  -1.189  -0.093  1.00  0.00     0.023 A 
HETATM   12  C12 UNL     1       0.635  -1.638  -0.387  1.00  0.00     0.067 A 
ENDROOT
BRANCH  12  13
HETATM   13  N4  UNL     1       1.576  -0.858  -1.089  1.00  0.00    -0.354 N 
HETATM   14  H9  UNL     1       1.417  -1.092  -2.092  1.00  0.00     0.166 HD
BRANCH  13  15
HETATM   15  C13 UNL     1       2.553   0.058  -0.669  1.00  0.00     0.033 A 
HETATM   16  C14 UNL     1       3.356   0.692  -1.626  1.00  0.00     0.029 A 
HETATM   17  C15 UNL     1       4.284   1.572  -1.108  1.00  0.00     0.004 A 
HETATM   18  C16 UNL     1       4.472   1.862   0.223  1.00  0.00     0.019 A 
HETATM   19  C17 UNL     1       3.661   1.217   1.133  1.00  0.00     0.013 A 
HETATM   20 BR1  UNL     1       3.885   1.587   2.990  1.00  0.00    -0.051 Br
HETATM   21  C18 UNL     1       2.704   0.316   0.678  1.00  0.00     0.048 A 
ENDBRANCH  13  15
ENDBRANCH  12  13
BRANCH   9  22
HETATM   22  N3  UNL     1      -2.695   1.857  -0.626  1.00  0.00    -0.384 N 
HETATM   23  H4  UNL     1      -1.985   2.432  -1.155  1.00  0.00     0.160 HD
BRANCH  22  24
HETATM   24  C8  UNL     1      -4.020   2.343  -0.320  1.00  0.00     0.189 C 
BRANCH  24  25
HETATM   25  C9  UNL     1      -4.277   2.408   1.149  1.00  0.00     0.250 C 
HETATM   26  O1  UNL     1      -3.901   2.247   2.277  1.00  0.00    -0.305 OA
ENDBRANCH  24  25
ENDBRANCH  22  24
ENDBRANCH   9  22
TORSDOF 5
