REMARK  10 active torsions:
REMARK  status: ('A' for Active; 'I' for Inactive)
REMARK    1  A    between atoms: C2_2  and  N1_3 
REMARK    2  A    between atoms: N1_3  and  C3_4 
REMARK    3  A    between atoms: N1_3  and  C5_7 
REMARK    4  A    between atoms: C3_4  and  C4_5 
REMARK    5  A    between atoms: C5_7  and  C6_8 
REMARK    6  A    between atoms: C7_9  and  O2_10 
REMARK    7  A    between atoms: O2_10  and  C8_11 
REMARK    8  A    between atoms: C9_12  and  C10_13 
REMARK    9  A    between atoms: C14_18  and  C15_19 
REMARK   10  A    between atoms: C16_20  and  O3_21 
ROOT
HETATM    1  C8  UNL     1       1.010  -1.557  -0.217  1.00  0.00     0.142 C 
HETATM    2  C9  UNL     1       2.065  -1.324   0.499  1.00  0.00     0.038 C 
ENDROOT
BRANCH   1   3
HETATM    3  O2  UNL     1      -0.224  -2.178  -0.242  1.00  0.00    -0.335 OA
BRANCH   3   4
HETATM    4  C7  UNL     1      -1.218  -2.073   0.689  1.00  0.00     0.139 C 
HETATM    5  C6  UNL     1      -2.239  -1.579   1.360  1.00  0.00     0.027 C 
BRANCH   5   6
HETATM    6  C5  UNL     1      -3.127  -0.425   1.405  1.00  0.00     0.302 C 
BRANCH   6   7
HETATM    7  N1  UNL     1      -2.864   0.576   0.372  1.00  0.00     0.097 N 
BRANCH   7   8
HETATM    8  C2  UNL     1      -3.802   1.656   0.648  1.00  0.00     0.268 C 
HETATM    9  C1  UNL     1      -5.206   1.212   0.863  1.00  0.00     0.037 C 
ENDBRANCH   7   8
BRANCH   7  10
HETATM   10  C3  UNL     1      -3.129  -0.004  -0.935  1.00  0.00     0.341 C 
BRANCH  10  11
HETATM   11  C4  UNL     1      -2.777   1.025  -1.959  1.00  0.00     0.261 C 
HETATM   12  O1  UNL     1      -2.898   0.844  -3.169  1.00  0.00    -0.305 OA
ENDBRANCH  10  11
ENDBRANCH   7  10
ENDBRANCH   6   7
ENDBRANCH   5   6
ENDBRANCH   3   4
ENDBRANCH   1   3
BRANCH   2  13
HETATM   13  C10 UNL     1       3.354  -0.692   0.566  1.00  0.00    -0.005 A 
HETATM   14  C11 UNL     1       4.028  -0.868   1.755  1.00  0.00     0.015 A 
HETATM   15  C12 UNL     1       5.267  -0.303   1.912  1.00  0.00     0.020 A 
HETATM   16  C13 UNL     1       5.720   0.407   0.822  1.00  0.00     0.117 A 
HETATM   17  N2  UNL     1       5.049   0.570  -0.332  1.00  0.00    -0.260 NA
HETATM   18  C14 UNL     1       3.834   0.024  -0.505  1.00  0.00     0.068 A 
BRANCH  18  19
HETATM   19  C15 UNL     1       3.116   0.203  -1.752  1.00  0.00     0.056 C 
HETATM   20  C16 UNL     1       3.699   0.920  -2.696  1.00  0.00     0.133 C 
BRANCH  20  21
HETATM   21  O3  UNL     1       4.960   1.425  -2.369  1.00  0.00    -0.373 OA
HETATM   22  H20 UNL     1       5.137   2.321  -1.967  1.00  0.00     0.216 HD
ENDBRANCH  20  21
ENDBRANCH  18  19
ENDBRANCH   2  13
TORSDOF 10
