REMARK  5 active torsions:
REMARK  status: ('A' for Active; 'I' for Inactive)
REMARK    1  A    between atoms: C2_2  and  C3_3 
REMARK    2  A    between atoms: C4_5  and  C5_6 
REMARK    3  A    between atoms: C6_7  and  N1_8 
REMARK    4  A    between atoms: N1_8  and  C7_9 
REMARK    5  A    between atoms: C16_21  and  O2_22 
ROOT
HETATM    1  C7  UNL     1       0.028  -1.020  -0.455  1.00  0.00     0.088 C 
HETATM    2  C8  UNL     1       1.171  -1.171  -1.401  1.00  0.00     0.024 C 
HETATM    3  C9  UNL     1       2.106  -1.780  -0.648  1.00  0.00     0.084 C 
HETATM    4  N2  UNL     1       1.664  -2.044   0.701  1.00  0.00    -0.387 N 
HETATM    5  C10 UNL     1       2.451  -2.109   1.900  1.00  0.00     0.149 C 
HETATM    6  C11 UNL     1       0.291  -2.208   0.394  1.00  0.00     0.124 C 
HETATM    7  C12 UNL     1      -0.583  -2.551   1.501  1.00  0.00     0.058 C 
HETATM    8  C13 UNL     1      -1.497  -2.683   2.489  1.00  0.00     0.211 A 
HETATM    9  C14 UNL     1      -2.543  -1.674   2.765  1.00  0.00     0.145 A 
HETATM   10  O1  UNL     1      -1.715  -1.381   1.922  1.00  0.00    -0.323 OA
HETATM   11  N3  UNL     1      -3.525  -0.615   2.959  1.00  0.00    -0.370 N 
HETATM   12  C15 UNL     1      -3.227   0.576   2.101  1.00  0.00     0.154 C 
HETATM   13  C16 UNL     1      -3.210   0.222   0.660  1.00  0.00     0.068 C 
HETATM   14  C18 UNL     1      -3.740  -1.027   0.363  1.00  0.00     0.147 C 
HETATM   15  C19 UNL     1      -3.942  -1.877  -0.842  1.00  0.00     0.092 C 
HETATM   16  N4  UNL     1      -3.340  -1.764  -2.064  1.00  0.00    -0.296 NA
HETATM   17  C20 UNL     1      -2.360  -0.623  -1.996  1.00  0.00     0.214 C 
HETATM   18  C21 UNL     1      -1.279  -1.047  -1.197  1.00  0.00     0.091 C 
HETATM   19  C22 UNL     1      -1.608  -2.495  -1.040  1.00  0.00     0.069 C 
HETATM   20  N5  UNL     1      -1.884  -3.648  -0.930  1.00  0.00    -0.197 NA
HETATM   21  H18 UNL     1      -3.783  -1.413   3.579  1.00  0.00     0.161 HD
ENDROOT
BRANCH   1  22
HETATM   22  N1  UNL     1       0.304   0.262   0.160  1.00  0.00    -0.383 N 
HETATM   23  H9  UNL     1      -0.043   1.230   0.245  1.00  0.00     0.160 HD
BRANCH  22  24
HETATM   24  C6  UNL     1       1.356   0.677   0.984  1.00  0.00     0.084 C 
HETATM   25  C5  UNL     1       2.482   1.326   0.640  1.00  0.00     0.019 C 
BRANCH  25  26
HETATM   26  C4  UNL     1       2.758   1.700  -0.725  1.00  0.00     0.039 C 
HETATM   27  C3  UNL     1       3.844   2.332  -1.102  1.00  0.00     0.093 C 
HETATM   28  F1  UNL     1       4.767   2.654  -0.140  1.00  0.00    -0.211 F 
BRANCH  27  29
HETATM   29  C2  UNL     1       4.253   2.774  -2.453  1.00  0.00     0.066 C 
HETATM   30  C1  UNL     1       4.442   4.271  -2.518  1.00  0.00     0.012 C 
ENDBRANCH  27  29
ENDBRANCH  25  26
ENDBRANCH  22  24
ENDBRANCH   1  22
BRANCH  13  31
HETATM   31  O2  UNL     1      -2.601   1.470   0.246  1.00  0.00    -0.388 OA
HETATM   32  C17 UNL     1      -3.464   2.536  -0.108  1.00  0.00     0.202 C 
ENDBRANCH  13  31
TORSDOF 5
