REMARK  6 active torsions:
REMARK  status: ('A' for Active; 'I' for Inactive)
REMARK    1  A    between atoms: N1_2  and  C2_3 
REMARK    2  A    between atoms: C2_3  and  C3_4 
REMARK    3  A    between atoms: C4_5  and  C5_6 
REMARK    4  A    between atoms: C7_9  and  O1_10 
REMARK    5  A    between atoms: C14_18  and  N4_19 
REMARK    6  A    between atoms: N4_19  and  C15_20 
ROOT
HETATM    1  C5  UNL     1       0.766   0.512  -1.158  1.00  0.00     0.279 C 
HETATM    2  N2  UNL     1       1.411   1.724  -1.684  1.00  0.00     0.102 N 
HETATM    3  C6  UNL     1       1.953   2.539  -0.642  1.00  0.00     0.335 C 
HETATM    4  C7  UNL     1       0.894   3.009   0.289  1.00  0.00     0.081 C 
HETATM    5  C9  UNL     1      -0.150   2.212   0.440  1.00  0.00    -0.013 A 
HETATM    6  C10 UNL     1      -1.152   2.766   1.387  1.00  0.00     0.070 A 
HETATM    7  C11 UNL     1      -2.301   1.869   1.553  1.00  0.00     0.003 A 
HETATM    8  C12 UNL     1      -2.447   0.706   0.940  1.00  0.00     0.068 A 
HETATM    9  C13 UNL     1      -3.632  -0.055   1.211  1.00  0.00     0.101 C 
HETATM   10  N3  UNL     1      -4.605  -0.667   1.419  1.00  0.00    -0.191 NA
HETATM   11  C14 UNL     1      -1.404   0.264   0.029  1.00  0.00     0.062 A 
HETATM   12  C21 UNL     1      -0.298   0.932  -0.248  1.00  0.00     0.016 A 
HETATM   13  H10 UNL     1       0.629   2.273  -2.144  1.00  0.00     0.317 HD
ENDROOT
BRANCH  11  14
HETATM   14  N4  UNL     1      -1.551  -0.983  -0.633  1.00  0.00    -0.354 N 
HETATM   15  H19 UNL     1      -0.875  -1.408  -1.302  1.00  0.00     0.166 HD
BRANCH  14  16
HETATM   16  C15 UNL     1      -2.582  -1.956  -0.589  1.00  0.00     0.034 A 
HETATM   17  C16 UNL     1      -2.532  -2.996   0.347  1.00  0.00     0.032 A 
HETATM   18  C17 UNL     1      -3.574  -3.909   0.331  1.00  0.00     0.046 A 
HETATM   19  C18 UNL     1      -4.601  -3.764  -0.586  1.00  0.00     0.138 A 
HETATM   20  F1  UNL     1      -5.616  -4.680  -0.579  1.00  0.00    -0.204 F 
HETATM   21  C19 UNL     1      -4.637  -2.729  -1.507  1.00  0.00     0.074 A 
HETATM   22 CL1  UNL     1      -5.946  -2.549  -2.672  1.00  0.00    -0.081 Cl
HETATM   23  C20 UNL     1      -3.613  -1.804  -1.515  1.00  0.00     0.056 A 
ENDBRANCH  14  16
ENDBRANCH  11  14
BRANCH   1  24
HETATM   24  C4  UNL     1       1.786  -0.381  -0.547  1.00  0.00     0.011 C 
HETATM   25  C3  UNL     1       2.011  -0.996   0.615  1.00  0.00     0.001 C 
BRANCH  25  26
HETATM   26  C2  UNL     1       3.186  -1.877   0.956  1.00  0.00     0.296 C 
BRANCH  26  27
HETATM   27  N1  UNL     1       4.059  -1.959  -0.199  1.00  0.00     0.082 N 
HETATM   28  C1  UNL     1       5.218  -2.793   0.050  1.00  0.00     0.307 C 
HETATM   29  H4  UNL     1       4.422  -1.036  -0.483  1.00  0.00     0.315 HD
ENDBRANCH  26  27
ENDBRANCH  25  26
ENDBRANCH   1  24
BRANCH   4  30
HETATM   30  O1  UNL     1       1.074   4.223   0.918  1.00  0.00    -0.358 OA
HETATM   31  C8  UNL     1       1.357   5.441   0.273  1.00  0.00     0.209 C 
ENDBRANCH   4  30
TORSDOF 6
