REMARK  6 active torsions:
REMARK  status: ('A' for Active; 'I' for Inactive)
REMARK    1  A    between atoms: O1_2  and  C2_3 
REMARK    2  A    between atoms: C6_9  and  N3_10 
REMARK    3  A    between atoms: N3_10  and  C7_11 
REMARK    4  A    between atoms: S1_21  and  C15_22 
REMARK    5  A    between atoms: C15_22  and  N4_23 
REMARK    6  A    between atoms: N4_23  and  C17_25 
ROOT
HETATM    1  C2  UNL     1      -2.387  -1.649   0.760  1.00  0.00     0.102 A 
HETATM    2  C3  UNL     1      -1.346  -1.945   1.546  1.00  0.00     0.076 A 
HETATM    3  C4  UNL     1       0.022  -1.562   1.255  1.00  0.00     0.075 A 
HETATM    4  N1  UNL     1       0.936  -1.954   2.172  1.00  0.00    -0.241 NA
HETATM    5  C5  UNL     1       2.246  -1.699   2.085  1.00  0.00     0.236 A 
HETATM    6  N2  UNL     1       2.719  -1.005   1.021  1.00  0.00    -0.224 NA
HETATM    7  C6  UNL     1       1.838  -0.601   0.093  1.00  0.00     0.142 A 
HETATM    8  C13 UNL     1       0.487  -0.864   0.183  1.00  0.00     0.045 A 
HETATM    9  C14 UNL     1      -0.358  -0.379  -0.875  1.00  0.00     0.060 A 
HETATM   10  S1  UNL     1      -1.972  -0.708  -0.740  1.00  0.00    -0.120 SA
ENDROOT
BRANCH   7  11
HETATM   11  N3  UNL     1       2.376   0.123  -1.004  1.00  0.00    -0.338 N 
HETATM   12  H6  UNL     1       1.953   0.543  -1.838  1.00  0.00     0.167 HD
BRANCH  11  13
HETATM   13  C7  UNL     1       3.773   0.376  -1.064  1.00  0.00     0.074 A 
HETATM   14  C8  UNL     1       4.670  -0.011  -2.036  1.00  0.00     0.033 A 
HETATM   15  C9  UNL     1       5.995   0.326  -1.928  1.00  0.00     0.004 A 
HETATM   16  C10 UNL     1       6.470   1.059  -0.852  1.00  0.00     0.027 A 
HETATM   17  C11 UNL     1       5.575   1.445   0.117  1.00  0.00     0.074 A 
HETATM   18 CL1  UNL     1       6.202   2.371   1.469  1.00  0.00    -0.081 Cl
HETATM   19  C12 UNL     1       4.233   1.111   0.021  1.00  0.00     0.164 A 
HETATM   20  F1  UNL     1       3.452   1.558   1.052  1.00  0.00    -0.202 F 
ENDBRANCH  11  13
ENDBRANCH   7  11
BRANCH  10  21
HETATM   21  C15 UNL     1      -3.265   0.182  -1.631  1.00  0.00     0.199 C 
BRANCH  21  22
HETATM   22  N4  UNL     1      -3.964   1.208  -0.885  1.00  0.00    -0.355 N 
HETATM   23  C16 UNL     1      -5.164   1.066  -0.082  1.00  0.00     0.152 C 
BRANCH  22  24
HETATM   24  C17 UNL     1      -3.439   2.529  -0.920  1.00  0.00     0.351 C 
HETATM   25  O2  UNL     1      -3.718   3.658  -0.441  1.00  0.00    -0.284 OA
ENDBRANCH  22  24
ENDBRANCH  21  22
ENDBRANCH  10  21
BRANCH   1  26
HETATM   26  O1  UNL     1      -3.711  -2.017   1.038  1.00  0.00    -0.349 OA
HETATM   27  C1  UNL     1      -4.233  -1.520   2.275  1.00  0.00     0.210 C 
ENDBRANCH   1  26
TORSDOF 6
