REMARK  7 active torsions:
REMARK  status: ('A' for Active; 'I' for Inactive)
REMARK    1  A    between atoms: N1_2  and  C3_4 
REMARK    2  A    between atoms: C3_4  and  C4_5 
REMARK    3  A    between atoms: C4_5  and  C5_6 
REMARK       I    between atoms: C5_6  and  N2_8 
REMARK    4  A    between atoms: C9_12  and  C10_13 
REMARK    5  A    between atoms: C10_13  and  S1_14 
REMARK    6  A    between atoms: S1_14  and  N3_15 
REMARK    7  A    between atoms: S1_14  and  C11_16 
ROOT
HETATM    1  C5  UNL     1      -2.055   0.704  -0.151  1.00  0.00     0.221 C 
HETATM    2  O1  UNL     1      -1.831   1.628  -1.006  1.00  0.00    -0.273 OA
HETATM    3  N2  UNL     1      -0.974  -0.015   0.466  1.00  0.00    -0.344 N 
HETATM    4  C6  UNL     1      -1.186  -1.054   1.427  1.00  0.00     0.153 C 
HETATM    5  C7  UNL     1      -0.312  -2.246   1.249  1.00  0.00    -0.006 C 
HETATM    6  C8  UNL     1       0.840  -2.193   0.549  1.00  0.00     0.015 C 
HETATM    7  C9  UNL     1       1.113  -0.897   0.014  1.00  0.00     0.013 C 
HETATM    8  C17 UNL     1       0.391   0.357   0.071  1.00  0.00     0.173 C 
ENDROOT
BRANCH   7   9
HETATM    9  C10 UNL     1       2.234  -0.765  -0.678  1.00  0.00    -0.066 C 
BRANCH   9  10
HETATM   10  S1  UNL     1       3.605  -0.784  -1.524  1.00  0.00    -0.046 SA
BRANCH  10  11
HETATM   11  N3  UNL     1       3.391  -1.059  -3.209  1.00  0.00    -0.273 NA
HETATM   12  H15 UNL     1       4.247  -1.399  -3.686  1.00  0.00     0.132 HD
HETATM   13  H16 UNL     1       3.018  -0.258  -3.761  1.00  0.00     0.132 HD
ENDBRANCH  10  11
BRANCH  10  14
HETATM   14  C11 UNL     1       4.984  -0.282  -0.565  1.00  0.00     0.018 A 
HETATM   15  C12 UNL     1       5.968  -1.077   0.030  1.00  0.00     0.023 A 
HETATM   16  C13 UNL     1       7.005  -0.513   0.768  1.00  0.00     0.045 A 
HETATM   17  C14 UNL     1       7.085   0.860   0.930  1.00  0.00     0.138 A 
HETATM   18  F1  UNL     1       8.131   1.331   1.666  1.00  0.00    -0.204 F 
HETATM   19  C15 UNL     1       6.116   1.684   0.348  1.00  0.00     0.073 A 
HETATM   20 CL1  UNL     1       6.246   3.409   0.573  1.00  0.00    -0.081 Cl
HETATM   21  C16 UNL     1       5.091   1.101  -0.384  1.00  0.00     0.046 A 
ENDBRANCH  10  14
ENDBRANCH   9  10
ENDBRANCH   7   9
BRANCH   1  22
HETATM   22  C4  UNL     1      -3.449   0.313   0.263  1.00  0.00     0.122 C 
BRANCH  22  23
HETATM   23  C3  UNL     1      -4.390   1.215  -0.515  1.00  0.00     0.125 C 
BRANCH  23  24
HETATM   24  N1  UNL     1      -5.781   0.968  -0.233  1.00  0.00    -0.420 N 
HETATM   25  C1  UNL     1      -6.283  -0.287  -0.690  1.00  0.00     0.142 C 
HETATM   26  C2  UNL     1      -6.160   1.355   1.086  1.00  0.00     0.142 C 
ENDBRANCH  23  24
ENDBRANCH  22  23
ENDBRANCH   1  22
TORSDOF 7
