REMARK  7 active torsions:
REMARK  status: ('A' for Active; 'I' for Inactive)
REMARK    1  A    between atoms: N1_2  and  C3_4 
REMARK    2  A    between atoms: C3_4  and  C4_5 
REMARK    3  A    between atoms: C5_6  and  C6_7 
REMARK       I    between atoms: C6_7  and  N2_9 
REMARK    4  A    between atoms: N2_9  and  C7_10 
REMARK    5  A    between atoms: C14_19  and  N5_20 
REMARK    6  A    between atoms: N5_20  and  C15_21 
REMARK    7  A    between atoms: C23_31  and  O2_32 
ROOT
HETATM    1  C7  UNL     1      -0.233  -1.406   0.536  1.00  0.00     0.045 C 
HETATM    2  C8  UNL     1      -1.180  -1.225  -0.365  1.00  0.00     0.044 C 
HETATM    3  C9  UNL     1      -2.576  -1.706  -0.271  1.00  0.00     0.023 A 
HETATM    4  C10 UNL     1      -2.991  -2.844   0.435  1.00  0.00     0.069 A 
HETATM    5  N3  UNL     1      -4.295  -3.183   0.439  1.00  0.00    -0.259 NA
HETATM    6  C11 UNL     1      -5.213  -2.438  -0.230  1.00  0.00     0.142 A 
HETATM    7  C12 UNL     1      -4.807  -1.319  -0.924  1.00  0.00     0.089 A 
HETATM    8  C13 UNL     1      -5.746  -0.504  -1.646  1.00  0.00     0.103 C 
HETATM    9  N4  UNL     1      -6.504   0.161  -2.216  1.00  0.00    -0.191 NA
HETATM   10  C14 UNL     1      -3.491  -0.921  -0.967  1.00  0.00     0.067 A 
HETATM   11  C21 UNL     1      -2.184  -3.775   1.214  1.00  0.00     0.031 C 
HETATM   12  C22 UNL     1      -1.043  -3.389   1.792  1.00  0.00     0.013 C 
HETATM   13  C23 UNL     1      -0.311  -2.104   1.846  1.00  0.00     0.191 C 
ENDROOT
BRANCH  10  14
HETATM   14  N5  UNL     1      -2.966   0.214  -1.647  1.00  0.00    -0.354 N 
HETATM   15  H14 UNL     1      -2.614   0.238  -2.639  1.00  0.00     0.166 HD
BRANCH  14  16
HETATM   16  C15 UNL     1      -2.929   1.423  -0.880  1.00  0.00     0.034 A 
HETATM   17  C16 UNL     1      -3.399   1.420   0.421  1.00  0.00     0.032 A 
HETATM   18  C17 UNL     1      -3.390   2.558   1.220  1.00  0.00     0.046 A 
HETATM   19  C18 UNL     1      -2.899   3.748   0.715  1.00  0.00     0.138 A 
HETATM   20  F1  UNL     1      -2.874   4.878   1.466  1.00  0.00    -0.204 F 
HETATM   21  C19 UNL     1      -2.423   3.768  -0.589  1.00  0.00     0.074 A 
HETATM   22 CL1  UNL     1      -1.808   5.285  -1.196  1.00  0.00    -0.081 Cl
HETATM   23  C20 UNL     1      -2.445   2.604  -1.368  1.00  0.00     0.056 A 
ENDBRANCH  14  16
ENDBRANCH  10  14
BRANCH   1  24
HETATM   24  N2  UNL     1       0.957  -0.770   0.023  1.00  0.00    -0.325 N 
HETATM   25  C6  UNL     1       2.133  -1.562  -0.225  1.00  0.00     0.245 C 
HETATM   26  O1  UNL     1       1.931  -2.793   0.063  1.00  0.00    -0.268 OA
HETATM   27  H11 UNL     1       1.026   0.255  -0.186  1.00  0.00     0.169 HD
BRANCH  25  28
HETATM   28  C5  UNL     1       3.406  -1.024  -0.743  1.00  0.00     0.072 C 
HETATM   29  C4  UNL     1       3.848   0.171  -1.105  1.00  0.00     0.008 C 
BRANCH  29  30
HETATM   30  C3  UNL     1       5.234   0.407  -1.605  1.00  0.00     0.299 C 
BRANCH  30  31
HETATM   31  N1  UNL     1       5.946   1.348  -0.761  1.00  0.00     0.083 N 
HETATM   32  C1  UNL     1       5.399   2.689  -0.862  1.00  0.00     0.309 C 
HETATM   33  C2  UNL     1       5.805   0.888   0.612  1.00  0.00     0.309 C 
ENDBRANCH  30  31
ENDBRANCH  29  30
ENDBRANCH  25  28
ENDBRANCH   1  24
BRANCH  13  34
HETATM   34  O2  UNL     1       0.929  -2.274   2.415  1.00  0.00    -0.386 OA
HETATM   35  H21 UNL     1       1.105  -1.706   3.213  1.00  0.00     0.210 HD
ENDBRANCH  13  34
TORSDOF 7
