REMARK  2 active torsions:
REMARK  status: ('A' for Active; 'I' for Inactive)
REMARK    1  A    between atoms: C9_11  and  N3_12 
REMARK    2  A    between atoms: N3_12  and  C10_13 
ROOT
HETATM    1  C1  UNL     1      -4.874   0.572   0.462  1.00  0.00     0.150 C 
HETATM    2  N1  UNL     1      -4.005   1.409  -0.256  1.00  0.00    -0.373 N 
HETATM    3  C2  UNL     1      -4.322   2.886  -0.923  1.00  0.00     0.216 C 
HETATM    4  C3  UNL     1      -3.107   2.878  -1.577  1.00  0.00    -0.086 C 
HETATM    5  C4  UNL     1      -2.140   2.852  -2.086  1.00  0.00    -0.090 C 
HETATM    6  C5  UNL     1      -0.950   2.798  -2.694  1.00  0.00     0.186 C 
HETATM    7  N2  UNL     1      -1.026   1.072  -2.535  1.00  0.00    -0.281 NA
HETATM    8  C6  UNL     1      -1.429   0.509  -1.232  1.00  0.00     0.034 A 
HETATM    9  C7  UNL     1      -0.482  -0.340  -0.621  1.00  0.00     0.039 A 
HETATM   10  C8  UNL     1      -0.694  -0.955   0.756  1.00  0.00     0.129 A 
HETATM   11  C9  UNL     1       0.648  -1.456   0.703  1.00  0.00     0.068 A 
HETATM   12  C16 UNL     1       0.830  -1.914   2.121  1.00  0.00     0.085 A 
HETATM   13  C17 UNL     1       1.969  -2.614   2.672  1.00  0.00     0.103 C 
HETATM   14  N4  UNL     1       2.869  -3.155   3.100  1.00  0.00    -0.191 NA
HETATM   15  C18 UNL     1      -0.242  -1.750   3.080  1.00  0.00     0.113 A 
HETATM   16  N5  UNL     1      -0.958  -1.206   2.006  1.00  0.00    -0.349 N 
HETATM   17  C19 UNL     1      -1.894  -0.745   1.633  1.00  0.00     0.121 A 
HETATM   18  C20 UNL     1      -2.621   0.043   0.893  1.00  0.00     0.041 A 
HETATM   19  C21 UNL     1      -2.650   0.684  -0.311  1.00  0.00     0.050 A 
HETATM   20  H8  UNL     1      -0.866   1.708  -1.848  1.00  0.00     0.128 HD
ENDROOT
BRANCH  11  21
HETATM   21  N3  UNL     1       1.896  -1.547  -0.058  1.00  0.00    -0.356 N 
HETATM   22  H10 UNL     1       1.292  -2.297  -0.452  1.00  0.00     0.166 HD
BRANCH  21  23
HETATM   23  C10 UNL     1       3.090  -0.929  -0.024  1.00  0.00     0.033 A 
HETATM   24  C11 UNL     1       3.757   0.203  -0.099  1.00  0.00     0.029 A 
HETATM   25  C12 UNL     1       5.150   0.397   0.009  1.00  0.00     0.004 A 
HETATM   26  C13 UNL     1       5.894  -0.812   0.230  1.00  0.00     0.019 A 
HETATM   27  C14 UNL     1       5.180  -2.063   0.296  1.00  0.00     0.013 A 
HETATM   28 BR1  UNL     1       6.577  -3.377   0.571  1.00  0.00    -0.051 Br
HETATM   29  C15 UNL     1       3.756  -2.205   0.175  1.00  0.00     0.048 A 
ENDBRANCH  21  23
ENDBRANCH  11  21
TORSDOF 2
