REMARK  8 active torsions:
REMARK  status: ('A' for Active; 'I' for Inactive)
REMARK    1  A    between atoms: C2_2  and  C3_3 
REMARK    2  A    between atoms: C3_3  and  C4_4 
REMARK    3  A    between atoms: C3_3  and  N1_7 
REMARK    4  A    between atoms: C6_8  and  N2_9 
REMARK    5  A    between atoms: N2_9  and  C7_10 
REMARK    6  A    between atoms: C7_10  and  C9_12 
REMARK    7  A    between atoms: C10_13  and  C11_14 
REMARK    8  A    between atoms: C11_14  and  N3_15 
ROOT
HETATM    1  N1  UNL     1      -1.975   0.087   0.271  1.00  0.00    -0.319 N 
HETATM    2  C6  UNL     1      -0.743   0.091   0.890  1.00  0.00     0.106 A 
HETATM    3  C14 UNL     1      -0.779  -0.391   2.171  1.00  0.00     0.063 A 
HETATM    4  C15 UNL     1      -2.096  -0.725   2.392  1.00  0.00     0.014 A 
HETATM    5  C16 UNL     1      -2.760  -0.422   1.234  1.00  0.00     0.072 A 
HETATM    6  C17 UNL     1      -4.191  -0.632   1.032  1.00  0.00     0.054 C 
HETATM    7  C18 UNL     1      -4.666  -0.886  -0.348  1.00  0.00     0.072 C 
HETATM    8  N4  UNL     1      -5.111  -0.633   1.978  1.00  0.00    -0.271 NA
HETATM    9  C19 UNL     1      -4.971  -0.440   3.405  1.00  0.00     0.297 C 
HETATM   10  N5  UNL     1      -3.866  -1.107   4.011  1.00  0.00    -0.279 NA
HETATM   11  C20 UNL     1      -2.610  -1.285   3.665  1.00  0.00     0.126 C 
ENDROOT
BRANCH   2  12
HETATM   12  N2  UNL     1       0.501   0.540   0.316  1.00  0.00    -0.369 N 
HETATM   13  H7  UNL     1       0.867   1.508   0.258  1.00  0.00     0.161 HD
BRANCH  12  14
HETATM   14  C7  UNL     1       1.225  -0.606  -0.207  1.00  0.00     0.101 C 
HETATM   15  C8  UNL     1       1.566  -1.583   0.901  1.00  0.00     0.036 C 
BRANCH  14  16
HETATM   16  C9  UNL     1       2.477  -0.261  -0.898  1.00  0.00    -0.005 C 
HETATM   17  C10 UNL     1       3.417   0.678  -0.684  1.00  0.00     0.001 C 
BRANCH  17  18
HETATM   18  C11 UNL     1       4.660   0.938  -1.462  1.00  0.00     0.298 C 
BRANCH  18  19
HETATM   19  N3  UNL     1       5.845   0.785  -0.602  1.00  0.00     0.083 N 
HETATM   20  C12 UNL     1       5.948  -0.629  -0.253  1.00  0.00     0.309 C 
HETATM   21  C13 UNL     1       7.040   1.137  -1.354  1.00  0.00     0.309 C 
ENDBRANCH  18  19
ENDBRANCH  17  18
ENDBRANCH  14  16
ENDBRANCH  12  14
ENDBRANCH   2  12
BRANCH   1  22
HETATM   22  C3  UNL     1      -2.324   0.529  -1.031  1.00  0.00     0.137 C 
BRANCH  22  23
HETATM   23  C2  UNL     1      -1.916  -0.194  -2.210  1.00  0.00    -0.008 C 
HETATM   24  C1  UNL     1      -2.431   0.368  -3.263  1.00  0.00     0.009 C 
ENDBRANCH  22  23
BRANCH  22  25
HETATM   25  C4  UNL     1      -3.446   1.502  -1.144  1.00  0.00     0.014 C 
HETATM   26  C5  UNL     1      -3.613   2.388  -0.188  1.00  0.00     0.083 C 
HETATM   27 CL1  UNL     1      -2.759   2.699   1.278  1.00  0.00    -0.097 Cl
ENDBRANCH  22  25
ENDBRANCH   1  22
TORSDOF 8
