REMARK  6 active torsions:
REMARK  status: ('A' for Active; 'I' for Inactive)
REMARK    1  A    between atoms: N1_2  and  C3_4 
REMARK    2  A    between atoms: C3_4  and  C4_5 
REMARK    3  A    between atoms: C5_6  and  C6_7 
REMARK       I    between atoms: C6_7  and  N2_9 
REMARK    4  A    between atoms: N2_9  and  C7_10 
REMARK    5  A    between atoms: C10_13  and  N3_14 
REMARK    6  A    between atoms: N3_14  and  C11_15 
ROOT
HETATM    1  C7  UNL     1       0.195  -1.241   0.507  1.00  0.00     0.049 C 
HETATM    2  C8  UNL     1       0.915  -1.986   1.338  1.00  0.00     0.037 C 
HETATM    3  C9  UNL     1       2.191  -1.189   1.348  1.00  0.00    -0.027 C 
HETATM    4  C10 UNL     1       2.132  -0.109   0.610  1.00  0.00     0.052 C 
HETATM    5  C17 UNL     1       1.417  -0.957  -0.378  1.00  0.00     0.227 C 
HETATM    6  O2  UNL     1       2.045  -2.144  -0.735  1.00  0.00    -0.346 OA
HETATM    7  C18 UNL     1       3.105  -2.928  -0.309  1.00  0.00     0.132 C 
HETATM    8  C19 UNL     1       3.637  -2.945   0.934  1.00  0.00     0.002 C 
HETATM    9  C20 UNL     1       3.258  -1.985   2.089  1.00  0.00     0.070 C 
ENDROOT
BRANCH   1  10
HETATM   10  N2  UNL     1      -1.206  -0.885   0.494  1.00  0.00    -0.317 N 
HETATM   11  C6  UNL     1      -1.987  -1.275  -0.641  1.00  0.00     0.300 C 
HETATM   12  O1  UNL     1      -1.511  -1.910  -1.621  1.00  0.00    -0.258 OA
HETATM   13  H9  UNL     1      -1.726  -0.370   1.215  1.00  0.00     0.169 HD
BRANCH  11  14
HETATM   14  C5  UNL     1      -3.395  -0.968  -0.753  1.00  0.00    -0.004 C 
HETATM   15  C4  UNL     1      -4.583  -0.716  -0.828  1.00  0.00    -0.066 C 
BRANCH  15  16
HETATM   16  C3  UNL     1      -6.023  -0.427  -0.915  1.00  0.00     0.365 C 
BRANCH  16  17
HETATM   17  N1  UNL     1      -6.285   0.931  -0.540  1.00  0.00     0.090 N 
HETATM   18  C1  UNL     1      -7.667   1.317  -0.590  1.00  0.00     0.310 C 
HETATM   19  C2  UNL     1      -5.806   1.120   0.813  1.00  0.00     0.310 C 
ENDBRANCH  16  17
ENDBRANCH  15  16
ENDBRANCH  11  14
ENDBRANCH   1  10
BRANCH   4  20
HETATM   20  N3  UNL     1       2.341   1.261   0.284  1.00  0.00    -0.357 N 
HETATM   21  H11 UNL     1       1.531   1.901   0.438  1.00  0.00     0.166 HD
BRANCH  20  22
HETATM   22  C11 UNL     1       3.623   1.629  -0.217  1.00  0.00     0.033 A 
HETATM   23  C12 UNL     1       4.581   0.658  -0.359  1.00  0.00     0.029 A 
HETATM   24  C13 UNL     1       5.800   1.106  -0.854  1.00  0.00     0.004 A 
HETATM   25  C14 UNL     1       5.999   2.453  -1.172  1.00  0.00     0.019 A 
HETATM   26  C15 UNL     1       4.985   3.386  -1.004  1.00  0.00     0.013 A 
HETATM   27 BR1  UNL     1       5.271   5.215  -1.442  1.00  0.00    -0.051 Br
HETATM   28  C16 UNL     1       3.761   2.953  -0.510  1.00  0.00     0.048 A 
ENDBRANCH  20  22
ENDBRANCH   4  20
TORSDOF 6
