REMARK  8 active torsions:
REMARK  status: ('A' for Active; 'I' for Inactive)
REMARK    1  A    between atoms: O1_2  and  C2_3 
REMARK    2  A    between atoms: C6_7  and  N1_8 
REMARK    3  A    between atoms: C12_15  and  N2_16 
REMARK    4  A    between atoms: N2_16  and  C13_17 
REMARK    5  A    between atoms: C13_17  and  C14_18 
REMARK    6  A    between atoms: C15_19  and  C16_20 
REMARK    7  A    between atoms: C16_20  and  N3_21 
REMARK    8  A    between atoms: N3_21  and  C18_23 
ROOT
HETATM    1  C2  UNL     1      -1.664  -2.559   0.301  1.00  0.00     0.073 C 
HETATM    2  C3  UNL     1      -2.694  -3.463   0.001  1.00  0.00     0.010 C 
HETATM    3  C4  UNL     1      -3.707  -2.491  -0.741  1.00  0.00     0.048 C 
HETATM    4  C5  UNL     1      -2.804  -1.317  -0.689  1.00  0.00     0.041 A 
HETATM    5  C6  UNL     1      -2.147  -0.217  -0.349  1.00  0.00     0.034 A 
HETATM    6  C12 UNL     1      -1.081  -1.354  -0.413  1.00  0.00     0.098 A 
HETATM    7  C19 UNL     1      -1.729  -1.314  -1.807  1.00  0.00     0.061 A 
ENDROOT
BRANCH   6   8
HETATM    8  N2  UNL     1       0.217  -1.114  -0.240  1.00  0.00    -0.394 N 
HETATM    9  H12 UNL     1       0.789  -1.636   0.427  1.00  0.00     0.155 HD
BRANCH   8  10
HETATM   10  C13 UNL     1       0.852  -0.024  -0.889  1.00  0.00     0.210 C 
BRANCH  10  11
HETATM   11  C14 UNL     1       2.276  -0.057  -0.476  1.00  0.00    -0.086 C 
HETATM   12  C15 UNL     1       3.430  -0.071  -0.124  1.00  0.00    -0.085 C 
BRANCH  12  13
HETATM   13  C16 UNL     1       4.827  -0.077   0.327  1.00  0.00     0.218 C 
BRANCH  13  14
HETATM   14  N3  UNL     1       5.451   1.228   0.152  1.00  0.00    -0.353 N 
HETATM   15  C17 UNL     1       6.147   1.624  -1.047  1.00  0.00     0.152 C 
BRANCH  14  16
HETATM   16  C18 UNL     1       5.353   2.150   1.248  1.00  0.00     0.351 C 
HETATM   17  O2  UNL     1       4.740   1.744   2.251  1.00  0.00    -0.284 OA
ENDBRANCH  14  16
ENDBRANCH  13  14
ENDBRANCH  12  13
ENDBRANCH  10  11
ENDBRANCH   8  10
ENDBRANCH   6   8
BRANCH   1  18
HETATM   18  O1  UNL     1      -0.976  -2.758   1.525  1.00  0.00    -0.358 OA
HETATM   19  C1  UNL     1      -1.235  -3.895   2.322  1.00  0.00     0.209 C 
ENDBRANCH   1  18
BRANCH   5  20
HETATM   20  N1  UNL     1      -2.473   1.148  -0.116  1.00  0.00    -0.357 N 
HETATM   21  C7  UNL     1      -2.394   1.665   1.216  1.00  0.00     0.092 A 
HETATM   22  C8  UNL     1      -2.690   2.934   1.483  1.00  0.00     0.036 A 
HETATM   23  C9  UNL     1      -3.109   3.861   0.437  1.00  0.00     0.010 A 
HETATM   24 BR1  UNL     1      -3.530   5.668   0.816  1.00  0.00    -0.051 Br
HETATM   25  C10 UNL     1      -3.173   3.355  -0.784  1.00  0.00     0.012 A 
HETATM   26  C11 UNL     1      -2.884   1.991  -1.247  1.00  0.00     0.156 A 
ENDBRANCH   5  20
TORSDOF 8
