REMARK  6 active torsions:
REMARK  status: ('A' for Active; 'I' for Inactive)
REMARK    1  A    between atoms: O1_2  and  C2_3 
REMARK    2  A    between atoms: N2_11  and  C9_12 
REMARK    3  A    between atoms: C16_20  and  N3_21 
REMARK       I    between atoms: N3_21  and  C17_22 
REMARK    4  A    between atoms: C17_22  and  C18_24 
REMARK    5  A    between atoms: C19_25  and  C20_26 
REMARK    6  A    between atoms: C20_26  and  N4_27 
ROOT
HETATM    1  C2  UNL     1      -0.612  -0.039   2.234  1.00  0.00     0.095 A 
HETATM    2  C3  UNL     1      -1.777  -0.131   2.798  1.00  0.00     0.049 A 
HETATM    3  C4  UNL     1      -2.994  -0.413   2.052  1.00  0.00    -0.017 A 
HETATM    4  C5  UNL     1      -4.245  -0.536   2.388  1.00  0.00     0.003 C 
HETATM    5  C6  UNL     1      -5.129   0.313   1.883  1.00  0.00     0.052 C 
HETATM    6  C7  UNL     1      -6.442   0.438   2.450  1.00  0.00     0.097 C 
HETATM    7  N1  UNL     1      -7.498   0.522   2.913  1.00  0.00    -0.192 NA
HETATM    8  C8  UNL     1      -4.688   1.130   0.697  1.00  0.00     0.175 C 
HETATM    9  N2  UNL     1      -3.820   0.247  -0.098  1.00  0.00    -0.363 N 
HETATM   10  C14 UNL     1      -2.871  -0.612   0.566  1.00  0.00     0.144 A 
HETATM   11  C15 UNL     1      -1.484  -0.467   0.120  1.00  0.00     0.035 A 
HETATM   12  C16 UNL     1      -0.402  -0.209   0.807  1.00  0.00     0.067 A 
ENDROOT
BRANCH   9  13
HETATM   13  C9  UNL     1      -4.003   0.321  -1.504  1.00  0.00     0.044 C 
HETATM   14  C10 UNL     1      -3.718   1.072  -2.555  1.00  0.00     0.004 C 
HETATM   15  C11 UNL     1      -4.657   1.066  -3.470  1.00  0.00     0.033 C 
HETATM   16  C12 UNL     1      -5.168  -0.317  -3.357  1.00  0.00     0.014 C 
HETATM   17 BR1  UNL     1      -6.194  -1.320  -4.617  1.00  0.00    -0.051 Br
HETATM   18  C13 UNL     1      -4.766  -0.763  -2.159  1.00  0.00     0.049 C 
ENDBRANCH   9  13
BRANCH   1  19
HETATM   19  O1  UNL     1       0.400   0.238   3.143  1.00  0.00    -0.354 OA
HETATM   20  C1  UNL     1       1.216  -0.699   3.774  1.00  0.00     0.210 C 
ENDBRANCH   1  19
BRANCH  12  21
HETATM   21  N3  UNL     1       0.917  -0.077   0.317  1.00  0.00    -0.314 N 
HETATM   22  C17 UNL     1       1.414  -0.177  -1.002  1.00  0.00     0.301 C 
HETATM   23  O2  UNL     1       0.597  -0.419  -1.921  1.00  0.00    -0.258 OA
HETATM   24  H11 UNL     1       1.699   0.126   0.983  1.00  0.00     0.170 HD
BRANCH  22  25
HETATM   25  C18 UNL     1       2.789  -0.022  -1.373  1.00  0.00    -0.004 C 
HETATM   26  C19 UNL     1       3.950   0.092  -1.674  1.00  0.00    -0.066 C 
BRANCH  26  27
HETATM   27  C20 UNL     1       5.360   0.219  -2.028  1.00  0.00     0.365 C 
BRANCH  27  28
HETATM   28  N4  UNL     1       6.241   0.305  -0.893  1.00  0.00     0.090 N 
HETATM   29  C21 UNL     1       6.329  -0.898  -0.126  1.00  0.00     0.310 C 
HETATM   30  C22 UNL     1       7.526   0.801  -1.304  1.00  0.00     0.310 C 
ENDBRANCH  27  28
ENDBRANCH  26  27
ENDBRANCH  22  25
ENDBRANCH  12  21
TORSDOF 6
