REMARK  6 active torsions:
REMARK  status: ('A' for Active; 'I' for Inactive)
REMARK    1  A    between atoms: N1_2  and  C3_4 
REMARK    2  A    between atoms: C3_4  and  C4_5 
REMARK    3  A    between atoms: C5_6  and  C6_7 
REMARK       I    between atoms: C6_7  and  N2_9 
REMARK    4  A    between atoms: N2_9  and  C7_10 
REMARK    5  A    between atoms: C8_11  and  C9_12 
REMARK    6  A    between atoms: C10_13  and  N3_14 
ROOT
HETATM    1  C7  UNL     1      -0.884  -0.210   0.063  1.00  0.00     0.100 C 
HETATM    2  C8  UNL     1      -1.641  -1.266  -0.177  1.00  0.00     0.083 C 
ENDROOT
BRANCH   1   3
HETATM    3  N2  UNL     1       0.507   0.030   0.238  1.00  0.00    -0.326 N 
HETATM    4  C6  UNL     1       1.173   0.572   1.368  1.00  0.00     0.300 C 
HETATM    5  O1  UNL     1       0.598   0.932   2.421  1.00  0.00    -0.258 OA
HETATM    6  H9  UNL     1       1.000  -0.266  -0.634  1.00  0.00     0.169 HD
BRANCH   4   7
HETATM    7  C5  UNL     1       2.617   0.725   1.315  1.00  0.00    -0.004 C 
HETATM    8  C4  UNL     1       3.815   0.874   1.270  1.00  0.00    -0.066 C 
BRANCH   8   9
HETATM    9  C3  UNL     1       5.272   1.075   1.216  1.00  0.00     0.365 C 
BRANCH   9  10
HETATM   10  N1  UNL     1       5.734   0.507  -0.031  1.00  0.00     0.090 N 
HETATM   11  C1  UNL     1       7.165   0.642  -0.204  1.00  0.00     0.310 C 
HETATM   12  C2  UNL     1       5.341  -0.901  -0.005  1.00  0.00     0.310 C 
ENDBRANCH   9  10
ENDBRANCH   8   9
ENDBRANCH   4   7
ENDBRANCH   1   3
BRANCH   2  13
HETATM   13  C9  UNL     1      -3.056  -1.045  -0.283  1.00  0.00    -0.054 C 
HETATM   14  C10 UNL     1      -4.242  -0.842  -0.364  1.00  0.00     0.021 C 
BRANCH  14  15
HETATM   15  N3  UNL     1      -5.617  -0.589  -0.442  1.00  0.00    -0.291 N 
HETATM   16  C11 UNL     1      -6.580  -1.628  -0.301  1.00  0.00     0.118 C 
HETATM   17  C12 UNL     1      -7.853  -1.293  -0.186  1.00  0.00    -0.006 C 
HETATM   18  C13 UNL     1      -8.243  -0.117  -0.588  1.00  0.00     0.034 C 
HETATM   19  C14 UNL     1      -7.354   1.031  -0.749  1.00  0.00     0.028 C 
HETATM   20 BR1  UNL     1      -7.950   2.809  -1.051  1.00  0.00    -0.050 Br
HETATM   21  C15 UNL     1      -6.055   0.762  -0.671  1.00  0.00     0.125 C 
ENDBRANCH  14  15
ENDBRANCH   2  13
TORSDOF 6
