REMARK  8 active torsions:
REMARK  status: ('A' for Active; 'I' for Inactive)
REMARK    1  A    between atoms: N1_2  and  C3_4 
REMARK    2  A    between atoms: C3_4  and  C4_5 
REMARK    3  A    between atoms: C5_6  and  C6_7 
REMARK    4  A    between atoms: C6_7  and  N3_10 
REMARK    5  A    between atoms: N3_10  and  C8_11 
REMARK    6  A    between atoms: C14_19  and  N5_20 
REMARK    7  A    between atoms: N5_20  and  C15_21 
REMARK    8  A    between atoms: C22_29  and  O1_30 
ROOT
HETATM    1  C6  UNL     1       1.770  -1.340  -1.032  1.00  0.00     0.270 C 
HETATM    2  C7  UNL     1       1.026  -2.421  -0.353  1.00  0.00     0.097 C 
HETATM    3  N2  UNL     1       0.438  -3.270   0.191  1.00  0.00    -0.194 NA
ENDROOT
BRANCH   1   4
HETATM    4  C5  UNL     1       2.853  -0.844  -0.193  1.00  0.00    -0.064 C 
HETATM    5  C4  UNL     1       3.767  -0.431   0.493  1.00  0.00    -0.073 C 
BRANCH   5   6
HETATM    6  C3  UNL     1       4.886   0.065   1.334  1.00  0.00     0.364 C 
BRANCH   6   7
HETATM    7  N1  UNL     1       6.161  -0.066   0.636  1.00  0.00     0.090 N 
HETATM    8  C1  UNL     1       6.284   0.810  -0.490  1.00  0.00     0.310 C 
HETATM    9  C2  UNL     1       6.455  -1.436   0.323  1.00  0.00     0.310 C 
ENDBRANCH   6   7
ENDBRANCH   5   6
ENDBRANCH   1   4
BRANCH   1  10
HETATM   10  N3  UNL     1       0.905  -0.268  -1.364  1.00  0.00    -0.360 N 
HETATM   11  H10 UNL     1       0.737   0.036  -2.372  1.00  0.00     0.162 HD
BRANCH  10  12
HETATM   12  C8  UNL     1       0.021   0.761  -0.990  1.00  0.00     0.083 C 
HETATM   13  C9  UNL     1      -1.310   0.565  -0.932  1.00  0.00     0.049 C 
HETATM   14  C10 UNL     1      -2.354   1.540  -0.561  1.00  0.00     0.021 A 
HETATM   15  C11 UNL     1      -2.117   2.736   0.081  1.00  0.00     0.066 A 
HETATM   16  C14 UNL     1      -3.587   1.076  -0.959  1.00  0.00     0.064 A 
HETATM   17  N4  UNL     1      -3.224   3.492   0.322  1.00  0.00    -0.261 NA
HETATM   18  C21 UNL     1      -0.903   3.417   0.597  1.00  0.00     0.212 C 
HETATM   19  C12 UNL     1      -4.458   3.058  -0.062  1.00  0.00     0.138 A 
HETATM   20  C13 UNL     1      -4.686   1.849  -0.708  1.00  0.00     0.056 A 
HETATM   21 BR1  UNL     1      -6.389   1.249  -1.239  1.00  0.00    -0.047 Br
HETATM   22  N6  UNL     1       0.314   3.055  -0.051  1.00  0.00    -0.259 NA
HETATM   23  C22 UNL     1       0.709   2.022  -0.683  1.00  0.00     0.184 C 
BRANCH  23  24
HETATM   24  O1  UNL     1       2.007   2.157  -1.135  1.00  0.00    -0.343 OA
HETATM   25  H21 UNL     1       2.454   3.048  -1.222  1.00  0.00     0.219 HD
ENDBRANCH  23  24
BRANCH  16  26
HETATM   26  N5  UNL     1      -3.712  -0.188  -1.612  1.00  0.00    -0.354 N 
HETATM   27  H13 UNL     1      -3.673  -0.455  -2.622  1.00  0.00     0.166 HD
BRANCH  26  28
HETATM   28  C15 UNL     1      -3.930  -1.283  -0.697  1.00  0.00     0.032 A 
HETATM   29  C16 UNL     1      -4.002  -1.056   0.676  1.00  0.00     0.029 A 
HETATM   30  C17 UNL     1      -4.213  -2.096   1.588  1.00  0.00     0.002 A 
HETATM   31  C18 UNL     1      -4.355  -3.387   1.121  1.00  0.00     0.000 A 
HETATM   32  C19 UNL     1      -4.283  -3.607  -0.236  1.00  0.00     0.002 A 
HETATM   33  C20 UNL     1      -4.079  -2.591  -1.110  1.00  0.00     0.029 A 
ENDBRANCH  26  28
ENDBRANCH  16  26
ENDBRANCH  10  12
ENDBRANCH   1  10
TORSDOF 8
