REMARK  3 active torsions:
REMARK  status: ('A' for Active; 'I' for Inactive)
REMARK    1  A    between atoms: C2_2  and  S1_3 
REMARK    2  A    between atoms: C8_11  and  O2_12 
REMARK    3  A    between atoms: C13_18  and  C14_19 
ROOT
HETATM    1  S1  UNL     1       0.794   0.829   1.350  1.00  0.00    -0.069 SA
HETATM    2  O1  UNL     1       0.968   2.422   1.039  1.00  0.00    -0.163 OA
HETATM    3  N1  UNL     1      -0.838   0.305   1.611  1.00  0.00    -0.330 N 
HETATM    4  C3  UNL     1      -1.403  -0.923   1.192  1.00  0.00     0.067 C 
HETATM    5  C4  UNL     1      -1.023  -2.228   1.323  1.00  0.00     0.007 C 
HETATM    6  C5  UNL     1      -1.163  -3.230   0.177  1.00  0.00     0.042 C 
HETATM    7  C6  UNL     1      -1.765  -2.327  -0.963  1.00  0.00     0.038 C 
HETATM    8  C7  UNL     1      -3.081  -1.943  -0.225  1.00  0.00     0.021 C 
HETATM    9  C8  UNL     1      -2.608  -0.793   0.298  1.00  0.00     0.091 C 
HETATM   10  C10 UNL     1      -0.952  -1.056  -0.874  1.00  0.00     0.002 C 
HETATM   11  C11 UNL     1       0.274  -0.895  -0.494  1.00  0.00     0.039 C 
HETATM   12  C12 UNL     1       1.349  -1.730  -0.051  1.00  0.00     0.096 C 
HETATM   13  N2  UNL     1       2.205  -2.419   0.302  1.00  0.00    -0.192 NA
HETATM   14  C13 UNL     1       0.637   0.567  -0.174  1.00  0.00     0.141 C 
HETATM   15  H4  UNL     1       1.809  -0.089   1.387  1.00  0.00     0.126 HD
HETATM   16  H5  UNL     1      -1.639   0.804   2.105  1.00  0.00     0.174 HD
ENDROOT
BRANCH  14  17
HETATM   17  C14 UNL     1       1.843   0.790  -1.015  1.00  0.00    -0.036 A 
HETATM   18  C15 UNL     1       3.151   0.505  -0.698  1.00  0.00     0.009 A 
HETATM   19  C16 UNL     1       4.247   0.719  -1.503  1.00  0.00     0.002 A 
HETATM   20  C17 UNL     1       4.044   1.270  -2.750  1.00  0.00     0.019 A 
HETATM   21  C18 UNL     1       2.780   1.600  -3.186  1.00  0.00     0.011 A 
HETATM   22 BR1  UNL     1       2.431   2.365  -4.897  1.00  0.00    -0.051 Br
HETATM   23  C19 UNL     1       1.761   1.342  -2.297  1.00  0.00     0.027 A 
ENDBRANCH  14  17
BRANCH   1  24
HETATM   24  C2  UNL     1       0.837   1.079   2.897  1.00  0.00     0.034 C 
HETATM   25  C1  UNL     1       0.207   1.936   3.716  1.00  0.00     0.039 C 
ENDBRANCH   1  24
BRANCH   9  26
HETATM   26  O2  UNL     1      -3.629  -0.156  -0.384  1.00  0.00    -0.354 OA
HETATM   27  C9  UNL     1      -3.862   1.243  -0.239  1.00  0.00     0.210 C 
ENDBRANCH   9  26
TORSDOF 3
