REMARK  9 active torsions:
REMARK  status: ('A' for Active; 'I' for Inactive)
REMARK    1  A    between atoms: C2_2  and  C3_3 
REMARK       I    between atoms: C3_3  and  N1_5 
REMARK    2  A    between atoms: N1_5  and  C4_6 
REMARK    3  A    between atoms: C5_7  and  C6_8 
REMARK    4  A    between atoms: C7_9  and  C8_10 
REMARK    5  A    between atoms: C9_11  and  C10_12 
REMARK    6  A    between atoms: C10_12  and  O2_13 
REMARK    7  A    between atoms: C12_16  and  C13_17 
REMARK    8  A    between atoms: C15_20  and  N4_21 
REMARK    9  A    between atoms: N4_21  and  C16_22 
ROOT
HETATM    1  C13 UNL     1      -4.018   0.322  -0.145  1.00  0.00     0.166 C 
HETATM    2  C14 UNL     1      -4.457   0.763  -1.493  1.00  0.00     0.063 C 
HETATM    3  N3  UNL     1      -4.815   1.100  -2.541  1.00  0.00    -0.197 NA
ENDROOT
BRANCH   1   4
HETATM    4  C12 UNL     1      -2.720   0.969   0.174  1.00  0.00     0.000 A 
HETATM    5  C11 UNL     1      -2.717   2.026   1.054  1.00  0.00     0.127 A 
HETATM    6  N2  UNL     1      -1.575   2.643   1.372  1.00  0.00    -0.260 NA
HETATM    7  C7  UNL     1      -0.394   2.275   0.862  1.00  0.00     0.068 A 
HETATM    8  C6  UNL     1      -0.326   1.225  -0.026  1.00  0.00     0.021 A 
HETATM    9  C15 UNL     1      -1.506   0.590  -0.352  1.00  0.00     0.054 A 
BRANCH   7  10
HETATM   10  C8  UNL     1       0.792   3.011   1.271  1.00  0.00     0.030 C 
HETATM   11  C9  UNL     1       0.710   4.017   2.127  1.00  0.00     0.001 C 
BRANCH  11  12
HETATM   12  C10 UNL     1       1.765   4.881   2.665  1.00  0.00     0.191 C 
BRANCH  12  13
HETATM   13  O2  UNL     1       1.769   4.728   4.067  1.00  0.00    -0.397 OA
HETATM   14  H11 UNL     1       2.125   5.532   4.521  1.00  0.00     0.209 HD
ENDBRANCH  12  13
ENDBRANCH  11  12
ENDBRANCH   7  10
BRANCH   8  15
HETATM   15  C5  UNL     1       0.930   0.807  -0.601  1.00  0.00     0.033 C 
HETATM   16  C4  UNL     1       1.289  -0.103  -1.452  1.00  0.00     0.092 C 
BRANCH  16  17
HETATM   17  N1  UNL     1       2.572  -0.433  -1.954  1.00  0.00    -0.334 N 
HETATM   18  C3  UNL     1       3.280  -1.657  -1.860  1.00  0.00     0.244 C 
HETATM   19  O1  UNL     1       2.881  -2.695  -1.299  1.00  0.00    -0.268 OA
HETATM   20  H4  UNL     1       3.046   0.365  -2.466  1.00  0.00     0.168 HD
BRANCH  18  21
HETATM   21  C2  UNL     1       4.606  -1.808  -2.444  1.00  0.00     0.064 C 
HETATM   22  C1  UNL     1       5.050  -3.042  -2.219  1.00  0.00     0.017 C 
ENDBRANCH  18  21
ENDBRANCH  16  17
ENDBRANCH   8  15
BRANCH   9  23
HETATM   23  N4  UNL     1      -1.581  -0.518  -1.236  1.00  0.00    -0.355 N 
HETATM   24  H15 UNL     1      -1.646  -0.467  -2.275  1.00  0.00     0.166 HD
BRANCH  23  25
HETATM   25  C16 UNL     1      -1.564  -1.789  -0.579  1.00  0.00     0.033 A 
HETATM   26  C17 UNL     1      -1.480  -1.889   0.792  1.00  0.00     0.029 A 
HETATM   27  C18 UNL     1      -1.467  -3.164   1.334  1.00  0.00     0.004 A 
HETATM   28  C19 UNL     1      -1.531  -4.341   0.628  1.00  0.00     0.019 A 
HETATM   29  C20 UNL     1      -1.614  -4.173  -0.733  1.00  0.00     0.013 A 
HETATM   30 BR1  UNL     1      -1.709  -5.702  -1.862  1.00  0.00    -0.051 Br
HETATM   31  C21 UNL     1      -1.632  -2.947  -1.364  1.00  0.00     0.048 A 
ENDBRANCH  23  25
ENDBRANCH   9  23
ENDBRANCH   1   4
TORSDOF 9
