REMARK  5 active torsions:
REMARK  status: ('A' for Active; 'I' for Inactive)
REMARK    1  A    between atoms: C8_10  and  C9_11 
REMARK    2  A    between atoms: C18_21  and  N3_22 
REMARK    3  A    between atoms: N3_22  and  C19_23 
REMARK    4  A    between atoms: C19_23  and  C21_25 
REMARK    5  A    between atoms: C21_25  and  O1_26 
ROOT
HETATM    1  C1  UNL     1       3.717   2.341  -0.843  1.00  0.00     0.050 C 
HETATM    2  C2  UNL     1       2.284   2.095  -0.517  1.00  0.00    -0.033 A 
HETATM    3  C3  UNL     1       1.327   3.059  -0.675  1.00  0.00     0.041 A 
HETATM    4  C4  UNL     1       0.004   2.824  -0.371  1.00  0.00     0.068 A 
HETATM    5  N1  UNL     1      -0.878   3.799  -0.558  1.00  0.00    -0.259 NA
HETATM    6  C5  UNL     1      -2.165   3.609  -0.290  1.00  0.00     0.140 A 
HETATM    7  C6  UNL     1      -2.534   2.379   0.181  1.00  0.00     0.073 A 
HETATM    8  C7  UNL     1      -3.935   2.205   0.485  1.00  0.00     0.102 C 
HETATM    9  N2  UNL     1      -5.058   2.053   0.732  1.00  0.00    -0.191 NA
HETATM   10  C8  UNL     1      -1.662   1.314   0.400  1.00  0.00    -0.001 A 
HETATM   11  C16 UNL     1      -0.317   1.563   0.104  1.00  0.00     0.007 A 
HETATM   12  C17 UNL     1       0.669   0.588   0.262  1.00  0.00     0.044 A 
HETATM   13  C18 UNL     1       1.989   0.815  -0.040  1.00  0.00     0.035 A 
ENDROOT
BRANCH  10  14
HETATM   14  C9  UNL     1      -2.060   0.004   0.851  1.00  0.00     0.025 C 
HETATM   15  C10 UNL     1      -2.920  -0.930   0.524  1.00  0.00    -0.033 C 
HETATM   16  C11 UNL     1      -3.025  -2.178   1.270  1.00  0.00     0.024 C 
HETATM   17  C15 UNL     1      -3.831  -0.858  -0.617  1.00  0.00     0.030 C 
HETATM   18  C12 UNL     1      -4.047  -2.948   1.082  1.00  0.00    -0.024 C 
HETATM   19  C13 UNL     1      -4.658  -3.034  -0.082  1.00  0.00     0.031 C 
HETATM   20  C14 UNL     1      -4.673  -1.832  -0.943  1.00  0.00     0.012 C 
HETATM   21 BR1  UNL     1      -5.842  -1.668  -2.461  1.00  0.00    -0.051 Br
ENDBRANCH  10  14
BRANCH  13  22
HETATM   22  N3  UNL     1       2.925  -0.224   0.122  1.00  0.00    -0.383 N 
HETATM   23  H11 UNL     1       3.902   0.058  -0.167  1.00  0.00     0.160 HD
BRANCH  22  24
HETATM   24  C19 UNL     1       2.662  -1.549   0.619  1.00  0.00     0.101 C 
HETATM   25  C20 UNL     1       1.698  -2.311  -0.253  1.00  0.00     0.034 C 
BRANCH  24  26
HETATM   26  C21 UNL     1       3.982  -2.323   0.611  1.00  0.00     0.188 C 
BRANCH  26  27
HETATM   27  O1  UNL     1       4.855  -1.618   1.450  1.00  0.00    -0.399 OA
HETATM   28  H18 UNL     1       4.301  -1.224   2.176  1.00  0.00     0.209 HD
ENDBRANCH  26  27
ENDBRANCH  24  26
ENDBRANCH  22  24
ENDBRANCH  13  22
TORSDOF 5
