REMARK  5 active torsions:
REMARK  status: ('A' for Active; 'I' for Inactive)
REMARK    1  A    between atoms: O1_2  and  C2_3 
REMARK    2  A    between atoms: C2_3  and  C3_4 
REMARK    3  A    between atoms: C5_7  and  O3_8 
REMARK    4  A    between atoms: C10_15  and  N3_16 
REMARK    5  A    between atoms: N3_16  and  C11_17 
ROOT
HETATM    1  C3  UNL     1      -2.706   0.773   0.774  1.00  0.00     0.126 C 
HETATM    2  C4  UNL     1      -1.435   0.763  -0.088  1.00  0.00     0.198 C 
HETATM    3  O2  UNL     1      -0.707  -0.340   0.077  1.00  0.00    -0.355 OA
HETATM    4  C5  UNL     1       0.484  -0.392  -0.576  1.00  0.00     0.299 C 
HETATM    5  C7  UNL     1       1.461  -1.208   0.111  1.00  0.00     0.071 A 
HETATM    6  C8  UNL     1       0.742  -2.378   0.423  1.00  0.00     0.072 A 
HETATM    7  N1  UNL     1       1.523  -3.279   1.028  1.00  0.00    -0.241 NA
HETATM    8  C9  UNL     1       2.816  -3.113   1.312  1.00  0.00     0.235 A 
HETATM    9  N2  UNL     1       3.382  -1.958   0.966  1.00  0.00    -0.224 NA
HETATM   10  C10 UNL     1       2.761  -0.954   0.359  1.00  0.00     0.143 A 
HETATM   11  C17 UNL     1      -0.648  -2.808   0.263  1.00  0.00     0.028 C 
HETATM   12  C18 UNL     1      -1.836  -2.542  -0.322  1.00  0.00    -0.023 C 
HETATM   13  C19 UNL     1      -2.720  -1.744  -1.186  1.00  0.00     0.046 C 
HETATM   14  C20 UNL     1      -3.853  -1.106  -0.401  1.00  0.00     0.120 C 
HETATM   15  N4  UNL     1      -3.526  -0.338   0.701  1.00  0.00    -0.408 N 
HETATM   16  C21 UNL     1      -4.773  -0.017   1.437  1.00  0.00     0.143 C 
ENDROOT
BRANCH  10  17
HETATM   17  N3  UNL     1       3.275   0.296  -0.044  1.00  0.00    -0.338 N 
HETATM   18  H14 UNL     1       2.729   1.036  -0.512  1.00  0.00     0.167 HD
BRANCH  17  19
HETATM   19  C11 UNL     1       4.644   0.480   0.245  1.00  0.00     0.074 A 
HETATM   20  C12 UNL     1       5.368   0.702  -0.932  1.00  0.00     0.033 A 
HETATM   21  C13 UNL     1       6.745   0.912  -0.905  1.00  0.00     0.004 A 
HETATM   22  C14 UNL     1       7.403   0.902   0.308  1.00  0.00     0.027 A 
HETATM   23  C15 UNL     1       6.686   0.684   1.463  1.00  0.00     0.074 A 
HETATM   24 CL1  UNL     1       7.434   0.650   3.064  1.00  0.00    -0.081 Cl
HETATM   25  C16 UNL     1       5.321   0.472   1.462  1.00  0.00     0.164 A 
HETATM   26  F1  UNL     1       4.507   0.250   2.498  1.00  0.00    -0.202 F 
ENDBRANCH  17  19
ENDBRANCH  10  17
BRANCH   4  27
HETATM   27  O3  UNL     1       0.289  -1.010  -1.894  1.00  0.00    -0.362 OA
HETATM   28  C6  UNL     1       0.622  -0.067  -2.857  1.00  0.00     0.205 C 
ENDBRANCH   4  27
BRANCH   1  29
HETATM   29  C2  UNL     1      -3.394   2.070   0.264  1.00  0.00     0.194 C 
BRANCH  29  30
HETATM   30  O1  UNL     1      -4.500   2.418   0.975  1.00  0.00    -0.394 OA
HETATM   31  C1  UNL     1      -5.139   3.568   0.552  1.00  0.00     0.201 C 
ENDBRANCH  29  30
ENDBRANCH   1  29
TORSDOF 5
