REMARK  8 active torsions:
REMARK  status: ('A' for Active; 'I' for Inactive)
REMARK    1  A    between atoms: C2_2  and  C3_3 
REMARK       I    between atoms: C3_3  and  N1_5 
REMARK    2  A    between atoms: N1_5  and  C4_6 
REMARK    3  A    between atoms: C7_9  and  C8_10 
REMARK    4  A    between atoms: C8_10  and  C9_11 
REMARK    5  A    between atoms: C9_11  and  N2_12 
REMARK    6  A    between atoms: N2_12  and  C10_13 
REMARK    7  A    between atoms: C17_21  and  O2_22 
REMARK    8  A    between atoms: O2_22  and  C18_23 
ROOT
HETATM    1  C18 UNL     1      -1.495   1.774   1.668  1.00  0.00     0.299 C 
HETATM    2  C19 UNL     1      -2.261   2.667   2.569  1.00  0.00     0.085 C 
HETATM    3  N3  UNL     1      -2.866   3.350   3.283  1.00  0.00    -0.195 NA
ENDROOT
BRANCH   1   4
HETATM    4  O2  UNL     1      -2.301   1.530   0.535  1.00  0.00    -0.336 OA
BRANCH   4   5
HETATM    5  C17 UNL     1      -1.815   0.706  -0.462  1.00  0.00     0.093 A 
HETATM    6  C4  UNL     1      -2.523  -0.433  -1.027  1.00  0.00     0.064 A 
HETATM    7  C5  UNL     1      -1.791  -1.012  -1.959  1.00  0.00     0.006 A 
HETATM    8  C6  UNL     1      -0.469  -0.837  -2.599  1.00  0.00     0.038 A 
HETATM    9  C7  UNL     1       0.236   0.324  -2.006  1.00  0.00     0.016 A 
HETATM   10  C16 UNL     1      -0.618   0.942  -0.968  1.00  0.00     0.017 A 
BRANCH   6  11
HETATM   11  N1  UNL     1      -3.809  -0.745  -0.525  1.00  0.00    -0.322 N 
HETATM   12  C3  UNL     1      -4.671  -1.794  -0.908  1.00  0.00     0.245 C 
HETATM   13  O1  UNL     1      -4.342  -2.607  -1.800  1.00  0.00    -0.268 OA
HETATM   14  H4  UNL     1      -4.198  -0.152   0.213  1.00  0.00     0.169 HD
BRANCH  12  15
HETATM   15  C2  UNL     1      -5.976  -2.006  -0.309  1.00  0.00     0.064 C 
HETATM   16  C1  UNL     1      -6.423  -1.210   0.640  1.00  0.00     0.017 C 
ENDBRANCH  12  15
ENDBRANCH   6  11
BRANCH   9  17
HETATM   17  C8  UNL     1       1.612   0.025  -1.487  1.00  0.00     0.028 C 
BRANCH  17  18
HETATM   18  C9  UNL     1       1.654  -1.003  -0.415  1.00  0.00     0.120 C 
BRANCH  18  19
HETATM   19  N2  UNL     1       3.028  -1.191  -0.001  1.00  0.00    -0.390 N 
HETATM   20  H13 UNL     1       3.506  -2.105  -0.252  1.00  0.00     0.159 HD
BRANCH  19  21
HETATM   21  C10 UNL     1       3.889  -0.332   0.711  1.00  0.00     0.029 A 
HETATM   22  C11 UNL     1       5.226  -0.629   1.004  1.00  0.00     0.029 A 
HETATM   23  C12 UNL     1       6.020   0.236   1.717  1.00  0.00     0.004 A 
HETATM   24  C13 UNL     1       5.559   1.440   2.188  1.00  0.00     0.019 A 
HETATM   25  C14 UNL     1       4.250   1.771   1.923  1.00  0.00     0.013 A 
HETATM   26 BR1  UNL     1       3.646   3.441   2.586  1.00  0.00    -0.051 Br
HETATM   27  C15 UNL     1       3.476   0.884   1.204  1.00  0.00     0.048 A 
ENDBRANCH  19  21
ENDBRANCH  18  19
ENDBRANCH  17  18
ENDBRANCH   9  17
ENDBRANCH   4   5
ENDBRANCH   1   4
TORSDOF 8
