REMARK  5 active torsions:
REMARK  status: ('A' for Active; 'I' for Inactive)
REMARK    1  A    between atoms: C2_2  and  C3_3 
REMARK       I    between atoms: C3_3  and  N1_5 
REMARK    2  A    between atoms: N1_5  and  C4_6 
REMARK    3  A    between atoms: C4_6  and  C5_7 
REMARK    4  A    between atoms: C13_18  and  N4_19 
REMARK    5  A    between atoms: N4_19  and  C14_20 
ROOT
HETATM    1  C5  UNL     1       0.773   0.257   0.347  1.00  0.00    -0.038 C 
HETATM    2  C6  UNL     1       0.515  -0.417  -0.937  1.00  0.00     0.070 C 
HETATM    3  C7  UNL     1       0.492  -1.897  -0.912  1.00  0.00     0.129 C 
HETATM    4  C8  UNL     1       0.173  -2.362  -2.343  1.00  0.00     0.040 C 
HETATM    5  O2  UNL     1      -0.310  -2.507   0.050  1.00  0.00    -0.340 OA
HETATM    6  C9  UNL     1      -0.287  -3.892   0.240  1.00  0.00     0.246 C 
HETATM    7  N2  UNL     1      -0.408  -3.456   1.430  1.00  0.00    -0.269 NA
HETATM    8  C10 UNL     1      -0.472  -2.082   1.687  1.00  0.00     0.163 C 
HETATM    9  C11 UNL     1      -0.641  -0.842   2.070  1.00  0.00     0.122 C 
HETATM   10  C12 UNL     1      -1.480  -0.514   3.235  1.00  0.00     0.076 C 
HETATM   11  N3  UNL     1      -2.170  -0.261   4.167  1.00  0.00    -0.196 NA
HETATM   12  C13 UNL     1      -0.117   0.428   1.524  1.00  0.00     0.139 C 
ENDROOT
BRANCH  12  13
HETATM   13  N4  UNL     1      -1.216   1.339   1.304  1.00  0.00    -0.380 N 
HETATM   14  H15 UNL     1      -1.088   2.290   1.781  1.00  0.00     0.160 HD
BRANCH  13  15
HETATM   15  C14 UNL     1      -2.452   1.340   0.615  1.00  0.00     0.029 A 
HETATM   16  C15 UNL     1      -3.319   2.437   0.539  1.00  0.00     0.029 A 
HETATM   17  C16 UNL     1      -4.508   2.341  -0.128  1.00  0.00     0.004 A 
HETATM   18  C17 UNL     1      -4.916   1.195  -0.748  1.00  0.00     0.019 A 
HETATM   19  C18 UNL     1      -4.121   0.075  -0.719  1.00  0.00     0.013 A 
HETATM   20 BR1  UNL     1      -4.657  -1.533  -1.569  1.00  0.00    -0.051 Br
HETATM   21  C19 UNL     1      -2.931   0.206  -0.040  1.00  0.00     0.048 A 
ENDBRANCH  13  15
ENDBRANCH  12  13
BRANCH   1  22
HETATM   22  C4  UNL     1       1.976   0.845   0.428  1.00  0.00     0.096 C 
BRANCH  22  23
HETATM   23  N1  UNL     1       3.280   1.359   0.228  1.00  0.00    -0.334 N 
HETATM   24  C3  UNL     1       3.814   1.057  -1.031  1.00  0.00     0.241 C 
HETATM   25  O1  UNL     1       3.753   0.534  -2.163  1.00  0.00    -0.269 OA
HETATM   26  H4  UNL     1       4.014   1.902   0.701  1.00  0.00     0.168 HD
BRANCH  24  27
HETATM   27  C2  UNL     1       5.097   1.410  -1.587  1.00  0.00     0.065 C 
HETATM   28  C1  UNL     1       5.876   2.126  -0.780  1.00  0.00     0.019 C 
ENDBRANCH  24  27
ENDBRANCH  22  23
ENDBRANCH   1  22
TORSDOF 5
