REMARK  7 active torsions:
REMARK  status: ('A' for Active; 'I' for Inactive)
REMARK    1  A    between atoms: C2_2  and  C3_3 
REMARK    2  A    between atoms: C3_3  and  C4_4 
REMARK    3  A    between atoms: C4_4  and  N1_5 
REMARK       I    between atoms: N1_5  and  C5_6 
REMARK    4  A    between atoms: C5_6  and  C6_8 
REMARK    5  A    between atoms: C9_11  and  S1_12 
REMARK    6  A    between atoms: S1_12  and  O4_15 
REMARK    7  A    between atoms: O4_15  and  C10_16 
ROOT
HETATM    1  C6  UNL     1       1.315   0.601  -0.053  1.00  0.00     0.032 A 
HETATM    2  C7  UNL     1       0.434   1.286   0.759  1.00  0.00     0.018 A 
HETATM    3  C8  UNL     1      -0.931   1.116   0.506  1.00  0.00     0.027 A 
HETATM    4  C9  UNL     1      -1.417   0.300  -0.512  1.00  0.00     0.086 A 
HETATM    5  C17 UNL     1      -0.508  -0.384  -1.322  1.00  0.00     0.027 A 
HETATM    6  C18 UNL     1       0.839  -0.210  -1.065  1.00  0.00     0.018 A 
ENDROOT
BRANCH   4   7
HETATM    7  S1  UNL     1      -3.128   0.152  -0.748  1.00  0.00     0.303 S 
HETATM    8  O2  UNL     1      -3.372  -0.114  -2.207  1.00  0.00    -0.193 OA
HETATM    9  O3  UNL     1      -3.812   1.438  -0.344  1.00  0.00    -0.193 OA
BRANCH   7  10
HETATM   10  O4  UNL     1      -3.658  -1.167   0.222  1.00  0.00    -0.229 OA
BRANCH  10  11
HETATM   11  C10 UNL     1      -5.011  -1.126   0.557  1.00  0.00     0.089 C 
HETATM   12  C11 UNL     1      -5.900  -1.743  -0.302  1.00  0.00     0.038 C 
HETATM   13  C12 UNL     1      -7.268  -1.523  -0.358  1.00  0.00     0.007 C 
HETATM   14  C13 UNL     1      -8.017  -0.516   0.216  1.00  0.00     0.055 C 
HETATM   15  C14 UNL     1      -7.677   0.149   1.390  1.00  0.00     0.172 C 
HETATM   16  O5  UNL     1      -8.652   0.758   1.925  1.00  0.00    -0.289 OA
HETATM   17  C15 UNL     1      -6.460   0.234   2.035  1.00  0.00     0.057 C 
HETATM   18  C16 UNL     1      -5.298  -0.457   1.731  1.00  0.00     0.042 C 
ENDBRANCH  10  11
ENDBRANCH   7  10
ENDBRANCH   4   7
BRANCH   1  19
HETATM   19  C5  UNL     1       2.737   0.785   0.219  1.00  0.00     0.251 C 
HETATM   20  N1  UNL     1       3.777   0.162  -0.514  1.00  0.00    -0.357 N 
HETATM   21  H10 UNL     1       3.505  -0.476  -1.306  1.00  0.00     0.162 HD
HETATM   22  O1  UNL     1       3.073   1.533   1.147  1.00  0.00    -0.268 OA
BRANCH  20  23
HETATM   23  C4  UNL     1       5.161   0.421  -0.151  1.00  0.00     0.123 C 
BRANCH  23  24
HETATM   24  C3  UNL     1       6.025  -0.362  -1.084  1.00  0.00     0.019 C 
BRANCH  24  25
HETATM   25  C2  UNL     1       7.501  -0.180  -0.813  1.00  0.00    -0.003 C 
HETATM   26  C1  UNL     1       7.904  -0.608   0.566  1.00  0.00     0.005 C 
ENDBRANCH  24  25
ENDBRANCH  23  24
ENDBRANCH  20  23
ENDBRANCH   1  19
TORSDOF 7
