REMARK  6 active torsions:
REMARK  status: ('A' for Active; 'I' for Inactive)
REMARK    1  A    between atoms: C2_2  and  C3_3 
REMARK    2  A    between atoms: C3_3  and  N1_4 
REMARK    3  A    between atoms: C8_10  and  C9_11 
REMARK    4  A    between atoms: C9_11  and  O2_12 
REMARK    5  A    between atoms: O2_12  and  C10_13 
REMARK    6  A    between atoms: C13_16  and  C14_17 
ROOT
HETATM    1  N1  UNL     1      -1.637   1.193  -1.588  1.00  0.00    -0.340 N 
HETATM    2  C4  UNL     1      -1.749   2.632  -1.473  1.00  0.00     0.243 C 
HETATM    3  O1  UNL     1      -2.390   3.322  -2.298  1.00  0.00    -0.268 OA
HETATM    4  C5  UNL     1      -1.107   3.374  -0.359  1.00  0.00     0.074 C 
HETATM    5  C6  UNL     1      -0.851   2.911   0.881  1.00  0.00     0.006 C 
HETATM    6  C7  UNL     1      -1.170   1.550   1.367  1.00  0.00     0.007 C 
HETATM    7  C8  UNL     1      -1.216   0.377   0.705  1.00  0.00    -0.034 C 
HETATM    8  C17 UNL     1      -0.935   0.247  -0.746  1.00  0.00     0.114 C 
HETATM    9  C18 UNL     1       0.560   0.284  -1.014  1.00  0.00     0.037 C 
ENDROOT
BRANCH   7  10
HETATM   10  C9  UNL     1      -1.580  -0.810   1.516  1.00  0.00     0.212 C 
BRANCH  10  11
HETATM   11  O2  UNL     1      -0.674  -1.833   1.594  1.00  0.00    -0.347 OA
BRANCH  11  12
HETATM   12  C10 UNL     1       0.598  -1.900   2.063  1.00  0.00     0.069 A 
HETATM   13  C11 UNL     1       1.397  -0.921   2.626  1.00  0.00     0.037 A 
HETATM   14  C12 UNL     1       2.682  -1.197   3.045  1.00  0.00     0.012 A 
HETATM   15  C13 UNL     1       3.196  -2.469   2.908  1.00  0.00    -0.024 A 
HETATM   16  C15 UNL     1       2.434  -3.473   2.352  1.00  0.00     0.012 A 
HETATM   17  C16 UNL     1       1.138  -3.168   1.936  1.00  0.00     0.037 A 
BRANCH  15  18
HETATM   18  C14 UNL     1       4.558  -2.597   3.397  1.00  0.00     0.429 C 
HETATM   19  O3  UNL     1       5.320  -3.606   3.424  1.00  0.00    -0.426 OA
ENDBRANCH  15  18
ENDBRANCH  11  12
ENDBRANCH  10  11
ENDBRANCH   7  10
BRANCH   1  20
HETATM   20  C3  UNL     1      -2.340   0.661  -2.741  1.00  0.00     0.126 C 
BRANCH  20  21
HETATM   21  C2  UNL     1      -1.525   0.541  -3.978  1.00  0.00     0.015 C 
HETATM   22  C1  UNL     1      -0.949   1.840  -4.485  1.00  0.00     0.006 C 
ENDBRANCH  20  21
ENDBRANCH   1  20
TORSDOF 6
