REMARK  7 active torsions:
REMARK  status: ('A' for Active; 'I' for Inactive)
REMARK    1  A    between atoms: C2_2  and  C3_3 
REMARK    2  A    between atoms: C3_3  and  C4_4 
REMARK    3  A    between atoms: C4_4  and  N1_5 
REMARK       I    between atoms: N1_5  and  C5_6 
REMARK    4  A    between atoms: C5_6  and  C6_8 
REMARK    5  A    between atoms: C9_11  and  S1_12 
REMARK    6  A    between atoms: S1_12  and  C10_15 
REMARK    7  A    between atoms: C13_18  and  C14_19 
ROOT
HETATM    1  C6  UNL     1       0.905   0.087   0.596  1.00  0.00     0.032 A 
HETATM    2  C7  UNL     1       0.199   1.103   1.207  1.00  0.00     0.018 A 
HETATM    3  C8  UNL     1      -1.114   0.844   1.618  1.00  0.00     0.025 A 
HETATM    4  C9  UNL     1      -1.727  -0.378   1.437  1.00  0.00     0.064 A 
HETATM    5  C17 UNL     1      -1.007  -1.383   0.824  1.00  0.00     0.025 A 
HETATM    6  C18 UNL     1       0.297  -1.137   0.413  1.00  0.00     0.018 A 
ENDROOT
BRANCH   4   7
HETATM    7  S1  UNL     1      -3.375  -0.553   2.003  1.00  0.00     0.206 S 
HETATM    8  O2  UNL     1      -3.574  -1.933   2.527  1.00  0.00    -0.217 OA
HETATM    9  O3  UNL     1      -3.603   0.396   3.170  1.00  0.00    -0.217 OA
BRANCH   7  10
HETATM   10  C10 UNL     1      -4.530  -0.132   0.765  1.00  0.00     0.064 A 
HETATM   11  C11 UNL     1      -5.010   1.174   0.624  1.00  0.00     0.025 A 
HETATM   12  C12 UNL     1      -5.932   1.479  -0.376  1.00  0.00     0.016 A 
HETATM   13  C13 UNL     1      -6.305   0.423  -1.169  1.00  0.00     0.002 A 
HETATM   14  C15 UNL     1      -5.871  -0.881  -1.083  1.00  0.00     0.016 A 
HETATM   15  C16 UNL     1      -4.950  -1.145  -0.071  1.00  0.00     0.025 A 
BRANCH  13  16
HETATM   16  C14 UNL     1      -7.266   0.677  -2.233  1.00  0.00     0.269 C 
HETATM   17  O4  UNL     1      -7.899   1.670  -2.658  1.00  0.00    -0.301 OA
ENDBRANCH  13  16
ENDBRANCH   7  10
ENDBRANCH   4   7
BRANCH   1  18
HETATM   18  C5  UNL     1       2.270   0.383   0.178  1.00  0.00     0.251 C 
HETATM   19  N1  UNL     1       3.151  -0.531  -0.462  1.00  0.00    -0.357 N 
HETATM   20  H10 UNL     1       2.745  -1.492  -0.631  1.00  0.00     0.162 HD
HETATM   21  O1  UNL     1       2.709   1.541   0.401  1.00  0.00    -0.268 OA
BRANCH  19  22
HETATM   22  C4  UNL     1       4.496  -0.196  -0.859  1.00  0.00     0.123 C 
BRANCH  22  23
HETATM   23  C3  UNL     1       5.381   0.225   0.294  1.00  0.00     0.019 C 
BRANCH  23  24
HETATM   24  C2  UNL     1       6.782   0.566  -0.164  1.00  0.00    -0.003 C 
HETATM   25  C1  UNL     1       7.465  -0.588  -0.826  1.00  0.00     0.005 C 
ENDBRANCH  23  24
ENDBRANCH  22  23
ENDBRANCH  19  22
ENDBRANCH   1  18
TORSDOF 7
