REMARK  4 active torsions:
REMARK  status: ('A' for Active; 'I' for Inactive)
REMARK    1  A    between atoms: C2_2  and  C3_4 
REMARK       I    between atoms: C3_4  and  N1_6 
REMARK       I    between atoms: N1_6  and  C4_7 
REMARK    2  A    between atoms: C4_7  and  C5_9 
REMARK    3  A    between atoms: C9_13  and  S1_14 
REMARK    4  A    between atoms: S1_14  and  C10_15 
ROOT
HETATM    1  C5  UNL     1      -0.111  -0.393   0.495  1.00  0.00     0.252 A 
HETATM    2  C6  UNL     1      -0.081  -0.871   1.928  1.00  0.00     0.064 C 
HETATM    3  C7  UNL     1      -0.621   1.003   0.432  1.00  0.00     0.025 A 
HETATM    4  C8  UNL     1      -1.736   1.436  -0.129  1.00  0.00     0.017 A 
HETATM    5  C9  UNL     1      -2.980   1.267  -0.862  1.00  0.00     0.003 A 
HETATM    6  C11 UNL     1      -3.580   0.206  -1.376  1.00  0.00     0.018 A 
HETATM    7  C12 UNL     1      -3.800  -1.171  -1.726  1.00  0.00     0.005 A 
HETATM    8  C13 UNL     1      -3.104  -2.296  -1.514  1.00  0.00     0.052 A 
HETATM    9  C14 UNL     1      -1.994  -3.160  -1.026  1.00  0.00     0.177 A 
HETATM   10  O5  UNL     1      -1.644  -4.390  -1.027  1.00  0.00    -0.291 OA
HETATM   11  C15 UNL     1      -0.822  -2.590  -0.264  1.00  0.00     0.354 A 
HETATM   12  N2  UNL     1      -1.052  -1.157  -0.302  1.00  0.00     0.113 N 
HETATM   13  H16 UNL     1      -0.965  -0.825  -1.308  1.00  0.00     0.318 HD
ENDROOT
BRANCH   1  14
HETATM   14  C4  UNL     1       1.235  -0.574  -0.081  1.00  0.00     0.267 C 
HETATM   15  N1  UNL     1       2.221   0.146   0.665  1.00  0.00    -0.288 N 
HETATM   16  C3  UNL     1       3.628   0.170   0.361  1.00  0.00     0.293 C 
HETATM   17  H4  UNL     1       2.038   0.732   1.511  1.00  0.00     0.172 HD
HETATM   18  O2  UNL     1       4.003  -0.505  -0.652  1.00  0.00    -0.264 OA
HETATM   19  O3  UNL     1       1.764  -1.180  -1.040  1.00  0.00    -0.270 OA
BRANCH  16  20
HETATM   20  C2  UNL     1       4.609   0.907   1.136  1.00  0.00     0.212 C 
HETATM   21  C1  UNL     1       6.024   0.878   0.756  1.00  0.00     0.102 C 
HETATM   22  O1  UNL     1       4.338   1.605   2.159  1.00  0.00    -0.288 OA
ENDBRANCH  16  20
ENDBRANCH   1  14
BRANCH   5  23
HETATM   23  S1  UNL     1      -3.920   2.806  -1.147  1.00  0.00    -0.092 SA
BRANCH  23  24
HETATM   24  C10 UNL     1      -3.088   4.195  -0.470  1.00  0.00     0.470 C 
HETATM   25  O4  UNL     1      -2.191   4.953  -0.205  1.00  0.00    -0.421 OA
ENDBRANCH  23  24
ENDBRANCH   5  23
TORSDOF 4
