REMARK  9 active torsions:
REMARK  status: ('A' for Active; 'I' for Inactive)
REMARK    1  A    between atoms: C2_2  and  C3_3 
REMARK       I    between atoms: C3_3  and  N1_5 
REMARK    2  A    between atoms: N1_5  and  C4_6 
REMARK    3  A    between atoms: C6_8  and  N2_9 
REMARK    4  A    between atoms: N2_9  and  C7_10 
REMARK    5  A    between atoms: C13_19  and  O2_20 
REMARK    6  A    between atoms: C16_23  and  O3_24 
REMARK    7  A    between atoms: O3_24  and  C17_25 
REMARK    8  A    between atoms: C17_25  and  C18_26 
REMARK    9  A    between atoms: C18_26  and  N6_27 
ROOT
HETATM    1  C4  UNL     1      -0.338   0.143  -0.568  1.00  0.00     0.071 A 
HETATM    2  C5  UNL     1       1.016   0.236  -0.327  1.00  0.00     0.065 A 
HETATM    3  C6  UNL     1       1.590   0.252   0.925  1.00  0.00     0.085 A 
HETATM    4  C13 UNL     1       0.685   0.165   1.961  1.00  0.00     0.098 A 
HETATM    5  C15 UNL     1      -0.672   0.071   1.757  1.00  0.00     0.078 A 
HETATM    6  C16 UNL     1      -1.205   0.059   0.488  1.00  0.00     0.098 A 
ENDROOT
BRANCH   3   7
HETATM    7  N2  UNL     1       2.978   0.345   1.190  1.00  0.00    -0.184 N 
HETATM    8  H6  UNL     1       3.253   0.340   2.203  1.00  0.00     0.184 HD
BRANCH   7   9
HETATM    9  C7  UNL     1       4.035   0.443   0.250  1.00  0.00     0.744 A 
HETATM   10  N3  UNL     1       3.928   0.470  -1.076  1.00  0.00    -0.071 NA
HETATM   11  C8  UNL     1       4.947   0.563  -1.932  1.00  0.00     0.168 A 
HETATM   12  C9  UNL     1       6.226   0.639  -1.461  1.00  0.00     0.076 A 
HETATM   13  C10 UNL     1       7.493   0.739  -1.965  1.00  0.00     0.034 A 
HETATM   14  N4  UNL     1       6.327   0.611  -0.123  1.00  0.00    -0.228 N 
HETATM   15  C11 UNL     1       8.369   0.772  -0.899  1.00  0.00     0.022 A 
HETATM   16  C12 UNL     1       7.626   0.690   0.269  1.00  0.00     0.119 A 
HETATM   17  N5  UNL     1       5.301   0.519   0.679  1.00  0.00     0.026 NA
ENDBRANCH   7   9
ENDBRANCH   3   7
BRANCH   4  18
HETATM   18  O2  UNL     1       1.157   0.172   3.265  1.00  0.00    -0.354 OA
HETATM   19  C14 UNL     1       0.276   0.086   4.366  1.00  0.00     0.210 C 
ENDBRANCH   4  18
BRANCH   1  20
HETATM   20  N1  UNL     1      -0.860   0.134  -1.902  1.00  0.00    -0.321 N 
HETATM   21  C3  UNL     1      -1.179   1.435  -2.411  1.00  0.00     0.245 C 
HETATM   22  O1  UNL     1      -0.954   2.380  -1.611  1.00  0.00    -0.268 OA
HETATM   23  H4  UNL     1      -0.988  -0.764  -2.441  1.00  0.00     0.169 HD
BRANCH  21  24
HETATM   24  C2  UNL     1      -1.716   1.522  -3.763  1.00  0.00     0.064 C 
HETATM   25  C1  UNL     1      -1.961   0.553  -4.625  1.00  0.00     0.017 C 
ENDBRANCH  21  24
ENDBRANCH   1  20
BRANCH   6  26
HETATM   26  O3  UNL     1      -2.573  -0.034   0.226  1.00  0.00    -0.347 OA
BRANCH  26  27
HETATM   27  C17 UNL     1      -3.417  -0.120   1.357  1.00  0.00     0.206 C 
BRANCH  27  28
HETATM   28  C18 UNL     1      -4.874  -0.217   0.959  1.00  0.00     0.297 C 
BRANCH  28  29
HETATM   29  N6  UNL     1      -5.133  -1.388   0.144  1.00  0.00     0.082 N 
HETATM   30  C19 UNL     1      -6.548  -1.420  -0.200  1.00  0.00     0.309 C 
HETATM   31  C20 UNL     1      -4.852  -2.559   0.950  1.00  0.00     0.309 C 
ENDBRANCH  28  29
ENDBRANCH  27  28
ENDBRANCH  26  27
ENDBRANCH   6  26
TORSDOF 9
