REMARK  5 active torsions:
REMARK  status: ('A' for Active; 'I' for Inactive)
REMARK    1  A    between atoms: N1_2  and  C3_4 
REMARK    2  A    between atoms: C9_11  and  N2_12 
REMARK    3  A    between atoms: N2_12  and  C10_13 
REMARK    4  A    between atoms: C10_13  and  N3_14 
REMARK    5  A    between atoms: C15_20  and  C16_21 
ROOT
HETATM    1  N3  UNL     1      -2.028   1.226  -2.520  1.00  0.00    -0.321 N 
HETATM    2  C11 UNL     1      -2.149   2.378  -3.243  1.00  0.00     0.118 A 
HETATM    3  C12 UNL     1      -1.233   2.942  -4.193  1.00  0.00     0.118 C 
HETATM    4  N4  UNL     1      -0.483   3.385  -4.953  1.00  0.00    -0.190 NA
HETATM    5  C13 UNL     1      -3.350   2.955  -2.910  1.00  0.00     0.043 A 
HETATM    6  C14 UNL     1      -3.901   2.109  -1.988  1.00  0.00     0.034 A 
HETATM    7  C15 UNL     1      -3.088   1.025  -1.732  1.00  0.00     0.050 A 
ENDROOT
BRANCH   1   8
HETATM    8  C10 UNL     1      -0.851   0.407  -2.678  1.00  0.00     0.253 C 
BRANCH   8   9
HETATM    9  N2  UNL     1       0.198   0.753  -1.722  1.00  0.00    -0.377 N 
HETATM   10  H15 UNL     1       1.142   1.078  -2.054  1.00  0.00     0.161 HD
BRANCH   9  11
HETATM   11  C9  UNL     1       0.132   0.714  -0.312  1.00  0.00     0.002 A 
HETATM   12  C8  UNL     1      -0.550   1.594   0.410  1.00  0.00     0.023 A 
HETATM   13  C7  UNL     1      -0.643   1.588   1.875  1.00  0.00    -0.013 A 
HETATM   14  C6  UNL     1       0.011   0.620   2.523  1.00  0.00    -0.076 A 
HETATM   15  B1  UNL     1       0.839  -0.465   1.798  1.00  0.00     0.212 B 
HETATM   16  C5  UNL     1       1.705  -1.563   2.538  1.00  0.00    -0.041 C 
HETATM   17  C20 UNL     1       0.923  -0.433   0.218  1.00  0.00     0.003 A 
HETATM   18  C4  UNL     1       3.077  -1.585   1.916  1.00  0.00     0.015 C 
HETATM   19  C3  UNL     1       3.318  -0.428   0.993  1.00  0.00     0.077 C 
HETATM   20  C21 UNL     1       2.374  -0.348  -0.165  1.00  0.00     0.026 C 
BRANCH  19  21
HETATM   21  N1  UNL     1       4.652  -0.467   0.490  1.00  0.00    -0.417 N 
HETATM   22  C1  UNL     1       5.686  -0.402   1.466  1.00  0.00     0.143 C 
HETATM   23  C2  UNL     1       4.912  -1.440  -0.525  1.00  0.00     0.143 C 
ENDBRANCH  19  21
ENDBRANCH   9  11
ENDBRANCH   8   9
ENDBRANCH   1   8
BRANCH   7  24
HETATM   24  C16 UNL     1      -3.405  -0.036  -0.801  1.00  0.00     0.027 A 
HETATM   25  C17 UNL     1      -2.786  -1.178  -0.373  1.00  0.00     0.153 A 
HETATM   26  N5  UNL     1      -3.552  -1.832   0.530  1.00  0.00    -0.185 NA
HETATM   27  N6  UNL     1      -4.678  -1.151   0.720  1.00  0.00    -0.285 N 
HETATM   28  C18 UNL     1      -5.740  -1.547   1.619  1.00  0.00     0.179 C 
HETATM   29  C19 UNL     1      -4.587  -0.080  -0.076  1.00  0.00     0.127 A 
ENDBRANCH   7  24
TORSDOF 5
