REMARK  7 active torsions:
REMARK  status: ('A' for Active; 'I' for Inactive)
REMARK    1  A    between atoms: O1_2  and  C2_3 
REMARK    2  A    between atoms: C6_9  and  C7_10 
REMARK    3  A    between atoms: C7_10  and  C8_11 
REMARK    4  A    between atoms: C16_21  and  C17_22 
REMARK    5  A    between atoms: C17_22  and  N3_23 
REMARK       I    between atoms: N3_23  and  C19_25 
REMARK    6  A    between atoms: C19_25  and  C20_27 
REMARK    7  A    between atoms: C20_27  and  N4_28 
ROOT
HETATM    1  C2  UNL     1      -1.780  -1.752   0.386  1.00  0.00     0.078 A 
HETATM    2  C3  UNL     1      -0.889  -2.359   1.245  1.00  0.00     0.070 A 
HETATM    3  C4  UNL     1       0.453  -2.021   1.204  1.00  0.00     0.073 A 
HETATM    4  N1  UNL     1       1.377  -2.584   2.031  1.00  0.00    -0.241 NA
HETATM    5  C5  UNL     1       2.669  -2.211   1.945  1.00  0.00     0.234 A 
HETATM    6  N2  UNL     1       3.086  -1.290   1.060  1.00  0.00    -0.245 NA
HETATM    7  C6  UNL     1       2.233  -0.711   0.233  1.00  0.00     0.052 A 
HETATM    8  C14 UNL     1       0.905  -1.078   0.305  1.00  0.00     0.018 A 
HETATM    9  C15 UNL     1      -0.041  -0.500  -0.538  1.00  0.00     0.027 A 
HETATM   10  C16 UNL     1      -1.403  -0.803  -0.538  1.00  0.00    -0.006 A 
ENDROOT
BRANCH   7  11
HETATM   11  C7  UNL     1       2.649   0.306  -0.758  1.00  0.00     0.102 C 
BRANCH  11  12
HETATM   12  C8  UNL     1       4.076   0.626  -0.725  1.00  0.00    -0.012 A 
HETATM   13  C9  UNL     1       4.951   0.140  -1.677  1.00  0.00     0.011 A 
HETATM   14  C10 UNL     1       6.307   0.348  -1.779  1.00  0.00     0.002 A 
HETATM   15  C11 UNL     1       6.842   1.160  -0.775  1.00  0.00     0.027 A 
HETATM   16  C12 UNL     1       6.026   1.676   0.202  1.00  0.00     0.073 A 
HETATM   17 CL1  UNL     1       6.766   2.699   1.445  1.00  0.00    -0.081 Cl
HETATM   18  C13 UNL     1       4.669   1.432   0.252  1.00  0.00     0.144 A 
HETATM   19  F1  UNL     1       3.879   1.948   1.223  1.00  0.00    -0.204 F 
ENDBRANCH  11  12
ENDBRANCH   7  11
BRANCH  10  20
HETATM   20  C17 UNL     1      -2.234  -0.067  -1.496  1.00  0.00     0.166 C 
BRANCH  20  21
HETATM   21  N3  UNL     1      -2.933   1.009  -0.848  1.00  0.00    -0.351 N 
HETATM   22  C18 UNL     1      -2.274   2.304  -0.781  1.00  0.00     0.153 C 
HETATM   23  C19 UNL     1      -4.214   0.975  -0.248  1.00  0.00     0.247 C 
HETATM   24  O2  UNL     1      -5.156   0.184  -0.034  1.00  0.00    -0.271 OA
BRANCH  23  25
HETATM   25  C20 UNL     1      -4.847   2.142   0.400  1.00  0.00     0.369 C 
BRANCH  25  26
HETATM   26  N4  UNL     1      -6.156   1.820   0.930  1.00  0.00     0.087 N 
HETATM   27  H19 UNL     1      -6.812   1.563   0.161  1.00  0.00     0.313 HD
HETATM   28  H20 UNL     1      -6.107   1.024   1.584  1.00  0.00     0.313 HD
ENDBRANCH  25  26
ENDBRANCH  23  25
ENDBRANCH  20  21
ENDBRANCH  10  20
BRANCH   1  29
HETATM   29  O1  UNL     1      -3.118  -2.071   0.407  1.00  0.00    -0.355 OA
HETATM   30  C1  UNL     1      -3.658  -3.024   1.296  1.00  0.00     0.210 C 
ENDBRANCH   1  29
TORSDOF 7
