REMARK  3 active torsions:
REMARK  status: ('A' for Active; 'I' for Inactive)
REMARK    1  A    between atoms: C2_2  and  C3_3 
REMARK       I    between atoms: C3_3  and  N1_5 
REMARK    2  A    between atoms: N1_5  and  C4_6 
REMARK    3  A    between atoms: C20_28  and  N7_29 
ROOT
HETATM    1  C4  UNL     1      -0.890   0.762  -1.022  1.00  0.00     0.068 C 
HETATM    2  C5  UNL     1       0.157   1.085  -1.722  1.00  0.00     0.165 C 
HETATM    3  O2  UNL     1       1.497   1.289  -1.500  1.00  0.00    -0.359 OA
HETATM    4  C6  UNL     1       2.066   1.963  -0.393  1.00  0.00     0.204 C 
HETATM    5  C7  UNL     1       3.543   2.105  -0.521  1.00  0.00     0.299 C 
HETATM    6  N2  UNL     1       4.343   0.939  -0.621  1.00  0.00     0.090 N 
HETATM    7  C8  UNL     1       5.762   1.301  -0.904  1.00  0.00     0.310 C 
HETATM    8  C9  UNL     1       4.424   0.228   0.633  1.00  0.00     0.318 C 
HETATM    9  C10 UNL     1       3.170  -0.436   1.023  1.00  0.00     0.119 C 
HETATM   10  N3  UNL     1       2.962  -1.498   0.283  1.00  0.00    -0.272 NA
HETATM   11  C11 UNL     1       1.719  -2.211   0.619  1.00  0.00     0.019 C 
HETATM   12  C12 UNL     1       1.826  -3.664   0.355  1.00  0.00     0.066 C 
HETATM   13  C13 UNL     1       0.443  -2.158   1.084  1.00  0.00     0.100 C 
HETATM   14  C14 UNL     1      -0.590  -1.279   1.591  1.00  0.00     0.048 C 
HETATM   15  C15 UNL     1      -1.697  -0.934   0.846  1.00  0.00     0.017 C 
HETATM   16  C16 UNL     1      -1.495   0.430   0.210  1.00  0.00     0.007 C 
HETATM   17  C17 UNL     1      -1.977   1.446   1.029  1.00  0.00     0.068 C 
HETATM   18  C18 UNL     1      -2.491   0.746   2.287  1.00  0.00     0.169 C 
HETATM   19  N4  UNL     1      -1.581   0.498   3.289  1.00  0.00    -0.155 NA
HETATM   20  N5  UNL     1      -0.625  -0.622   2.942  1.00  0.00    -0.279 N 
HETATM   21  N6  UNL     1      -3.881   0.212   2.276  1.00  0.00    -0.242 NA
HETATM   22  C19 UNL     1      -4.056  -0.957   1.566  1.00  0.00     0.132 C 
HETATM   23  C20 UNL     1      -2.963  -1.733   0.803  1.00  0.00     0.294 C 
HETATM   24  H21 UNL     1       0.129  -1.172   3.393  1.00  0.00     0.189 HD
ENDROOT
BRANCH   1  25
HETATM   25  N1  UNL     1      -2.103   0.672  -1.738  1.00  0.00    -0.321 N 
HETATM   26  C3  UNL     1      -3.394   1.165  -1.898  1.00  0.00     0.245 C 
HETATM   27  O1  UNL     1      -3.787   2.085  -1.155  1.00  0.00    -0.268 OA
HETATM   28  H4  UNL     1      -1.946  -0.119  -2.436  1.00  0.00     0.169 HD
BRANCH  26  29
HETATM   29  C2  UNL     1      -4.371   0.714  -2.871  1.00  0.00     0.064 C 
HETATM   30  C1  UNL     1      -5.414   1.479  -2.597  1.00  0.00     0.017 C 
ENDBRANCH  26  29
ENDBRANCH   1  25
BRANCH  23  31
HETATM   31  N7  UNL     1      -3.456  -1.976  -0.508  1.00  0.00     0.092 N 
HETATM   32  H24 UNL     1      -2.606  -2.004  -1.148  1.00  0.00     0.314 HD
HETATM   33  H25 UNL     1      -3.780  -2.996  -0.527  1.00  0.00     0.314 HD
ENDBRANCH  23  31
TORSDOF 3
