REMARK  7 active torsions:
REMARK  status: ('A' for Active; 'I' for Inactive)
REMARK    1  A    between atoms: N1_5  and  C4_6 
REMARK    2  A    between atoms: C7_9  and  P1_19 
REMARK    3  A    between atoms: C9_11  and  N2_12 
REMARK    4  A    between atoms: N2_12  and  C11_14 
REMARK    5  A    between atoms: C11_14  and  C12_15 
REMARK    6  A    between atoms: C12_15  and  N3_16 
REMARK    7  A    between atoms: P1_19  and  O2_20 
ROOT
HETATM    1  C4  UNL     1       1.665  -0.393  -0.369  1.00  0.00     0.062 A 
HETATM    2  C5  UNL     1       1.887  -0.400  -1.857  1.00  0.00    -0.015 A 
HETATM    3  C6  UNL     1       1.033  -0.955  -1.057  1.00  0.00     0.072 A 
HETATM    4  C7  UNL     1       0.960  -0.853   0.514  1.00  0.00     0.066 A 
HETATM    5  C8  UNL     1      -0.085  -1.590   1.235  1.00  0.00     0.044 A 
HETATM    6  C9  UNL     1       0.508  -1.240   0.105  1.00  0.00     0.058 A 
ENDROOT
BRANCH   6   7
HETATM    7  N2  UNL     1      -0.645  -2.279  -0.215  1.00  0.00    -0.404 N 
HETATM    8  C10 UNL     1      -0.407  -3.719  -0.463  1.00  0.00     0.144 C 
BRANCH   7   9
HETATM    9  C11 UNL     1      -2.032  -1.811  -0.392  1.00  0.00     0.147 C 
BRANCH   9  10
HETATM   10  C12 UNL     1      -2.175  -0.318  -0.188  1.00  0.00     0.290 C 
BRANCH  10  11
HETATM   11  N3  UNL     1      -3.582  -0.015  -0.392  1.00  0.00     0.081 N 
HETATM   12  C13 UNL     1      -4.425  -0.585   0.630  1.00  0.00     0.309 C 
HETATM   13  C14 UNL     1      -3.861   1.396  -0.489  1.00  0.00     0.309 C 
ENDBRANCH  10  11
ENDBRANCH   9  10
ENDBRANCH   7   9
ENDBRANCH   6   7
BRANCH   1  14
HETATM   14  N1  UNL     1       2.861   0.530  -0.315  1.00  0.00    -0.237 NA
HETATM   15  C3  UNL     1       3.444   1.097   0.801  1.00  0.00     0.107 A 
HETATM   16  C2  UNL     1       4.501   1.732   0.075  1.00  0.00     0.026 A 
HETATM   17  O1  UNL     1       4.131   1.702   1.656  1.00  0.00     0.000 OA
HETATM   18  P1  UNL     1       2.134   0.397   1.352  1.00  0.00     0.082 P 
HETATM   19  C1  UNL     1       5.167   2.372   1.003  1.00  0.00     0.008 A 
BRANCH  18  20
HETATM   20  O2  UNL     1       1.230   1.791   1.826  1.00  0.00    -0.357 OA
HETATM   21  C15 UNL     1       1.172   2.786   0.874  1.00  0.00     0.208 C 
ENDBRANCH  18  20
ENDBRANCH   1  14
TORSDOF 7
