REMARK  5 active torsions:
REMARK  status: ('A' for Active; 'I' for Inactive)
REMARK    1  A    between atoms: C3_4  and  C4_5 
REMARK    2  A    between atoms: C4_5  and  S1_6 
REMARK    3  A    between atoms: S1_6  and  N2_7 
REMARK    4  A    between atoms: N2_7  and  C5_8 
REMARK    5  A    between atoms: C7_12  and  C8_13 
ROOT
HETATM    1  C1  UNL     1       1.542  -2.988   1.054  1.00  0.00     0.153 C 
HETATM    2  N1  UNL     1       0.882  -1.720   0.964  1.00  0.00    -0.348 N 
HETATM    3  C2  UNL     1       1.525  -0.576   1.628  1.00  0.00     0.161 C 
HETATM    4  C3  UNL     1       1.311   0.649   0.789  1.00  0.00    -0.044 C 
HETATM    5  C6  UNL     1       0.012   0.827   0.165  1.00  0.00     0.023 C 
HETATM    6  C7  UNL     1      -0.848  -0.123  -0.143  1.00  0.00     0.046 C 
HETATM    7  C14 UNL     1      -0.337  -1.414   0.300  1.00  0.00     0.254 C 
HETATM    8  O1  UNL     1      -0.941  -2.506   0.155  1.00  0.00    -0.267 OA
ENDROOT
BRANCH   6   9
HETATM    9  C8  UNL     1      -2.106   0.121  -0.750  1.00  0.00     0.023 A 
HETATM   10  C9  UNL     1      -2.913  -0.702  -1.493  1.00  0.00     0.046 A 
HETATM   11 CL1  UNL     1      -2.285  -2.251  -2.021  1.00  0.00    -0.083 Cl
HETATM   12  C10 UNL     1      -4.175  -0.474  -1.965  1.00  0.00     0.025 A 
HETATM   13  C11 UNL     1      -4.777   0.746  -1.689  1.00  0.00     0.003 A 
HETATM   14  C12 UNL     1      -4.024   1.655  -0.934  1.00  0.00     0.025 A 
HETATM   15  C13 UNL     1      -2.734   1.341  -0.486  1.00  0.00     0.046 A 
HETATM   16 CL2  UNL     1      -2.184   2.717   0.452  1.00  0.00    -0.083 Cl
ENDBRANCH   6   9
BRANCH   4  17
HETATM   17  C4  UNL     1       2.353   1.455   0.695  1.00  0.00     0.246 C 
BRANCH  17  18
HETATM   18  S1  UNL     1       3.530   2.717   0.371  1.00  0.00    -0.123 SA
BRANCH  18  19
HETATM   19  N2  UNL     1       5.144   2.020   0.261  1.00  0.00    -0.211 NA
BRANCH  19  20
HETATM   20  C5  UNL     1       5.620   1.206   1.169  1.00  0.00     0.357 A 
HETATM   21  N3  UNL     1       4.412   1.406   1.747  1.00  0.00    -0.124 NA
HETATM   22  N4  UNL     1       5.365   0.575   2.330  1.00  0.00    -0.124 NA
ENDBRANCH  19  20
ENDBRANCH  18  19
ENDBRANCH  17  18
ENDBRANCH   4  17
TORSDOF 5
