REMARK  5 active torsions:
REMARK  status: ('A' for Active; 'I' for Inactive)
REMARK    1  A    between atoms: C2_2  and  N1_3 
REMARK    2  A    between atoms: C4_5  and  N2_6 
REMARK    3  A    between atoms: N2_6  and  C6_8 
REMARK    4  A    between atoms: C6_8  and  C7_9 
REMARK    5  A    between atoms: C7_9  and  N3_10 
ROOT
HETATM    1  N1  UNL     1       0.055   2.998   0.201  1.00  0.00    -0.265 N 
HETATM    2  C3  UNL     1      -0.755   2.345  -0.798  1.00  0.00     0.212 C 
HETATM    3  C4  UNL     1      -0.794   0.868  -0.682  1.00  0.00     0.034 C 
HETATM    4  C10 UNL     1      -0.345   0.122  -1.680  1.00  0.00     0.001 C 
HETATM    5  C11 UNL     1       0.195   0.661  -2.920  1.00  0.00     0.208 C 
HETATM    6  O1  UNL     1      -0.264  -0.478  -3.636  1.00  0.00    -0.372 OA
HETATM    7  C12 UNL     1      -0.012  -1.137  -2.403  1.00  0.00     0.189 C 
HETATM    8  C13 UNL     1       1.367  -1.616  -2.272  1.00  0.00    -0.010 A 
HETATM    9  C14 UNL     1       1.950  -1.874  -3.531  1.00  0.00     0.030 A 
HETATM   10  C15 UNL     1       3.224  -2.348  -3.856  1.00  0.00     0.117 A 
HETATM   11  N4  UNL     1       4.042  -2.607  -2.820  1.00  0.00    -0.272 NA
HETATM   12  C16 UNL     1       3.511  -2.369  -1.582  1.00  0.00     0.130 A 
HETATM   13  C17 UNL     1       2.233  -1.892  -1.243  1.00  0.00     0.019 A 
HETATM   14  C18 UNL     1       2.206  -1.837   0.217  1.00  0.00     0.071 A 
HETATM   15  C19 UNL     1       1.956  -3.044   0.893  1.00  0.00     0.035 A 
HETATM   16  C20 UNL     1       1.972  -2.842   2.286  1.00  0.00     0.035 A 
HETATM   17  C21 UNL     1       2.241  -1.483   2.328  1.00  0.00     0.076 A 
HETATM   18  C22 UNL     1       2.380  -0.708   3.484  1.00  0.00     0.150 A 
HETATM   19  N5  UNL     1       2.653   0.625   3.351  1.00  0.00    -0.241 NA
HETATM   20  C23 UNL     1       2.778   1.151   2.101  1.00  0.00     0.148 A 
HETATM   21  N6  UNL     1       2.638   0.378   1.008  1.00  0.00    -0.151 NA
HETATM   22  N7  UNL     1       2.376  -0.904   1.127  1.00  0.00    -0.230 N 
HETATM   23  C24 UNL     1       3.074   2.616   1.936  1.00  0.00     0.111 C 
HETATM   24  C25 UNL     1       2.159   3.071   0.794  1.00  0.00     0.209 C 
HETATM   25  O2  UNL     1       0.860   2.808   1.248  1.00  0.00    -0.278 OA
ENDROOT
BRANCH   3  26
HETATM   26  N2  UNL     1      -1.292   0.028   0.331  1.00  0.00    -0.385 N 
HETATM   27  C5  UNL     1      -0.980  -0.081   1.757  1.00  0.00     0.149 C 
BRANCH  26  28
HETATM   28  C6  UNL     1      -2.339  -0.917  -0.047  1.00  0.00     0.152 C 
BRANCH  28  29
HETATM   29  C7  UNL     1      -3.597  -0.389   0.659  1.00  0.00     0.291 C 
BRANCH  29  30
HETATM   30  N3  UNL     1      -4.675  -1.294   0.310  1.00  0.00     0.081 N 
HETATM   31  C8  UNL     1      -5.862  -0.776   0.973  1.00  0.00     0.309 C 
HETATM   32  C9  UNL     1      -4.373  -2.612   0.801  1.00  0.00     0.309 C 
ENDBRANCH  29  30
ENDBRANCH  28  29
ENDBRANCH  26  28
ENDBRANCH   3  26
BRANCH   1  33
HETATM   33  C2  UNL     1      -0.035   4.422  -0.028  1.00  0.00     0.107 C 
HETATM   34  C1  UNL     1       0.668   4.837  -1.046  1.00  0.00     0.032 C 
ENDBRANCH   1  33
TORSDOF 5
