REMARK  6 active torsions:
REMARK  status: ('A' for Active; 'I' for Inactive)
REMARK    1  A    between atoms: C2_2  and  C3_3 
REMARK       I    between atoms: C3_3  and  N1_5 
REMARK    2  A    between atoms: N1_5  and  C4_6 
REMARK    3  A    between atoms: C9_11  and  N2_12 
REMARK    4  A    between atoms: N2_12  and  C11_14 
REMARK    5  A    between atoms: C11_14  and  C12_15 
REMARK    6  A    between atoms: C12_15  and  N3_16 
ROOT
HETATM    1  C4  UNL     1       0.612  -0.187   1.104  1.00  0.00     0.062 A 
HETATM    2  C5  UNL     1       1.914   0.208   0.862  1.00  0.00     0.043 A 
HETATM    3  C6  UNL     1       2.579   0.108  -0.337  1.00  0.00    -0.002 A 
HETATM    4  C7  UNL     1       1.909  -0.428  -1.401  1.00  0.00     0.087 A 
HETATM    5  C8  UNL     1       0.601  -0.838  -1.205  1.00  0.00     0.069 A 
HETATM    6  C9  UNL     1      -0.062  -0.729   0.024  1.00  0.00     0.059 A 
HETATM    7  O2  UNL     1       2.260  -0.669  -2.710  1.00  0.00    -0.302 OA
HETATM    8  C15 UNL     1       3.521  -0.932  -3.197  1.00  0.00     0.280 C 
HETATM    9  N4  UNL     1       4.785  -1.161  -3.351  1.00  0.00    -0.167 NA
HETATM   10  N5  UNL     1       5.648  -1.194  -2.237  1.00  0.00    -0.308 N 
HETATM   11  C16 UNL     1       6.293   0.093  -2.335  1.00  0.00     0.188 C 
HETATM   12  C17 UNL     1       5.251   1.143  -2.306  1.00  0.00     0.104 C 
HETATM   13  N6  UNL     1       4.273   1.393  -1.530  1.00  0.00    -0.299 NA
HETATM   14  C18 UNL     1       3.979   0.591  -0.399  1.00  0.00     0.189 C 
HETATM   15  H21 UNL     1       5.474  -2.106  -1.807  1.00  0.00     0.182 HD
ENDROOT
BRANCH   6  16
HETATM   16  N2  UNL     1      -1.413  -1.150   0.232  1.00  0.00    -0.382 N 
HETATM   17  C10 UNL     1      -1.845  -2.147   1.212  1.00  0.00     0.150 C 
BRANCH  16  18
HETATM   18  C11 UNL     1      -2.469  -0.570  -0.576  1.00  0.00     0.152 C 
BRANCH  18  19
HETATM   19  C12 UNL     1      -3.416   0.303   0.184  1.00  0.00     0.291 C 
BRANCH  19  20
HETATM   20  N3  UNL     1      -4.400   0.803  -0.741  1.00  0.00     0.081 N 
HETATM   21  C13 UNL     1      -5.300  -0.177  -1.264  1.00  0.00     0.309 C 
HETATM   22  C14 UNL     1      -5.171   1.917  -0.234  1.00  0.00     0.309 C 
ENDBRANCH  19  20
ENDBRANCH  18  19
ENDBRANCH  16  18
ENDBRANCH   6  16
BRANCH   1  23
HETATM   23  N1  UNL     1       0.043  -0.026   2.412  1.00  0.00    -0.322 N 
HETATM   24  C3  UNL     1      -0.619   1.191   2.781  1.00  0.00     0.244 C 
HETATM   25  O1  UNL     1      -0.692   2.122   1.937  1.00  0.00    -0.268 OA
HETATM   26  H4  UNL     1       0.075  -0.769   3.162  1.00  0.00     0.169 HD
BRANCH  24  27
HETATM   27  C2  UNL     1      -1.194   1.340   4.108  1.00  0.00     0.064 C 
HETATM   28  C1  UNL     1      -1.123   0.381   4.989  1.00  0.00     0.017 C 
ENDBRANCH  24  27
ENDBRANCH   1  23
TORSDOF 6
