REMARK  4 active torsions:
REMARK  status: ('A' for Active; 'I' for Inactive)
REMARK    1  A    between atoms: C3_3  and  N1_5 
REMARK    2  A    between atoms: N1_5  and  C4_6 
REMARK    3  A    between atoms: C4_6  and  C6_8 
REMARK    4  A    between atoms: C8_10  and  O2_11 
ROOT
HETATM    1  C6  UNL     1       1.135  -0.831   0.509  1.00  0.00     0.049 C 
HETATM    2  C7  UNL     1       0.634  -0.613  -0.671  1.00  0.00     0.112 C 
HETATM    3  C8  UNL     1       1.148  -0.310  -2.072  1.00  0.00     0.067 C 
HETATM    4  C10 UNL     1       0.050  -0.183  -2.844  1.00  0.00     0.098 C 
HETATM    5  N2  UNL     1      -1.349  -0.220  -2.835  1.00  0.00    -0.234 NA
HETATM    6  C11 UNL     1      -2.592   0.386  -2.550  1.00  0.00     0.224 A 
HETATM    7  N3  UNL     1      -3.487   0.829  -3.470  1.00  0.00    -0.227 NA
HETATM    8  C12 UNL     1      -4.635   1.374  -2.975  1.00  0.00     0.151 A 
HETATM    9  C13 UNL     1      -5.020   1.542  -1.670  1.00  0.00     0.076 A 
HETATM   10  C14 UNL     1      -5.946   1.982  -0.761  1.00  0.00     0.035 A 
HETATM   11  C15 UNL     1      -5.497   1.752   0.530  1.00  0.00     0.035 A 
HETATM   12  C16 UNL     1      -4.269   1.159   0.463  1.00  0.00     0.070 A 
HETATM   13  N4  UNL     1      -4.068   1.074  -0.861  1.00  0.00    -0.229 N 
HETATM   14  N5  UNL     1      -2.975   0.552  -1.287  1.00  0.00    -0.133 NA
HETATM   15  C17 UNL     1      -3.236   0.672   1.364  1.00  0.00     0.012 A 
HETATM   16  C18 UNL     1      -3.378   0.888   2.695  1.00  0.00     0.130 A 
HETATM   17  N6  UNL     1      -2.484   0.495   3.638  1.00  0.00    -0.270 NA
HETATM   18  C19 UNL     1      -1.384  -0.157   3.173  1.00  0.00     0.145 A 
HETATM   19  C20 UNL     1      -1.154  -0.424   1.820  1.00  0.00     0.052 A 
HETATM   20  C21 UNL     1      -2.131   0.020   0.928  1.00  0.00     0.046 A 
HETATM   21  N7  UNL     1       0.030  -1.152   1.400  1.00  0.00    -0.351 N 
HETATM   22  C22 UNL     1      -0.082  -2.446   2.078  1.00  0.00     0.156 C 
HETATM   23  H12 UNL     1      -1.003   0.729  -2.426  1.00  0.00     0.136 HD
ENDROOT
BRANCH   1  24
HETATM   24  C4  UNL     1       2.233  -0.965   1.411  1.00  0.00     0.048 C 
HETATM   25  C5  UNL     1       2.675  -1.179   2.535  1.00  0.00     0.045 C 
BRANCH  24  26
HETATM   26  N1  UNL     1       3.401  -0.724   0.586  1.00  0.00    -0.336 N 
HETATM   27  H4  UNL     1       3.572  -0.476  -0.441  1.00  0.00     0.168 HD
BRANCH  26  28
HETATM   28  C3  UNL     1       4.765  -0.732   0.967  1.00  0.00     0.141 A 
HETATM   29  C2  UNL     1       6.071  -0.523   0.330  1.00  0.00     0.056 A 
HETATM   30  C1  UNL     1       6.580  -0.755   1.521  1.00  0.00     0.209 A 
HETATM   31  O1  UNL     1       5.200  -0.953   2.121  1.00  0.00    -0.332 OA
ENDBRANCH  26  28
ENDBRANCH  24  26
ENDBRANCH   1  24
BRANCH   3  32
HETATM   32  O2  UNL     1       2.282  -0.100  -2.918  1.00  0.00    -0.358 OA
HETATM   33  C9  UNL     1       2.695   1.242  -3.158  1.00  0.00     0.209 C 
ENDBRANCH   3  32
TORSDOF 4
