REMARK  6 active torsions:
REMARK  status: ('A' for Active; 'I' for Inactive)
REMARK    1  A    between atoms: N1_2  and  C2_3 
REMARK    2  A    between atoms: C5_6  and  C6_7 
REMARK    3  A    between atoms: C6_7  and  O1_8 
REMARK    4  A    between atoms: C8_10  and  N2_11 
REMARK    5  A    between atoms: N2_11  and  C9_12 
REMARK    6  A    between atoms: C14_18  and  C15_19 
ROOT
HETATM    1  N2  UNL     1       0.079  -0.420  -0.361  1.00  0.00    -0.186 N 
HETATM    2  H10 UNL     1       0.189  -1.462  -0.460  1.00  0.00     0.184 HD
ENDROOT
BRANCH   1   3
HETATM    3  C8  UNL     1      -1.300  -0.080  -0.365  1.00  0.00     0.060 A 
HETATM    4  C5  UNL     1      -2.355  -0.997  -0.512  1.00  0.00    -0.007 A 
HETATM    5  C4  UNL     1      -3.622  -0.460  -0.489  1.00  0.00     0.014 A 
HETATM    6  C3  UNL     1      -3.966   0.859  -0.340  1.00  0.00     0.032 A 
HETATM    7  C2  UNL     1      -2.923   1.752  -0.197  1.00  0.00     0.057 A 
HETATM    8  C16 UNL     1      -1.615   1.276  -0.211  1.00  0.00     0.062 A 
BRANCH   4   9
HETATM    9  C6  UNL     1      -2.012  -2.419  -0.707  1.00  0.00     0.207 C 
BRANCH   9  10
HETATM   10  O1  UNL     1      -3.063  -3.288  -0.551  1.00  0.00    -0.391 OA
HETATM   11  C7  UNL     1      -3.557  -3.343   0.736  1.00  0.00     0.201 C 
ENDBRANCH   9  10
ENDBRANCH   4   9
BRANCH   7  12
HETATM   12  N1  UNL     1      -3.193   3.144  -0.048  1.00  0.00    -0.272 NA
HETATM   13  C1  UNL     1      -4.348   3.649   0.101  1.00  0.00     0.149 C 
ENDBRANCH   7  12
ENDBRANCH   1   3
BRANCH   1  14
HETATM   14  C9  UNL     1       1.263   0.354  -0.260  1.00  0.00     0.744 A 
HETATM   15  N3  UNL     1       1.341   1.686  -0.215  1.00  0.00    -0.071 NA
HETATM   16  C10 UNL     1       2.473   2.401  -0.110  1.00  0.00     0.168 A 
HETATM   17  C11 UNL     1       3.590   1.602  -0.052  1.00  0.00     0.077 A 
HETATM   18  C12 UNL     1       4.941   1.926   0.061  1.00  0.00     0.035 A 
HETATM   19  N4  UNL     1       3.583   0.266  -0.091  1.00  0.00    -0.220 N 
HETATM   20  C13 UNL     1       5.690   0.764   0.086  1.00  0.00     0.030 A 
HETATM   21  C14 UNL     1       4.806  -0.289  -0.013  1.00  0.00     0.047 A 
HETATM   22  N5  UNL     1       2.409  -0.318  -0.195  1.00  0.00     0.026 NA
BRANCH  21  23
HETATM   23  C15 UNL     1       5.047  -1.778  -0.029  1.00  0.00     0.144 C 
HETATM   24 BR1  UNL     1       4.949  -2.481   1.768  1.00  0.00    -0.090 Br
ENDBRANCH  21  23
ENDBRANCH   1  14
TORSDOF 6
