REMARK  9 active torsions:
REMARK  status: ('A' for Active; 'I' for Inactive)
REMARK    1  A    between atoms: O1_2  and  C2_3 
REMARK    2  A    between atoms: C2_3  and  C3_4 
REMARK    3  A    between atoms: C3_4  and  C4_5 
REMARK    4  A    between atoms: C3_4  and  N2_8 
REMARK       I    between atoms: C4_5  and  N1_6 
REMARK    5  A    between atoms: N2_8  and  C6_10 
REMARK    6  A    between atoms: C6_10  and  C7_11 
REMARK    7  A    between atoms: C10_14  and  N3_15 
REMARK    8  A    between atoms: N3_15  and  C11_16 
REMARK    9  A    between atoms: C20_29  and  O3_30 
ROOT
HETATM    1  C7  UNL     1      -0.519  -1.350  -0.482  1.00  0.00    -0.006 A 
HETATM    2  C8  UNL     1       0.705  -0.723  -0.415  1.00  0.00     0.029 A 
HETATM    3  C9  UNL     1       1.864  -1.291   0.063  1.00  0.00     0.039 A 
HETATM    4  C10 UNL     1       3.079  -0.646   0.121  1.00  0.00     0.142 A 
HETATM    5  N4  UNL     1       4.040  -1.396   0.618  1.00  0.00    -0.224 NA
HETATM    6  C17 UNL     1       3.936  -2.646   1.039  1.00  0.00     0.236 A 
HETATM    7  N5  UNL     1       2.748  -3.268   0.979  1.00  0.00    -0.241 NA
HETATM    8  C18 UNL     1       1.706  -2.590   0.489  1.00  0.00     0.074 A 
HETATM    9  C19 UNL     1       0.510  -3.271   0.448  1.00  0.00     0.070 A 
HETATM   10  C20 UNL     1      -0.621  -2.653  -0.042  1.00  0.00     0.078 A 
ENDROOT
BRANCH   1  11
HETATM   11  C6  UNL     1      -1.730  -0.664  -1.014  1.00  0.00     0.159 C 
BRANCH  11  12
HETATM   12  N2  UNL     1      -2.633  -0.248  -0.016  1.00  0.00    -0.399 N 
HETATM   13  C5  UNL     1      -2.184  -0.003   1.286  1.00  0.00     0.144 C 
BRANCH  12  14
HETATM   14  C3  UNL     1      -3.829   0.426  -0.457  1.00  0.00     0.189 C 
BRANCH  14  15
HETATM   15  C2  UNL     1      -5.013   0.129   0.383  1.00  0.00     0.201 C 
BRANCH  15  16
HETATM   16  O1  UNL     1      -6.164   0.667  -0.070  1.00  0.00    -0.393 OA
HETATM   17  C1  UNL     1      -6.286   2.015  -0.256  1.00  0.00     0.201 C 
ENDBRANCH  15  16
ENDBRANCH  14  15
BRANCH  14  18
HETATM   18  C4  UNL     1      -3.448   1.899  -0.389  1.00  0.00     0.219 C 
HETATM   19  N1  UNL     1      -2.081   2.269  -0.039  1.00  0.00    -0.271 NA
HETATM   20  H7  UNL     1      -1.047   2.161  -0.260  1.00  0.00     0.127 HD
HETATM   21  H8  UNL     1      -1.049   2.146  -0.278  1.00  0.00     0.127 HD
HETATM   22  O2  UNL     1      -3.338   3.178  -0.387  1.00  0.00    -0.278 OA
ENDBRANCH  14  18
ENDBRANCH  12  14
ENDBRANCH  11  12
ENDBRANCH   1  11
BRANCH  10  23
HETATM   23  O3  UNL     1      -1.820  -3.353  -0.077  1.00  0.00    -0.355 OA
HETATM   24  C21 UNL     1      -1.914  -4.685   0.376  1.00  0.00     0.210 C 
ENDBRANCH  10  23
BRANCH   4  25
HETATM   25  N3  UNL     1       3.177   0.690  -0.329  1.00  0.00    -0.338 N 
HETATM   26  H15 UNL     1       2.355   1.204  -0.698  1.00  0.00     0.167 HD
BRANCH  25  27
HETATM   27  C11 UNL     1       4.321   1.522  -0.362  1.00  0.00     0.074 A 
HETATM   28  C12 UNL     1       5.552   1.087   0.069  1.00  0.00     0.033 A 
HETATM   29  C13 UNL     1       6.701   1.848   0.063  1.00  0.00     0.004 A 
HETATM   30  C14 UNL     1       6.646   3.160  -0.409  1.00  0.00     0.027 A 
HETATM   31  C15 UNL     1       5.432   3.626  -0.847  1.00  0.00     0.074 A 
HETATM   32 CL1  UNL     1       5.322   5.249  -1.439  1.00  0.00    -0.081 Cl
HETATM   33  C16 UNL     1       4.340   2.810  -0.808  1.00  0.00     0.164 A 
HETATM   34  F1  UNL     1       3.174   3.344  -1.259  1.00  0.00    -0.202 F 
ENDBRANCH  25  27
ENDBRANCH   4  25
TORSDOF 9
