REMARK  5 active torsions:
REMARK  status: ('A' for Active; 'I' for Inactive)
REMARK    1  A    between atoms: O1_2  and  C2_3 
REMARK    2  A    between atoms: C17_22  and  N5_23 
REMARK    3  A    between atoms: N5_23  and  C19_25 
REMARK    4  A    between atoms: C19_25  and  C20_26 
REMARK    5  A    between atoms: C20_26  and  N6_27 
ROOT
HETATM    1  C2  UNL     1       0.468   1.138   0.349  1.00  0.00     0.095 C 
HETATM    2  C3  UNL     1      -0.262   2.055  -0.325  1.00  0.00     0.140 C 
HETATM    3  N1  UNL     1      -0.932   2.203  -1.582  1.00  0.00    -0.194 N 
HETATM    4  C4  UNL     1      -2.301   1.789  -1.691  1.00  0.00     0.743 A 
HETATM    5  N2  UNL     1      -3.254   2.486  -2.333  1.00  0.00    -0.071 NA
HETATM    6  C5  UNL     1      -4.543   2.016  -2.386  1.00  0.00     0.168 A 
HETATM    7  C6  UNL     1      -4.885   0.815  -1.777  1.00  0.00     0.077 A 
HETATM    8  C7  UNL     1      -5.985   0.027  -1.597  1.00  0.00     0.035 A 
HETATM    9  C8  UNL     1      -5.611  -1.085  -0.860  1.00  0.00     0.034 A 
HETATM   10  C9  UNL     1      -4.251  -0.921  -0.614  1.00  0.00     0.065 A 
HETATM   11  N3  UNL     1      -3.850   0.187  -1.155  1.00  0.00    -0.216 N 
HETATM   12  N4  UNL     1      -2.625   0.610  -1.092  1.00  0.00     0.027 NA
HETATM   13  C10 UNL     1      -3.358  -1.808   0.121  1.00  0.00    -0.033 C 
HETATM   14  C11 UNL     1      -2.103  -1.794  -0.295  1.00  0.00    -0.013 C 
HETATM   15  C12 UNL     1      -1.162  -1.464   0.768  1.00  0.00     0.011 C 
HETATM   16  C13 UNL     1      -1.379  -2.457   1.901  1.00  0.00     0.009 C 
HETATM   17  C14 UNL     1      -2.814  -2.448   2.369  1.00  0.00     0.005 C 
HETATM   18  C15 UNL     1      -3.812  -2.664   1.250  1.00  0.00     0.040 C 
HETATM   19  C16 UNL     1       0.250  -1.350   0.416  1.00  0.00     0.051 C 
HETATM   20  C17 UNL     1       0.705  -0.148  -0.344  1.00  0.00     0.280 C 
HETATM   21  H5  UNL     1      -0.553   2.587  -2.476  1.00  0.00     0.183 HD
ENDROOT
BRANCH  20  22
HETATM   22  N5  UNL     1       2.118  -0.233  -0.639  1.00  0.00     0.097 N 
HETATM   23  C18 UNL     1       2.395  -1.462  -1.370  1.00  0.00     0.310 C 
BRANCH  22  24
HETATM   24  C19 UNL     1       3.014  -0.008   0.434  1.00  0.00     0.303 C 
BRANCH  24  25
HETATM   25  C20 UNL     1       4.481  -0.172  -0.012  1.00  0.00     0.301 C 
BRANCH  25  26
HETATM   26  N6  UNL     1       4.765   0.801  -1.070  1.00  0.00     0.081 N 
HETATM   27  C21 UNL     1       6.167   0.561  -1.427  1.00  0.00     0.309 C 
HETATM   28  C22 UNL     1       4.723   2.124  -0.464  1.00  0.00     0.309 C 
ENDBRANCH  25  26
ENDBRANCH  24  25
ENDBRANCH  22  24
ENDBRANCH  20  22
BRANCH   1  29
HETATM   29  O1  UNL     1       0.917   1.494   1.607  1.00  0.00    -0.357 OA
HETATM   30  C1  UNL     1       1.053   2.861   1.943  1.00  0.00     0.209 C 
ENDBRANCH   1  29
TORSDOF 5
