REMARK  3 active torsions:
REMARK  status: ('A' for Active; 'I' for Inactive)
REMARK    1  A    between atoms: O1_2  and  C2_3 
REMARK    2  A    between atoms: N1_5  and  C4_6 
REMARK    3  A    between atoms: C9_12  and  C10_13 
ROOT
HETATM    1  C2  UNL     1      -1.371  -2.245  -0.654  1.00  0.00     0.069 C 
HETATM    2  C3  UNL     1      -0.082  -2.034  -0.387  1.00  0.00     0.142 C 
HETATM    3  N1  UNL     1       0.847  -1.081   0.104  1.00  0.00    -0.184 N 
HETATM    4  C15 UNL     1       0.665   0.134   0.816  1.00  0.00     0.177 C 
HETATM    5  C16 UNL     1       0.119   1.214  -0.061  1.00  0.00     0.290 C 
HETATM    6  N6  UNL     1      -1.108   0.943  -0.710  1.00  0.00     0.093 N 
HETATM    7  C17 UNL     1      -2.254   0.850   0.176  1.00  0.00     0.272 C 
HETATM    8  C18 UNL     1      -3.195   1.993   0.007  1.00  0.00     0.309 C 
HETATM    9  N7  UNL     1      -4.352   1.736   0.871  1.00  0.00     0.087 N 
HETATM   10  C19 UNL     1      -4.419   2.629   1.994  1.00  0.00     0.310 C 
HETATM   11  C20 UNL     1      -5.583   1.701   0.104  1.00  0.00     0.291 C 
HETATM   12  C21 UNL     1      -5.511   0.552  -0.874  1.00  0.00     0.147 C 
HETATM   13  N8  UNL     1      -4.461  -0.405  -0.453  1.00  0.00    -0.407 N 
HETATM   14  C22 UNL     1      -4.908  -1.741  -0.054  1.00  0.00     0.143 C 
HETATM   15  C23 UNL     1      -3.012  -0.444  -0.277  1.00  0.00     0.054 C 
HETATM   16  C24 UNL     1      -2.771  -1.776  -0.694  1.00  0.00     0.149 C 
HETATM   17  H16 UNL     1      -1.304   1.551  -1.507  1.00  0.00     0.316 HD
ENDROOT
BRANCH   3  18
HETATM   18  C4  UNL     1       2.196  -1.422  -0.194  1.00  0.00     0.745 A 
HETATM   19  N2  UNL     1       2.598  -2.543  -0.811  1.00  0.00    -0.071 NA
HETATM   20  C5  UNL     1       3.864  -2.866  -1.098  1.00  0.00     0.168 A 
HETATM   21  C6  UNL     1       4.880  -2.004  -0.749  1.00  0.00     0.077 A 
HETATM   22  C7  UNL     1       6.251  -1.965  -0.860  1.00  0.00     0.035 A 
HETATM   23  N4  UNL     1       4.474  -0.882  -0.132  1.00  0.00    -0.216 N 
HETATM   24  C8  UNL     1       6.654  -0.768  -0.281  1.00  0.00     0.035 A 
HETATM   25  C9  UNL     1       5.528  -0.102   0.171  1.00  0.00     0.071 A 
HETATM   26  N5  UNL     1       3.211  -0.612   0.128  1.00  0.00     0.027 NA
BRANCH  25  27
HETATM   27  C10 UNL     1       5.645   1.200   0.831  1.00  0.00     0.010 A 
HETATM   28  C11 UNL     1       4.772   2.234   0.478  1.00  0.00     0.017 A 
HETATM   29  C12 UNL     1       4.891   3.457   1.107  1.00  0.00     0.020 A 
HETATM   30  C13 UNL     1       5.846   3.681   2.071  1.00  0.00     0.116 A 
HETATM   31  N3  UNL     1       6.683   2.681   2.406  1.00  0.00    -0.272 NA
HETATM   32  C14 UNL     1       6.601   1.468   1.815  1.00  0.00     0.130 A 
ENDBRANCH  25  27
ENDBRANCH   3  18
BRANCH   1  33
HETATM   33  O1  UNL     1      -2.000  -3.394  -1.171  1.00  0.00    -0.358 OA
HETATM   34  C1  UNL     1      -2.148  -4.587  -0.447  1.00  0.00     0.209 C 
ENDBRANCH   1  33
TORSDOF 3
