REMARK  1 active torsions:
REMARK  status: ('A' for Active; 'I' for Inactive)
REMARK    1  A    between atoms: O1_2  and  C2_3 
REMARK       I    between atoms: C4_6  and  N2_7 
ROOT
HETATM    1  C2  UNL     1      -0.287   1.273   1.418  1.00  0.00     0.085 C 
HETATM    2  C3  UNL     1       0.880   0.810   1.003  1.00  0.00     0.143 C 
HETATM    3  N1  UNL     1       1.859  -0.218   1.023  1.00  0.00    -0.194 N 
HETATM    4  C4  UNL     1       2.753  -0.401  -0.055  1.00  0.00     0.745 C 
HETATM    5  N2  UNL     1       3.708   0.408   0.599  1.00  0.00    -0.044 NA
HETATM    6  C5  UNL     1       4.976   0.274   0.442  1.00  0.00     0.324 C 
HETATM    7  F1  UNL     1       5.598   1.193   1.203  1.00  0.00    -0.198 F 
HETATM    8  N3  UNL     1       2.617  -1.055  -1.117  1.00  0.00     0.026 NA
HETATM    9  N4  UNL     1       1.505  -1.783  -1.490  1.00  0.00    -0.229 N 
HETATM   10  C6  UNL     1       1.870  -3.027  -1.915  1.00  0.00     0.119 A 
HETATM   11  C7  UNL     1       0.772  -3.797  -2.315  1.00  0.00     0.022 A 
HETATM   12  C8  UNL     1      -0.286  -2.900  -2.089  1.00  0.00     0.034 A 
HETATM   13  C9  UNL     1       0.190  -1.677  -1.584  1.00  0.00     0.072 A 
HETATM   14  C10 UNL     1      -0.867  -0.708  -1.337  1.00  0.00     0.040 A 
HETATM   15  C11 UNL     1      -1.253   0.175  -2.346  1.00  0.00     0.155 A 
HETATM   16  N5  UNL     1      -2.288   0.985  -1.947  1.00  0.00    -0.184 NA
HETATM   17  N6  UNL     1      -2.506   0.562  -0.682  1.00  0.00    -0.274 N 
HETATM   18  C12 UNL     1      -3.600   1.201   0.034  1.00  0.00     0.180 C 
HETATM   19  C13 UNL     1      -1.698  -0.448  -0.236  1.00  0.00     0.067 A 
HETATM   20  C14 UNL     1      -1.837  -1.032   1.078  1.00  0.00     0.044 C 
HETATM   21  C15 UNL     1      -1.094  -0.697   2.116  1.00  0.00    -0.021 C 
HETATM   22  C16 UNL     1      -1.192   0.612   2.340  1.00  0.00     0.050 C 
HETATM   23  H5  UNL     1       1.497  -0.484   1.956  1.00  0.00     0.183 HD
ENDROOT
BRANCH   1  24
HETATM   24  O1  UNL     1      -0.900   2.501   1.068  1.00  0.00    -0.355 OA
HETATM   25  C1  UNL     1      -0.620   3.570   1.953  1.00  0.00     0.210 C 
ENDBRANCH   1  24
TORSDOF 1
