REMARK  0 active torsions:
REMARK  status: ('A' for Active; 'I' for Inactive)
ROOT
HETATM    1  C1  UNL     1      -0.445  -2.254  -1.669  1.00  0.00     0.017 C 
HETATM    2  C2  UNL     1      -1.239  -1.325  -0.681  1.00  0.00     0.033 C 
HETATM    3  C3  UNL     1      -2.010  -0.439  -1.614  1.00  0.00     0.125 C 
HETATM    4  N1  UNL     1      -3.306  -0.124  -1.262  1.00  0.00    -0.410 N 
HETATM    5  C4  UNL     1      -4.243  -1.236  -1.316  1.00  0.00     0.143 C 
HETATM    6  C5  UNL     1      -3.764   0.988  -0.566  1.00  0.00     0.103 C 
HETATM    7  C6  UNL     1      -5.252   1.292  -0.900  1.00  0.00     0.034 C 
HETATM    8  C7  UNL     1      -3.764   0.586   0.935  1.00  0.00     0.296 C 
HETATM    9  N2  UNL     1      -2.439   0.129   1.181  1.00  0.00     0.090 N 
HETATM   10  C8  UNL     1      -2.312  -0.426   2.539  1.00  0.00     0.310 C 
HETATM   11  C9  UNL     1      -1.416   1.136   0.982  1.00  0.00     0.311 C 
HETATM   12  C10 UNL     1      -0.075   0.498   0.894  1.00  0.00    -0.021 A 
HETATM   13  C11 UNL     1       0.969   1.057   1.565  1.00  0.00     0.043 A 
HETATM   14  C12 UNL     1       2.169   0.404   1.455  1.00  0.00     0.082 A 
HETATM   15  C13 UNL     1       2.296  -0.747   0.708  1.00  0.00     0.058 A 
HETATM   16  C14 UNL     1       1.103  -1.159   0.097  1.00  0.00     0.039 A 
HETATM   17  C15 UNL     1      -0.203  -0.614   0.102  1.00  0.00    -0.043 A 
HETATM   18  N3  UNL     1       3.502  -1.460   0.559  1.00  0.00    -0.370 N 
HETATM   19  C16 UNL     1       4.620  -1.509  -0.384  1.00  0.00     0.269 C 
HETATM   20  N4  UNL     1       5.294  -0.250  -0.512  1.00  0.00    -0.285 NA
HETATM   21  C17 UNL     1       4.967   0.524  -1.505  1.00  0.00     0.107 C 
HETATM   22  C18 UNL     1       5.792   1.773  -1.440  1.00  0.00     0.197 C 
HETATM   23  N5  UNL     1       5.401   2.462  -0.248  1.00  0.00    -0.271 NA
HETATM   24  C19 UNL     1       4.965   1.936   0.830  1.00  0.00     0.278 C 
HETATM   25  O1  UNL     1       4.555   0.956   1.751  1.00  0.00    -0.231 OA
HETATM   26  N6  UNL     1       3.255   0.969   2.144  1.00  0.00    -0.258 N 
HETATM   27  H23 UNL     1       3.231  -1.967   1.427  1.00  0.00     0.161 HD
HETATM   28  H30 UNL     1       3.060   1.454   3.053  1.00  0.00     0.195 HD
ENDROOT
TORSDOF 0
