REMARK  6 active torsions:
REMARK  status: ('A' for Active; 'I' for Inactive)
REMARK    1  A    between atoms: C2_2  and  C3_3 
REMARK       I    between atoms: C3_3  and  N1_5 
REMARK    2  A    between atoms: N1_5  and  C4_6 
REMARK    3  A    between atoms: C6_8  and  N2_9 
REMARK    4  A    between atoms: N2_9  and  C7_10 
REMARK    5  A    between atoms: C12_16  and  C13_17 
REMARK    6  A    between atoms: C16_22  and  O2_23 
ROOT
HETATM    1  C4  UNL     1       3.484   0.441  -0.913  1.00  0.00     0.076 A 
HETATM    2  C5  UNL     1       2.146   0.621  -0.741  1.00  0.00     0.065 A 
HETATM    3  C6  UNL     1       1.288  -0.406  -0.428  1.00  0.00     0.085 A 
HETATM    4  C16 UNL     1       1.802  -1.715  -0.273  1.00  0.00     0.098 A 
HETATM    5  C18 UNL     1       3.180  -1.946  -0.441  1.00  0.00     0.083 A 
HETATM    6  C19 UNL     1       3.933  -0.843  -0.752  1.00  0.00     0.145 A 
HETATM    7  F1  UNL     1       5.255  -1.027  -0.929  1.00  0.00    -0.204 F 
ENDROOT
BRANCH   3   8
HETATM    8  N2  UNL     1      -0.045  -0.535  -0.244  1.00  0.00    -0.184 N 
HETATM    9  H6  UNL     1      -0.236   0.488  -0.267  1.00  0.00     0.184 HD
BRANCH   8  10
HETATM   10  C7  UNL     1      -1.398  -0.666  -0.057  1.00  0.00     0.744 A 
HETATM   11  N3  UNL     1      -1.474  -2.016   0.157  1.00  0.00    -0.071 NA
HETATM   12  C8  UNL     1      -2.639  -2.671   0.378  1.00  0.00     0.168 A 
HETATM   13  C9  UNL     1      -3.749  -1.867   0.368  1.00  0.00     0.077 A 
HETATM   14  C10 UNL     1      -5.093  -2.124   0.533  1.00  0.00     0.035 A 
HETATM   15  N4  UNL     1      -3.708  -0.547   0.163  1.00  0.00    -0.221 N 
HETATM   16  C11 UNL     1      -5.768  -0.923   0.415  1.00  0.00     0.030 A 
HETATM   17  C12 UNL     1      -4.868   0.088   0.177  1.00  0.00     0.041 A 
HETATM   18  N5  UNL     1      -2.538   0.030  -0.044  1.00  0.00     0.026 NA
BRANCH  17  19
HETATM   19  C13 UNL     1      -5.220   1.514  -0.002  1.00  0.00     0.038 A 
HETATM   20  C14 UNL     1      -4.449   2.559   0.773  1.00  0.00     0.011 A 
HETATM   21  C15 UNL     1      -4.366   2.441  -0.758  1.00  0.00     0.011 A 
ENDBRANCH  17  19
ENDBRANCH   8  10
ENDBRANCH   3   8
BRANCH   4  22
HETATM   22  O2  UNL     1       1.125  -2.893   0.045  1.00  0.00    -0.354 OA
HETATM   23  C17 UNL     1       1.731  -4.155   0.186  1.00  0.00     0.210 C 
ENDBRANCH   4  22
BRANCH   1  24
HETATM   24  N1  UNL     1       4.318   1.544  -1.241  1.00  0.00    -0.321 N 
HETATM   25  C3  UNL     1       4.899   2.207  -0.095  1.00  0.00     0.245 C 
HETATM   26  O1  UNL     1       4.755   1.931   1.130  1.00  0.00    -0.268 OA
HETATM   27  H4  UNL     1       4.553   1.917  -2.177  1.00  0.00     0.169 HD
BRANCH  25  28
HETATM   28  C2  UNL     1       5.771   3.347  -0.332  1.00  0.00     0.064 C 
HETATM   29  C1  UNL     1       5.977   3.505   0.984  1.00  0.00     0.017 C 
ENDBRANCH  25  28
ENDBRANCH   1  24
TORSDOF 6
