REMARK  9 active torsions:
REMARK  status: ('A' for Active; 'I' for Inactive)
REMARK    1  A    between atoms: C2_2  and  C3_3 
REMARK       I    between atoms: C3_3  and  N1_5 
REMARK    2  A    between atoms: N1_5  and  C4_6 
REMARK    3  A    between atoms: N2_8  and  C6_9 
REMARK    4  A    between atoms: C11_15  and  C12_16 
REMARK    5  A    between atoms: C15_21  and  O2_22 
REMARK    6  A    between atoms: C18_25  and  N6_26 
REMARK    7  A    between atoms: N6_26  and  C20_28 
REMARK    8  A    between atoms: C20_28  and  C21_29 
REMARK    9  A    between atoms: C21_29  and  N7_30 
ROOT
HETATM    1  C4  UNL     1      -0.963   0.148  -1.280  1.00  0.00     0.077 C 
HETATM    2  C5  UNL     1       0.282  -0.024  -0.877  1.00  0.00     0.144 C 
HETATM    3  N2  UNL     1       0.836   1.080  -0.167  1.00  0.00    -0.155 N 
HETATM    4  C15 UNL     1       0.137   2.228   0.341  1.00  0.00     0.271 C 
HETATM    5  C17 UNL     1      -1.263   2.340  -0.179  1.00  0.00     0.059 C 
HETATM    6  C18 UNL     1      -1.740   1.346  -0.929  1.00  0.00     0.058 C 
ENDROOT
BRANCH   3   7
HETATM    7  C6  UNL     1       2.241   0.932   0.006  1.00  0.00     0.748 A 
HETATM    8  N3  UNL     1       2.925   2.103   0.065  1.00  0.00    -0.071 NA
HETATM    9  C7  UNL     1       4.253   2.119   0.237  1.00  0.00     0.168 A 
HETATM   10  C8  UNL     1       5.005   0.973   0.365  1.00  0.00     0.077 A 
HETATM   11  C9  UNL     1       6.341   0.747   0.548  1.00  0.00     0.035 A 
HETATM   12  N4  UNL     1       4.262  -0.168   0.297  1.00  0.00    -0.221 N 
HETATM   13  C10 UNL     1       6.379  -0.632   0.592  1.00  0.00     0.030 A 
HETATM   14  C11 UNL     1       5.119  -1.216   0.441  1.00  0.00     0.041 A 
HETATM   15  N5  UNL     1       2.966  -0.165   0.128  1.00  0.00     0.027 NA
BRANCH  14  16
HETATM   16  C12 UNL     1       4.924  -2.707   0.467  1.00  0.00     0.038 A 
HETATM   17  C13 UNL     1       6.072  -3.492  -0.050  1.00  0.00     0.011 A 
HETATM   18  C14 UNL     1       5.806  -3.473   1.401  1.00  0.00     0.011 A 
ENDBRANCH  14  16
ENDBRANCH   3   7
BRANCH   4  19
HETATM   19  O2  UNL     1       0.108   2.222   1.744  1.00  0.00    -0.367 OA
HETATM   20  C16 UNL     1       0.693   3.307   2.336  1.00  0.00     0.204 C 
ENDBRANCH   4  19
BRANCH   1  21
HETATM   21  N1  UNL     1      -1.781  -0.657  -1.970  1.00  0.00    -0.332 N 
HETATM   22  C3  UNL     1      -2.640  -1.491  -2.706  1.00  0.00     0.175 C 
HETATM   23  O1  UNL     1      -2.706  -0.677  -3.724  1.00  0.00    -0.172 OA
HETATM   24  H4  UNL     1      -1.819  -1.394  -1.154  1.00  0.00     0.168 HD
BRANCH  22  25
HETATM   25  C2  UNL     1      -3.344  -2.739  -2.691  1.00  0.00     0.032 C 
HETATM   26  C1  UNL     1      -3.284  -3.578  -1.671  1.00  0.00     0.035 C 
ENDBRANCH  22  25
ENDBRANCH   1  21
BRANCH   6  27
HETATM   27  N6  UNL     1      -3.087   1.767  -1.238  1.00  0.00    -0.382 N 
HETATM   28  C19 UNL     1      -3.302   2.423  -2.509  1.00  0.00     0.150 C 
BRANCH  27  29
HETATM   29  C20 UNL     1      -4.275   1.623  -0.448  1.00  0.00     0.152 C 
BRANCH  29  30
HETATM   30  C21 UNL     1      -4.123   1.061   0.907  1.00  0.00     0.291 C 
BRANCH  30  31
HETATM   31  N7  UNL     1      -3.584  -0.226   1.072  1.00  0.00     0.081 N 
HETATM   32  C22 UNL     1      -4.360  -1.318   0.608  1.00  0.00     0.309 C 
HETATM   33  C23 UNL     1      -3.107  -0.496   2.417  1.00  0.00     0.309 C 
ENDBRANCH  30  31
ENDBRANCH  29  30
ENDBRANCH  27  29
ENDBRANCH   6  27
TORSDOF 9
