REMARK  7 active torsions:
REMARK  status: ('A' for Active; 'I' for Inactive)
REMARK    1  A    between atoms: O1_2  and  C2_3 
REMARK    2  A    between atoms: C4_5  and  N1_6 
REMARK       I    between atoms: N1_6  and  C5_7 
REMARK    3  A    between atoms: C5_7  and  C6_9 
REMARK    4  A    between atoms: C6_9  and  C7_10 
REMARK    5  A    between atoms: C7_10  and  C8_11 
REMARK    6  A    between atoms: C8_11  and  N2_12 
REMARK    7  A    between atoms: C15_22  and  N6_23 
ROOT
HETATM    1  C2  UNL     1       2.010   2.303  -0.378  1.00  0.00     0.162 C 
HETATM    2  C3  UNL     1       1.935   0.974  -0.989  1.00  0.00     0.031 C 
HETATM    3  C4  UNL     1       2.110  -0.242  -1.470  1.00  0.00     0.011 C 
HETATM    4  C9  UNL     1       1.238  -1.182  -2.169  1.00  0.00     0.057 C 
HETATM    5  C10 UNL     1       0.967  -2.453  -1.405  1.00  0.00     0.007 C 
HETATM    6  C11 UNL     1       0.370  -2.187  -0.047  1.00  0.00     0.020 C 
HETATM    7  C12 UNL     1      -0.872  -1.406  -0.020  1.00  0.00     0.123 C 
HETATM    8  N3  UNL     1      -2.035  -1.971  -0.669  1.00  0.00    -0.379 N 
HETATM    9  C13 UNL     1      -2.366  -2.263  -2.051  1.00  0.00     0.150 C 
HETATM   10  C14 UNL     1      -3.212  -2.358   0.102  1.00  0.00     0.227 C 
HETATM   11  N4  UNL     1      -3.507  -1.107   0.127  1.00  0.00    -0.161 NA
HETATM   12  N5  UNL     1      -4.648  -0.680   0.777  1.00  0.00    -0.217 N 
HETATM   13  C15 UNL     1      -5.672  -0.918   1.581  1.00  0.00     0.123 A 
HETATM   14  C16 UNL     1      -6.469   0.194   1.758  1.00  0.00     0.052 A 
HETATM   15  C17 UNL     1      -5.876   1.180   1.000  1.00  0.00     0.035 A 
HETATM   16  C18 UNL     1      -4.748   0.600   0.405  1.00  0.00     0.057 A 
HETATM   17  C19 UNL     1      -3.999   1.518  -0.437  1.00  0.00     0.012 C 
HETATM   18  C20 UNL     1      -2.883   2.133  -0.691  1.00  0.00     0.047 C 
HETATM   19  C21 UNL     1      -1.506   2.429  -0.389  1.00  0.00     0.297 C 
HETATM   20  N7  UNL     1      -0.354   2.935  -0.483  1.00  0.00    -0.438 NA
HETATM   21  C22 UNL     1       0.763   2.719   0.375  1.00  0.00     0.139 C 
ENDROOT
BRANCH   3  22
HETATM   22  N1  UNL     1       3.459  -0.254  -1.046  1.00  0.00    -0.327 N 
HETATM   23  C5  UNL     1       4.002  -1.173  -0.094  1.00  0.00     0.253 C 
HETATM   24  O2  UNL     1       3.826  -2.166   0.697  1.00  0.00    -0.268 OA
HETATM   25  H6  UNL     1       4.271   0.373  -1.360  1.00  0.00     0.169 HD
BRANCH  23  26
HETATM   26  C6  UNL     1       5.392  -1.160   0.330  1.00  0.00     0.131 C 
BRANCH  26  27
HETATM   27  C7  UNL     1       5.739  -0.326   1.303  1.00  0.00    -0.106 C 
BRANCH  27  28
HETATM   28  C8  UNL     1       5.863   0.660   2.182  1.00  0.00     0.137 C 
BRANCH  28  29
HETATM   29  N2  UNL     1       5.587   0.217   3.474  1.00  0.00    -0.402 N 
HETATM   30  H9  UNL     1       6.112  -0.387   4.142  1.00  0.00     0.156 HD
HETATM   31  H10 UNL     1       4.728   0.434   4.053  1.00  0.00     0.156 HD
ENDBRANCH  28  29
ENDBRANCH  27  28
ENDBRANCH  26  27
ENDBRANCH  23  26
ENDBRANCH   3  22
BRANCH   1  32
HETATM   32  O1  UNL     1       2.444   3.218  -1.317  1.00  0.00    -0.385 OA
HETATM   33  C1  UNL     1       3.631   3.842  -1.000  1.00  0.00     0.202 C 
ENDBRANCH   1  32
BRANCH  13  34
HETATM   34  N6  UNL     1      -5.731  -2.271   2.090  1.00  0.00    -0.384 N 
HETATM   35  H23 UNL     1      -6.315  -3.135   1.988  1.00  0.00     0.157 HD
HETATM   36  H24 UNL     1      -5.008  -2.574   2.780  1.00  0.00     0.157 HD
ENDBRANCH  13  34
TORSDOF 7
