REMARK  5 active torsions:
REMARK  status: ('A' for Active; 'I' for Inactive)
REMARK    1  A    between atoms: O1_2  and  C2_3 
REMARK    2  A    between atoms: C11_16  and  N5_17 
REMARK    3  A    between atoms: N5_17  and  C13_19 
REMARK    4  A    between atoms: C13_19  and  C14_20 
REMARK    5  A    between atoms: C14_20  and  N6_21 
ROOT
HETATM    1  C2  UNL     1      -4.523   1.717   0.125  1.00  0.00     0.068 C 
HETATM    2  C3  UNL     1      -4.887   0.480   0.491  1.00  0.00     0.120 C 
HETATM    3  N1  UNL     1      -4.708  -0.934   0.717  1.00  0.00    -0.364 N 
HETATM    4  C4  UNL     1      -4.759  -1.714   1.977  1.00  0.00     0.273 C 
HETATM    5  N2  UNL     1      -4.062  -2.897   1.563  1.00  0.00    -0.277 NA
HETATM    6  C5  UNL     1      -3.357  -2.712   0.544  1.00  0.00     0.032 C 
HETATM    7  C6  UNL     1      -4.416  -2.006  -0.228  1.00  0.00     0.178 C 
HETATM    8  C7  UNL     1      -1.945  -2.992   0.052  1.00  0.00     0.061 A 
HETATM    9  C8  UNL     1      -1.533  -2.537  -1.272  1.00  0.00     0.041 A 
HETATM   10  C9  UNL     1      -1.205  -1.706  -0.119  1.00  0.00     0.119 A 
HETATM   11  N3  UNL     1       0.080  -1.725   0.536  1.00  0.00    -0.279 NA
HETATM   12  C10 UNL     1       0.932  -0.873   0.166  1.00  0.00     0.202 C 
HETATM   13  N4  UNL     1       1.555   0.193  -0.517  1.00  0.00    -0.337 N 
HETATM   14  C11 UNL     1       2.193   1.382  -0.116  1.00  0.00     0.111 C 
HETATM   15  C17 UNL     1       1.615   2.449  -0.648  1.00  0.00     0.006 C 
HETATM   16  C18 UNL     1       1.403   2.317  -1.961  1.00  0.00     0.111 C 
HETATM   17  C19 UNL     1       0.071   1.987  -1.482  1.00  0.00     0.360 A 
HETATM   18  O2  UNL     1      -0.947   1.395  -1.067  1.00  0.00    -0.149 OA
HETATM   19  N7  UNL     1      -1.087   2.839  -1.228  1.00  0.00     0.094 N 
HETATM   20  C20 UNL     1      -2.473   3.002  -0.799  1.00  0.00     0.270 C 
HETATM   21  C21 UNL     1      -3.101   1.849  -0.370  1.00  0.00     0.092 C 
HETATM   22  H14 UNL     1       1.545   0.020  -1.535  1.00  0.00     0.168 HD
HETATM   23  H29 UNL     1      -0.597   3.749  -1.519  1.00  0.00     0.322 HD
ENDROOT
BRANCH  14  24
HETATM   24  N5  UNL     1       3.185   0.768   0.688  1.00  0.00    -0.369 N 
HETATM   25  C12 UNL     1       2.983   0.636   2.137  1.00  0.00     0.151 C 
BRANCH  24  26
HETATM   26  C13 UNL     1       4.421   0.277   0.121  1.00  0.00     0.154 C 
BRANCH  26  27
HETATM   27  C14 UNL     1       4.567  -1.204   0.183  1.00  0.00     0.291 C 
BRANCH  27  28
HETATM   28  N6  UNL     1       5.831  -1.646  -0.413  1.00  0.00     0.081 N 
HETATM   29  C15 UNL     1       5.788  -1.410  -1.855  1.00  0.00     0.309 C 
HETATM   30  C16 UNL     1       6.961  -0.993   0.203  1.00  0.00     0.309 C 
ENDBRANCH  27  28
ENDBRANCH  26  27
ENDBRANCH  24  26
ENDBRANCH  14  24
BRANCH   1  31
HETATM   31  O1  UNL     1      -5.732   2.491   0.365  1.00  0.00    -0.358 OA
HETATM   32  C1  UNL     1      -6.080   3.268  -0.777  1.00  0.00     0.209 C 
ENDBRANCH   1  31
TORSDOF 5
