REMARK  7 active torsions:
REMARK  status: ('A' for Active; 'I' for Inactive)
REMARK    1  A    between atoms: C2_2  and  C3_3 
REMARK       I    between atoms: C3_3  and  N1_5 
REMARK    2  A    between atoms: N1_5  and  C4_6 
REMARK    3  A    between atoms: C7_9  and  O2_10 
REMARK    4  A    between atoms: N2_14  and  C11_15 
REMARK    5  A    between atoms: C11_15  and  C12_16 
REMARK    6  A    between atoms: C12_16  and  C14_18 
REMARK    7  A    between atoms: C16_23  and  C17_24 
ROOT
HETATM    1  C4  UNL     1      -0.064   1.545   1.125  1.00  0.00     0.098 A 
HETATM    2  C5  UNL     1      -1.058   2.231   1.836  1.00  0.00     0.001 A 
HETATM    3  C6  UNL     1      -1.175   0.929   2.080  1.00  0.00     0.076 A 
HETATM    4  C7  UNL     1      -0.986  -0.414   2.090  1.00  0.00     0.125 A 
HETATM    5  C9  UNL     1      -0.034  -1.117   1.414  1.00  0.00     0.025 A 
HETATM    6  C10 UNL     1       0.113   0.205   1.138  1.00  0.00     0.121 A 
HETATM    7  N2  UNL     1       0.967  -0.119   0.003  1.00  0.00    -0.258 N 
HETATM    8  N3  UNL     1       0.044  -0.403  -1.092  1.00  0.00     0.008 NA
HETATM    9  N4  UNL     1      -1.069  -0.157  -1.109  1.00  0.00    -0.183 NA
HETATM   10  N5  UNL     1      -2.321   0.082  -1.211  1.00  0.00    -0.156 N 
HETATM   11  C16 UNL     1      -2.920   0.150  -2.424  1.00  0.00     0.051 A 
HETATM   12  C19 UNL     1      -4.266   0.403  -2.418  1.00  0.00     0.032 A 
HETATM   13  C20 UNL     1      -4.575   0.517  -1.061  1.00  0.00     0.053 A 
HETATM   14  C21 UNL     1      -3.398   0.320  -0.390  1.00  0.00     0.137 A 
HETATM   15  N6  UNL     1      -3.174   0.347   0.976  1.00  0.00    -0.373 N 
HETATM   16  C22 UNL     1      -2.709   0.867   2.288  1.00  0.00     0.143 C 
HETATM   17  H28 UNL     1      -3.593  -0.591   1.306  1.00  0.00     0.161 HD
ENDROOT
BRANCH   1  18
HETATM   18  N1  UNL     1       0.740   2.430   0.329  1.00  0.00    -0.341 N 
HETATM   19  C3  UNL     1       1.351   3.213  -0.612  1.00  0.00     0.241 C 
HETATM   20  O1  UNL     1       0.766   3.110  -1.746  1.00  0.00    -0.269 OA
HETATM   21  H4  UNL     1       1.327   2.514   1.220  1.00  0.00     0.164 HD
BRANCH  19  22
HETATM   22  C2  UNL     1       2.513   4.059  -0.399  1.00  0.00     0.064 C 
HETATM   23  C1  UNL     1       3.113   4.205   0.754  1.00  0.00     0.017 C 
ENDBRANCH  19  22
ENDBRANCH   1  18
BRANCH   7  24
HETATM   24  C11 UNL     1       2.386  -0.162  -0.104  1.00  0.00     0.153 C 
BRANCH  24  25
HETATM   25  C12 UNL     1       3.106  -1.190   0.714  1.00  0.00     0.001 C 
HETATM   26  C13 UNL     1       4.606  -0.934   0.426  1.00  0.00     0.011 C 
BRANCH  25  27
HETATM   27  C14 UNL     1       2.890  -2.599   0.126  1.00  0.00     0.001 C 
HETATM   28  C15 UNL     1       3.615  -3.601   0.996  1.00  0.00     0.005 C 
ENDBRANCH  25  27
ENDBRANCH  24  25
ENDBRANCH   7  24
BRANCH   4  29
HETATM   29  O2  UNL     1      -1.746  -1.271   2.819  1.00  0.00    -0.377 OA
HETATM   30  C8  UNL     1      -1.742  -2.644   2.938  1.00  0.00     0.203 C 
ENDBRANCH   4  29
BRANCH  11  31
HETATM   31  C17 UNL     1      -2.218  -0.017  -3.751  1.00  0.00     0.056 C 
HETATM   32  C18 UNL     1      -3.160   0.067  -4.895  1.00  0.00     0.011 C 
ENDBRANCH  11  31
TORSDOF 7
