REMARK  6 active torsions:
REMARK  status: ('A' for Active; 'I' for Inactive)
REMARK    1  A    between atoms: C2_2  and  C3_3 
REMARK       I    between atoms: C3_3  and  N1_5 
REMARK    2  A    between atoms: N1_5  and  C4_6 
REMARK    3  A    between atoms: C9_11  and  N2_12 
REMARK    4  A    between atoms: N2_12  and  C11_14 
REMARK    5  A    between atoms: C11_14  and  C12_15 
REMARK    6  A    between atoms: C12_15  and  N3_16 
ROOT
HETATM    1  C4  UNL     1      -0.464   1.310  -0.603  1.00  0.00     0.062 A 
HETATM    2  C5  UNL     1       0.820   1.808  -0.328  1.00  0.00     0.050 A 
HETATM    3  C6  UNL     1       1.735   0.824  -0.023  1.00  0.00     0.049 A 
HETATM    4  C7  UNL     1       1.512  -0.570   0.037  1.00  0.00     0.085 A 
HETATM    5  C8  UNL     1       0.245  -0.959  -0.243  1.00  0.00     0.069 A 
HETATM    6  C9  UNL     1      -0.717  -0.023  -0.556  1.00  0.00     0.059 A 
HETATM    7  O2  UNL     1       2.750  -1.026   0.381  1.00  0.00    -0.350 OA
HETATM    8  C15 UNL     1       3.263  -2.117   0.991  1.00  0.00     0.175 C 
HETATM    9  C16 UNL     1       4.728  -2.202   1.238  1.00  0.00     0.027 C 
HETATM   10  C17 UNL     1       5.584  -2.235   0.065  1.00  0.00     0.008 C 
HETATM   11  C18 UNL     1       5.697  -1.151  -0.906  1.00  0.00     0.060 C 
HETATM   12  C19 UNL     1       6.188   0.176  -0.376  1.00  0.00     0.050 A 
HETATM   13  C20 UNL     1       6.845   1.250   0.048  1.00  0.00     0.034 A 
HETATM   14  C21 UNL     1       5.831   1.989   0.345  1.00  0.00     0.089 A 
HETATM   15  C22 UNL     1       4.754   2.959   0.733  1.00  0.00     0.151 A 
HETATM   16  N4  UNL     1       3.433   2.794   0.686  1.00  0.00    -0.237 NA
HETATM   17  C23 UNL     1       2.957   1.563   0.217  1.00  0.00     0.182 A 
HETATM   18  N5  UNL     1       3.738   0.636  -0.155  1.00  0.00    -0.146 NA
HETATM   19  N6  UNL     1       5.069   0.890  -0.073  1.00  0.00    -0.233 N 
ENDROOT
BRANCH   6  20
HETATM   20  N2  UNL     1      -1.991  -0.656  -0.817  1.00  0.00    -0.382 N 
HETATM   21  C10 UNL     1      -2.554  -0.434  -2.131  1.00  0.00     0.150 C 
BRANCH  20  22
HETATM   22  C11 UNL     1      -2.548  -1.437   0.265  1.00  0.00     0.152 C 
BRANCH  22  23
HETATM   23  C12 UNL     1      -3.783  -0.875   0.879  1.00  0.00     0.291 C 
BRANCH  23  24
HETATM   24  N3  UNL     1      -4.822  -0.797  -0.161  1.00  0.00     0.081 N 
HETATM   25  C13 UNL     1      -5.972  -0.196   0.517  1.00  0.00     0.309 C 
HETATM   26  C14 UNL     1      -5.162  -2.142  -0.610  1.00  0.00     0.309 C 
ENDBRANCH  23  24
ENDBRANCH  22  23
ENDBRANCH  20  22
ENDBRANCH   6  20
BRANCH   1  27
HETATM   27  N1  UNL     1      -1.571   2.157  -0.944  1.00  0.00    -0.322 N 
HETATM   28  C3  UNL     1      -2.280   2.569   0.211  1.00  0.00     0.244 C 
HETATM   29  O1  UNL     1      -1.799   2.112   1.285  1.00  0.00    -0.268 OA
HETATM   30  H4  UNL     1      -1.872   2.469  -1.893  1.00  0.00     0.169 HD
BRANCH  28  31
HETATM   31  C2  UNL     1      -3.448   3.434   0.144  1.00  0.00     0.064 C 
HETATM   32  C1  UNL     1      -3.930   3.898  -0.991  1.00  0.00     0.017 C 
ENDBRANCH  28  31
ENDBRANCH   1  27
TORSDOF 6
