REMARK  10 active torsions:
REMARK  status: ('A' for Active; 'I' for Inactive)
REMARK    1  A    between atoms: C2_2  and  C3_3 
REMARK       I    between atoms: C3_3  and  N1_5 
REMARK    2  A    between atoms: N1_5  and  C4_6 
REMARK    3  A    between atoms: C6_8  and  N2_9 
REMARK    4  A    between atoms: N2_9  and  C7_10 
REMARK    5  A    between atoms: C13_19  and  O2_20 
REMARK    6  A    between atoms: C16_23  and  N6_24 
REMARK    7  A    between atoms: N6_24  and  C17_25 
REMARK    8  A    between atoms: N6_24  and  C19_27 
REMARK    9  A    between atoms: C19_27  and  C20_28 
REMARK   10  A    between atoms: C20_28  and  C22_30 
ROOT
HETATM    1  C4  UNL     1       0.171   0.313   0.247  1.00  0.00     0.064 A 
HETATM    2  C5  UNL     1      -1.147   0.209  -0.119  1.00  0.00     0.065 A 
HETATM    3  C6  UNL     1      -1.706  -0.849  -0.793  1.00  0.00     0.085 A 
HETATM    4  C13 UNL     1      -0.812  -1.881  -1.107  1.00  0.00     0.097 A 
HETATM    5  C15 UNL     1       0.516  -1.801  -0.750  1.00  0.00     0.070 A 
HETATM    6  C16 UNL     1       1.026  -0.716  -0.074  1.00  0.00     0.060 A 
ENDROOT
BRANCH   3   7
HETATM    7  N2  UNL     1      -3.051  -0.973  -1.184  1.00  0.00    -0.184 N 
HETATM    8  H6  UNL     1      -3.341  -1.833  -1.740  1.00  0.00     0.184 HD
BRANCH   7   9
HETATM    9  C7  UNL     1      -4.073  -0.026  -0.901  1.00  0.00     0.743 A 
HETATM   10  N3  UNL     1      -4.061   0.440   0.323  1.00  0.00     0.021 NA
HETATM   11  N4  UNL     1      -4.998   1.375   0.755  1.00  0.00    -0.253 N 
HETATM   12  C8  UNL     1      -5.268   2.079   1.994  1.00  0.00     0.156 A 
HETATM   13  C11 UNL     1      -5.942   1.752  -0.260  1.00  0.00     0.068 A 
HETATM   14  C9  UNL     1      -6.461   2.942   1.707  1.00  0.00     0.051 A 
HETATM   15  C10 UNL     1      -6.759   2.633   0.287  1.00  0.00     0.008 A 
HETATM   16  C12 UNL     1      -5.917   1.207  -1.610  1.00  0.00     0.167 A 
HETATM   17  N5  UNL     1      -5.012   0.344  -1.924  1.00  0.00    -0.071 NA
ENDBRANCH   7   9
ENDBRANCH   3   7
BRANCH   4  18
HETATM   18  O2  UNL     1      -1.290  -2.992  -1.788  1.00  0.00    -0.354 OA
HETATM   19  C14 UNL     1      -0.500  -4.095  -2.163  1.00  0.00     0.210 C 
ENDBRANCH   4  18
BRANCH   1  20
HETATM   20  N1  UNL     1       0.750   1.406   0.929  1.00  0.00    -0.322 N 
HETATM   21  C3  UNL     1       0.162   2.604   1.399  1.00  0.00     0.244 C 
HETATM   22  O1  UNL     1      -1.061   2.816   1.226  1.00  0.00    -0.268 OA
HETATM   23  H4  UNL     1       1.764   1.426   1.168  1.00  0.00     0.169 HD
BRANCH  21  24
HETATM   24  C2  UNL     1       0.826   3.691   2.097  1.00  0.00     0.064 C 
HETATM   25  C1  UNL     1      -0.169   4.564   2.309  1.00  0.00     0.017 C 
ENDBRANCH  21  24
ENDBRANCH   1  20
BRANCH   6  26
HETATM   26  N6  UNL     1       2.431  -0.766   0.255  1.00  0.00    -0.379 N 
BRANCH  26  27
HETATM   27  C17 UNL     1       2.711  -0.961   1.674  1.00  0.00     0.118 C 
HETATM   28  C18 UNL     1       1.470  -1.116   2.512  1.00  0.00     0.026 C 
ENDBRANCH  26  27
BRANCH  26  29
HETATM   29  C19 UNL     1       3.362  -0.596  -0.830  1.00  0.00     0.127 C 
BRANCH  29  30
HETATM   30  C20 UNL     1       4.189  -1.781  -1.180  1.00  0.00    -0.001 C 
HETATM   31  C21 UNL     1       5.086  -2.303  -0.107  1.00  0.00     0.011 C 
BRANCH  30  32
HETATM   32  C22 UNL     1       4.972  -1.583  -2.468  1.00  0.00     0.001 C 
HETATM   33  C23 UNL     1       5.920  -0.433  -2.427  1.00  0.00     0.005 C 
ENDBRANCH  30  32
ENDBRANCH  29  30
ENDBRANCH  26  29
ENDBRANCH   6  26
TORSDOF 10
