REMARK  9 active torsions:
REMARK  status: ('A' for Active; 'I' for Inactive)
REMARK    1  A    between atoms: O1_2  and  C2_3 
REMARK    2  A    between atoms: C4_5  and  N1_6 
REMARK    3  A    between atoms: N1_6  and  C6_8 
REMARK    4  A    between atoms: C6_8  and  C7_9 
REMARK    5  A    between atoms: C7_9  and  C9_11 
REMARK    6  A    between atoms: C9_11  and  N2_12 
REMARK    7  A    between atoms: C10_13  and  N3_14 
REMARK       I    between atoms: N3_14  and  C11_15 
REMARK    8  A    between atoms: C14_19  and  C15_20 
REMARK    9  A    between atoms: C20_26  and  C21_27 
ROOT
HETATM    1  C2  UNL     1       0.326   0.246  -0.502  1.00  0.00     0.084 A 
HETATM    2  C3  UNL     1      -1.030   0.445  -0.345  1.00  0.00     0.069 A 
HETATM    3  C4  UNL     1      -1.873  -0.596  -0.021  1.00  0.00     0.059 A 
HETATM    4  C10 UNL     1      -1.281  -1.845   0.137  1.00  0.00     0.062 A 
HETATM    5  C13 UNL     1       0.072  -2.066  -0.015  1.00  0.00     0.050 A 
HETATM    6  C14 UNL     1       0.886  -1.002  -0.339  1.00  0.00     0.049 A 
ENDROOT
BRANCH   6   7
HETATM    7  C15 UNL     1       2.316  -1.237  -0.500  1.00  0.00     0.182 A 
HETATM    8  N4  UNL     1       2.794  -2.483  -0.328  1.00  0.00    -0.237 NA
HETATM    9  C16 UNL     1       4.101  -2.788  -0.458  1.00  0.00     0.150 A 
HETATM   10  C17 UNL     1       4.969  -1.742  -0.786  1.00  0.00     0.076 A 
HETATM   11  C18 UNL     1       6.335  -1.779  -0.976  1.00  0.00     0.035 A 
HETATM   12  N5  UNL     1       4.487  -0.498  -0.957  1.00  0.00    -0.234 N 
HETATM   13  C19 UNL     1       6.685  -0.485  -1.276  1.00  0.00     0.030 A 
HETATM   14  C20 UNL     1       5.541   0.314  -1.265  1.00  0.00     0.041 A 
HETATM   15  N6  UNL     1       3.179  -0.253  -0.815  1.00  0.00    -0.146 NA
BRANCH  14  16
HETATM   16  C21 UNL     1       5.424   1.751  -1.524  1.00  0.00     0.038 A 
HETATM   17  C22 UNL     1       6.629   2.640  -1.254  1.00  0.00     0.011 A 
HETATM   18  C23 UNL     1       6.280   2.263  -2.662  1.00  0.00     0.011 A 
ENDBRANCH  14  16
ENDBRANCH   6   7
BRANCH   1  19
HETATM   19  O1  UNL     1       1.178   1.290  -0.828  1.00  0.00    -0.355 OA
HETATM   20  C1  UNL     1       0.627   2.579  -1.000  1.00  0.00     0.210 C 
ENDBRANCH   1  19
BRANCH   4  21
HETATM   21  N3  UNL     1      -2.044  -2.995   0.470  1.00  0.00    -0.326 N 
HETATM   22  C11 UNL     1      -2.082  -3.070   1.911  1.00  0.00     0.218 C 
HETATM   23  C12 UNL     1      -2.767  -4.109   2.756  1.00  0.00     0.117 C 
HETATM   24  O2  UNL     1      -1.504  -2.213   2.622  1.00  0.00    -0.274 OA
HETATM   25  H18 UNL     1      -2.579  -3.793   0.063  1.00  0.00     0.169 HD
ENDBRANCH   4  21
BRANCH   3  26
HETATM   26  N1  UNL     1      -3.293  -0.486   0.162  1.00  0.00    -0.383 N 
HETATM   27  C5  UNL     1      -4.110  -1.274  -0.724  1.00  0.00     0.150 C 
BRANCH  26  28
HETATM   28  C6  UNL     1      -3.712   0.403   1.220  1.00  0.00     0.128 C 
BRANCH  28  29
HETATM   29  C7  UNL     1      -4.401   1.632   0.710  1.00  0.00     0.027 C 
HETATM   30  C8  UNL     1      -5.636   1.316  -0.064  1.00  0.00     0.013 C 
BRANCH  29  31
HETATM   31  C9  UNL     1      -4.744   2.543   1.873  1.00  0.00     0.272 C 
BRANCH  31  32
HETATM   32  N2  UNL     1      -3.548   2.947   2.586  1.00  0.00     0.078 N 
HETATM   33  H16 UNL     1      -3.592   3.914   2.964  1.00  0.00     0.312 HD
HETATM   34  H17 UNL     1      -2.706   2.773   2.002  1.00  0.00     0.312 HD
ENDBRANCH  31  32
ENDBRANCH  29  31
ENDBRANCH  28  29
ENDBRANCH  26  28
ENDBRANCH   3  26
TORSDOF 9
