REMARK  10 active torsions:
REMARK  status: ('A' for Active; 'I' for Inactive)
REMARK    1  A    between atoms: N1_2  and  C2_3 
REMARK    2  A    between atoms: C2_3  and  C3_4 
REMARK       I    between atoms: C3_4  and  N2_6 
REMARK    3  A    between atoms: N2_6  and  C4_7 
REMARK    4  A    between atoms: C6_9  and  C7_10 
REMARK    5  A    between atoms: C7_10  and  N3_11 
REMARK    6  A    between atoms: C9_13  and  O2_14 
REMARK    7  A    between atoms: C12_17  and  N4_18 
REMARK    8  A    between atoms: N4_18  and  C14_20 
REMARK    9  A    between atoms: C14_20  and  C15_21 
REMARK   10  A    between atoms: C15_21  and  N5_22 
ROOT
HETATM    1  C4  UNL     1       0.875   0.422   0.968  1.00  0.00     0.062 A 
HETATM    2  C5  UNL     1       2.243   0.283   0.967  1.00  0.00     0.043 A 
HETATM    3  C6  UNL     1       2.889  -0.948   0.856  1.00  0.00    -0.003 A 
HETATM    4  C9  UNL     1       2.068  -2.068   0.744  1.00  0.00     0.078 A 
HETATM    5  C11 UNL     1       0.676  -1.908   0.748  1.00  0.00     0.069 A 
HETATM    6  C12 UNL     1       0.055  -0.655   0.860  1.00  0.00     0.059 A 
ENDROOT
BRANCH   1   7
HETATM    7  N2  UNL     1       0.272   1.678   1.103  1.00  0.00    -0.324 N 
HETATM    8  C3  UNL     1       0.097   2.520  -0.022  1.00  0.00     0.241 C 
HETATM    9  O1  UNL     1       0.480   2.166  -1.188  1.00  0.00    -0.271 OA
HETATM   10  H5  UNL     1      -0.111   2.190   1.952  1.00  0.00     0.169 HD
BRANCH   8  11
HETATM   11  C2  UNL     1      -0.521   3.870  -0.040  1.00  0.00     0.250 C 
BRANCH  11  12
HETATM   12  N1  UNL     1      -0.517   4.429  -1.359  1.00  0.00    -0.303 NA
HETATM   13  C1  UNL     1       0.033   5.597  -1.483  1.00  0.00     0.143 C 
ENDBRANCH  11  12
ENDBRANCH   8  11
ENDBRANCH   1   7
BRANCH   6  14
HETATM   14  N4  UNL     1      -1.347  -0.901   0.858  1.00  0.00    -0.382 N 
HETATM   15  C13 UNL     1      -1.930  -0.471   2.123  1.00  0.00     0.150 C 
BRANCH  14  16
HETATM   16  C14 UNL     1      -2.138  -1.530  -0.124  1.00  0.00     0.152 C 
BRANCH  16  17
HETATM   17  C15 UNL     1      -3.202  -0.889  -0.875  1.00  0.00     0.291 C 
BRANCH  17  18
HETATM   18  N5  UNL     1      -2.955   0.218  -1.734  1.00  0.00     0.081 N 
HETATM   19  C16 UNL     1      -4.184   0.464  -2.570  1.00  0.00     0.309 C 
HETATM   20  C17 UNL     1      -2.924   1.453  -0.933  1.00  0.00     0.309 C 
ENDBRANCH  17  18
ENDBRANCH  16  17
ENDBRANCH  14  16
ENDBRANCH   6  14
BRANCH   3  21
HETATM   21  C7  UNL     1       4.371  -0.967   0.864  1.00  0.00     0.188 C 
BRANCH  21  22
HETATM   22  N3  UNL     1       4.939  -1.151  -0.427  1.00  0.00    -0.308 NA
HETATM   23  C8  UNL     1       5.581  -2.213  -0.668  1.00  0.00     0.142 C 
ENDBRANCH  21  22
ENDBRANCH   3  21
BRANCH   4  24
HETATM   24  O2  UNL     1       2.820  -3.221   0.643  1.00  0.00    -0.355 OA
HETATM   25  C10 UNL     1       2.385  -4.528   0.522  1.00  0.00     0.210 C 
ENDBRANCH   4  24
TORSDOF 10
