REMARK  9 active torsions:
REMARK  status: ('A' for Active; 'I' for Inactive)
REMARK    1  A    between atoms: C2_2  and  C3_3 
REMARK       I    between atoms: C3_3  and  N1_5 
REMARK    2  A    between atoms: N1_5  and  C4_6 
REMARK    3  A    between atoms: C6_8  and  C7_9 
REMARK    4  A    between atoms: C8_12  and  C9_13 
REMARK    5  A    between atoms: C15_20  and  O2_21 
REMARK    6  A    between atoms: C18_24  and  N5_25 
REMARK    7  A    between atoms: N5_25  and  C20_27 
REMARK    8  A    between atoms: C20_27  and  C21_28 
REMARK    9  A    between atoms: C21_28  and  N6_29 
ROOT
HETATM    1  C4  UNL     1       1.168  -0.881  -1.027  1.00  0.00     0.062 A 
HETATM    2  C5  UNL     1      -0.202  -0.669  -1.167  1.00  0.00     0.050 A 
HETATM    3  C6  UNL     1      -1.015  -0.507  -0.064  1.00  0.00     0.049 A 
HETATM    4  C15 UNL     1      -0.507  -0.548   1.218  1.00  0.00     0.084 A 
HETATM    5  C17 UNL     1       0.866  -0.760   1.372  1.00  0.00     0.069 A 
HETATM    6  C18 UNL     1       1.664  -0.920   0.257  1.00  0.00     0.059 A 
ENDROOT
BRANCH   3   7
HETATM    7  C7  UNL     1      -2.444  -0.297  -0.259  1.00  0.00     0.181 C 
HETATM    8  N2  UNL     1      -3.095  -0.162   0.845  1.00  0.00    -0.158 NA
HETATM    9  N3  UNL     1      -4.414   0.050   1.237  1.00  0.00    -0.303 N 
HETATM   10  C8  UNL     1      -5.684   0.428   0.675  1.00  0.00     0.128 C 
HETATM   11  H6  UNL     1      -4.461  -0.129   2.279  1.00  0.00     0.183 HD
HETATM   12  C12 UNL     1      -5.925  -0.384  -0.540  1.00  0.00     0.001 C 
HETATM   13  C13 UNL     1      -5.354  -0.776  -1.665  1.00  0.00     0.017 C 
HETATM   14  C14 UNL     1      -4.008  -0.475  -2.196  1.00  0.00     0.119 C 
HETATM   15  N4  UNL     1      -2.845  -0.284  -1.622  1.00  0.00    -0.239 NA
BRANCH  10  16
HETATM   16  C9  UNL     1      -5.725   1.904   0.264  1.00  0.00     0.014 A 
HETATM   17  C10 UNL     1      -7.060   2.345  -0.339  1.00  0.00     0.007 A 
HETATM   18  C11 UNL     1      -6.632   2.821   1.009  1.00  0.00     0.007 A 
ENDBRANCH  10  16
ENDBRANCH   3   7
BRANCH   4  19
HETATM   19  O2  UNL     1      -1.407  -0.373   2.258  1.00  0.00    -0.355 OA
HETATM   20  C16 UNL     1      -0.931  -0.411   3.588  1.00  0.00     0.210 C 
ENDBRANCH   4  19
BRANCH   1  21
HETATM   21  N1  UNL     1       1.895  -1.027  -2.212  1.00  0.00    -0.322 N 
HETATM   22  C3  UNL     1       2.013  -2.345  -2.738  1.00  0.00     0.244 C 
HETATM   23  O1  UNL     1       1.421  -3.187  -2.022  1.00  0.00    -0.268 OA
HETATM   24  H4  UNL     1       2.326  -0.200  -2.678  1.00  0.00     0.169 HD
BRANCH  22  25
HETATM   25  C2  UNL     1       2.746  -2.610  -3.965  1.00  0.00     0.064 C 
HETATM   26  C1  UNL     1       3.341  -1.652  -4.657  1.00  0.00     0.017 C 
ENDBRANCH  22  25
ENDBRANCH   1  21
BRANCH   6  27
HETATM   27  N5  UNL     1       3.058  -1.136   0.420  1.00  0.00    -0.382 N 
HETATM   28  C19 UNL     1       3.887  -2.264   0.031  1.00  0.00     0.150 C 
BRANCH  27  29
HETATM   29  C20 UNL     1       3.786  -0.046   1.091  1.00  0.00     0.152 C 
BRANCH  29  30
HETATM   30  C21 UNL     1       4.724   0.629   0.111  1.00  0.00     0.291 C 
BRANCH  30  31
HETATM   31  N6  UNL     1       5.472   1.711   0.690  1.00  0.00     0.081 N 
HETATM   32  C22 UNL     1       4.591   2.823   1.011  1.00  0.00     0.309 C 
HETATM   33  C23 UNL     1       6.003   1.248   1.964  1.00  0.00     0.309 C 
ENDBRANCH  30  31
ENDBRANCH  29  30
ENDBRANCH  27  29
ENDBRANCH   6  27
TORSDOF 9
