REMARK  9 active torsions:
REMARK  status: ('A' for Active; 'I' for Inactive)
REMARK    1  A    between atoms: C2_2  and  C3_3 
REMARK       I    between atoms: C3_3  and  N1_5 
REMARK    2  A    between atoms: N1_5  and  C4_6 
REMARK    3  A    between atoms: C6_8  and  N2_9 
REMARK    4  A    between atoms: N2_9  and  C7_10 
REMARK    5  A    between atoms: C12_18  and  O2_19 
REMARK    6  A    between atoms: C15_22  and  C16_23 
REMARK    7  A    between atoms: C16_23  and  N6_24 
REMARK    8  A    between atoms: N6_24  and  C18_26 
REMARK    9  A    between atoms: C18_26  and  C19_27 
ROOT
HETATM    1  C4  UNL     1      -0.114   0.610   0.476  1.00  0.00     0.045 A 
HETATM    2  C5  UNL     1       1.247   0.400   0.470  1.00  0.00     0.063 A 
HETATM    3  C6  UNL     1       1.875  -0.369  -0.484  1.00  0.00     0.085 A 
HETATM    4  C12 UNL     1       1.020  -0.907  -1.426  1.00  0.00     0.096 A 
HETATM    5  C14 UNL     1      -0.338  -0.701  -1.422  1.00  0.00     0.050 A 
HETATM    6  C15 UNL     1      -0.960   0.071  -0.464  1.00  0.00    -0.011 A 
ENDROOT
BRANCH   3   7
HETATM    7  N2  UNL     1       3.264  -0.619  -0.546  1.00  0.00    -0.185 N 
HETATM    8  H8  UNL     1       3.583  -1.233  -1.346  1.00  0.00     0.184 HD
BRANCH   7   9
HETATM    9  C7  UNL     1       4.264  -0.141   0.338  1.00  0.00     0.727 A 
HETATM   10  N3  UNL     1       4.109   0.642   1.409  1.00  0.00    -0.073 NA
HETATM   11  C8  UNL     1       5.082   1.073   2.221  1.00  0.00     0.167 A 
HETATM   12  C9  UNL     1       6.368   0.675   1.931  1.00  0.00     0.074 A 
HETATM   13  C10 UNL     1       6.590  -0.134   0.839  1.00  0.00     0.099 A 
HETATM   14  N5  UNL     1       7.749   0.712   2.272  1.00  0.00    -0.381 N 
HETATM   15  N4  UNL     1       5.539  -0.493   0.113  1.00  0.00    -0.063 NA
HETATM   16  C11 UNL     1       8.047  -0.153   1.120  1.00  0.00     0.182 A 
HETATM   17  H12 UNL     1       8.348   1.146   3.007  1.00  0.00     0.160 HD
ENDBRANCH   7   9
ENDBRANCH   3   7
BRANCH   4  18
HETATM   18  O2  UNL     1       1.551  -1.699  -2.432  1.00  0.00    -0.354 OA
HETATM   19  C13 UNL     1       0.748  -2.289  -3.436  1.00  0.00     0.210 C 
ENDBRANCH   4  18
BRANCH   1  20
HETATM   20  N1  UNL     1      -0.660   1.434   1.492  1.00  0.00    -0.327 N 
HETATM   21  C3  UNL     1      -0.677   2.759   1.009  1.00  0.00     0.221 C 
HETATM   22  O1  UNL     1      -0.322   3.322  -0.084  1.00  0.00    -0.273 OA
HETATM   23  H6  UNL     1      -1.060   1.527   2.448  1.00  0.00     0.169 HD
BRANCH  21  24
HETATM   24  C2  UNL     1      -1.129   4.043   1.613  1.00  0.00     0.098 C 
HETATM   25  C1  UNL     1      -0.878   5.120   0.581  1.00  0.00     0.014 C 
ENDBRANCH  21  24
ENDBRANCH   1  20
BRANCH   6  26
HETATM   26  C16 UNL     1      -2.414   0.221  -0.530  1.00  0.00     0.157 C 
BRANCH  26  27
HETATM   27  N6  UNL     1      -3.183  -0.593   0.336  1.00  0.00    -0.412 N 
HETATM   28  C17 UNL     1      -2.996  -0.463   1.733  1.00  0.00     0.143 C 
BRANCH  27  29
HETATM   29  C18 UNL     1      -3.416  -1.937  -0.067  1.00  0.00     0.120 C 
BRANCH  29  30
HETATM   30  C19 UNL     1      -4.313  -2.103  -1.267  1.00  0.00    -0.005 C 
HETATM   31  C20 UNL     1      -5.685  -1.524  -1.037  1.00  0.00     0.011 C 
HETATM   32  C21 UNL     1      -4.408  -3.567  -1.669  1.00  0.00     0.011 C 
ENDBRANCH  29  30
ENDBRANCH  27  29
ENDBRANCH  26  27
ENDBRANCH   6  26
TORSDOF 9
