REMARK  7 active torsions:
REMARK  status: ('A' for Active; 'I' for Inactive)
REMARK    1  A    between atoms: C2_2  and  C3_3 
REMARK       I    between atoms: C3_3  and  N1_5 
REMARK    2  A    between atoms: N1_5  and  C4_6 
REMARK    3  A    between atoms: N2_8  and  O2_9 
REMARK    4  A    between atoms: O2_9  and  C6_10 
REMARK    5  A    between atoms: C14_21  and  N6_22 
REMARK    6  A    between atoms: N6_22  and  N7_24 
REMARK    7  A    between atoms: N7_24  and  C17_26 
ROOT
HETATM    1  C4  UNL     1      -0.879   0.926  -0.930  1.00  0.00     0.082 A 
HETATM    2  C5  UNL     1       0.426   0.679  -1.296  1.00  0.00     0.155 A 
HETATM    3  N2  UNL     1       0.631  -0.639  -1.467  1.00  0.00    -0.233 N 
HETATM    4  C13 UNL     1      -0.553  -1.236  -1.208  1.00  0.00     0.156 A 
HETATM    5  C14 UNL     1      -1.498  -0.303  -0.876  1.00  0.00     0.091 A 
ENDROOT
BRANCH   3   6
HETATM    6  O2  UNL     1       1.714  -1.415  -1.821  1.00  0.00    -0.213 OA
BRANCH   6   7
HETATM    7  C6  UNL     1       2.879  -1.467  -1.114  1.00  0.00     0.208 A 
HETATM    8  N3  UNL     1       3.144  -0.343  -0.504  1.00  0.00    -0.141 NA
HETATM    9  N4  UNL     1       4.314  -0.274   0.255  1.00  0.00    -0.222 N 
HETATM   10  C7  UNL     1       5.041   0.625   1.064  1.00  0.00     0.031 A 
HETATM   11  C11 UNL     1       5.067  -1.479   0.249  1.00  0.00     0.126 A 
HETATM   12  C8  UNL     1       4.552   2.010   1.305  1.00  0.00     0.070 C 
HETATM   13  C9  UNL     1       6.155   0.110   1.556  1.00  0.00     0.008 A 
HETATM   14  C10 UNL     1       6.288  -1.284   1.088  1.00  0.00     0.109 A 
HETATM   15  N5  UNL     1       4.822  -2.593  -0.344  1.00  0.00    -0.266 NA
HETATM   16  C12 UNL     1       3.633  -2.743  -1.146  1.00  0.00     0.241 A 
ENDBRANCH   6   7
ENDBRANCH   3   6
BRANCH   1  17
HETATM   17  N1  UNL     1      -1.475   2.176  -0.660  1.00  0.00    -0.320 N 
HETATM   18  C3  UNL     1      -0.830   3.417  -0.724  1.00  0.00     0.245 C 
HETATM   19  O1  UNL     1       0.381   3.482  -1.043  1.00  0.00    -0.268 OA
HETATM   20  H4  UNL     1      -2.493   2.212  -0.382  1.00  0.00     0.169 HD
BRANCH  18  21
HETATM   21  C2  UNL     1      -1.522   4.645  -0.430  1.00  0.00     0.064 C 
HETATM   22  C1  UNL     1      -2.798   4.605  -0.090  1.00  0.00     0.017 C 
ENDBRANCH  18  21
ENDBRANCH   1  17
BRANCH   5  23
HETATM   23  N6  UNL     1      -2.876  -0.497  -0.536  1.00  0.00    -0.312 N 
HETATM   24  C15 UNL     1      -3.858   0.099  -1.422  1.00  0.00     0.172 C 
BRANCH  23  25
HETATM   25  N7  UNL     1      -3.292  -1.213   0.587  1.00  0.00    -0.234 NA
HETATM   26  C16 UNL     1      -2.861  -2.606   0.545  1.00  0.00     0.136 C 
BRANCH  25  27
HETATM   27  C17 UNL     1      -4.726  -1.202   0.659  1.00  0.00     0.109 C 
HETATM   28  C18 UNL     1      -5.238  -1.741   1.982  1.00  0.00     0.022 C 
ENDBRANCH  25  27
ENDBRANCH  23  25
ENDBRANCH   5  23
TORSDOF 7
