REMARK  10 active torsions:
REMARK  status: ('A' for Active; 'I' for Inactive)
REMARK    1  A    between atoms: C2_2  and  C3_3 
REMARK       I    between atoms: C3_3  and  N1_5 
REMARK    2  A    between atoms: N1_5  and  C4_6 
REMARK    3  A    between atoms: C5_7  and  N2_8 
REMARK    4  A    between atoms: N2_8  and  C7_10 
REMARK    5  A    between atoms: C7_10  and  C8_11 
REMARK    6  A    between atoms: C8_11  and  N3_12 
REMARK    7  A    between atoms: C11_15  and  C12_16 
REMARK    8  A    between atoms: C12_16  and  N4_17 
REMARK    9  A    between atoms: N4_17  and  C13_18 
REMARK   10  A    between atoms: C20_28  and  O2_29 
ROOT
HETATM    1  C4  UNL     1      -2.502  -1.974  -0.428  1.00  0.00     0.073 A 
HETATM    2  C5  UNL     1      -1.761  -0.892  -0.472  1.00  0.00     0.065 A 
HETATM    3  C10 UNL     1      -0.577  -1.622  -0.894  1.00  0.00     0.003 A 
HETATM    4  C11 UNL     1       0.698  -1.456  -1.214  1.00  0.00     0.006 C 
HETATM    5  C20 UNL     1      -1.367  -2.851  -0.858  1.00  0.00     0.208 A 
ENDROOT
BRANCH   2   6
HETATM    6  N2  UNL     1      -1.809   0.513  -0.256  1.00  0.00    -0.381 N 
HETATM    7  C6  UNL     1      -2.385   1.338  -1.300  1.00  0.00     0.150 C 
BRANCH   6   8
HETATM    8  C7  UNL     1      -1.319   1.207   0.909  1.00  0.00     0.152 C 
BRANCH   8   9
HETATM    9  C8  UNL     1      -2.375   1.847   1.753  1.00  0.00     0.288 C 
BRANCH   9  10
HETATM   10  N3  UNL     1      -3.123   2.824   0.984  1.00  0.00     0.080 N 
HETATM   11  C9  UNL     1      -4.134   3.430   1.833  1.00  0.00     0.306 C 
HETATM   12  H12 UNL     1      -2.483   3.544   0.592  1.00  0.00     0.315 HD
ENDBRANCH   9  10
ENDBRANCH   8   9
ENDBRANCH   6   8
ENDBRANCH   2   6
BRANCH   4  13
HETATM   13  C12 UNL     1       1.382  -0.145  -1.214  1.00  0.00     0.166 C 
BRANCH  13  14
HETATM   14  N4  UNL     1       2.504  -0.142  -0.262  1.00  0.00    -0.218 N 
HETATM   15  H19 UNL     1       2.688  -1.037   0.284  1.00  0.00     0.178 HD
BRANCH  14  16
HETATM   16  C13 UNL     1       3.555   0.640   0.293  1.00  0.00     0.739 A 
HETATM   17  N5  UNL     1       3.354   1.367   1.414  1.00  0.00    -0.072 NA
HETATM   18  C14 UNL     1       4.432   2.076   1.850  1.00  0.00     0.168 A 
HETATM   19  C15 UNL     1       5.610   2.001   1.137  1.00  0.00     0.077 A 
HETATM   20  C16 UNL     1       6.803   2.629   1.400  1.00  0.00     0.035 A 
HETATM   21  N6  UNL     1       5.790   1.263   0.011  1.00  0.00    -0.222 N 
HETATM   22  C17 UNL     1       7.727   2.271   0.421  1.00  0.00     0.029 A 
HETATM   23  C18 UNL     1       7.042   1.424  -0.411  1.00  0.00     0.033 A 
HETATM   24  C19 UNL     1       7.622   0.776  -1.619  1.00  0.00     0.070 C 
HETATM   25  N7  UNL     1       4.730   0.585  -0.391  1.00  0.00     0.026 NA
ENDBRANCH  14  16
ENDBRANCH  13  14
ENDBRANCH   4  13
BRANCH   5  26
HETATM   26  O2  UNL     1      -1.622  -3.501  -2.047  1.00  0.00    -0.380 OA
HETATM   27  C21 UNL     1      -1.554  -4.890  -1.925  1.00  0.00     0.202 C 
ENDBRANCH   5  26
BRANCH   1  28
HETATM   28  N1  UNL     1      -3.825  -2.385  -0.129  1.00  0.00    -0.323 N 
HETATM   29  C3  UNL     1      -4.836  -1.497   0.275  1.00  0.00     0.244 C 
HETATM   30  O1  UNL     1      -4.622  -0.266   0.391  1.00  0.00    -0.268 OA
HETATM   31  H4  UNL     1      -4.158  -3.360  -0.181  1.00  0.00     0.169 HD
BRANCH  29  32
HETATM   32  C2  UNL     1      -6.192  -1.921   0.587  1.00  0.00     0.064 C 
HETATM   33  C1  UNL     1      -6.554  -3.188   0.499  1.00  0.00     0.017 C 
ENDBRANCH  29  32
ENDBRANCH   1  28
TORSDOF 10
