REMARK  8 active torsions:
REMARK  status: ('A' for Active; 'I' for Inactive)
REMARK    1  A    between atoms: C2_2  and  C3_3 
REMARK       I    between atoms: C3_3  and  N1_5 
REMARK    2  A    between atoms: C6_8  and  N2_9 
REMARK    3  A    between atoms: C14_20  and  O2_21 
REMARK    4  A    between atoms: C16_23  and  N6_24 
REMARK    5  A    between atoms: N6_24  and  C17_25 
REMARK    6  A    between atoms: N6_24  and  C19_27 
REMARK    7  A    between atoms: C19_27  and  C20_28 
REMARK    8  A    between atoms: C20_28  and  N7_29 
ROOT
HETATM    1  C3  UNL     1       2.048   2.746  -1.145  1.00  0.00     0.248 C 
HETATM    2  O1  UNL     1       2.117   3.848  -1.745  1.00  0.00    -0.268 OA
HETATM    3  N1  UNL     1       0.890   1.939  -1.067  1.00  0.00    -0.297 N 
HETATM    4  C4  UNL     1      -0.217   2.512  -1.757  1.00  0.00     0.099 A 
HETATM    5  C5  UNL     1      -1.351   1.853  -1.747  1.00  0.00     0.051 A 
HETATM    6  C6  UNL     1      -1.494   0.561  -1.052  1.00  0.00     0.084 A 
HETATM    7  C14 UNL     1      -0.459   0.045  -0.420  1.00  0.00     0.116 A 
HETATM    8  C16 UNL     1       0.890   0.701  -0.360  1.00  0.00     0.250 A 
ENDROOT
BRANCH   6   9
HETATM    9  N2  UNL     1      -2.768  -0.098  -1.085  1.00  0.00    -0.270 N 
HETATM   10  C7  UNL     1      -2.920  -1.474  -1.512  1.00  0.00     0.296 C 
HETATM   11  N3  UNL     1      -3.501  -2.359  -0.536  1.00  0.00    -0.254 NA
HETATM   12  C8  UNL     1      -4.343  -1.886   0.313  1.00  0.00     0.123 A 
HETATM   13  C9  UNL     1      -5.230  -2.194   1.466  1.00  0.00     0.109 A 
HETATM   14  N5  UNL     1      -4.595  -0.504   0.189  1.00  0.00    -0.247 N 
HETATM   15  C10 UNL     1      -5.814  -0.878   1.808  1.00  0.00     0.008 A 
HETATM   16  C11 UNL     1      -5.478   0.166   1.067  1.00  0.00     0.030 A 
HETATM   17  C12 UNL     1      -5.460   1.606   0.610  1.00  0.00     0.076 C 
HETATM   18  C13 UNL     1      -4.061   1.627  -0.041  1.00  0.00     0.145 C 
HETATM   19  N4  UNL     1      -4.044   0.368  -0.755  1.00  0.00    -0.127 NA
ENDBRANCH   6   9
BRANCH   7  20
HETATM   20  O2  UNL     1      -0.679  -1.166   0.205  1.00  0.00    -0.354 OA
HETATM   21  C15 UNL     1      -0.971  -1.299   1.580  1.00  0.00     0.209 C 
ENDBRANCH   7  20
BRANCH   8  22
HETATM   22  N6  UNL     1       1.817  -0.250  -0.869  1.00  0.00    -0.386 N 
BRANCH  22  23
HETATM   23  C17 UNL     1       1.642  -0.702  -2.179  1.00  0.00     0.115 C 
HETATM   24  C18 UNL     1       2.676  -1.717  -2.629  1.00  0.00     0.026 C 
ENDBRANCH  22  23
BRANCH  22  25
HETATM   25  C19 UNL     1       2.535  -1.019   0.046  1.00  0.00     0.138 C 
BRANCH  25  26
HETATM   26  C20 UNL     1       3.553  -0.291   0.890  1.00  0.00     0.135 C 
BRANCH  26  27
HETATM   27  N7  UNL     1       4.172  -1.251   1.753  1.00  0.00    -0.419 N 
HETATM   28  C21 UNL     1       5.176  -0.703   2.622  1.00  0.00     0.142 C 
HETATM   29  C22 UNL     1       3.287  -2.185   2.372  1.00  0.00     0.142 C 
ENDBRANCH  26  27
ENDBRANCH  25  26
ENDBRANCH  22  25
ENDBRANCH   8  22
BRANCH   1  30
HETATM   30  C2  UNL     1       3.433   3.037  -0.858  1.00  0.00     0.064 C 
HETATM   31  C1  UNL     1       3.715   4.194  -1.417  1.00  0.00     0.017 C 
ENDBRANCH   1  30
TORSDOF 8
