REMARK  6 active torsions:
REMARK  status: ('A' for Active; 'I' for Inactive)
REMARK    1  A    between atoms: C2_2  and  O1_3 
REMARK    2  A    between atoms: O1_3  and  C3_4 
REMARK    3  A    between atoms: C8_11  and  N2_12 
REMARK    4  A    between atoms: N2_12  and  C10_14 
REMARK    5  A    between atoms: C10_14  and  C11_15 
REMARK    6  A    between atoms: C11_15  and  N3_16 
ROOT
HETATM    1  C3  UNL     1       3.048   0.661  -0.646  1.00  0.00     0.201 C 
HETATM    2  C4  UNL     1       1.577   0.696  -0.257  1.00  0.00     0.071 C 
HETATM    3  C5  UNL     1       0.233   0.691  -0.423  1.00  0.00     0.311 A 
HETATM    4  N1  UNL     1      -0.933   0.764   0.512  1.00  0.00     0.140 N 
HETATM    5  C6  UNL     1      -0.153   1.883   0.550  1.00  0.00     0.328 A 
HETATM    6  C7  UNL     1       0.511   3.131   0.760  1.00  0.00     0.088 C 
HETATM    7  O2  UNL     1      -1.141   1.865   1.338  1.00  0.00    -0.146 OA
HETATM    8  C8  UNL     1      -1.073  -0.497  -0.087  1.00  0.00     0.228 C 
HETATM    9  C14 UNL     1      -0.805  -1.760  -0.469  1.00  0.00     0.102 C 
HETATM   10  C15 UNL     1      -0.040  -3.005  -0.575  1.00  0.00    -0.011 C 
HETATM   11  C16 UNL     1       1.087  -3.430  -0.146  1.00  0.00     0.028 C 
HETATM   12  C17 UNL     1       2.277  -3.966   0.270  1.00  0.00     0.059 A 
HETATM   13  C18 UNL     1       3.125  -4.910   0.746  1.00  0.00     0.034 A 
HETATM   14  C19 UNL     1       4.359  -4.331   0.932  1.00  0.00     0.035 A 
HETATM   15  C20 UNL     1       4.262  -3.008   0.564  1.00  0.00     0.076 A 
HETATM   16  C21 UNL     1       5.277  -2.085   0.617  1.00  0.00     0.150 A 
HETATM   17  N4  UNL     1       4.931  -0.823   0.213  1.00  0.00    -0.239 NA
HETATM   18  C22 UNL     1       3.652  -0.642  -0.183  1.00  0.00     0.175 A 
HETATM   19  N5  UNL     1       2.721  -1.581  -0.211  1.00  0.00    -0.149 NA
HETATM   20  N6  UNL     1       2.980  -2.811   0.163  1.00  0.00    -0.231 N 
ENDROOT
BRANCH   8  21
HETATM   21  N2  UNL     1      -2.328  -0.011  -0.549  1.00  0.00    -0.364 N 
HETATM   22  C9  UNL     1      -2.651   0.973  -1.601  1.00  0.00     0.151 C 
BRANCH  21  23
HETATM   23  C10 UNL     1      -3.543  -0.514   0.033  1.00  0.00     0.154 C 
BRANCH  23  24
HETATM   24  C11 UNL     1      -4.279   0.535   0.833  1.00  0.00     0.291 C 
BRANCH  24  25
HETATM   25  N3  UNL     1      -5.496  -0.119   1.345  1.00  0.00     0.081 N 
HETATM   26  C12 UNL     1      -6.318  -0.360   0.176  1.00  0.00     0.309 C 
HETATM   27  C13 UNL     1      -6.216   0.884   2.134  1.00  0.00     0.309 C 
ENDBRANCH  24  25
ENDBRANCH  23  24
ENDBRANCH  21  23
ENDBRANCH   8  21
BRANCH   1  28
HETATM   28  O1  UNL     1       3.698   1.766  -0.143  1.00  0.00    -0.378 OA
BRANCH  28  29
HETATM   29  C2  UNL     1       4.215   2.592  -1.123  1.00  0.00     0.164 C 
HETATM   30  C1  UNL     1       4.908   3.803  -0.531  1.00  0.00     0.033 C 
ENDBRANCH  28  29
ENDBRANCH   1  28
TORSDOF 6
