REMARK  8 active torsions:
REMARK  status: ('A' for Active; 'I' for Inactive)
REMARK    1  A    between atoms: C2_2  and  C3_3 
REMARK       I    between atoms: C3_3  and  N1_5 
REMARK    2  A    between atoms: N1_5  and  C4_6 
REMARK    3  A    between atoms: N2_9  and  C7_10 
REMARK    4  A    between atoms: C14_20  and  O2_21 
REMARK    5  A    between atoms: C17_24  and  N6_25 
REMARK    6  A    between atoms: N6_25  and  C19_27 
REMARK    7  A    between atoms: C19_27  and  C20_28 
REMARK    8  A    between atoms: C20_28  and  N7_29 
ROOT
HETATM    1  C4  UNL     1      -0.941   1.683   0.801  1.00  0.00     0.063 A 
HETATM    2  C5  UNL     1       0.472   1.615   0.792  1.00  0.00     0.064 A 
HETATM    3  C6  UNL     1       1.125   0.560   0.195  1.00  0.00     0.085 A 
HETATM    4  N2  UNL     1       2.377   0.098   0.172  1.00  0.00    -0.184 N 
HETATM    5  C14 UNL     1       0.197  -0.384  -0.402  1.00  0.00     0.097 A 
HETATM    6  C16 UNL     1      -1.220  -0.433  -0.469  1.00  0.00     0.070 A 
HETATM    7  C17 UNL     1      -1.648   0.699   0.203  1.00  0.00     0.059 A 
HETATM    8  H6  UNL     1       1.975  -0.534   0.956  1.00  0.00     0.184 HD
ENDROOT
BRANCH   4   9
HETATM    9  C7  UNL     1       3.652  -0.357   0.147  1.00  0.00     0.744 A 
HETATM   10  N3  UNL     1       3.582  -1.711   0.176  1.00  0.00    -0.071 NA
HETATM   11  C8  UNL     1       4.602  -2.575   0.194  1.00  0.00     0.168 A 
HETATM   12  C9  UNL     1       5.871  -2.013   0.187  1.00  0.00     0.077 A 
HETATM   13  C10 UNL     1       7.087  -2.614   0.226  1.00  0.00     0.035 A 
HETATM   14  N4  UNL     1       5.941  -0.660   0.156  1.00  0.00    -0.222 N 
HETATM   15  C11 UNL     1       7.945  -1.539   0.215  1.00  0.00     0.029 A 
HETATM   16  C12 UNL     1       7.252  -0.394   0.171  1.00  0.00     0.033 A 
HETATM   17  C13 UNL     1       7.958   0.890   0.083  1.00  0.00     0.070 C 
HETATM   18  N5  UNL     1       4.865   0.145   0.140  1.00  0.00     0.026 NA
ENDBRANCH   4   9
BRANCH   5  19
HETATM   19  O2  UNL     1       1.015  -1.365  -0.963  1.00  0.00    -0.354 OA
HETATM   20  C15 UNL     1       0.639  -2.474  -1.703  1.00  0.00     0.210 C 
ENDBRANCH   5  19
BRANCH   1  21
HETATM   21  N1  UNL     1      -1.498   2.802   1.390  1.00  0.00    -0.333 N 
HETATM   22  C3  UNL     1      -1.321   4.143   0.814  1.00  0.00     0.178 C 
HETATM   23  O1  UNL     1      -0.606   4.032  -0.312  1.00  0.00    -0.172 OA
HETATM   24  H4  UNL     1      -2.104   3.223   2.183  1.00  0.00     0.168 HD
BRANCH  22  25
HETATM   25  C2  UNL     1      -1.437   5.583   0.685  1.00  0.00     0.049 C 
HETATM   26  C1  UNL     1      -0.802   6.098  -0.393  1.00  0.00     0.015 C 
ENDBRANCH  22  25
ENDBRANCH   1  21
BRANCH   7  27
HETATM   27  N6  UNL     1      -3.091   0.543   0.468  1.00  0.00    -0.382 N 
HETATM   28  C18 UNL     1      -3.881   1.706   0.900  1.00  0.00     0.150 C 
BRANCH  27  29
HETATM   29  C19 UNL     1      -3.825  -0.727   0.399  1.00  0.00     0.152 C 
BRANCH  29  30
HETATM   30  C20 UNL     1      -4.929  -0.763  -0.618  1.00  0.00     0.291 C 
BRANCH  30  31
HETATM   31  N7  UNL     1      -5.570  -2.022  -0.557  1.00  0.00     0.081 N 
HETATM   32  C21 UNL     1      -6.725  -2.119  -1.398  1.00  0.00     0.309 C 
HETATM   33  C22 UNL     1      -4.780  -3.208  -0.643  1.00  0.00     0.309 C 
ENDBRANCH  30  31
ENDBRANCH  29  30
ENDBRANCH  27  29
ENDBRANCH   7  27
TORSDOF 8
