REMARK  7 active torsions:
REMARK  status: ('A' for Active; 'I' for Inactive)
REMARK    1  A    between atoms: C2_2  and  C3_3 
REMARK       I    between atoms: C3_3  and  N1_5 
REMARK    2  A    between atoms: N1_5  and  C4_6 
REMARK    3  A    between atoms: N2_9  and  C7_10 
REMARK    4  A    between atoms: C14_20  and  O2_21 
REMARK    5  A    between atoms: N6_24  and  C17_25 
REMARK    6  A    between atoms: C17_25  and  C18_26 
REMARK    7  A    between atoms: C18_26  and  C20_28 
ROOT
HETATM    1  C4  UNL     1      -1.044  -1.507  -0.801  1.00  0.00     0.119 C 
HETATM    2  C5  UNL     1      -0.068  -1.898  -1.638  1.00  0.00     0.043 C 
HETATM    3  C6  UNL     1       1.203  -1.264  -2.101  1.00  0.00     0.175 C 
HETATM    4  N2  UNL     1       1.755  -0.394  -1.087  1.00  0.00    -0.181 N 
HETATM    5  C14 UNL     1       1.458   0.980  -0.797  1.00  0.00     0.259 C 
HETATM    6  C16 UNL     1       0.024   1.373  -1.054  1.00  0.00     0.197 C 
HETATM    7  N6  UNL     1      -0.902   1.024  -0.079  1.00  0.00    -0.322 N 
HETATM    8  N7  UNL     1      -1.241  -0.330  -0.027  1.00  0.00    -0.288 N 
HETATM    9  H33 UNL     1      -1.817  -0.558   0.838  1.00  0.00     0.188 HD
ENDROOT
BRANCH   4  10
HETATM   10  C7  UNL     1       2.728  -1.066  -0.301  1.00  0.00     0.744 A 
HETATM   11  N3  UNL     1       3.001  -2.341  -0.657  1.00  0.00    -0.071 NA
HETATM   12  C8  UNL     1       3.914  -3.074   0.032  1.00  0.00     0.168 A 
HETATM   13  C9  UNL     1       4.569  -2.513   1.103  1.00  0.00     0.077 A 
HETATM   14  C10 UNL     1       5.529  -3.060   1.945  1.00  0.00     0.035 A 
HETATM   15  N4  UNL     1       4.291  -1.222   1.461  1.00  0.00    -0.222 N 
HETATM   16  C11 UNL     1       5.807  -2.031   2.820  1.00  0.00     0.029 A 
HETATM   17  C12 UNL     1       5.051  -0.915   2.521  1.00  0.00     0.033 A 
HETATM   18  C13 UNL     1       5.061   0.383   3.223  1.00  0.00     0.070 C 
HETATM   19  N5  UNL     1       3.393  -0.563   0.751  1.00  0.00     0.026 NA
ENDBRANCH   4  10
BRANCH   5  20
HETATM   20  O2  UNL     1       1.963   1.365   0.418  1.00  0.00    -0.369 OA
HETATM   21  C15 UNL     1       2.981   2.310   0.298  1.00  0.00     0.204 C 
ENDBRANCH   5  20
BRANCH   1  22
HETATM   22  N1  UNL     1      -2.097  -2.482  -0.665  1.00  0.00    -0.312 N 
HETATM   23  C3  UNL     1      -3.481  -2.306  -0.983  1.00  0.00     0.222 C 
HETATM   24  O1  UNL     1      -3.814  -1.195  -1.424  1.00  0.00    -0.273 OA
HETATM   25  H6  UNL     1      -1.574  -3.312  -0.285  1.00  0.00     0.170 HD
BRANCH  23  26
HETATM   26  C2  UNL     1      -4.184  -3.574  -0.681  1.00  0.00     0.099 C 
HETATM   27  C1  UNL     1      -5.638  -3.413  -1.040  1.00  0.00     0.014 C 
ENDBRANCH  23  26
ENDBRANCH   1  22
BRANCH   7  28
HETATM   28  C17 UNL     1      -1.856   1.894   0.430  1.00  0.00     0.146 C 
BRANCH  28  29
HETATM   29  C18 UNL     1      -2.992   2.333  -0.444  1.00  0.00     0.001 C 
HETATM   30  C19 UNL     1      -2.508   3.059  -1.669  1.00  0.00     0.011 C 
BRANCH  29  31
HETATM   31  C20 UNL     1      -3.853   3.259   0.428  1.00  0.00     0.001 C 
HETATM   32  C21 UNL     1      -3.121   4.453   0.927  1.00  0.00     0.005 C 
ENDBRANCH  29  31
ENDBRANCH  28  29
ENDBRANCH   7  28
TORSDOF 7
