REMARK  4 active torsions:
REMARK  status: ('A' for Active; 'I' for Inactive)
REMARK    1  A    between atoms: O1_2  and  C2_3 
REMARK    2  A    between atoms: C3_4  and  N1_5 
REMARK    3  A    between atoms: N1_5  and  C4_6 
REMARK    4  A    between atoms: C9_12  and  C10_13 
ROOT
HETATM    1  C4  UNL     1      -0.308  -0.130   0.079  1.00  0.00     0.743 A 
HETATM    2  N2  UNL     1      -0.957   0.607   1.026  1.00  0.00    -0.071 NA
HETATM    3  C5  UNL     1      -0.155   1.353   1.843  1.00  0.00     0.168 A 
HETATM    4  C6  UNL     1       1.232   1.370   1.731  1.00  0.00     0.077 A 
HETATM    5  C7  UNL     1       2.243   2.007   2.398  1.00  0.00     0.035 A 
HETATM    6  C8  UNL     1       3.428   1.609   1.807  1.00  0.00     0.035 A 
HETATM    7  C9  UNL     1       3.135   0.732   0.783  1.00  0.00     0.070 A 
HETATM    8  N3  UNL     1       1.778   0.606   0.761  1.00  0.00    -0.216 N 
HETATM    9  N4  UNL     1       1.031  -0.128  -0.047  1.00  0.00     0.027 NA
ENDROOT
BRANCH   1  10
HETATM   10  N1  UNL     1      -1.082  -0.917  -0.790  1.00  0.00    -0.188 N 
HETATM   11  H4  UNL     1      -0.643  -1.504  -1.537  1.00  0.00     0.184 HD
BRANCH  10  12
HETATM   12  C3  UNL     1      -2.520  -0.923  -0.660  1.00  0.00     0.061 C 
HETATM   13  C2  UNL     1      -3.091   0.115  -1.256  1.00  0.00     0.092 C 
HETATM   14  C19 UNL     1      -4.542   0.394  -1.301  1.00  0.00     0.055 C 
HETATM   15  C18 UNL     1      -5.569  -0.273  -0.764  1.00  0.00     0.085 C 
HETATM   16  N5  UNL     1      -5.428  -1.470   0.012  1.00  0.00    -0.398 N 
HETATM   17  C17 UNL     1      -4.316  -1.853   0.821  1.00  0.00     0.125 C 
HETATM   18  H17 UNL     1      -6.276  -2.109  -0.059  1.00  0.00     0.158 HD
HETATM   19  C16 UNL     1      -3.027  -2.060   0.092  1.00  0.00     0.080 C 
BRANCH  13  20
HETATM   20  O1  UNL     1      -2.410   1.096  -1.926  1.00  0.00    -0.354 OA
HETATM   21  C1  UNL     1      -2.573   2.463  -1.597  1.00  0.00     0.210 C 
ENDBRANCH  13  20
ENDBRANCH  10  12
ENDBRANCH   1  10
BRANCH   7  22
HETATM   22  C10 UNL     1       4.074   0.050  -0.125  1.00  0.00    -0.007 A 
HETATM   23  C11 UNL     1       5.178  -0.500   0.511  1.00  0.00     0.014 A 
HETATM   24  C12 UNL     1       6.173  -1.180  -0.163  1.00  0.00     0.001 A 
HETATM   25  C13 UNL     1       6.023  -1.294  -1.529  1.00  0.00     0.000 A 
HETATM   26  C14 UNL     1       4.938  -0.759  -2.188  1.00  0.00     0.001 A 
HETATM   27  C15 UNL     1       3.950  -0.080  -1.494  1.00  0.00     0.014 A 
ENDBRANCH   7  22
TORSDOF 4
