REMARK  4 active torsions:
REMARK  status: ('A' for Active; 'I' for Inactive)
REMARK    1  A    between atoms: C2_2  and  C3_3 
REMARK    2  A    between atoms: C7_7  and  N1_8 
REMARK    3  A    between atoms: C13_15  and  N3_16 
REMARK    4  A    between atoms: N3_16  and  N4_17 
REMARK       I    between atoms: N4_17  and  C14_18 
ROOT
HETATM    1  C3  UNL     1      -2.208  -1.184   0.615  1.00  0.00     0.130 C 
HETATM    2  C4  UNL     1      -2.157   0.131  -0.071  1.00  0.00     0.083 C 
HETATM    3  C5  UNL     1      -3.113   1.197   0.087  1.00  0.00    -0.008 C 
HETATM    4  C6  UNL     1      -2.605   2.416   0.353  1.00  0.00    -0.004 C 
HETATM    5  C7  UNL     1      -1.333   2.535  -0.073  1.00  0.00     0.035 C 
HETATM    6  C10 UNL     1      -0.705   1.834  -1.150  1.00  0.00     0.174 C 
HETATM    7  N2  UNL     1       0.370   0.964  -1.248  1.00  0.00    -0.406 N 
HETATM    8  C11 UNL     1       0.811   0.783  -2.587  1.00  0.00     0.144 C 
HETATM    9  C12 UNL     1       1.302   0.758  -0.261  1.00  0.00     0.176 C 
HETATM   10  C13 UNL     1       2.460  -0.089  -0.474  1.00  0.00     0.054 C 
HETATM   11  C16 UNL     1       2.423  -1.166  -1.244  1.00  0.00    -0.001 C 
HETATM   12  C17 UNL     1       1.246  -1.696  -1.162  1.00  0.00     0.007 C 
HETATM   13  C18 UNL     1       0.522  -1.559   0.082  1.00  0.00     0.157 C 
HETATM   14  N5  UNL     1      -0.880  -1.745   0.042  1.00  0.00    -0.317 N 
HETATM   15  C19 UNL     1      -1.546  -2.785  -0.678  1.00  0.00     0.241 C 
HETATM   16  N6  UNL     1      -2.520  -2.022  -1.249  1.00  0.00    -0.136 NA
HETATM   17  N7  UNL     1      -3.101  -2.205  -0.014  1.00  0.00    -0.270 N 
HETATM   18  C20 UNL     1      -4.026  -3.238  -0.579  1.00  0.00     0.177 C 
HETATM   19  C21 UNL     1      -3.137  -4.053  -1.634  1.00  0.00     0.158 C 
HETATM   20  N8  UNL     1      -1.892  -4.157  -0.914  1.00  0.00    -0.245 NA
ENDROOT
BRANCH  10  21
HETATM   21  N3  UNL     1       3.779   0.094   0.098  1.00  0.00    -0.300 N 
HETATM   22  H22 UNL     1       4.073   0.991   0.532  1.00  0.00     0.186 HD
BRANCH  21  23
HETATM   23  N4  UNL     1       4.703  -0.958   0.076  1.00  0.00    -0.270 N 
HETATM   24  C14 UNL     1       6.034  -0.832   0.457  1.00  0.00     0.232 C 
HETATM   25  C15 UNL     1       6.974  -1.970   0.418  1.00  0.00     0.119 C 
HETATM   26  O1  UNL     1       6.465   0.285   0.845  1.00  0.00    -0.272 OA
HETATM   27  H23 UNL     1       4.388  -1.897  -0.215  1.00  0.00     0.190 HD
ENDBRANCH  21  23
ENDBRANCH  10  21
BRANCH   5  28
HETATM   28  N1  UNL     1      -0.586   3.516   0.644  1.00  0.00    -0.391 N 
HETATM   29  C8  UNL     1      -1.123   4.769   0.094  1.00  0.00     0.148 C 
HETATM   30  C9  UNL     1       0.435   3.692   1.633  1.00  0.00     0.148 C 
ENDBRANCH   5  28
BRANCH   1  31
HETATM   31  C2  UNL     1      -2.275  -1.255   2.065  1.00  0.00     0.051 C 
HETATM   32  C1  UNL     1      -3.571  -0.592   2.544  1.00  0.00     0.009 C 
ENDBRANCH   1  31
TORSDOF 4
