REMARK  9 active torsions:
REMARK  status: ('A' for Active; 'I' for Inactive)
REMARK    1  A    between atoms: C2_2  and  C3_3 
REMARK       I    between atoms: C3_3  and  N1_5 
REMARK    2  A    between atoms: N1_5  and  C4_6 
REMARK    3  A    between atoms: C6_8  and  N2_9 
REMARK    4  A    between atoms: N2_9  and  C7_10 
REMARK    5  A    between atoms: C12_19  and  O2_20 
REMARK    6  A    between atoms: C15_23  and  N7_24 
REMARK    7  A    between atoms: N7_24  and  C17_26 
REMARK    8  A    between atoms: C17_26  and  C18_27 
REMARK    9  A    between atoms: C18_27  and  N8_28 
ROOT
HETATM    1  C4  UNL     1      -0.124  -0.506  -0.252  1.00  0.00     0.064 A 
HETATM    2  C5  UNL     1      -1.387   0.015  -0.436  1.00  0.00     0.065 A 
HETATM    3  C6  UNL     1      -1.723   1.307  -0.097  1.00  0.00     0.085 A 
HETATM    4  C12 UNL     1      -0.678   2.058   0.453  1.00  0.00     0.097 A 
HETATM    5  C14 UNL     1       0.588   1.548   0.642  1.00  0.00     0.070 A 
HETATM    6  C15 UNL     1       0.891   0.250   0.291  1.00  0.00     0.059 A 
ENDROOT
BRANCH   3   7
HETATM    7  N2  UNL     1      -3.011   1.872  -0.284  1.00  0.00    -0.184 N 
HETATM    8  H6  UNL     1      -3.134   2.897  -0.022  1.00  0.00     0.184 HD
BRANCH   7   9
HETATM    9  C7  UNL     1      -4.124   1.156  -0.800  1.00  0.00     0.745 A 
HETATM   10  N3  UNL     1      -4.288  -0.038  -0.310  1.00  0.00     0.038 NA
HETATM   11  N4  UNL     1      -5.367  -0.789  -0.781  1.00  0.00    -0.179 N 
HETATM   12  N5  UNL     1      -5.773  -2.070  -0.437  1.00  0.00    -0.212 NA
HETATM   13  C10 UNL     1      -6.243  -0.227  -1.771  1.00  0.00     0.087 A 
HETATM   14  C8  UNL     1      -6.932  -2.369  -1.215  1.00  0.00     0.142 A 
HETATM   15  H7  UNL     1      -5.001  -2.741  -0.542  1.00  0.00     0.149 HD
HETATM   16  C9  UNL     1      -7.168  -1.151  -2.033  1.00  0.00     0.023 A 
HETATM   17  C11 UNL     1      -5.975   1.132  -2.264  1.00  0.00     0.169 A 
HETATM   18  N6  UNL     1      -4.950   1.799  -1.793  1.00  0.00    -0.071 NA
ENDBRANCH   7   9
ENDBRANCH   3   7
BRANCH   4  19
HETATM   19  O2  UNL     1      -0.979   3.362   0.806  1.00  0.00    -0.354 OA
HETATM   20  C13 UNL     1       0.041   4.166   1.367  1.00  0.00     0.210 C 
ENDBRANCH   4  19
BRANCH   1  21
HETATM   21  N1  UNL     1       0.163  -1.834  -0.621  1.00  0.00    -0.322 N 
HETATM   22  C3  UNL     1       0.150  -3.164  -0.095  1.00  0.00     0.244 C 
HETATM   23  O1  UNL     1      -0.184  -3.539   1.034  1.00  0.00    -0.268 OA
HETATM   24  H4  UNL     1       0.479  -1.674  -1.620  1.00  0.00     0.169 HD
BRANCH  22  25
HETATM   25  C2  UNL     1       0.586  -4.223  -1.005  1.00  0.00     0.064 C 
HETATM   26  C1  UNL     1       0.409  -5.195  -0.125  1.00  0.00     0.017 C 
ENDBRANCH  22  25
ENDBRANCH   1  21
BRANCH   6  27
HETATM   27  N7  UNL     1       2.221  -0.179   0.527  1.00  0.00    -0.382 N 
HETATM   28  C16 UNL     1       2.729  -1.244   1.404  1.00  0.00     0.150 C 
BRANCH  27  29
HETATM   29  C17 UNL     1       3.325   0.456  -0.150  1.00  0.00     0.152 C 
BRANCH  29  30
HETATM   30  C18 UNL     1       4.228   1.251   0.766  1.00  0.00     0.291 C 
BRANCH  30  31
HETATM   31  N8  UNL     1       5.263   1.811  -0.093  1.00  0.00     0.081 N 
HETATM   32  C19 UNL     1       6.224   2.614   0.602  1.00  0.00     0.309 C 
HETATM   33  C20 UNL     1       5.844   0.816  -0.939  1.00  0.00     0.309 C 
ENDBRANCH  30  31
ENDBRANCH  29  30
ENDBRANCH  27  29
ENDBRANCH   6  27
TORSDOF 9
