REMARK  6 active torsions:
REMARK  status: ('A' for Active; 'I' for Inactive)
REMARK    1  A    between atoms: C3_3  and  N1_5 
REMARK    2  A    between atoms: N1_5  and  C4_6 
REMARK    3  A    between atoms: C7_9  and  O2_10 
REMARK    4  A    between atoms: N3_14  and  N4_15 
REMARK    5  A    between atoms: C16_22  and  N5_23 
REMARK    6  A    between atoms: C19_26  and  N6_27 
ROOT
HETATM    1  C4  UNL     1      -0.597   1.265  -1.301  1.00  0.00     0.063 C 
HETATM    2  C5  UNL     1      -1.797   1.252  -1.865  1.00  0.00     0.063 C 
HETATM    3  C6  UNL     1      -2.826   0.236  -1.674  1.00  0.00     0.058 C 
HETATM    4  C7  UNL     1      -3.764   0.173  -2.607  1.00  0.00     0.163 C 
HETATM    5  N2  UNL     1      -2.964  -0.706  -0.616  1.00  0.00    -0.338 N 
HETATM    6  C9  UNL     1      -1.999  -0.963   0.404  1.00  0.00     0.150 C 
HETATM    7  N3  UNL     1      -2.405  -1.545   1.485  1.00  0.00    -0.150 NA
HETATM    8  C15 UNL     1      -0.566  -0.635   0.364  1.00  0.00     0.084 C 
HETATM    9  C16 UNL     1       0.035   0.318  -0.366  1.00  0.00     0.061 C 
HETATM   10  H10 UNL     1      -3.846  -1.283  -0.548  1.00  0.00     0.167 HD
ENDROOT
BRANCH   9  11
HETATM   11  N5  UNL     1       1.427   0.334  -0.141  1.00  0.00    -0.379 N 
HETATM   12  C17 UNL     1       1.930   0.343   1.225  1.00  0.00     0.125 C 
HETATM   13  C18 UNL     1       3.301   0.988   1.209  1.00  0.00     0.055 C 
HETATM   14  C19 UNL     1       4.325   0.177   0.491  1.00  0.00     0.225 C 
HETATM   15  C22 UNL     1       3.674  -0.504  -0.673  1.00  0.00     0.055 C 
HETATM   16  C23 UNL     1       2.496   0.343  -1.157  1.00  0.00     0.125 C 
BRANCH  14  17
HETATM   17  N6  UNL     1       5.071  -0.657   1.360  1.00  0.00     0.084 N 
HETATM   18  C20 UNL     1       4.328  -1.620   2.102  1.00  0.00     0.309 C 
HETATM   19  C21 UNL     1       6.250  -1.233   0.801  1.00  0.00     0.309 C 
ENDBRANCH  14  17
ENDBRANCH   9  11
BRANCH   1  20
HETATM   20  N1  UNL     1       0.272   2.351  -1.615  1.00  0.00    -0.335 N 
HETATM   21  H4  UNL     1       0.658   2.663  -2.535  1.00  0.00     0.168 HD
BRANCH  20  22
HETATM   22  C3  UNL     1       0.733   3.197  -0.549  1.00  0.00     0.141 A 
HETATM   23  C2  UNL     1       1.624   4.339  -0.743  1.00  0.00     0.056 A 
HETATM   24  C1  UNL     1       1.644   4.652   0.564  1.00  0.00     0.209 A 
HETATM   25  O1  UNL     1       0.672   3.390   0.699  1.00  0.00    -0.332 OA
ENDBRANCH  20  22
ENDBRANCH   1  20
BRANCH   7  26
HETATM   26  N4  UNL     1      -3.733  -1.899   1.630  1.00  0.00    -0.248 N 
HETATM   27  C10 UNL     1      -4.847  -1.344   2.104  1.00  0.00     0.118 A 
HETATM   28  C11 UNL     1      -5.932  -2.194   1.992  1.00  0.00     0.021 A 
HETATM   29  C12 UNL     1      -5.416  -3.347   1.402  1.00  0.00     0.028 A 
HETATM   30  C13 UNL     1      -4.059  -3.144   1.188  1.00  0.00     0.032 A 
HETATM   31  C14 UNL     1      -3.286  -4.260   0.558  1.00  0.00     0.070 C 
ENDBRANCH   7  26
BRANCH   4  32
HETATM   32  O2  UNL     1      -3.725   1.051  -3.689  1.00  0.00    -0.366 OA
HETATM   33  C8  UNL     1      -4.518   2.217  -3.690  1.00  0.00     0.209 C 
ENDBRANCH   4  32
TORSDOF 6
