REMARK  2 active torsions:
REMARK  status: ('A' for Active; 'I' for Inactive)
REMARK    1  A    between atoms: C5_6  and  C6_7 
REMARK    2  A    between atoms: C15_20  and  N6_21 
ROOT
HETATM    1  C6  UNL     1       0.192  -0.653   0.317  1.00  0.00     0.234 A 
HETATM    2  C7  UNL     1       0.768  -1.738   1.028  1.00  0.00     0.048 A 
HETATM    3  C8  UNL     1       2.148  -1.675   0.996  1.00  0.00     0.047 A 
HETATM    4  C9  UNL     1       2.210  -0.556   0.268  1.00  0.00     0.240 A 
HETATM    5  C10 UNL     1       3.266   0.164  -0.197  1.00  0.00     0.258 A 
HETATM    6  N2  UNL     1       2.393   0.959  -0.725  1.00  0.00     0.302 N 
HETATM    7  C11 UNL     1       2.351   1.961  -1.384  1.00  0.00     0.451 A 
HETATM    8  N3  UNL     1       1.409   1.256  -0.925  1.00  0.00     0.185 NA
HETATM    9  N4  UNL     1       1.160   0.185  -0.221  1.00  0.00     0.283 N 
HETATM   10  N5  UNL     1       3.585   2.433  -1.698  1.00  0.00    -0.342 N 
HETATM   11  C12 UNL     1       5.015   2.324  -1.669  1.00  0.00     0.087 C 
HETATM   12  C13 UNL     1       5.835   1.430  -1.129  1.00  0.00     0.019 C 
HETATM   13  C14 UNL     1       5.607   0.184  -0.368  1.00  0.00     0.027 C 
HETATM   14  C15 UNL     1       4.538  -0.380   0.176  1.00  0.00     0.048 C 
HETATM   15  H7  UNL     1       2.796   3.045  -2.049  1.00  0.00     0.163 HD
ENDROOT
BRANCH   1  16
HETATM   16  C5  UNL     1      -1.100  -0.144  -0.041  1.00  0.00     0.124 C 
HETATM   17  C4  UNL     1      -1.620   0.857  -0.687  1.00  0.00     0.130 C 
HETATM   18  N1  UNL     1      -3.037   0.964  -0.796  1.00  0.00    -0.354 N 
HETATM   19  C3  UNL     1      -3.773   0.634   0.214  1.00  0.00     0.013 A 
HETATM   20  C1  UNL     1      -3.953   1.337  -1.705  1.00  0.00     0.157 A 
HETATM   21  C2  UNL     1      -4.796   1.029  -0.747  1.00  0.00     0.019 A 
HETATM   22  C20 UNL     1      -4.084   0.156   1.586  1.00  0.00     0.084 C 
HETATM   23  C19 UNL     1      -4.987  -0.956   1.734  1.00  0.00    -0.009 C 
HETATM   24  C18 UNL     1      -5.089  -2.059   1.029  1.00  0.00    -0.032 C 
HETATM   25  C17 UNL     1      -3.943  -2.285   0.405  1.00  0.00     0.011 C 
HETATM   26  C16 UNL     1      -2.673  -1.797   1.096  1.00  0.00     0.204 C 
HETATM   27  O1  UNL     1      -1.961  -0.942   0.439  1.00  0.00    -0.344 OA
ENDBRANCH   1  16
BRANCH  14  28
HETATM   28  N6  UNL     1       4.451  -1.418   1.069  1.00  0.00    -0.301 NA
HETATM   29  H11 UNL     1       4.574  -1.957   0.141  1.00  0.00     0.124 HD
HETATM   30  H12 UNL     1       4.337  -0.759   1.909  1.00  0.00     0.124 HD
ENDBRANCH  14  28
TORSDOF 2
