REMARK  3 active torsions:
REMARK  status: ('A' for Active; 'I' for Inactive)
REMARK    1  A    between atoms: O1_2  and  C2_3 
REMARK    2  A    between atoms: C4_5  and  N1_6 
REMARK    3  A    between atoms: C7_9  and  N2_10 
ROOT
HETATM    1  C2  UNL     1      -1.604  -2.376   0.294  1.00  0.00     0.079 A 
HETATM    2  C3  UNL     1      -0.274  -2.068   0.465  1.00  0.00     0.069 A 
HETATM    3  C4  UNL     1       0.260  -1.035  -0.247  1.00  0.00     0.060 A 
HETATM    4  C12 UNL     1      -0.529  -0.328  -1.112  1.00  0.00     0.062 A 
HETATM    5  C13 UNL     1      -1.892  -0.707  -1.237  1.00  0.00     0.044 A 
HETATM    6  C14 UNL     1      -2.489  -1.738  -0.546  1.00  0.00     0.002 A 
HETATM    7  C15 UNL     1      -3.911  -2.036  -0.724  1.00  0.00     0.139 C 
HETATM    8  C16 UNL     1      -4.471  -2.840   0.448  1.00  0.00     0.039 C 
HETATM    9  N3  UNL     1      -4.695  -0.892  -1.001  1.00  0.00    -0.290 NA
HETATM   10  C17 UNL     1      -4.603   0.333  -0.832  1.00  0.00     0.142 C 
HETATM   11  C18 UNL     1      -4.114   1.652  -0.455  1.00  0.00     0.075 A 
HETATM   12  C19 UNL     1      -4.404   2.069   0.820  1.00  0.00     0.034 A 
HETATM   13  C20 UNL     1      -3.840   3.313   1.009  1.00  0.00     0.022 A 
HETATM   14  C21 UNL     1      -3.248   3.525  -0.215  1.00  0.00     0.119 A 
HETATM   15  N4  UNL     1      -3.383   2.554  -1.137  1.00  0.00    -0.243 N 
HETATM   16  N5  UNL     1      -2.924   2.513  -2.452  1.00  0.00    -0.165 NA
HETATM   17  C22 UNL     1      -1.897   3.203  -2.741  1.00  0.00     0.113 C 
HETATM   18  C23 UNL     1      -0.971   3.392  -1.808  1.00  0.00     0.110 C 
HETATM   19  C24 UNL     1      -0.876   2.017  -1.318  1.00  0.00     0.248 C 
HETATM   20  O2  UNL     1      -1.070   1.155  -0.439  1.00  0.00    -0.268 OA
HETATM   21  N6  UNL     1      -0.326   0.831  -1.968  1.00  0.00    -0.322 N 
HETATM   22  H30 UNL     1       0.135   0.187  -2.635  1.00  0.00     0.169 HD
ENDROOT
BRANCH   3  23
HETATM   23  N1  UNL     1       1.518  -0.402  -0.409  1.00  0.00    -0.379 N 
HETATM   24  C5  UNL     1       2.391  -0.266  -1.551  1.00  0.00     0.125 C 
HETATM   25  C6  UNL     1       3.832  -0.534  -1.084  1.00  0.00     0.055 C 
HETATM   26  C7  UNL     1       4.241   0.691  -0.295  1.00  0.00     0.225 C 
HETATM   27  C10 UNL     1       3.130   1.190   0.584  1.00  0.00     0.055 C 
HETATM   28  C11 UNL     1       2.012   0.215   0.782  1.00  0.00     0.125 C 
BRANCH  26  29
HETATM   29  N2  UNL     1       5.420   0.509   0.488  1.00  0.00     0.084 N 
HETATM   30  C8  UNL     1       5.798   1.679   1.234  1.00  0.00     0.309 C 
HETATM   31  C9  UNL     1       5.448  -0.647   1.324  1.00  0.00     0.309 C 
ENDBRANCH  26  29
ENDBRANCH   3  23
BRANCH   1  32
HETATM   32  O1  UNL     1      -2.044  -3.440   1.063  1.00  0.00    -0.355 OA
HETATM   33  C1  UNL     1      -1.283  -4.188   1.956  1.00  0.00     0.210 C 
ENDBRANCH   1  32
TORSDOF 3
