REMARK  7 active torsions:
REMARK  status: ('A' for Active; 'I' for Inactive)
REMARK       I    between atoms: N1_3  and  C3_4 
REMARK    1  A    between atoms: C3_4  and  C4_6 
REMARK    2  A    between atoms: C4_6  and  C5_7 
REMARK    3  A    between atoms: C4_6  and  N2_9 
REMARK    4  A    between atoms: C5_7  and  O2_8 
REMARK    5  A    between atoms: N2_9  and  C7_11 
REMARK    6  A    between atoms: C7_11  and  C8_12 
REMARK    7  A    between atoms: C9_13  and  O3_14 
ROOT
HETATM    1  C8  UNL     1      -1.249  -0.001  -0.594  1.00  0.00     0.107 C 
HETATM    2  C9  UNL     1      -1.654  -1.296  -0.007  1.00  0.00     0.069 C 
HETATM    3  C11 UNL     1      -0.822  -1.674   0.931  1.00  0.00     0.040 C 
HETATM    4  C12 UNL     1      -0.891  -0.909   1.995  1.00  0.00     0.096 C 
HETATM    5  N3  UNL     1      -1.703   0.077   1.783  1.00  0.00    -0.267 NA
HETATM    6  C13 UNL     1      -3.080  -0.349   1.804  1.00  0.00     0.271 C 
HETATM    7  N4  UNL     1      -3.749  -0.394   0.554  1.00  0.00    -0.369 N 
HETATM    8  C14 UNL     1      -3.552   0.899  -0.060  1.00  0.00     0.077 A 
HETATM    9  C15 UNL     1      -2.265   1.037  -0.607  1.00  0.00    -0.016 A 
HETATM   10  C16 UNL     1      -2.067   2.246  -1.176  1.00  0.00     0.012 A 
HETATM   11  C17 UNL     1      -2.976   3.276  -1.250  1.00  0.00     0.028 A 
HETATM   12  C18 UNL     1      -4.231   3.117  -0.708  1.00  0.00     0.074 A 
HETATM   13 CL1  UNL     1      -5.579   4.223  -0.646  1.00  0.00    -0.081 Cl
HETATM   14  C19 UNL     1      -4.491   1.879  -0.104  1.00  0.00     0.165 A 
HETATM   15  F1  UNL     1      -5.629   1.425   0.500  1.00  0.00    -0.202 F 
HETATM   16  H20 UNL     1      -4.297  -0.730  -0.232  1.00  0.00     0.161 HD
ENDROOT
BRANCH   1  17
HETATM   17  C7  UNL     1       0.170   0.393  -0.399  1.00  0.00     0.289 C 
BRANCH  17  18
HETATM   18  N2  UNL     1       1.078  -0.613  -0.997  1.00  0.00     0.101 N 
HETATM   19  C6  UNL     1       0.822  -0.546  -2.424  1.00  0.00     0.311 C 
BRANCH  18  20
HETATM   20  C4  UNL     1       2.443  -0.315  -0.790  1.00  0.00     0.339 C 
BRANCH  20  21
HETATM   21  C3  UNL     1       2.868  -0.323   0.630  1.00  0.00     0.278 C 
HETATM   22  N1  UNL     1       4.272  -0.002   0.732  1.00  0.00    -0.229 NA
HETATM   23  C2  UNL     1       5.081  -0.781   1.370  1.00  0.00     0.089 C 
HETATM   24  C1  UNL     1       6.551  -0.682   1.620  1.00  0.00     0.057 C 
HETATM   25  O1  UNL     1       2.435  -0.515   1.812  1.00  0.00    -0.269 OA
ENDBRANCH  20  21
BRANCH  20  26
HETATM   26  C5  UNL     1       2.813   0.996  -1.435  1.00  0.00     0.210 C 
BRANCH  26  27
HETATM   27  O2  UNL     1       4.181   1.280  -1.242  1.00  0.00    -0.398 OA
HETATM   28  H8  UNL     1       4.711   0.610  -1.759  1.00  0.00     0.209 HD
ENDBRANCH  26  27
ENDBRANCH  20  26
ENDBRANCH  18  20
ENDBRANCH  17  18
ENDBRANCH   1  17
BRANCH   2  29
HETATM   29  O3  UNL     1      -2.225  -2.469   0.362  1.00  0.00    -0.358 OA
HETATM   30  C10 UNL     1      -2.763  -3.308  -0.666  1.00  0.00     0.209 C 
ENDBRANCH   2  29
TORSDOF 7
