REMARK  7 active torsions:
REMARK  status: ('A' for Active; 'I' for Inactive)
REMARK    1  A    between atoms: C2_2  and  C3_3 
REMARK       I    between atoms: C3_3  and  N1_5 
REMARK    2  A    between atoms: N1_5  and  C4_6 
REMARK    3  A    between atoms: C6_8  and  N2_9 
REMARK    4  A    between atoms: C6_8  and  O2_20 
REMARK    5  A    between atoms: N2_9  and  C7_10 
REMARK    6  A    between atoms: C16_23  and  N6_24 
REMARK    7  A    between atoms: C19_27  and  N7_28 
ROOT
HETATM    1  C4  UNL     1       1.164   2.098   0.129  1.00  0.00     0.062 A 
HETATM    2  C5  UNL     1       2.308   1.642   0.616  1.00  0.00     0.070 A 
HETATM    3  C6  UNL     1       2.126   0.505   1.530  1.00  0.00     0.192 A 
HETATM    4  C15 UNL     1       0.623   0.384   1.475  1.00  0.00     0.070 A 
HETATM    5  C16 UNL     1       0.065   1.303   0.667  1.00  0.00     0.058 A 
ENDROOT
BRANCH   3   6
HETATM    6  N2  UNL     1       2.805  -0.691   1.175  1.00  0.00    -0.181 N 
HETATM    7  H6  UNL     1       3.526  -1.123   1.821  1.00  0.00     0.181 HD
BRANCH   6   8
HETATM    8  C7  UNL     1       2.560  -1.362  -0.044  1.00  0.00     0.742 A 
HETATM    9  N3  UNL     1       1.664  -0.890  -0.930  1.00  0.00    -0.072 NA
HETATM   10  C8  UNL     1       1.405  -1.507  -2.106  1.00  0.00     0.168 A 
HETATM   11  C9  UNL     1       2.078  -2.686  -2.448  1.00  0.00     0.077 A 
HETATM   12  C10 UNL     1       2.098  -3.584  -3.511  1.00  0.00     0.035 A 
HETATM   13  N4  UNL     1       2.964  -3.120  -1.533  1.00  0.00    -0.222 N 
HETATM   14  C11 UNL     1       3.035  -4.571  -3.191  1.00  0.00     0.029 A 
HETATM   15  C12 UNL     1       3.564  -4.270  -1.959  1.00  0.00     0.033 A 
HETATM   16  C13 UNL     1       4.598  -5.071  -1.250  1.00  0.00     0.070 C 
HETATM   17  N5  UNL     1       3.191  -2.489  -0.392  1.00  0.00     0.026 NA
ENDBRANCH   6   8
ENDBRANCH   3   6
BRANCH   3  18
HETATM   18  O2  UNL     1       2.399   0.853   2.863  1.00  0.00    -0.358 OA
HETATM   19  C14 UNL     1       3.705   1.290   2.984  1.00  0.00     0.205 C 
ENDBRANCH   3  18
BRANCH   1  20
HETATM   20  N1  UNL     1       0.884   3.145  -0.759  1.00  0.00    -0.322 N 
HETATM   21  C3  UNL     1       0.108   4.286  -0.434  1.00  0.00     0.244 C 
HETATM   22  O1  UNL     1      -0.482   4.641   0.633  1.00  0.00    -0.268 OA
HETATM   23  H4  UNL     1       1.230   3.170  -1.745  1.00  0.00     0.169 HD
BRANCH  21  24
HETATM   24  C2  UNL     1      -0.250   5.420  -1.261  1.00  0.00     0.064 C 
HETATM   25  C1  UNL     1      -0.990   6.382  -0.745  1.00  0.00     0.017 C 
ENDBRANCH  21  24
ENDBRANCH   1  20
BRANCH   5  26
HETATM   26  N6  UNL     1      -1.362   1.258   0.550  1.00  0.00    -0.379 N 
HETATM   27  C17 UNL     1      -2.352   1.996   1.306  1.00  0.00     0.125 C 
HETATM   28  C18 UNL     1      -3.600   1.222   1.575  1.00  0.00     0.044 C 
HETATM   29  C19 UNL     1      -3.989   0.253   0.511  1.00  0.00     0.081 C 
HETATM   30  C22 UNL     1      -3.121   0.224  -0.686  1.00  0.00     0.044 C 
HETATM   31  C23 UNL     1      -1.660   0.305  -0.490  1.00  0.00     0.125 C 
BRANCH  29  32
HETATM   32  N7  UNL     1      -4.224  -1.059   1.028  1.00  0.00    -0.416 N 
HETATM   33  C20 UNL     1      -3.163  -1.695   1.711  1.00  0.00     0.143 C 
HETATM   34  C21 UNL     1      -5.053  -1.895   0.208  1.00  0.00     0.143 C 
ENDBRANCH  29  32
ENDBRANCH   5  26
TORSDOF 7
