REMARK  6 active torsions:
REMARK  status: ('A' for Active; 'I' for Inactive)
REMARK    1  A    between atoms: C2_2  and  C3_3 
REMARK    2  A    between atoms: C3_3  and  C4_4 
REMARK    3  A    between atoms: C5_5  and  N1_6 
REMARK    4  A    between atoms: C8_9  and  N2_10 
REMARK    5  A    between atoms: C13_15  and  N3_16 
REMARK    6  A    between atoms: N3_16  and  C14_17 
ROOT
HETATM    1  C3  UNL     1      -1.869  -1.898   0.568  1.00  0.00    -0.041 C 
HETATM    2  C13 UNL     1      -3.048  -1.944  -0.043  1.00  0.00     0.113 C 
ENDROOT
BRANCH   1   3
HETATM    3  C2  UNL     1      -1.362  -2.642   1.748  1.00  0.00     0.035 C 
HETATM    4  C1  UNL     1      -2.385  -3.588   2.300  1.00  0.00     0.010 C 
ENDBRANCH   1   3
BRANCH   1   5
HETATM    5  C4  UNL     1      -0.912  -0.968  -0.010  1.00  0.00     0.025 C 
HETATM    6  C5  UNL     1       0.308  -0.735   0.398  1.00  0.00     0.086 C 
BRANCH   6   7
HETATM    7  N1  UNL     1       1.341   0.130  -0.059  1.00  0.00    -0.390 N 
HETATM    8  C6  UNL     1       2.189  -0.549  -0.981  1.00  0.00     0.124 C 
HETATM    9  C7  UNL     1       3.454   0.266  -1.226  1.00  0.00     0.055 C 
HETATM   10  C8  UNL     1       3.975   0.639   0.155  1.00  0.00     0.225 C 
HETATM   11  C11 UNL     1       3.060   1.735   0.650  1.00  0.00     0.055 C 
HETATM   12  C12 UNL     1       1.627   1.506   0.262  1.00  0.00     0.124 C 
BRANCH  10  13
HETATM   13  N2  UNL     1       5.331   1.106   0.143  1.00  0.00     0.084 N 
HETATM   14  C9  UNL     1       6.170   0.047  -0.388  1.00  0.00     0.309 C 
HETATM   15  C10 UNL     1       5.513   2.267  -0.700  1.00  0.00     0.309 C 
ENDBRANCH  10  13
ENDBRANCH   6   7
ENDBRANCH   1   5
BRANCH   2  16
HETATM   16  N3  UNL     1      -3.469  -1.208  -1.164  1.00  0.00    -0.196 N 
HETATM   17  H24 UNL     1      -3.074  -0.970  -2.094  1.00  0.00     0.183 HD
BRANCH  16  18
HETATM   18  C14 UNL     1      -4.759  -0.635  -1.016  1.00  0.00     0.744 C 
HETATM   19  N4  UNL     1      -5.372  -0.238   0.046  1.00  0.00     0.044 NA
HETATM   20  N5  UNL     1      -4.702  -0.368   1.264  1.00  0.00    -0.132 NA
HETATM   21  C15 UNL     1      -3.995   0.682   1.564  1.00  0.00     0.110 C 
HETATM   22  C16 UNL     1      -3.540   1.354   0.512  1.00  0.00     0.036 C 
HETATM   23  C17 UNL     1      -4.522   1.893  -0.408  1.00  0.00     0.004 C 
HETATM   24  C18 UNL     1      -5.423   1.930  -1.331  1.00  0.00     0.020 C 
HETATM   25  C19 UNL     1      -6.058   0.939  -2.155  1.00  0.00     0.136 C 
HETATM   26  N6  UNL     1      -5.742  -0.311  -2.009  1.00  0.00    -0.074 NA
ENDBRANCH  16  18
ENDBRANCH   2  16
TORSDOF 6
