REMARK  6 active torsions:
REMARK  status: ('A' for Active; 'I' for Inactive)
REMARK    1  A    between atoms: C2_2  and  C3_3 
REMARK    2  A    between atoms: C4_4  and  O1_5 
REMARK    3  A    between atoms: O1_5  and  N1_6 
REMARK    4  A    between atoms: C7_9  and  O2_11 
REMARK    5  A    between atoms: C11_14  and  N2_15 
REMARK    6  A    between atoms: N2_15  and  C12_16 
ROOT
HETATM    1  C1  UNL     1       0.459   2.253   1.586  1.00  0.00     0.049 C 
HETATM    2  C2  UNL     1       0.901   1.703   0.255  1.00  0.00    -0.044 C 
HETATM    3  C11 UNL     1       2.179   1.743  -0.155  1.00  0.00     0.113 C 
ENDROOT
BRANCH   2   4
HETATM    4  C3  UNL     1      -0.151   1.125  -0.609  1.00  0.00     0.034 C 
HETATM    5  C4  UNL     1      -1.425   1.082  -0.207  1.00  0.00     0.161 C 
BRANCH   5   6
HETATM    6  O1  UNL     1      -2.355   0.527  -1.073  1.00  0.00    -0.274 OA
BRANCH   6   7
HETATM    7  N1  UNL     1      -3.587   0.164  -0.637  1.00  0.00    -0.192 NA
HETATM    8  C5  UNL     1      -3.903  -1.124  -1.164  1.00  0.00     0.124 C 
HETATM    9  C6  UNL     1      -5.169  -1.724  -0.628  1.00  0.00     0.054 C 
HETATM   10  C7  UNL     1      -5.911  -0.692   0.213  1.00  0.00     0.056 C 
HETATM   11  C8  UNL     1      -6.417   0.437  -0.625  1.00  0.00     0.045 C 
HETATM   12  C9  UNL     1      -4.962  -0.280   1.302  1.00  0.00     0.054 C 
HETATM   13  C10 UNL     1      -3.682   0.303   0.780  1.00  0.00     0.124 C 
BRANCH  10  14
HETATM   14  O2  UNL     1      -6.969  -1.375   0.841  1.00  0.00    -0.390 OA
HETATM   15  H13 UNL     1      -7.827  -1.078   0.414  1.00  0.00     0.210 HD
ENDBRANCH  10  14
ENDBRANCH   6   7
ENDBRANCH   5   6
ENDBRANCH   2   4
BRANCH   3  16
HETATM   16  N2  UNL     1       2.570   1.205  -1.434  1.00  0.00    -0.196 N 
HETATM   17  H19 UNL     1       2.433   1.433  -2.428  1.00  0.00     0.183 HD
BRANCH  16  18
HETATM   18  C12 UNL     1       3.319   0.089  -0.910  1.00  0.00     0.743 A 
HETATM   19  N3  UNL     1       2.874  -1.128  -0.533  1.00  0.00    -0.071 NA
HETATM   20  C13 UNL     1       3.814  -1.997  -0.062  1.00  0.00     0.168 A 
HETATM   21  C14 UNL     1       5.168  -1.659   0.030  1.00  0.00     0.077 A 
HETATM   22  C15 UNL     1       6.276  -2.354   0.466  1.00  0.00     0.035 A 
HETATM   23  N4  UNL     1       5.560  -0.427  -0.362  1.00  0.00    -0.222 N 
HETATM   24  C16 UNL     1       7.330  -1.507   0.322  1.00  0.00     0.029 A 
HETATM   25  C17 UNL     1       6.906  -0.297  -0.194  1.00  0.00     0.033 A 
HETATM   26  C18 UNL     1       7.760   0.881  -0.496  1.00  0.00     0.070 C 
HETATM   27  N5  UNL     1       4.638   0.433  -0.827  1.00  0.00     0.026 NA
ENDBRANCH  16  18
ENDBRANCH   3  16
TORSDOF 6
