REMARK  6 active torsions:
REMARK  status: ('A' for Active; 'I' for Inactive)
REMARK    1  A    between atoms: C2_2  and  C3_3 
REMARK       I    between atoms: C3_3  and  N1_5 
REMARK    2  A    between atoms: N1_5  and  C4_6 
REMARK    3  A    between atoms: C6_8  and  N2_9 
REMARK    4  A    between atoms: N2_9  and  C7_10 
REMARK    5  A    between atoms: C12_16  and  C13_17 
REMARK    6  A    between atoms: C16_22  and  O2_23 
ROOT
HETATM    1  C4  UNL     1      -3.121  -0.412   0.059  1.00  0.00     0.043 A 
HETATM    2  C5  UNL     1      -1.753  -0.246   0.041  1.00  0.00     0.063 A 
HETATM    3  C6  UNL     1      -0.817  -1.251   0.110  1.00  0.00     0.085 A 
HETATM    4  C16 UNL     1      -1.372  -2.530   0.204  1.00  0.00     0.096 A 
HETATM    5  C18 UNL     1      -2.731  -2.723   0.223  1.00  0.00     0.048 A 
HETATM    6  C19 UNL     1      -3.623  -1.691   0.153  1.00  0.00    -0.032 A 
HETATM    7  C20 UNL     1      -5.083  -1.962   0.178  1.00  0.00     0.050 C 
ENDROOT
BRANCH   3   8
HETATM    8  N2  UNL     1       0.579  -1.039   0.089  1.00  0.00    -0.184 N 
HETATM    9  H6  UNL     1       1.144  -1.920   0.150  1.00  0.00     0.184 HD
BRANCH   8  10
HETATM   10  C7  UNL     1       1.298   0.181  -0.002  1.00  0.00     0.744 A 
HETATM   11  N3  UNL     1       0.763   1.403  -0.087  1.00  0.00    -0.071 NA
HETATM   12  C8  UNL     1       1.455   2.546  -0.172  1.00  0.00     0.168 A 
HETATM   13  C9  UNL     1       2.826   2.438  -0.170  1.00  0.00     0.077 A 
HETATM   14  C10 UNL     1       3.888   3.315  -0.237  1.00  0.00     0.035 A 
HETATM   15  N4  UNL     1       3.385   1.220  -0.085  1.00  0.00    -0.221 N 
HETATM   16  C11 UNL     1       5.067   2.599  -0.191  1.00  0.00     0.030 A 
HETATM   17  C12 UNL     1       4.729   1.275  -0.094  1.00  0.00     0.041 A 
HETATM   18  N5  UNL     1       2.635   0.140  -0.004  1.00  0.00     0.026 NA
BRANCH  17  19
HETATM   19  C13 UNL     1       5.719   0.168  -0.019  1.00  0.00     0.038 A 
HETATM   20  C14 UNL     1       6.945   0.443   0.870  1.00  0.00     0.011 A 
HETATM   21  C15 UNL     1       7.053   0.428  -0.623  1.00  0.00     0.011 A 
ENDBRANCH  17  19
ENDBRANCH   8  10
ENDBRANCH   3   8
BRANCH   4  22
HETATM   22  O2  UNL     1      -0.498  -3.601   0.277  1.00  0.00    -0.354 OA
HETATM   23  C17 UNL     1      -1.034  -4.901   0.372  1.00  0.00     0.210 C 
ENDBRANCH   4  22
BRANCH   1  24
HETATM   24  N1  UNL     1      -4.052   0.648  -0.013  1.00  0.00    -0.323 N 
HETATM   25  C3  UNL     1      -4.749   1.368  -1.034  1.00  0.00     0.244 C 
HETATM   26  O1  UNL     1      -4.681   1.195  -2.278  1.00  0.00    -0.268 OA
HETATM   27  H4  UNL     1      -4.190   0.882   0.983  1.00  0.00     0.169 HD
BRANCH  25  28
HETATM   28  C2  UNL     1      -5.644   2.426  -0.587  1.00  0.00     0.064 C 
HETATM   29  C1  UNL     1      -6.228   3.015  -1.621  1.00  0.00     0.017 C 
ENDBRANCH  25  28
ENDBRANCH   1  24
TORSDOF 6
