REMARK  8 active torsions:
REMARK  status: ('A' for Active; 'I' for Inactive)
REMARK    1  A    between atoms: C2_2  and  C3_3 
REMARK    2  A    between atoms: C3_3  and  C4_5 
REMARK    3  A    between atoms: C6_7  and  O2_8 
REMARK    4  A    between atoms: C6_7  and  N1_10 
REMARK    5  A    between atoms: C13_17  and  C14_18 
REMARK    6  A    between atoms: C18_22  and  N3_23 
REMARK    7  A    between atoms: C21_26  and  N4_27 
REMARK    8  A    between atoms: C25_31  and  N5_32 
ROOT
HETATM    1  C4  UNL     1      -0.366  -1.852  -0.548  1.00  0.00     0.042 A 
HETATM    2  C5  UNL     1      -1.701  -1.868  -0.675  1.00  0.00     0.056 A 
HETATM    3  C6  UNL     1      -2.203  -0.438  -0.621  1.00  0.00     0.178 A 
HETATM    4  C17 UNL     1      -0.990   0.293  -0.464  1.00  0.00     0.068 A 
HETATM    5  C18 UNL     1       0.125  -0.464  -0.410  1.00  0.00     0.047 A 
ENDROOT
BRANCH   3   6
HETATM    6  O2  UNL     1      -2.705  -0.274  -1.968  1.00  0.00    -0.358 OA
HETATM    7  C7  UNL     1      -1.649  -0.468  -2.822  1.00  0.00     0.205 C 
ENDBRANCH   3   6
BRANCH   3   8
HETATM    8  N1  UNL     1      -3.281  -0.470   0.275  1.00  0.00    -0.328 N 
HETATM    9  C8  UNL     1      -4.337  -1.242  -0.430  1.00  0.00     0.276 C 
HETATM   10  N2  UNL     1      -5.440  -0.413  -0.840  1.00  0.00    -0.282 NA
HETATM   11  C9  UNL     1      -6.321   0.377  -0.331  1.00  0.00     0.112 C 
HETATM   12  C10 UNL     1      -6.498   0.735   1.084  1.00  0.00     0.019 C 
HETATM   13  C11 UNL     1      -5.668   0.852   2.135  1.00  0.00     0.003 C 
HETATM   14  C12 UNL     1      -4.229   0.650   2.231  1.00  0.00     0.025 C 
HETATM   15  C13 UNL     1      -3.211   0.146   1.560  1.00  0.00     0.016 C 
BRANCH  15  16
HETATM   16  C14 UNL     1      -1.830   0.093   2.025  1.00  0.00     0.036 A 
HETATM   17  C15 UNL     1      -0.996   1.283   2.274  1.00  0.00     0.011 A 
HETATM   18  C16 UNL     1      -1.558   0.611   3.443  1.00  0.00     0.011 A 
ENDBRANCH  15  16
ENDBRANCH   3   8
BRANCH   1  19
HETATM   19  C3  UNL     1       0.449  -3.033  -0.554  1.00  0.00     0.183 C 
HETATM   20  O1  UNL     1       1.698  -3.042  -0.440  1.00  0.00    -0.288 OA
BRANCH  19  21
HETATM   21  C2  UNL     1      -0.146  -4.355  -0.701  1.00  0.00     0.045 C 
HETATM   22  C1  UNL     1       0.891  -5.179  -0.663  1.00  0.00     0.015 C 
ENDBRANCH  19  21
ENDBRANCH   1  19
BRANCH   5  23
HETATM   23  N3  UNL     1       1.500  -0.133  -0.261  1.00  0.00    -0.350 N 
HETATM   24  C19 UNL     1       2.316  -0.250   0.900  1.00  0.00     0.127 C 
HETATM   25  C20 UNL     1       3.044   1.092   1.070  1.00  0.00     0.055 C 
HETATM   26  C21 UNL     1       3.976   1.309  -0.096  1.00  0.00     0.227 C 
HETATM   27  C24 UNL     1       3.534   0.681  -1.369  1.00  0.00     0.092 C 
HETATM   28  C25 UNL     1       2.076   0.382  -1.480  1.00  0.00     0.321 C 
BRANCH  26  29
HETATM   29  N4  UNL     1       4.296   2.709  -0.165  1.00  0.00     0.084 N 
HETATM   30  C22 UNL     1       4.937   3.059   1.092  1.00  0.00     0.309 C 
HETATM   31  C23 UNL     1       5.175   3.072  -1.234  1.00  0.00     0.309 C 
ENDBRANCH  26  29
BRANCH  28  32
HETATM   32  N5  UNL     1       1.919  -0.600  -2.563  1.00  0.00     0.101 N 
HETATM   33  H34 UNL     1       2.807  -1.165  -2.684  1.00  0.00     0.315 HD
HETATM   34  H35 UNL     1       1.761  -0.138  -3.472  1.00  0.00     0.315 HD
ENDBRANCH  28  32
ENDBRANCH   5  23
TORSDOF 8
