REMARK  3 active torsions:
REMARK  status: ('A' for Active; 'I' for Inactive)
REMARK    1  A    between atoms: N1_2  and  C3_4 
REMARK    2  A    between atoms: N2_7  and  C6_8 
REMARK    3  A    between atoms: C7_9  and  C8_10 
ROOT
HETATM    1  C8  UNL     1       1.740   0.091   0.785  1.00  0.00     0.051 C 
HETATM    2  C9  UNL     1       2.834  -0.489   0.353  1.00  0.00     0.116 C 
HETATM    3  N3  UNL     1       2.798  -1.441  -0.729  1.00  0.00    -0.357 N 
HETATM    4  C10 UNL     1       4.159  -1.905  -1.054  1.00  0.00     0.271 C 
HETATM    5  N4  UNL     1       4.941  -0.732  -1.250  1.00  0.00    -0.286 NA
HETATM    6  C11 UNL     1       6.160  -0.678  -0.959  1.00  0.00     0.085 C 
HETATM    7  C12 UNL     1       6.426   0.739  -1.361  1.00  0.00     0.048 C 
HETATM    8  C13 UNL     1       5.473   1.704  -0.726  1.00  0.00     0.026 C 
HETATM    9  C14 UNL     1       5.533   1.713   0.757  1.00  0.00     0.139 C 
HETATM   10  N5  UNL     1       5.232   0.444   1.315  1.00  0.00    -0.335 N 
HETATM   11  N6  UNL     1       4.004  -0.077   1.042  1.00  0.00    -0.290 N 
HETATM   12  H15 UNL     1       1.916  -1.721  -1.176  1.00  0.00     0.162 HD
HETATM   13  H25 UNL     1       5.989  -0.220   1.401  1.00  0.00     0.180 HD
HETATM   14  H26 UNL     1       3.864  -0.340   2.061  1.00  0.00     0.188 HD
ENDROOT
BRANCH   1  15
HETATM   15  C7  UNL     1       0.360  -0.035   0.359  1.00  0.00     0.021 C 
HETATM   16  C6  UNL     1      -0.800   0.502   0.729  1.00  0.00     0.085 C 
BRANCH  16  17
HETATM   17  N2  UNL     1      -2.024   0.163   0.094  1.00  0.00    -0.390 N 
HETATM   18  C5  UNL     1      -2.932   1.122  -0.512  1.00  0.00     0.124 C 
HETATM   19  C4  UNL     1      -4.259   1.168   0.188  1.00  0.00     0.044 C 
HETATM   20  C3  UNL     1      -4.778  -0.128   0.706  1.00  0.00     0.081 C 
HETATM   21  C16 UNL     1      -3.845  -1.280   0.759  1.00  0.00     0.044 C 
HETATM   22  C15 UNL     1      -2.618  -1.169  -0.083  1.00  0.00     0.124 C 
BRANCH  20  23
HETATM   23  N1  UNL     1      -6.028  -0.454   0.072  1.00  0.00    -0.416 N 
HETATM   24  C1  UNL     1      -6.026  -0.596  -1.321  1.00  0.00     0.143 C 
HETATM   25  C2  UNL     1      -7.190   0.083   0.690  1.00  0.00     0.143 C 
ENDBRANCH  20  23
ENDBRANCH  16  17
ENDBRANCH   1  15
TORSDOF 3
