REMARK  6 active torsions:
REMARK  status: ('A' for Active; 'I' for Inactive)
REMARK    1  A    between atoms: C7_11  and  C8_12 
REMARK    2  A    between atoms: C8_12  and  N4_13 
REMARK    3  A    between atoms: N4_13  and  C9_14 
REMARK    4  A    between atoms: C16_21  and  O1_22 
REMARK    5  A    between atoms: O1_22  and  C17_23 
REMARK    6  A    between atoms: C19_27  and  C20_28 
REMARK       I    between atoms: C20_28  and  N5_29 
ROOT
HETATM    1  C1  UNL     1      -1.712   1.797  -0.758  1.00  0.00     0.312 C 
HETATM    2  N1  UNL     1      -2.436   2.096   0.465  1.00  0.00     0.108 N 
HETATM    3  C2  UNL     1      -1.820   1.778   1.673  1.00  0.00     0.333 C 
HETATM    4  S1  UNL     1      -0.043   1.883   1.893  1.00  0.00    -0.187 SA
HETATM    5  C3  UNL     1       0.537   0.561   0.865  1.00  0.00     0.159 C 
HETATM    6  C4  UNL     1       0.853  -0.474   0.176  1.00  0.00     0.029 A 
HETATM    7  C5  UNL     1       0.216  -1.641   0.239  1.00  0.00     0.075 A 
HETATM    8  N2  UNL     1       0.696  -2.596  -0.579  1.00  0.00    -0.241 NA
HETATM    9  C6  UNL     1       1.743  -2.369  -1.392  1.00  0.00     0.234 A 
HETATM   10  N3  UNL     1       2.375  -1.196  -1.448  1.00  0.00    -0.240 NA
HETATM   11  C7  UNL     1       1.921  -0.224  -0.646  1.00  0.00     0.086 A 
HETATM   12  C15 UNL     1      -0.899  -2.215   0.963  1.00  0.00     0.096 C 
HETATM   13  C16 UNL     1      -2.177  -1.925   1.164  1.00  0.00     0.184 C 
HETATM   14  O2  UNL     1      -2.838  -0.915   0.705  1.00  0.00    -0.328 OA
HETATM   15  C18 UNL     1      -3.595  -0.072   0.071  1.00  0.00     0.223 C 
HETATM   16  C19 UNL     1      -3.715   1.364   0.449  1.00  0.00     0.338 C 
ENDROOT
BRANCH  11  17
HETATM   17  C8  UNL     1       2.554   0.932  -0.709  1.00  0.00     0.120 C 
BRANCH  17  18
HETATM   18  N4  UNL     1       3.654   1.149  -1.572  1.00  0.00    -0.368 N 
HETATM   19  H9  UNL     1       3.612   1.499  -2.575  1.00  0.00     0.165 HD
BRANCH  18  20
HETATM   20  C9  UNL     1       4.975   0.894  -1.113  1.00  0.00     0.017 A 
HETATM   21  C10 UNL     1       5.708   0.447   0.023  1.00  0.00     0.053 A 
HETATM   22  C11 UNL     1       6.746   0.082   0.856  1.00  0.00    -0.008 A 
HETATM   23  C14 UNL     1       6.368   0.831  -1.224  1.00  0.00     0.053 A 
HETATM   24  C12 UNL     1       7.961   0.212   0.227  1.00  0.00    -0.006 A 
HETATM   25  C13 UNL     1       7.732   0.676  -1.065  1.00  0.00    -0.008 A 
ENDBRANCH  18  20
ENDBRANCH  17  18
ENDBRANCH  11  17
BRANCH  13  26
HETATM   26  O1  UNL     1      -3.107  -2.623   1.910  1.00  0.00    -0.300 OA
BRANCH  26  27
HETATM   27  C17 UNL     1      -3.651  -3.861   1.469  1.00  0.00     0.400 C 
HETATM   28  F1  UNL     1      -4.548  -4.410   2.338  1.00  0.00    -0.227 F 
ENDBRANCH  26  27
ENDBRANCH  13  26
BRANCH  16  29
HETATM   29  C20 UNL     1      -4.595   2.117  -0.464  1.00  0.00     0.251 C 
HETATM   30  N5  UNL     1      -5.864   1.476  -0.539  1.00  0.00    -0.368 N 
HETATM   31  H19 UNL     1      -6.792   1.000  -0.609  1.00  0.00     0.159 HD
HETATM   32  H20 UNL     1      -6.678   1.406   0.140  1.00  0.00     0.159 HD
HETATM   33  O3  UNL     1      -4.575   3.141  -1.190  1.00  0.00    -0.271 OA
ENDBRANCH  16  29
TORSDOF 6
