REMARK  7 active torsions:
REMARK  status: ('A' for Active; 'I' for Inactive)
REMARK    1  A    between atoms: C2_2  and  N1_3 
REMARK    2  A    between atoms: N1_3  and  O1_4 
REMARK    3  A    between atoms: N1_3  and  C3_5 
REMARK    4  A    between atoms: C6_8  and  O2_9 
REMARK    5  A    between atoms: N2_13  and  C10_14 
REMARK    6  A    between atoms: C15_20  and  C16_21 
REMARK    7  A    between atoms: C21_29  and  N7_30 
ROOT
HETATM    1  C3  UNL     1      -0.590   0.152   0.875  1.00  0.00     0.075 C 
HETATM    2  C4  UNL     1       0.616  -0.560   1.109  1.00  0.00     0.063 C 
HETATM    3  C5  UNL     1       0.046  -1.834   0.689  1.00  0.00     0.094 A 
HETATM    4  C6  UNL     1      -0.477  -3.136   0.902  1.00  0.00     0.099 A 
HETATM    5  C8  UNL     1      -1.151  -3.660  -0.253  1.00  0.00     0.088 A 
HETATM    6  C9  UNL     1      -1.046  -2.647  -1.228  1.00  0.00     0.128 A 
HETATM    7  N2  UNL     1      -0.366  -1.760  -0.576  1.00  0.00    -0.125 N 
HETATM    8  N6  UNL     1      -1.536  -2.102  -2.449  1.00  0.00    -0.375 N 
HETATM    9  C19 UNL     1      -1.985  -0.717  -2.207  1.00  0.00     0.123 C 
HETATM   10  C20 UNL     1      -2.472  -0.313  -0.897  1.00  0.00     0.062 C 
HETATM   11  C21 UNL     1      -1.888  -0.379   0.410  1.00  0.00     0.275 C 
HETATM   12  H18 UNL     1      -1.353  -2.958  -2.982  1.00  0.00     0.161 HD
ENDROOT
BRANCH   7  13
HETATM   13  C10 UNL     1       0.531  -0.906  -1.410  1.00  0.00     0.752 A 
HETATM   14  N3  UNL     1       0.639  -1.103  -2.759  1.00  0.00    -0.071 NA
HETATM   15  C11 UNL     1       1.434  -0.461  -3.588  1.00  0.00     0.168 A 
HETATM   16  C12 UNL     1       2.256   0.514  -3.094  1.00  0.00     0.077 A 
HETATM   17  C13 UNL     1       3.182   1.359  -3.609  1.00  0.00     0.035 A 
HETATM   18  N4  UNL     1       2.176   0.732  -1.783  1.00  0.00    -0.221 N 
HETATM   19  C14 UNL     1       3.676   2.112  -2.566  1.00  0.00     0.030 A 
HETATM   20  C15 UNL     1       3.024   1.703  -1.395  1.00  0.00     0.041 A 
HETATM   21  N5  UNL     1       1.362   0.050  -1.042  1.00  0.00     0.027 NA
BRANCH  20  22
HETATM   22  C16 UNL     1       3.357   2.341  -0.097  1.00  0.00     0.038 A 
HETATM   23  C17 UNL     1       4.842   2.679   0.152  1.00  0.00     0.011 A 
HETATM   24  C18 UNL     1       3.866   3.763  -0.125  1.00  0.00     0.011 A 
ENDBRANCH  20  22
ENDBRANCH   7  13
BRANCH   4  25
HETATM   25  O2  UNL     1      -0.198  -3.563   2.182  1.00  0.00    -0.353 OA
HETATM   26  C7  UNL     1      -0.633  -4.837   2.592  1.00  0.00     0.210 C 
ENDBRANCH   4  25
BRANCH   1  27
HETATM   27  N1  UNL     1      -0.029   1.379   1.279  1.00  0.00    -0.239 N 
BRANCH  27  28
HETATM   28  C2  UNL     1       0.484   1.864   2.503  1.00  0.00     0.113 C 
HETATM   29  C1  UNL     1      -0.347   2.653   3.138  1.00  0.00     0.032 C 
ENDBRANCH  27  28
BRANCH  27  30
HETATM   30  O1  UNL     1       0.136   2.472   0.460  1.00  0.00    -0.283 OA
HETATM   31  H4  UNL     1      -0.745   2.642   0.036  1.00  0.00     0.245 HD
ENDBRANCH  27  30
ENDBRANCH   1  27
BRANCH  11  32
HETATM   32  N7  UNL     1      -2.874   0.433   1.281  1.00  0.00     0.090 N 
HETATM   33  C22 UNL     1      -4.215   0.038   0.955  1.00  0.00     0.310 C 
HETATM   34  C23 UNL     1      -2.625   0.012   2.657  1.00  0.00     0.310 C 
ENDBRANCH  11  32
TORSDOF 7
