REMARK  10 active torsions:
REMARK  status: ('A' for Active; 'I' for Inactive)
REMARK    1  A    between atoms: O1_2  and  C2_3 
REMARK    2  A    between atoms: C4_5  and  N1_6 
REMARK    3  A    between atoms: N1_6  and  C6_8 
REMARK    4  A    between atoms: C6_8  and  C7_9 
REMARK    5  A    between atoms: C7_9  and  N2_10 
REMARK    6  A    between atoms: C10_13  and  N3_14 
REMARK    7  A    between atoms: N3_14  and  C11_15 
REMARK    8  A    between atoms: C11_15  and  C13_17 
REMARK    9  A    between atoms: C13_17  and  N4_18 
REMARK   10  A    between atoms: C15_20  and  C16_21 
ROOT
HETATM    1  C2  UNL     1       1.287   1.171  -0.890  1.00  0.00     0.084 A 
HETATM    2  C3  UNL     1      -0.058   1.383  -1.177  1.00  0.00     0.069 A 
HETATM    3  C4  UNL     1      -1.008   0.434  -0.891  1.00  0.00     0.059 A 
HETATM    4  C10 UNL     1      -0.634  -0.755  -0.308  1.00  0.00     0.056 A 
HETATM    5  C14 UNL     1       0.705  -0.917  -0.045  1.00  0.00     0.050 A 
HETATM    6  C15 UNL     1       1.728  -0.005  -0.304  1.00  0.00     0.049 A 
ENDROOT
BRANCH   6   7
HETATM    7  C16 UNL     1       3.153  -0.280   0.021  1.00  0.00     0.181 C 
HETATM    8  N5  UNL     1       3.840   0.696  -0.315  1.00  0.00    -0.154 NA
HETATM    9  N6  UNL     1       5.076   1.204  -0.365  1.00  0.00    -0.288 N 
HETATM   10  C17 UNL     1       6.445   1.064  -0.568  1.00  0.00     0.105 C 
HETATM   11  H28 UNL     1       4.739   2.164  -0.115  1.00  0.00     0.188 HD
HETATM   12  C18 UNL     1       7.299   0.035  -0.380  1.00  0.00    -0.008 C 
HETATM   13  C19 UNL     1       7.014  -1.383   0.145  1.00  0.00     0.033 C 
HETATM   14  C20 UNL     1       5.617  -1.318   0.357  1.00  0.00     0.051 C 
HETATM   15  C21 UNL     1       4.531  -2.111   0.796  1.00  0.00     0.092 C 
HETATM   16  N7  UNL     1       3.343  -1.593   0.627  1.00  0.00    -0.243 NA
ENDBRANCH   6   7
BRANCH   1  17
HETATM   17  O1  UNL     1       2.223   2.148  -1.191  1.00  0.00    -0.355 OA
HETATM   18  C1  UNL     1       1.768   3.344  -1.787  1.00  0.00     0.210 C 
ENDBRANCH   1  17
BRANCH   4  19
HETATM   19  N3  UNL     1      -1.579  -1.795   0.005  1.00  0.00    -0.382 N 
HETATM   20  H18 UNL     1      -2.563  -1.566  -0.256  1.00  0.00     0.160 HD
BRANCH  19  21
HETATM   21  C11 UNL     1      -1.382  -3.079   0.617  1.00  0.00     0.105 C 
HETATM   22  C12 UNL     1      -2.662  -3.910   0.559  1.00  0.00     0.034 C 
BRANCH  21  23
HETATM   23  C13 UNL     1      -1.121  -2.881   2.112  1.00  0.00     0.291 C 
BRANCH  23  24
HETATM   24  N4  UNL     1      -0.922  -4.172   2.707  1.00  0.00     0.080 N 
HETATM   25  H25 UNL     1      -1.652  -4.437   3.383  1.00  0.00     0.312 HD
HETATM   26  H26 UNL     1      -0.749  -4.888   1.968  1.00  0.00     0.312 HD
ENDBRANCH  23  24
ENDBRANCH  21  23
ENDBRANCH  19  21
ENDBRANCH   4  19
BRANCH   3  27
HETATM   27  N1  UNL     1      -2.354   0.691  -1.206  1.00  0.00    -0.382 N 
HETATM   28  C5  UNL     1      -3.097  -0.132  -2.170  1.00  0.00     0.150 C 
BRANCH  27  29
HETATM   29  C6  UNL     1      -3.150   1.761  -0.631  1.00  0.00     0.152 C 
BRANCH  29  30
HETATM   30  C7  UNL     1      -4.234   1.217   0.273  1.00  0.00     0.291 C 
BRANCH  30  31
HETATM   31  N2  UNL     1      -5.050   2.251   0.866  1.00  0.00     0.081 N 
HETATM   32  C8  UNL     1      -5.878   2.949  -0.081  1.00  0.00     0.309 C 
HETATM   33  C9  UNL     1      -4.267   3.187   1.647  1.00  0.00     0.309 C 
ENDBRANCH  30  31
ENDBRANCH  29  30
ENDBRANCH  27  29
ENDBRANCH   3  27
TORSDOF 10
