REMARK  7 active torsions:
REMARK  status: ('A' for Active; 'I' for Inactive)
REMARK    1  A    between atoms: C2_2  and  C3_3 
REMARK       I    between atoms: C3_3  and  N1_5 
REMARK    2  A    between atoms: N1_5  and  C4_6 
REMARK    3  A    between atoms: C14_19  and  O2_20 
REMARK    4  A    between atoms: C17_23  and  N5_24 
REMARK    5  A    between atoms: N5_24  and  C19_26 
REMARK    6  A    between atoms: C19_26  and  C20_27 
REMARK    7  A    between atoms: C20_27  and  N6_28 
ROOT
HETATM    1  C4  UNL     1      -1.576   0.786   0.250  1.00  0.00     0.057 C 
HETATM    2  C5  UNL     1      -2.806   0.787  -0.090  1.00  0.00     0.004 C 
HETATM    3  C6  UNL     1      -4.105   1.442  -0.351  1.00  0.00     0.051 C 
HETATM    4  C7  UNL     1      -4.248   1.222  -1.944  1.00  0.00     0.151 C 
HETATM    5  N2  UNL     1      -2.862   1.604  -2.297  1.00  0.00    -0.304 NA
HETATM    6  C8  UNL     1      -1.982   0.662  -2.222  1.00  0.00     0.102 C 
HETATM    7  C9  UNL     1      -0.818  -0.197  -2.216  1.00  0.00     0.167 C 
HETATM    8  N3  UNL     1      -0.500  -0.911  -1.011  1.00  0.00    -0.360 N 
HETATM    9  C10 UNL     1       0.561  -1.788  -1.367  1.00  0.00     0.270 C 
HETATM   10  N4  UNL     1       0.195  -2.888  -2.235  1.00  0.00    -0.286 NA
HETATM   11  C11 UNL     1      -0.223  -4.042  -1.849  1.00  0.00     0.089 C 
HETATM   12  C12 UNL     1      -0.472  -4.632  -0.461  1.00  0.00     0.076 C 
HETATM   13  C13 UNL     1      -0.381  -3.498   0.457  1.00  0.00     0.011 C 
HETATM   14  C14 UNL     1      -0.225  -2.497   1.351  1.00  0.00     0.046 C 
HETATM   15  C16 UNL     1      -1.123  -1.316   1.235  1.00  0.00     0.124 C 
HETATM   16  C17 UNL     1      -0.500  -0.293   0.248  1.00  0.00     0.150 C 
ENDROOT
BRANCH  16  17
HETATM   17  N5  UNL     1       0.658   0.288   0.730  1.00  0.00    -0.385 N 
HETATM   18  C18 UNL     1       0.559   0.840   2.061  1.00  0.00     0.146 C 
BRANCH  17  19
HETATM   19  C19 UNL     1       1.858   0.462   0.078  1.00  0.00     0.138 C 
BRANCH  19  20
HETATM   20  C20 UNL     1       2.918   1.228   0.924  1.00  0.00     0.135 C 
BRANCH  20  21
HETATM   21  N6  UNL     1       4.155   1.348   0.179  1.00  0.00    -0.419 N 
HETATM   22  C21 UNL     1       4.861   0.122  -0.020  1.00  0.00     0.142 C 
HETATM   23  C22 UNL     1       4.108   2.215  -0.948  1.00  0.00     0.142 C 
ENDBRANCH  20  21
ENDBRANCH  19  20
ENDBRANCH  17  19
ENDBRANCH  16  17
BRANCH   1  24
HETATM   24  N1  UNL     1      -1.549   2.176   0.492  1.00  0.00    -0.324 N 
HETATM   25  C3  UNL     1      -0.834   3.185  -0.254  1.00  0.00     0.241 C 
HETATM   26  O1  UNL     1      -0.079   3.070  -1.265  1.00  0.00    -0.269 OA
HETATM   27  H4  UNL     1      -2.077   2.623   1.318  1.00  0.00     0.169 HD
BRANCH  25  28
HETATM   28  C2  UNL     1      -0.954   4.571   0.162  1.00  0.00     0.048 C 
HETATM   29  C1  UNL     1      -1.660   5.055   1.179  1.00  0.00     0.037 C 
ENDBRANCH  25  28
ENDBRANCH   1  24
BRANCH  14  30
HETATM   30  O2  UNL     1       0.747  -3.388   1.757  1.00  0.00    -0.360 OA
HETATM   31  C15 UNL     1       0.617  -4.180   2.928  1.00  0.00     0.209 C 
ENDBRANCH  14  30
TORSDOF 7
