REMARK  10 active torsions:
REMARK  status: ('A' for Active; 'I' for Inactive)
REMARK    1  A    between atoms: C2_2  and  C3_3 
REMARK       I    between atoms: C3_3  and  N1_5 
REMARK    2  A    between atoms: N1_5  and  C4_6 
REMARK    3  A    between atoms: C4_6  and  C5_7 
REMARK    4  A    between atoms: C4_6  and  C17_25 
REMARK    5  A    between atoms: C5_7  and  C6_8 
REMARK    6  A    between atoms: C16_23  and  N7_24 
REMARK    7  A    between atoms: C17_25  and  N8_26 
REMARK    8  A    between atoms: N8_26  and  C19_28 
REMARK    9  A    between atoms: C19_28  and  C20_29 
REMARK   10  A    between atoms: C20_29  and  N9_30 
ROOT
HETATM    1  C6  UNL     1       1.036  -1.140  -1.668  1.00  0.00     0.119 A 
HETATM    2  C7  UNL     1       2.054  -0.794  -0.654  1.00  0.00     0.080 A 
HETATM    3  N2  UNL     1       2.152   0.501  -0.558  1.00  0.00    -0.158 NA
HETATM    4  N3  UNL     1       3.101   0.992   0.378  1.00  0.00    -0.184 N 
HETATM    5  C8  UNL     1       3.877   0.223   1.325  1.00  0.00     0.165 A 
HETATM    6  C9  UNL     1       5.350   0.558   1.231  1.00  0.00     0.082 C 
HETATM    7  C10 UNL     1       5.523   2.051   1.234  1.00  0.00     0.116 C 
HETATM    8  N4  UNL     1       4.626   2.911   0.868  1.00  0.00    -0.172 NA
HETATM    9  N5  UNL     1       3.386   2.384   0.428  1.00  0.00    -0.197 N 
HETATM   10  C11 UNL     1       2.367   3.332   0.004  1.00  0.00     0.204 C 
HETATM   11  C12 UNL     1       3.695  -1.214   1.119  1.00  0.00    -0.043 A 
HETATM   12  C13 UNL     1       4.406  -2.251   1.876  1.00  0.00     0.046 C 
HETATM   13  C14 UNL     1       2.859  -1.637   0.216  1.00  0.00     0.012 A 
HETATM   14  C15 UNL     1       2.548  -3.015  -0.121  1.00  0.00     0.126 A 
HETATM   15  N6  UNL     1       1.737  -3.369  -0.997  1.00  0.00    -0.265 NA
HETATM   16  C16 UNL     1       0.945  -2.613  -1.854  1.00  0.00     0.352 A 
ENDROOT
BRANCH   1  17
HETATM   17  C5  UNL     1      -0.251  -0.448  -1.444  1.00  0.00     0.015 C 
BRANCH  17  18
HETATM   18  C4  UNL     1      -1.355   0.276  -1.412  1.00  0.00     0.026 C 
BRANCH  18  19
HETATM   19  N1  UNL     1      -1.693   1.276  -2.362  1.00  0.00    -0.326 N 
HETATM   20  C3  UNL     1      -0.990   1.724  -3.501  1.00  0.00     0.244 C 
HETATM   21  O1  UNL     1       0.115   1.230  -3.817  1.00  0.00    -0.268 OA
HETATM   22  H4  UNL     1      -2.541   1.882  -2.399  1.00  0.00     0.169 HD
BRANCH  20  23
HETATM   23  C2  UNL     1      -1.263   2.727  -4.510  1.00  0.00     0.064 C 
HETATM   24  C1  UNL     1      -0.308   2.817  -5.420  1.00  0.00     0.017 C 
ENDBRANCH  20  23
ENDBRANCH  18  19
BRANCH  18  25
HETATM   25  C17 UNL     1      -2.478   0.214  -0.449  1.00  0.00     0.173 C 
BRANCH  25  26
HETATM   26  N8  UNL     1      -2.272  -0.809   0.503  1.00  0.00    -0.410 N 
HETATM   27  C18 UNL     1      -2.382  -2.159   0.071  1.00  0.00     0.143 C 
BRANCH  26  28
HETATM   28  C19 UNL     1      -2.719  -0.515   1.826  1.00  0.00     0.147 C 
BRANCH  28  29
HETATM   29  C20 UNL     1      -4.224  -0.420   1.945  1.00  0.00     0.290 C 
BRANCH  29  30
HETATM   30  N9  UNL     1      -4.671  -0.120   3.293  1.00  0.00     0.081 N 
HETATM   31  C21 UNL     1      -6.134  -0.065   3.242  1.00  0.00     0.309 C 
HETATM   32  C22 UNL     1      -4.250   1.229   3.639  1.00  0.00     0.309 C 
ENDBRANCH  29  30
ENDBRANCH  28  29
ENDBRANCH  26  28
ENDBRANCH  25  26
ENDBRANCH  18  25
ENDBRANCH  17  18
ENDBRANCH   1  17
BRANCH  16  33
HETATM   33  N7  UNL     1       1.226  -2.996  -3.245  1.00  0.00     0.104 N 
HETATM   34  H19 UNL     1       0.668  -2.403  -3.912  1.00  0.00     0.315 HD
HETATM   35  H20 UNL     1       0.878  -3.966  -3.352  1.00  0.00     0.315 HD
ENDBRANCH  16  33
TORSDOF 10
