REMARK  5 active torsions:
REMARK  status: ('A' for Active; 'I' for Inactive)
REMARK    1  A    between atoms: C3_3  and  C4_4 
REMARK    2  A    between atoms: C4_4  and  O1_23 
REMARK    3  A    between atoms: C5_5  and  N1_6 
REMARK    4  A    between atoms: N1_6  and  C6_7 
REMARK    5  A    between atoms: C11_14  and  C12_15 
ROOT
HETATM    1  C6  UNL     1      -0.255   0.206  -0.791  1.00  0.00     0.743 A 
HETATM    2  N2  UNL     1      -0.890  -0.571  -1.692  1.00  0.00    -0.071 NA
HETATM    3  C7  UNL     1      -0.268  -1.620  -2.275  1.00  0.00     0.169 A 
HETATM    4  C8  UNL     1       1.055  -1.878  -1.917  1.00  0.00     0.099 A 
HETATM    5  C9  UNL     1       1.983  -2.839  -2.297  1.00  0.00     0.066 A 
HETATM    6 CL1  UNL     1       1.715  -4.128  -3.455  1.00  0.00    -0.082 Cl
HETATM    7  C10 UNL     1       3.174  -2.629  -1.616  1.00  0.00     0.059 A 
HETATM    8  C11 UNL     1       2.932  -1.519  -0.822  1.00  0.00     0.074 A 
HETATM    9  N5  UNL     1       1.673  -1.085  -1.010  1.00  0.00    -0.214 N 
HETATM   10  N6  UNL     1       1.022  -0.052  -0.452  1.00  0.00     0.027 NA
ENDROOT
BRANCH   1  11
HETATM   11  N1  UNL     1      -0.936   1.299  -0.198  1.00  0.00    -0.194 N 
HETATM   12  H7  UNL     1      -0.452   1.905   0.500  1.00  0.00     0.183 HD
BRANCH  11  13
HETATM   13  C5  UNL     1      -2.267   1.621  -0.507  1.00  0.00     0.143 C 
HETATM   14  C4  UNL     1      -3.344   1.198   0.138  1.00  0.00     0.083 C 
BRANCH  14  15
HETATM   15  C3  UNL     1      -3.240   0.317   1.281  1.00  0.00     0.034 C 
HETATM   16  C2  UNL     1      -4.283  -0.132   1.956  1.00  0.00    -0.028 C 
HETATM   17  C1  UNL     1      -5.663   0.254   1.568  1.00  0.00     0.036 C 
ENDBRANCH  14  15
BRANCH  14  18
HETATM   18  O1  UNL     1      -4.574   1.638  -0.332  1.00  0.00    -0.355 OA
HETATM   19  C16 UNL     1      -4.702   2.641  -1.305  1.00  0.00     0.210 C 
ENDBRANCH  14  18
ENDBRANCH  11  13
ENDBRANCH   1  11
BRANCH   8  20
HETATM   20  C12 UNL     1       3.934  -0.948   0.070  1.00  0.00     0.029 A 
HETATM   21  C13 UNL     1       5.217  -1.435   0.225  1.00  0.00     0.154 A 
HETATM   22  N3  UNL     1       5.881  -0.671   1.128  1.00  0.00    -0.185 NA
HETATM   23  N4  UNL     1       5.023   0.263   1.516  1.00  0.00    -0.285 N 
HETATM   24  C14 UNL     1       5.483   1.242   2.505  1.00  0.00     0.179 C 
HETATM   25  C15 UNL     1       3.857   0.124   0.904  1.00  0.00     0.127 A 
ENDBRANCH   8  20
TORSDOF 5
