REMARK  3 active torsions:
REMARK  status: ('A' for Active; 'I' for Inactive)
REMARK    1  A    between atoms: C4_4  and  C5_5 
REMARK    2  A    between atoms: C9_13  and  N5_14 
REMARK    3  A    between atoms: N5_14  and  C10_15 
ROOT
HETATM    1  C1  UNL     1      -1.162  -4.607   0.535  1.00  0.00     0.050 C 
HETATM    2  C2  UNL     1      -1.428  -3.151   0.369  1.00  0.00    -0.029 A 
HETATM    3  C3  UNL     1      -2.609  -2.440   0.256  1.00  0.00     0.041 A 
HETATM    4  C4  UNL     1      -2.302  -1.103   0.121  1.00  0.00     0.073 A 
HETATM    5  N3  UNL     1      -0.961  -0.988   0.150  1.00  0.00    -0.215 N 
HETATM    6  N4  UNL     1      -0.221   0.103   0.056  1.00  0.00     0.027 NA
HETATM    7  C9  UNL     1       1.123   0.078   0.100  1.00  0.00     0.744 A 
HETATM    8  N6  UNL     1       1.709  -1.123   0.248  1.00  0.00    -0.071 NA
HETATM    9  C15 UNL     1       0.964  -2.258   0.347  1.00  0.00     0.168 A 
HETATM   10  C16 UNL     1      -0.415  -2.215   0.300  1.00  0.00     0.083 A 
ENDROOT
BRANCH   7  11
HETATM   11  N5  UNL     1       1.893   1.270  -0.004  1.00  0.00    -0.185 N 
HETATM   12  H10 UNL     1       1.388   2.176  -0.118  1.00  0.00     0.184 HD
BRANCH  11  13
HETATM   13  C10 UNL     1       3.303   1.320   0.034  1.00  0.00     0.071 A 
HETATM   14  C11 UNL     1       4.044   0.378  -0.515  1.00  0.00     0.164 A 
HETATM   15  O1  UNL     1       5.427   0.346  -0.524  1.00  0.00    -0.357 OA
HETATM   16  C12 UNL     1       6.202   1.360   0.078  1.00  0.00     0.202 A 
HETATM   17  C13 UNL     1       5.283   2.360   0.660  1.00  0.00     0.002 A 
HETATM   18  C14 UNL     1       3.963   2.425   0.689  1.00  0.00     0.030 A 
ENDBRANCH  11  13
ENDBRANCH   7  11
BRANCH   4  19
HETATM   19  C5  UNL     1      -3.301  -0.051  -0.024  1.00  0.00     0.029 A 
HETATM   20  C6  UNL     1      -4.661  -0.284  -0.041  1.00  0.00     0.154 A 
HETATM   21  N1  UNL     1      -5.255   0.919  -0.189  1.00  0.00    -0.185 NA
HETATM   22  N2  UNL     1      -4.341   1.877  -0.264  1.00  0.00    -0.285 N 
HETATM   23  C7  UNL     1      -4.703   3.278  -0.426  1.00  0.00     0.179 C 
HETATM   24  C8  UNL     1      -3.124   1.305  -0.164  1.00  0.00     0.127 A 
ENDBRANCH   4  19
TORSDOF 3
