REMARK  3 active torsions:
REMARK  status: ('A' for Active; 'I' for Inactive)
REMARK    1  A    between atoms: N1_2  and  C2_3 
REMARK    2  A    between atoms: N1_2  and  C14_20 
REMARK    3  A    between atoms: C2_3  and  C3_4 
ROOT
HETATM    1  C3  UNL     1       1.855  -0.502  -1.044  1.00  0.00     0.179 A 
HETATM    2  C4  UNL     1       0.498  -0.499  -1.571  1.00  0.00     0.044 A 
HETATM    3  N2  UNL     1       0.462  -0.178  -0.340  1.00  0.00    -0.319 N 
HETATM    4  C5  UNL     1      -0.747   0.112   0.310  1.00  0.00     0.109 C 
HETATM    5  C6  UNL     1      -1.719  -0.749   0.652  1.00  0.00     0.051 C 
HETATM    6  C7  UNL     1      -3.192  -0.537   0.662  1.00  0.00     0.132 C 
HETATM    7  C8  UNL     1      -3.627   0.645   1.401  1.00  0.00     0.008 C 
HETATM    8  C9  UNL     1      -3.038   1.773   1.791  1.00  0.00     0.073 C 
HETATM    9  C10 UNL     1      -1.728   2.245   1.353  1.00  0.00     0.246 C 
HETATM   10  O1  UNL     1      -1.372   3.412   1.704  1.00  0.00    -0.268 OA
HETATM   11  N3  UNL     1      -0.761   1.535   0.551  1.00  0.00    -0.310 N 
HETATM   12  N4  UNL     1      -3.621  -0.550  -0.730  1.00  0.00    -0.373 N 
HETATM   13  C11 UNL     1      -2.925  -1.000  -1.883  1.00  0.00     0.203 C 
HETATM   14  N5  UNL     1      -1.837  -0.427  -2.219  1.00  0.00    -0.256 NA
HETATM   15  C12 UNL     1      -1.065  -0.797  -3.349  1.00  0.00     0.120 C 
HETATM   16  C13 UNL     1       0.186  -0.817  -2.934  1.00  0.00     0.047 C 
HETATM   17  H10 UNL     1      -0.007   2.103   0.108  1.00  0.00     0.170 HD
HETATM   18  H11 UNL     1      -4.541  -0.212  -1.069  1.00  0.00     0.161 HD
ENDROOT
BRANCH   1  19
HETATM   19  C2  UNL     1       2.115  -0.205   0.212  1.00  0.00     0.090 C 
BRANCH  19  20
HETATM   20  N1  UNL     1       3.388  -0.173   0.839  1.00  0.00    -0.382 N 
HETATM   21  C1  UNL     1       4.173   1.029   0.640  1.00  0.00     0.150 C 
BRANCH  20  22
HETATM   22  C14 UNL     1       4.024  -1.193   1.664  1.00  0.00     0.236 C 
HETATM   23 CL1  UNL     1       4.390  -0.610   3.299  1.00  0.00    -0.109 Cl
ENDBRANCH  20  22
ENDBRANCH  19  20
ENDBRANCH   1  19
TORSDOF 3
