REMARK  7 active torsions:
REMARK  status: ('A' for Active; 'I' for Inactive)
REMARK    1  A    between atoms: N1_2  and  C3_4 
REMARK    2  A    between atoms: C3_4  and  C4_5 
REMARK    3  A    between atoms: C5_6  and  C6_7 
REMARK       I    between atoms: C6_7  and  N2_9 
REMARK    4  A    between atoms: N2_9  and  C7_10 
REMARK    5  A    between atoms: C9_12  and  N3_13 
REMARK    6  A    between atoms: N3_13  and  C10_14 
REMARK    7  A    between atoms: C18_24  and  C19_25 
ROOT
HETATM    1  C7  UNL     1       0.084  -0.097  -0.603  1.00  0.00     0.044 C 
HETATM    2  C8  UNL     1       0.998   0.896  -0.428  1.00  0.00     0.059 C 
HETATM    3  C9  UNL     1       2.491   0.892  -0.261  1.00  0.00     0.153 C 
HETATM    4  C16 UNL     1       2.657  -0.536   0.408  1.00  0.00     0.118 C 
HETATM    5  C17 UNL     1       1.961  -1.228  -0.773  1.00  0.00     0.023 C 
HETATM    6  C18 UNL     1       0.664  -1.476  -0.834  1.00  0.00    -0.003 C 
HETATM    7  N4  UNL     1       2.759  -1.563  -1.945  1.00  0.00    -0.354 N 
HETATM    8  C23 UNL     1       3.453  -0.286  -2.191  1.00  0.00     0.204 C 
HETATM    9  N5  UNL     1       3.262   0.763  -1.444  1.00  0.00    -0.248 NA
HETATM   10  H26 UNL     1       2.601  -2.520  -2.269  1.00  0.00     0.166 HD
ENDROOT
BRANCH   1  11
HETATM   11  N2  UNL     1      -1.331  -0.021  -0.560  1.00  0.00    -0.323 N 
HETATM   12  C6  UNL     1      -2.169  -0.289  -1.674  1.00  0.00     0.245 C 
HETATM   13  O1  UNL     1      -1.881  -0.622  -2.851  1.00  0.00    -0.268 OA
HETATM   14  H11 UNL     1      -1.733   0.250   0.359  1.00  0.00     0.169 HD
BRANCH  12  15
HETATM   15  C5  UNL     1      -3.603  -0.170  -1.453  1.00  0.00     0.072 C 
HETATM   16  C4  UNL     1      -4.310   0.154  -0.366  1.00  0.00     0.008 C 
BRANCH  16  17
HETATM   17  C3  UNL     1      -5.735   0.310  -0.011  1.00  0.00     0.299 C 
BRANCH  17  18
HETATM   18  N1  UNL     1      -6.001   1.665   0.442  1.00  0.00     0.083 N 
HETATM   19  C1  UNL     1      -5.839   2.518  -0.719  1.00  0.00     0.309 C 
HETATM   20  C2  UNL     1      -7.390   1.655   0.896  1.00  0.00     0.309 C 
ENDBRANCH  17  18
ENDBRANCH  16  17
ENDBRANCH  12  15
ENDBRANCH   1  11
BRANCH   6  21
HETATM   21  C19 UNL     1       0.085  -2.774  -1.066  1.00  0.00     0.049 C 
HETATM   22  C20 UNL     1      -0.834  -3.233   0.009  1.00  0.00     0.038 C 
HETATM   23  C21 UNL     1      -0.225  -4.444   0.583  1.00  0.00     0.168 C 
HETATM   24  O2  UNL     1       0.510  -5.004  -0.457  1.00  0.00    -0.390 OA
HETATM   25  C22 UNL     1       1.084  -3.864  -1.098  1.00  0.00     0.177 C 
ENDBRANCH   6  21
BRANCH   3  26
HETATM   26  N3  UNL     1       2.953   1.826   0.704  1.00  0.00    -0.358 N 
HETATM   27  H13 UNL     1       2.172   2.348   1.203  1.00  0.00     0.162 HD
BRANCH  26  28
HETATM   28  C10 UNL     1       4.258   2.140   1.074  1.00  0.00     0.032 A 
HETATM   29  C11 UNL     1       4.519   3.079   2.074  1.00  0.00     0.032 A 
HETATM   30  C12 UNL     1       5.789   3.428   2.470  1.00  0.00     0.046 A 
HETATM   31  C13 UNL     1       6.859   2.822   1.851  1.00  0.00     0.138 A 
HETATM   32  F1  UNL     1       8.089   3.191   2.269  1.00  0.00    -0.204 F 
HETATM   33  C14 UNL     1       6.703   1.878   0.848  1.00  0.00     0.074 A 
HETATM   34 CL1  UNL     1       8.070   1.124   0.078  1.00  0.00    -0.081 Cl
HETATM   35  C15 UNL     1       5.396   1.610   0.536  1.00  0.00     0.056 A 
ENDBRANCH  26  28
ENDBRANCH   3  26
TORSDOF 7
