REMARK  6 active torsions:
REMARK  status: ('A' for Active; 'I' for Inactive)
REMARK    1  A    between atoms: C2_2  and  C3_3 
REMARK    2  A    between atoms: C3_3  and  C4_4 
REMARK    3  A    between atoms: C4_4  and  C5_6 
REMARK    4  A    between atoms: N1_8  and  C7_9 
REMARK    5  A    between atoms: C13_16  and  N3_17 
REMARK    6  A    between atoms: N3_17  and  C14_18 
ROOT
HETATM    1  C5  UNL     1      -0.265   0.794  -0.277  1.00  0.00     0.140 C 
HETATM    2  C6  UNL     1      -1.524   0.661   0.573  1.00  0.00     0.291 C 
HETATM    3  N1  UNL     1      -2.306  -0.343  -0.107  1.00  0.00     0.090 N 
HETATM    4  C9  UNL     1      -2.317  -1.521   0.673  1.00  0.00     0.292 C 
HETATM    5  C10 UNL     1      -1.533  -2.644   0.088  1.00  0.00     0.152 C 
HETATM    6  N2  UNL     1      -0.111  -2.503   0.145  1.00  0.00    -0.391 N 
HETATM    7  C11 UNL     1       0.560  -3.777  -0.167  1.00  0.00     0.148 C 
HETATM    8  C12 UNL     1       0.767  -1.420   0.433  1.00  0.00     0.111 C 
HETATM    9  C13 UNL     1       0.770  -0.100   0.294  1.00  0.00     0.055 C 
ENDROOT
BRANCH   9  10
HETATM   10  N3  UNL     1       2.018   0.350   0.829  1.00  0.00    -0.190 N 
HETATM   11  H20 UNL     1       2.134   0.960   1.690  1.00  0.00     0.184 HD
BRANCH  10  12
HETATM   12  C14 UNL     1       3.257  -0.023   0.192  1.00  0.00     0.726 A 
HETATM   13  N4  UNL     1       4.469   0.348   0.655  1.00  0.00    -0.075 NA
HETATM   14  C15 UNL     1       5.603  -0.026   0.023  1.00  0.00     0.138 A 
HETATM   15  C16 UNL     1       5.562  -0.797  -1.113  1.00  0.00     0.040 A 
HETATM   16  C17 UNL     1       4.310  -1.184  -1.597  1.00  0.00     0.138 A 
HETATM   17  N5  UNL     1       3.243  -0.767  -0.905  1.00  0.00    -0.075 NA
ENDBRANCH  10  12
ENDBRANCH   9  10
BRANCH   1  18
HETATM   18  C4  UNL     1       0.191   2.193  -0.188  1.00  0.00     0.161 C 
HETATM   19  O1  UNL     1       1.308   2.589   0.242  1.00  0.00    -0.292 OA
BRANCH  18  20
HETATM   20  C3  UNL     1      -0.737   3.238  -0.642  1.00  0.00     0.062 C 
BRANCH  20  21
HETATM   21  C2  UNL     1      -0.873   4.439  -0.093  1.00  0.00    -0.033 C 
HETATM   22  C1  UNL     1      -0.652   5.441   0.751  1.00  0.00     0.024 C 
ENDBRANCH  20  21
ENDBRANCH  18  20
ENDBRANCH   1  18
BRANCH   3  23
HETATM   23  C7  UNL     1      -3.548   0.140  -0.592  1.00  0.00     0.268 C 
HETATM   24  C8  UNL     1      -4.551   0.509   0.451  1.00  0.00     0.037 C 
ENDBRANCH   3  23
TORSDOF 6
