REMARK  8 active torsions:
REMARK  status: ('A' for Active; 'I' for Inactive)
REMARK    1  A    between atoms: O1_2  and  C2_3 
REMARK    2  A    between atoms: C6_9  and  N3_10 
REMARK    3  A    between atoms: C14_20  and  C15_21 
REMARK    4  A    between atoms: C15_21  and  N4_22 
REMARK    5  A    between atoms: N4_22  and  C17_24 
REMARK    6  A    between atoms: C17_24  and  C18_25 
REMARK    7  A    between atoms: C17_24  and  C19_27 
REMARK    8  A    between atoms: C18_25  and  O2_26 
REMARK       I    between atoms: C19_27  and  N5_28 
ROOT
HETATM    1  C2  UNL     1      -0.300  -1.636   2.177  1.00  0.00     0.078 A 
HETATM    2  C3  UNL     1       0.757  -2.521   2.218  1.00  0.00     0.070 A 
HETATM    3  C4  UNL     1       1.885  -2.345   1.442  1.00  0.00     0.074 A 
HETATM    4  N1  UNL     1       2.901  -3.227   1.504  1.00  0.00    -0.241 NA
HETATM    5  C5  UNL     1       3.967  -2.959   0.695  1.00  0.00     0.236 A 
HETATM    6  N2  UNL     1       4.095  -1.914  -0.145  1.00  0.00    -0.223 NA
HETATM    7  C6  UNL     1       3.056  -1.028  -0.197  1.00  0.00     0.150 A 
HETATM    8  C12 UNL     1       1.958  -1.256   0.601  1.00  0.00     0.040 A 
HETATM    9  C13 UNL     1       0.879  -0.396   0.591  1.00  0.00     0.029 A 
HETATM   10  C14 UNL     1      -0.281  -0.540   1.362  1.00  0.00    -0.006 A 
ENDROOT
BRANCH  10  11
HETATM   11  C15 UNL     1      -1.331   0.505   1.189  1.00  0.00     0.159 C 
BRANCH  11  12
HETATM   12  N4  UNL     1      -2.431   0.159   0.406  1.00  0.00    -0.399 N 
HETATM   13  C16 UNL     1      -3.284  -0.894   0.756  1.00  0.00     0.144 C 
BRANCH  12  14
HETATM   14  C17 UNL     1      -2.797   0.924  -0.713  1.00  0.00     0.195 C 
BRANCH  14  15
HETATM   15  C18 UNL     1      -3.118   2.370  -0.409  1.00  0.00     0.198 C 
BRANCH  15  16
HETATM   16  O2  UNL     1      -4.159   2.515   0.471  1.00  0.00    -0.398 OA
HETATM   17  H19 UNL     1      -3.975   2.236   1.383  1.00  0.00     0.209 HD
ENDBRANCH  15  16
ENDBRANCH  14  15
BRANCH  14  18
HETATM   18  C19 UNL     1      -1.788   0.914  -1.813  1.00  0.00     0.240 C 
HETATM   19  N5  UNL     1      -2.230   1.704  -2.911  1.00  0.00    -0.368 N 
HETATM   20  H20 UNL     1      -2.525   2.301  -3.691  1.00  0.00     0.159 HD
HETATM   21  H21 UNL     1      -2.824   1.834  -3.774  1.00  0.00     0.159 HD
HETATM   22  O3  UNL     1      -0.685   0.533  -2.274  1.00  0.00    -0.271 OA
ENDBRANCH  14  18
ENDBRANCH  12  14
ENDBRANCH  11  12
ENDBRANCH  10  11
BRANCH   1  23
HETATM   23  O1  UNL     1      -1.418  -1.812   2.950  1.00  0.00    -0.355 OA
HETATM   24  C1  UNL     1      -1.673  -2.843   3.853  1.00  0.00     0.210 C 
ENDBRANCH   1  23
BRANCH   7  25
HETATM   25  N3  UNL     1       3.050   0.119  -1.034  1.00  0.00    -0.281 N 
HETATM   26  C7  UNL     1       3.589   1.302  -0.459  1.00  0.00     0.097 A 
HETATM   27  C8  UNL     1       3.599   2.392  -1.207  1.00  0.00    -0.003 A 
HETATM   28  C9  UNL     1       3.107   2.511  -2.589  1.00  0.00     0.084 A 
HETATM   29  C10 UNL     1       2.577   1.203  -3.053  1.00  0.00     0.071 A 
HETATM   30 CL1  UNL     1       1.955   1.217  -4.704  1.00  0.00    -0.084 Cl
HETATM   31  C11 UNL     1       2.539   0.080  -2.355  1.00  0.00     0.214 A 
HETATM   32  F1  UNL     1       2.030  -1.067  -2.877  1.00  0.00    -0.184 F 
ENDBRANCH   7  25
TORSDOF 8
