REMARK  7 active torsions:
REMARK  status: ('A' for Active; 'I' for Inactive)
REMARK    1  A    between atoms: N1_2  and  C3_4 
REMARK    2  A    between atoms: C3_4  and  C4_5 
REMARK    3  A    between atoms: C5_6  and  C6_7 
REMARK       I    between atoms: C6_7  and  N2_9 
REMARK    4  A    between atoms: N2_9  and  C7_10 
REMARK    5  A    between atoms: C7_10  and  C8_11 
REMARK    6  A    between atoms: C10_14  and  S1_16 
REMARK    7  A    between atoms: S1_16  and  C11_17 
ROOT
HETATM    1  C8  UNL     1      -1.197  -0.018   0.733  1.00  0.00     0.181 A 
HETATM    2  N3  UNL     1      -1.308   0.742   1.883  1.00  0.00    -0.290 NA
HETATM    3  C9  UNL     1      -2.447   1.142   1.619  1.00  0.00     0.141 A 
HETATM    4  C10 UNL     1      -2.564   0.437   0.375  1.00  0.00     0.213 A 
HETATM    5  F1  UNL     1      -2.637   1.245  -0.758  1.00  0.00    -0.222 F 
ENDROOT
BRANCH   1   6
HETATM    6  C7  UNL     1      -0.207   0.408  -0.339  1.00  0.00     0.155 C 
BRANCH   6   7
HETATM    7  N2  UNL     1       1.152   0.457   0.082  1.00  0.00    -0.355 N 
HETATM    8  C6  UNL     1       1.837   1.241   1.088  1.00  0.00     0.240 C 
HETATM    9  O1  UNL     1       0.966   1.974   1.602  1.00  0.00    -0.269 OA
HETATM   10  H11 UNL     1       1.787  -0.220  -0.450  1.00  0.00     0.162 HD
BRANCH   8  11
HETATM   11  C5  UNL     1       3.266   1.061   1.304  1.00  0.00     0.072 C 
HETATM   12  C4  UNL     1       4.350   0.387   0.915  1.00  0.00     0.008 C 
BRANCH  12  13
HETATM   13  C3  UNL     1       4.816  -0.636  -0.007  1.00  0.00     0.299 C 
BRANCH  13  14
HETATM   14  N1  UNL     1       5.850  -0.186  -0.921  1.00  0.00     0.083 N 
HETATM   15  C1  UNL     1       7.093   0.094  -0.233  1.00  0.00     0.309 C 
HETATM   16  C2  UNL     1       6.153  -1.279  -1.855  1.00  0.00     0.309 C 
ENDBRANCH  13  14
ENDBRANCH  12  13
ENDBRANCH   8  11
ENDBRANCH   6   7
ENDBRANCH   1   6
BRANCH   4  17
HETATM   17  S1  UNL     1      -3.738  -0.947   0.333  1.00  0.00    -0.079 SA
BRANCH  17  18
HETATM   18  C11 UNL     1      -5.391  -0.441  -0.068  1.00  0.00     0.005 A 
HETATM   19  C12 UNL     1      -5.884   0.819  -0.332  1.00  0.00     0.019 A 
HETATM   20  C13 UNL     1      -7.233   0.976  -0.627  1.00  0.00     0.003 A 
HETATM   21  C14 UNL     1      -8.083  -0.113  -0.658  1.00  0.00     0.024 A 
HETATM   22  C15 UNL     1      -7.606  -1.380  -0.397  1.00  0.00     0.035 A 
HETATM   23 CL1  UNL     1      -8.743  -2.716  -0.457  1.00  0.00    -0.084 Cl
HETATM   24  C16 UNL     1      -6.253  -1.540  -0.101  1.00  0.00     0.042 A 
ENDBRANCH  17  18
ENDBRANCH   4  17
TORSDOF 7
