REMARK  5 active torsions:
REMARK  status: ('A' for Active; 'I' for Inactive)
REMARK    1  A    between atoms: N1_2  and  C2_3 
REMARK    2  A    between atoms: N1_2  and  N2_5 
REMARK    3  A    between atoms: C6_10  and  C7_11 
REMARK    4  A    between atoms: C11_15  and  N3_16 
REMARK    5  A    between atoms: N3_16  and  C12_17 
ROOT
HETATM    1  C7  UNL     1      -1.296  -0.567  -0.597  1.00  0.00    -0.029 A 
HETATM    2  C8  UNL     1      -0.473   0.110   0.270  1.00  0.00     0.010 A 
HETATM    3  C9  UNL     1       0.793   0.590   0.021  1.00  0.00     0.018 A 
HETATM    4  C10 UNL     1       1.314   0.383  -1.217  1.00  0.00     0.039 A 
HETATM    5  C11 UNL     1       2.569   0.823  -1.588  1.00  0.00     0.142 A 
HETATM    6  N4  UNL     1       3.042   0.609  -2.811  1.00  0.00    -0.224 NA
HETATM    7  C18 UNL     1       2.315  -0.048  -3.735  1.00  0.00     0.236 A 
HETATM    8  N5  UNL     1       1.089  -0.491  -3.409  1.00  0.00    -0.241 NA
HETATM    9  C19 UNL     1       0.571  -0.293  -2.177  1.00  0.00     0.072 A 
HETATM   10  C20 UNL     1      -0.671  -0.732  -1.844  1.00  0.00     0.042 A 
ENDROOT
BRANCH   1  11
HETATM   11  C6  UNL     1      -2.647  -1.058  -0.392  1.00  0.00     0.159 C 
HETATM   12  N2  UNL     1      -3.658  -0.162  -0.027  1.00  0.00    -0.311 N 
HETATM   13  C3  UNL     1      -4.963  -0.737  -0.224  1.00  0.00     0.170 C 
HETATM   14  C4  UNL     1      -5.065  -2.146   0.301  1.00  0.00     0.189 C 
HETATM   15  O2  UNL     1      -3.923  -2.881   0.312  1.00  0.00    -0.387 OA
HETATM   16  C5  UNL     1      -2.740  -2.255   0.559  1.00  0.00     0.199 C 
BRANCH  12  17
HETATM   17  N1  UNL     1      -3.535   0.773   0.930  1.00  0.00    -0.274 N 
HETATM   18  C1  UNL     1      -3.335   1.018   2.364  1.00  0.00     0.180 C 
BRANCH  17  19
HETATM   19  C2  UNL     1      -3.666   2.101   0.365  1.00  0.00     0.370 C 
HETATM   20  O1  UNL     1      -3.589   3.086   1.151  1.00  0.00    -0.282 OA
ENDBRANCH  17  19
ENDBRANCH  12  17
ENDBRANCH   1  11
BRANCH   5  21
HETATM   21  N3  UNL     1       3.362   1.512  -0.632  1.00  0.00    -0.340 N 
HETATM   22  H14 UNL     1       3.037   2.496  -0.507  1.00  0.00     0.167 HD
BRANCH  21  23
HETATM   23  C12 UNL     1       4.464   0.958   0.084  1.00  0.00     0.035 A 
HETATM   24  C13 UNL     1       4.869  -0.326  -0.210  1.00  0.00     0.032 A 
HETATM   25  C14 UNL     1       5.958  -0.842   0.490  1.00  0.00     0.046 A 
HETATM   26  C15 UNL     1       6.577  -0.060   1.434  1.00  0.00     0.138 A 
HETATM   27  F1  UNL     1       7.647  -0.559   2.122  1.00  0.00    -0.204 F 
HETATM   28  C16 UNL     1       6.138   1.225   1.700  1.00  0.00     0.074 A 
HETATM   29 CL1  UNL     1       6.983   2.148   2.916  1.00  0.00    -0.081 Cl
HETATM   30  C17 UNL     1       5.069   1.756   1.024  1.00  0.00     0.056 A 
ENDBRANCH  21  23
ENDBRANCH   5  21
TORSDOF 5
