REMARK  7 active torsions:
REMARK  status: ('A' for Active; 'I' for Inactive)
REMARK    1  A    between atoms: N1_2  and  C3_4 
REMARK    2  A    between atoms: C3_4  and  C4_5 
REMARK    3  A    between atoms: C5_6  and  C6_7 
REMARK    4  A    between atoms: C6_7  and  O1_8 
REMARK    5  A    between atoms: C6_7  and  C11_14 
REMARK    6  A    between atoms: O1_8  and  C7_9 
REMARK    7  A    between atoms: N4_20  and  C15_21 
ROOT
HETATM    1  C11 UNL     1      -1.419   0.491  -0.385  1.00  0.00     0.159 C 
HETATM    2  C12 UNL     1      -2.601   1.183   0.242  1.00  0.00     0.119 C 
HETATM    3  N2  UNL     1      -3.820   0.893  -0.149  1.00  0.00    -0.256 NA
HETATM    4  C13 UNL     1      -4.228  -0.051  -1.157  1.00  0.00     0.228 C 
HETATM    5  N3  UNL     1      -3.659  -1.071  -1.646  1.00  0.00    -0.263 NA
HETATM    6  C14 UNL     1      -2.353  -1.662  -1.350  1.00  0.00     0.275 C 
HETATM    7  N4  UNL     1      -1.724  -0.919  -0.240  1.00  0.00    -0.350 N 
ENDROOT
BRANCH   1   8
HETATM    8  C6  UNL     1      -0.153   0.881   0.337  1.00  0.00     0.172 C 
BRANCH   8   9
HETATM    9  C5  UNL     1       0.943  -0.067   0.079  1.00  0.00     0.005 C 
HETATM   10  C4  UNL     1       1.931   0.136  -0.818  1.00  0.00     0.002 C 
BRANCH  10  11
HETATM   11  C3  UNL     1       3.078  -0.754  -1.152  1.00  0.00     0.298 C 
BRANCH  11  12
HETATM   12  N1  UNL     1       3.132  -1.177  -2.511  1.00  0.00     0.083 N 
HETATM   13  C1  UNL     1       4.275  -2.026  -2.709  1.00  0.00     0.309 C 
HETATM   14  C2  UNL     1       1.933  -1.934  -2.812  1.00  0.00     0.309 C 
ENDBRANCH  11  12
ENDBRANCH  10  11
ENDBRANCH   8   9
BRANCH   8  15
HETATM   15  O1  UNL     1       0.165   2.204   0.207  1.00  0.00    -0.372 OA
BRANCH  15  16
HETATM   16  C7  UNL     1       0.149   3.041   1.248  1.00  0.00     0.148 C 
HETATM   17  C8  UNL     1      -0.850   4.146   0.951  1.00  0.00     0.060 C 
HETATM   18  C9  UNL     1       0.044   5.320   0.659  1.00  0.00     0.170 C 
HETATM   19  O2  UNL     1       1.009   5.181   1.658  1.00  0.00    -0.389 OA
HETATM   20  C10 UNL     1       1.397   3.854   1.473  1.00  0.00     0.199 C 
ENDBRANCH  15  16
ENDBRANCH   8  15
ENDBRANCH   1   8
BRANCH   7  21
HETATM   21  C15 UNL     1      -1.486  -1.742   0.868  1.00  0.00     0.034 A 
HETATM   22  C16 UNL     1      -1.039  -3.035   0.563  1.00  0.00     0.032 A 
HETATM   23  C17 UNL     1      -0.785  -3.959   1.575  1.00  0.00     0.046 A 
HETATM   24  C18 UNL     1      -0.964  -3.630   2.903  1.00  0.00     0.138 A 
HETATM   25  F1  UNL     1      -0.728  -4.498   3.922  1.00  0.00    -0.204 F 
HETATM   26  C19 UNL     1      -1.401  -2.368   3.224  1.00  0.00     0.074 A 
HETATM   27 CL1  UNL     1      -1.648  -1.888   4.887  1.00  0.00    -0.081 Cl
HETATM   28  C20 UNL     1      -1.643  -1.484   2.209  1.00  0.00     0.056 A 
ENDBRANCH   7  21
TORSDOF 7
