REMARK  9 active torsions:
REMARK  status: ('A' for Active; 'I' for Inactive)
REMARK    1  A    between atoms: N1_1  and  C1_2 
REMARK    2  A    between atoms: C2_3  and  C3_4 
REMARK    3  A    between atoms: C3_4  and  C4_5 
REMARK    4  A    between atoms: C4_5  and  C8_10 
REMARK    5  A    between atoms: C5_6  and  C6_7 
REMARK    6  A    between atoms: C10_12  and  C11_13 
REMARK    7  A    between atoms: C12_14  and  C13_15 
REMARK    8  A    between atoms: C12_14  and  O1_17 
REMARK    9  A    between atoms: O1_17  and  C14_18 
ROOT
HETATM    1  C8  UNL     1      -1.923   0.823   0.842  1.00  0.00     0.067 A 
HETATM    2  C9  UNL     1      -0.692   0.412   0.405  1.00  0.00     0.064 A 
HETATM    3  C10 UNL     1       0.422   0.399   1.215  1.00  0.00     0.062 A 
HETATM    4  N2  UNL     1       0.197   0.828   2.477  1.00  0.00    -0.242 NA
HETATM    5  C18 UNL     1      -0.994   1.233   2.921  1.00  0.00     0.234 A 
HETATM    6  N3  UNL     1      -2.039   1.228   2.107  1.00  0.00    -0.242 NA
ENDROOT
BRANCH   1   7
HETATM    7  C4  UNL     1      -3.110   0.835  -0.001  1.00  0.00    -0.026 C 
HETATM    8  C5  UNL     1      -4.305   1.241   0.372  1.00  0.00     0.012 C 
BRANCH   7   9
HETATM    9  C3  UNL     1      -2.954   0.339  -1.411  1.00  0.00     0.069 C 
BRANCH   9  10
HETATM   10  C2  UNL     1      -2.599  -1.098  -1.312  1.00  0.00    -0.006 C 
HETATM   11  C1  UNL     1      -3.444  -1.963  -1.920  1.00  0.00     0.076 C 
BRANCH  11  12
HETATM   12  N1  UNL     1      -4.517  -1.213  -2.531  1.00  0.00    -0.408 N 
HETATM   13  H1  UNL     1      -5.424  -0.757  -2.262  1.00  0.00     0.155 HD
HETATM   14  H2  UNL     1      -5.269  -0.679  -2.996  1.00  0.00     0.155 HD
ENDBRANCH  11  12
ENDBRANCH   9  10
ENDBRANCH   7   9
BRANCH   8  15
HETATM   15  C6  UNL     1      -4.648   1.754   1.689  1.00  0.00     0.030 C 
HETATM   16  C7  UNL     1      -5.874   2.136   1.973  1.00  0.00     0.188 C 
HETATM   17  F1  UNL     1      -6.564   2.637   3.008  1.00  0.00    -0.219 F 
ENDBRANCH   8  15
ENDBRANCH   1   7
BRANCH   3  18
HETATM   18  C11 UNL     1       1.751  -0.033   0.874  1.00  0.00     0.066 C 
HETATM   19  C12 UNL     1       2.303  -1.060   0.213  1.00  0.00     0.077 C 
BRANCH  19  20
HETATM   20  C13 UNL     1       1.816  -2.264  -0.498  1.00  0.00     0.286 C 
HETATM   21  F2  UNL     1       0.428  -2.370  -0.473  1.00  0.00    -0.248 F 
ENDBRANCH  19  20
BRANCH  19  22
HETATM   22  O1  UNL     1       3.662  -1.141   0.088  1.00  0.00    -0.345 OA
BRANCH  22  23
HETATM   23  C14 UNL     1       4.488  -0.599  -0.887  1.00  0.00     0.154 C 
HETATM   24  C15 UNL     1       5.914  -1.037  -0.556  1.00  0.00     0.061 C 
HETATM   25  C16 UNL     1       6.712   0.213  -0.734  1.00  0.00     0.170 C 
HETATM   26  O2  UNL     1       5.872   1.127  -1.366  1.00  0.00    -0.389 OA
HETATM   27  C17 UNL     1       4.598   0.893  -0.875  1.00  0.00     0.200 C 
ENDBRANCH  22  23
ENDBRANCH  19  22
ENDBRANCH   3  18
TORSDOF 9
