REMARK  9 active torsions:
REMARK  status: ('A' for Active; 'I' for Inactive)
REMARK    1  A    between atoms: C2_2  and  C4_4 
REMARK    2  A    between atoms: C5_5  and  C6_6 
REMARK       I    between atoms: C6_6  and  N1_8 
REMARK    3  A    between atoms: N1_8  and  C7_9 
REMARK    4  A    between atoms: C8_10  and  C9_11 
REMARK    5  A    between atoms: C10_12  and  C11_13 
REMARK    6  A    between atoms: C11_13  and  O2_14 
REMARK    7  A    between atoms: O2_14  and  C12_15 
REMARK    8  A    between atoms: C15_19  and  N2_20 
REMARK    9  A    between atoms: C17_24  and  C18_25 
ROOT
HETATM    1  C9  UNL     1      -1.752   0.541   1.735  1.00  0.00     0.022 A 
HETATM    2  C10 UNL     1      -2.783  -0.372   1.754  1.00  0.00     0.072 A 
HETATM    3  N3  UNL     1      -3.977   0.106   2.059  1.00  0.00    -0.243 NA
HETATM    4  C16 UNL     1      -4.221   1.383   2.340  1.00  0.00     0.234 A 
HETATM    5  N4  UNL     1      -3.221   2.267   2.320  1.00  0.00    -0.240 NA
HETATM    6  C17 UNL     1      -1.950   1.869   2.014  1.00  0.00     0.080 A 
ENDROOT
BRANCH   1   7
HETATM    7  C8  UNL     1      -0.378   0.210   1.441  1.00  0.00     0.033 C 
HETATM    8  C7  UNL     1       0.882   0.556   1.339  1.00  0.00     0.092 C 
BRANCH   8   9
HETATM    9  N1  UNL     1       1.987  -0.255   0.961  1.00  0.00    -0.334 N 
HETATM   10  C6  UNL     1       2.832  -0.067  -0.187  1.00  0.00     0.244 C 
HETATM   11  O1  UNL     1       2.614   0.888  -0.946  1.00  0.00    -0.268 OA
HETATM   12  H10 UNL     1       2.227  -1.077   1.564  1.00  0.00     0.168 HD
BRANCH  10  13
HETATM   13  C5  UNL     1       3.945  -0.944  -0.514  1.00  0.00     0.071 C 
HETATM   14  C4  UNL     1       4.609  -0.614  -1.607  1.00  0.00    -0.017 C 
BRANCH  14  15
HETATM   15  C2  UNL     1       5.776  -1.380  -2.114  1.00  0.00    -0.000 C 
HETATM   16  C1  UNL     1       6.185  -2.505  -1.195  1.00  0.00     0.013 C 
HETATM   17  C3  UNL     1       5.467  -1.891  -3.507  1.00  0.00     0.013 C 
ENDBRANCH  14  15
ENDBRANCH  10  13
ENDBRANCH   8   9
ENDBRANCH   1   7
BRANCH   2  18
HETATM   18  C11 UNL     1      -2.473  -1.771   1.450  1.00  0.00     0.228 C 
BRANCH  18  19
HETATM   19  O2  UNL     1      -2.260  -1.974   0.088  1.00  0.00    -0.375 OA
BRANCH  19  20
HETATM   20  C12 UNL     1      -3.354  -1.645  -0.683  1.00  0.00     0.182 C 
HETATM   21  C13 UNL     1      -2.898  -0.612  -1.721  1.00  0.00     0.063 C 
HETATM   22  C14 UNL     1      -3.907  -0.892  -2.805  1.00  0.00     0.173 C 
HETATM   23  O3  UNL     1      -4.174  -2.248  -2.792  1.00  0.00    -0.355 OA
HETATM   24  C15 UNL     1      -3.792  -2.765  -1.568  1.00  0.00     0.382 C 
BRANCH  24  25
HETATM   25  N2  UNL     1      -4.878  -3.544  -0.999  1.00  0.00     0.109 N 
HETATM   26  H21 UNL     1      -5.336  -2.909  -0.281  1.00  0.00     0.316 HD
HETATM   27  H22 UNL     1      -4.410  -4.301  -0.433  1.00  0.00     0.316 HD
ENDBRANCH  24  25
ENDBRANCH  19  20
ENDBRANCH  18  19
ENDBRANCH   2  18
BRANCH   6  28
HETATM   28  C18 UNL     1      -1.110   3.039   2.064  1.00  0.00    -0.005 A 
HETATM   29  C19 UNL     1      -1.112   3.858   3.201  1.00  0.00     0.017 A 
HETATM   30  C20 UNL     1      -0.390   5.020   3.370  1.00  0.00     0.045 A 
HETATM   31  C21 UNL     1       0.399   5.389   2.310  1.00  0.00     0.138 A 
HETATM   32  F1  UNL     1       1.126   6.526   2.438  1.00  0.00    -0.204 F 
HETATM   33  C22 UNL     1       0.491   4.673   1.138  1.00  0.00     0.073 A 
HETATM   34 CL1  UNL     1       1.501   5.149  -0.208  1.00  0.00    -0.081 Cl
HETATM   35  C23 UNL     1      -0.274   3.534   1.088  1.00  0.00     0.041 A 
ENDBRANCH   6  28
TORSDOF 9
