REMARK  5 active torsions:
REMARK  status: ('A' for Active; 'I' for Inactive)
REMARK    1  A    between atoms: C3_5  and  C4_6 
REMARK    2  A    between atoms: C4_6  and  O1_7 
REMARK    3  A    between atoms: O1_7  and  C5_8 
REMARK    4  A    between atoms: C13_19  and  N5_20 
REMARK    5  A    between atoms: N5_20  and  C14_21 
ROOT
HETATM    1  C1  UNL     1       2.936  -4.259   1.526  1.00  0.00     0.312 C 
HETATM    2  N1  UNL     1       1.757  -3.559   0.837  1.00  0.00     0.108 NA
HETATM    3  C2  UNL     1       2.314  -2.403   0.370  1.00  0.00     0.395 C 
HETATM    4  N2  UNL     1       1.779  -1.292  -0.271  1.00  0.00    -0.367 N 
HETATM    5  C3  UNL     1       0.710  -0.513   0.251  1.00  0.00     0.031 C 
HETATM    6  C9  UNL     1      -0.571  -0.353   0.154  1.00  0.00     0.044 C 
HETATM    7  C10 UNL     1      -1.709  -0.907  -0.586  1.00  0.00     0.037 A 
HETATM    8  C11 UNL     1      -1.773  -2.292  -0.945  1.00  0.00     0.057 A 
HETATM    9  N3  UNL     1      -2.789  -2.831  -1.589  1.00  0.00    -0.245 NA
HETATM   10  C12 UNL     1      -3.821  -2.058  -1.933  1.00  0.00     0.235 A 
HETATM   11  N4  UNL     1      -3.801  -0.775  -1.622  1.00  0.00    -0.224 NA
HETATM   12  C13 UNL     1      -2.800  -0.174  -0.970  1.00  0.00     0.141 A 
HETATM   13  C20 UNL     1      -0.619  -3.002  -0.576  1.00  0.00     0.140 C 
HETATM   14  C21 UNL     1      -0.140  -4.311  -0.493  1.00  0.00     0.160 C 
HETATM   15  O3  UNL     1      -0.864  -5.192  -0.930  1.00  0.00    -0.296 OA
HETATM   16  C22 UNL     1       1.191  -4.645   0.098  1.00  0.00     0.352 C 
HETATM   17  H6  UNL     1       2.108  -0.919  -1.197  1.00  0.00     0.161 HD
ENDROOT
BRANCH  12  18
HETATM   18  N5  UNL     1      -2.862   1.210  -0.688  1.00  0.00    -0.340 N 
HETATM   19  H18 UNL     1      -2.052   1.659  -0.205  1.00  0.00     0.167 HD
BRANCH  18  20
HETATM   20  C14 UNL     1      -3.886   2.143  -0.974  1.00  0.00     0.035 A 
HETATM   21  C15 UNL     1      -3.861   3.445  -0.479  1.00  0.00     0.032 A 
HETATM   22  C16 UNL     1      -4.822   4.388  -0.729  1.00  0.00     0.046 A 
HETATM   23  C17 UNL     1      -5.895   4.081  -1.507  1.00  0.00     0.138 A 
HETATM   24  F1  UNL     1      -6.807   5.032  -1.723  1.00  0.00    -0.204 F 
HETATM   25  C18 UNL     1      -5.978   2.819  -2.022  1.00  0.00     0.074 A 
HETATM   26 CL1  UNL     1      -7.378   2.448  -3.027  1.00  0.00    -0.081 Cl
HETATM   27  C19 UNL     1      -4.993   1.898  -1.750  1.00  0.00     0.056 A 
ENDBRANCH  18  20
ENDBRANCH  12  18
BRANCH   5  28
HETATM   28  C4  UNL     1       1.477   0.349   1.190  1.00  0.00     0.225 C 
BRANCH  28  29
HETATM   29  O1  UNL     1       2.457   1.114   0.570  1.00  0.00    -0.378 OA
BRANCH  29  30
HETATM   30  C5  UNL     1       3.158   1.917   1.453  1.00  0.00     0.147 C 
HETATM   31  C6  UNL     1       3.086   3.337   0.938  1.00  0.00     0.060 C 
HETATM   32  C7  UNL     1       4.498   3.824   1.078  1.00  0.00     0.170 C 
HETATM   33  O2  UNL     1       5.190   2.840   1.785  1.00  0.00    -0.389 OA
HETATM   34  C8  UNL     1       4.650   1.621   1.326  1.00  0.00     0.199 C 
ENDBRANCH  29  30
ENDBRANCH  28  29
ENDBRANCH   5  28
TORSDOF 5
