REMARK  9 active torsions:
REMARK  status: ('A' for Active; 'I' for Inactive)
REMARK    1  A    between atoms: O1_2  and  C2_3 
REMARK    2  A    between atoms: C3_4  and  C4_5 
REMARK    3  A    between atoms: C4_5  and  N1_6 
REMARK    4  A    between atoms: N1_6  and  C5_7 
REMARK    5  A    between atoms: C5_7  and  C6_8 
REMARK    6  A    between atoms: C5_7  and  C7_10 
REMARK    7  A    between atoms: C6_8  and  O2_9 
REMARK       I    between atoms: C7_10  and  N2_11 
REMARK    8  A    between atoms: C8_13  and  C9_14 
REMARK    9  A    between atoms: N3_15  and  C13_19 
ROOT
HETATM    1  C2  UNL     1      -0.123   1.881   0.546  1.00  0.00     0.078 A 
HETATM    2  C3  UNL     1       0.106   0.607   0.512  1.00  0.00    -0.013 A 
HETATM    3  C8  UNL     1       1.502   0.190   0.341  1.00  0.00     0.028 A 
HETATM    4  C16 UNL     1       2.473   1.368   0.204  1.00  0.00     0.037 A 
HETATM    5  C17 UNL     1       1.908   2.694   0.280  1.00  0.00    -0.017 A 
HETATM    6  C18 UNL     1       0.691   3.061   0.441  1.00  0.00    -0.032 A 
HETATM    7  C19 UNL     1       0.575   4.578   0.467  1.00  0.00     0.050 C 
ENDROOT
BRANCH   2   8
HETATM    8  C4  UNL     1      -1.237   0.001   0.703  1.00  0.00     0.308 C 
BRANCH   8   9
HETATM    9  N1  UNL     1      -1.739  -0.795  -0.444  1.00  0.00     0.103 N 
HETATM   10  H6  UNL     1      -1.423  -1.761  -0.295  1.00  0.00     0.317 HD
BRANCH   9  11
HETATM   11  C5  UNL     1      -3.202  -0.895  -0.181  1.00  0.00     0.334 C 
BRANCH  11  12
HETATM   12  C6  UNL     1      -3.487  -1.496   1.197  1.00  0.00     0.209 C 
BRANCH  12  13
HETATM   13  O2  UNL     1      -4.918  -1.549   1.300  1.00  0.00    -0.398 OA
HETATM   14  H10 UNL     1      -5.041  -1.517   2.318  1.00  0.00     0.209 HD
ENDBRANCH  12  13
ENDBRANCH  11  12
BRANCH  11  15
HETATM   15  C7  UNL     1      -3.774  -1.710  -1.195  1.00  0.00     0.251 C 
HETATM   16  N2  UNL     1      -5.172  -1.656  -1.147  1.00  0.00    -0.368 N 
HETATM   17  H11 UNL     1      -6.059  -1.291  -0.837  1.00  0.00     0.159 HD
HETATM   18  H12 UNL     1      -5.770  -2.324  -1.718  1.00  0.00     0.159 HD
HETATM   19  O3  UNL     1      -3.220  -2.437  -2.080  1.00  0.00    -0.271 OA
ENDBRANCH  11  15
ENDBRANCH   9  11
ENDBRANCH   8   9
ENDBRANCH   2   8
BRANCH   1  20
HETATM   20  O1  UNL     1      -1.427   2.477   0.745  1.00  0.00    -0.355 OA
HETATM   21  C1  UNL     1      -2.087   2.880  -0.494  1.00  0.00     0.210 C 
ENDBRANCH   1  20
BRANCH   3  22
HETATM   22  C9  UNL     1       1.763  -0.787  -0.735  1.00  0.00     0.014 A 
HETATM   23  N3  UNL     1       3.280  -0.941  -0.700  1.00  0.00     0.000 N 
HETATM   24  C10 UNL     1       3.147  -3.028  -0.554  1.00  0.00     0.052 A 
HETATM   25  H15 UNL     1       3.655  -0.001  -0.810  1.00  0.00     0.000 HD
HETATM   26  C12 UNL     1       2.285  -2.170  -0.685  1.00  0.00     0.008 A 
HETATM   27  C11 UNL     1       1.866  -3.095  -0.919  1.00  0.00    -0.023 A 
HETATM   28  C15 UNL     1       4.332  -2.936  -0.211  1.00  0.00     0.126 A 
HETATM   29  C13 UNL     1       3.854  -1.949  -0.178  1.00  0.00     0.067 A 
HETATM   30  C14 UNL     1       5.318  -2.247   0.214  1.00  0.00     0.054 A 
HETATM   31  F1  UNL     1       5.286  -3.874  -0.791  1.00  0.00    -0.208 F 
HETATM   32 CL1  UNL     1       6.901  -2.376   0.636  1.00  0.00    -0.086 Cl
ENDBRANCH   3  22
TORSDOF 9
