REMARK  5 active torsions:
REMARK  status: ('A' for Active; 'I' for Inactive)
REMARK    1  A    between atoms: C12_12  and  O1_13 
REMARK    2  A    between atoms: O1_13  and  C13_14 
REMARK    3  A    between atoms: C13_14  and  C14_15 
REMARK    4  A    between atoms: C23_25  and  C24_26 
REMARK    5  A    between atoms: C24_26  and  N1_27 
ROOT
HETATM    1  C1  UNL     1      -2.539  -2.373   0.899  1.00  0.00     0.017 C 
HETATM    2  C2  UNL     1      -2.543  -2.538  -0.624  1.00  0.00    -0.025 A 
HETATM    3  C3  UNL     1      -3.079  -1.395  -1.301  1.00  0.00     0.021 A 
HETATM    4  C4  UNL     1      -3.624  -0.247  -2.042  1.00  0.00     0.036 A 
HETATM    5  C5  UNL     1      -3.186  -1.504  -2.456  1.00  0.00     0.018 A 
HETATM    6  C6  UNL     1      -2.679  -2.665  -2.116  1.00  0.00     0.012 A 
HETATM    7  C7  UNL     1      -2.193  -3.668  -1.462  1.00  0.00    -0.018 A 
HETATM    8  C8  UNL     1      -1.705  -4.636  -0.403  1.00  0.00     0.017 C 
HETATM    9  C9  UNL     1      -0.645  -4.129   0.470  1.00  0.00    -0.004 C 
HETATM   10  C10 UNL     1       0.300  -3.407   1.119  1.00  0.00     0.006 C 
HETATM   11  C11 UNL     1       1.129  -2.280   1.461  1.00  0.00     0.058 C 
HETATM   12  C12 UNL     1       1.387  -1.010   1.223  1.00  0.00     0.052 C 
HETATM   13  C20 UNL     1       1.128   0.331   0.581  1.00  0.00     0.036 C 
HETATM   14  C21 UNL     1       0.006   0.405  -0.210  1.00  0.00     0.054 C 
HETATM   15  C22 UNL     1      -0.190   1.771  -0.781  1.00  0.00     0.164 C 
HETATM   16  O2  UNL     1      -0.164   2.969  -1.152  1.00  0.00    -0.292 OA
HETATM   17  C23 UNL     1      -1.444   1.587  -1.540  1.00  0.00     0.139 C 
HETATM   18  S1  UNL     1      -2.742   0.630  -0.622  1.00  0.00    -0.142 SA
ENDROOT
BRANCH  12  19
HETATM   19  O1  UNL     1       2.437  -0.577   1.928  1.00  0.00    -0.350 OA
BRANCH  19  20
HETATM   20  C13 UNL     1       3.629  -0.945   2.417  1.00  0.00     0.214 C 
BRANCH  20  21
HETATM   21  C14 UNL     1       4.709   0.097   2.206  1.00  0.00    -0.034 A 
HETATM   22  C15 UNL     1       5.041   1.201   3.063  1.00  0.00     0.009 A 
HETATM   23  C16 UNL     1       6.048   1.755   2.410  1.00  0.00     0.001 A 
HETATM   24  C17 UNL     1       6.877   1.782   1.372  1.00  0.00     0.000 A 
HETATM   25  C18 UNL     1       6.451   0.627   0.586  1.00  0.00     0.001 A 
HETATM   26  C19 UNL     1       5.381  -0.198   1.001  1.00  0.00     0.009 A 
ENDBRANCH  20  21
ENDBRANCH  19  20
ENDBRANCH  12  19
BRANCH  17  27
HETATM   27  C24 UNL     1      -2.085   2.787  -2.137  1.00  0.00     0.139 C 
BRANCH  27  28
HETATM   28  N1  UNL     1      -2.495   3.799  -1.272  1.00  0.00    -0.419 N 
HETATM   29  C25 UNL     1      -3.224   4.813  -1.998  1.00  0.00     0.142 C 
HETATM   30  C26 UNL     1      -3.074   3.544  -0.035  1.00  0.00     0.142 C 
ENDBRANCH  27  28
ENDBRANCH  17  27
TORSDOF 5
