REMARK  7 active torsions:
REMARK  status: ('A' for Active; 'I' for Inactive)
REMARK    1  A    between atoms: C4_4  and  S1_5 
REMARK    2  A    between atoms: S1_5  and  C5_6 
REMARK    3  A    between atoms: C5_6  and  C6_7 
REMARK    4  A    between atoms: C6_7  and  C7_8 
REMARK    5  A    between atoms: C6_7  and  C13_15 
REMARK    6  A    between atoms: C7_8  and  C8_9 
REMARK    7  A    between atoms: C13_15  and  N2_16 
ROOT
HETATM    1  C6  UNL     1      -1.571   0.665   0.420  1.00  0.00     0.025 C 
ENDROOT
BRANCH   1   2
HETATM    2  C5  UNL     1      -0.667   0.494  -0.740  1.00  0.00     0.085 C 
BRANCH   2   3
HETATM    3  S1  UNL     1       0.800   1.532  -0.655  1.00  0.00    -0.130 SA
BRANCH   3   4
HETATM    4  C4  UNL     1       2.119   0.691   0.159  1.00  0.00    -0.003 C 
HETATM    5  C3  UNL     1       2.931   0.440  -1.116  1.00  0.00     0.020 C 
HETATM    6  C2  UNL     1       4.128  -0.194  -1.174  1.00  0.00    -0.082 C 
HETATM    7  C1  UNL     1       4.922  -0.454  -2.447  1.00  0.00     0.043 C 
HETATM    8  C19 UNL     1       4.894  -0.648   0.001  1.00  0.00     0.042 C 
HETATM    9  C17 UNL     1       4.101  -0.551   1.269  1.00  0.00     0.009 C 
HETATM   10  C16 UNL     1       2.846   0.160   1.093  1.00  0.00    -0.004 C 
HETATM   11  C18 UNL     1       5.001   0.120   2.324  1.00  0.00     0.014 C 
ENDBRANCH   3   4
ENDBRANCH   2   3
ENDBRANCH   1   2
BRANCH   1  12
HETATM   12  C7  UNL     1      -2.814  -0.171   0.448  1.00  0.00     0.043 C 
BRANCH  12  13
HETATM   13  C8  UNL     1      -2.619  -1.653   0.519  1.00  0.00     0.226 C 
HETATM   14  C9  UNL     1      -1.848  -2.218  -0.600  1.00  0.00     0.065 C 
HETATM   15  C10 UNL     1      -1.650  -3.500  -0.322  1.00  0.00    -0.033 C 
HETATM   16  C11 UNL     1      -2.701  -4.219  -0.070  1.00  0.00     0.025 C 
HETATM   17  C12 UNL     1      -3.740  -3.684   0.823  1.00  0.00     0.275 C 
HETATM   18  N1  UNL     1      -3.956  -2.288   0.447  1.00  0.00     0.088 N 
HETATM   19  H15 UNL     1      -4.135  -2.313  -0.609  1.00  0.00     0.316 HD
ENDBRANCH  12  13
ENDBRANCH   1  12
BRANCH   1  20
HETATM   20  C13 UNL     1      -1.891   2.146   0.644  1.00  0.00     0.276 C 
BRANCH  20  21
HETATM   21  N2  UNL     1      -2.436   2.806  -0.483  1.00  0.00     0.080 N 
HETATM   22  C14 UNL     1      -3.713   2.495  -0.984  1.00  0.00     0.309 C 
HETATM   23  C15 UNL     1      -2.376   4.247  -0.199  1.00  0.00     0.309 C 
ENDBRANCH  20  21
ENDBRANCH   1  20
TORSDOF 7
