REMARK  8 active torsions:
REMARK  status: ('A' for Active; 'I' for Inactive)
REMARK    1  A    between atoms: N1_2  and  C3_4 
REMARK    2  A    between atoms: C3_4  and  C4_5 
REMARK    3  A    between atoms: C5_6  and  C6_7 
REMARK       I    between atoms: C6_7  and  N2_9 
REMARK    4  A    between atoms: N2_9  and  C7_10 
REMARK    5  A    between atoms: C9_12  and  N3_13 
REMARK    6  A    between atoms: N3_13  and  C10_14 
REMARK    7  A    between atoms: C19_26  and  O2_27 
REMARK    8  A    between atoms: O2_27  and  C20_28 
ROOT
HETATM    1  C7  UNL     1      -1.386   0.214   0.335  1.00  0.00     0.147 C 
HETATM    2  C8  UNL     1      -2.523  -0.676   0.693  1.00  0.00    -0.028 C 
HETATM    3  C9  UNL     1      -3.389  -1.659   0.891  1.00  0.00     0.034 C 
HETATM    4  C16 UNL     1      -4.835  -1.207   0.750  1.00  0.00     0.200 C 
HETATM    5  N4  UNL     1      -4.753   0.053   0.007  1.00  0.00    -0.307 NA
HETATM    6  C17 UNL     1      -3.625   0.631  -0.317  1.00  0.00     0.110 C 
HETATM    7  C18 UNL     1      -3.215   0.603   1.171  1.00  0.00     0.076 C 
HETATM    8  C19 UNL     1      -2.242   1.289  -0.486  1.00  0.00     0.181 C 
ENDROOT
BRANCH   1   9
HETATM    9  N2  UNL     1      -0.738   0.847   1.418  1.00  0.00    -0.347 N 
HETATM   10  C6  UNL     1       0.701   0.838   1.290  1.00  0.00     0.241 C 
HETATM   11  O1  UNL     1       1.342   0.315   0.306  1.00  0.00    -0.269 OA
HETATM   12  H11 UNL     1      -0.806   1.358   2.341  1.00  0.00     0.163 HD
BRANCH  10  13
HETATM   13  C5  UNL     1       1.801   1.357   2.132  1.00  0.00     0.072 C 
HETATM   14  C4  UNL     1       2.940   1.091   1.561  1.00  0.00     0.008 C 
BRANCH  14  15
HETATM   15  C3  UNL     1       4.234   1.473   2.141  1.00  0.00     0.299 C 
BRANCH  15  16
HETATM   16  N1  UNL     1       5.030   0.291   2.368  1.00  0.00     0.083 N 
HETATM   17  C1  UNL     1       4.527  -0.552   3.407  1.00  0.00     0.309 C 
HETATM   18  C2  UNL     1       6.404   0.601   2.592  1.00  0.00     0.309 C 
ENDBRANCH  15  16
ENDBRANCH  14  15
ENDBRANCH  10  13
ENDBRANCH   1   9
BRANCH   8  19
HETATM   19  O2  UNL     1      -1.832   1.303  -1.774  1.00  0.00    -0.373 OA
BRANCH  19  20
HETATM   20  C20 UNL     1      -1.418   2.522  -2.275  1.00  0.00     0.148 C 
HETATM   21  C21 UNL     1      -0.051   2.518  -2.865  1.00  0.00     0.060 C 
HETATM   22  C22 UNL     1      -0.252   3.006  -4.287  1.00  0.00     0.170 C 
HETATM   23  O3  UNL     1      -1.376   3.795  -4.138  1.00  0.00    -0.389 OA
HETATM   24  C23 UNL     1      -2.277   3.056  -3.379  1.00  0.00     0.199 C 
ENDBRANCH  19  20
ENDBRANCH   8  19
BRANCH   3  25
HETATM   25  N3  UNL     1      -2.525  -2.785   1.126  1.00  0.00    -0.358 N 
HETATM   26  H13 UNL     1      -2.482  -3.219   2.072  1.00  0.00     0.166 HD
BRANCH  25  27
HETATM   27  C10 UNL     1      -1.752  -3.283   0.071  1.00  0.00     0.034 A 
HETATM   28  C11 UNL     1      -1.744  -2.766  -1.211  1.00  0.00     0.032 A 
HETATM   29  C12 UNL     1      -0.953  -3.324  -2.168  1.00  0.00     0.046 A 
HETATM   30  C13 UNL     1      -0.115  -4.420  -1.948  1.00  0.00     0.138 A 
HETATM   31  F1  UNL     1       0.674  -4.982  -2.891  1.00  0.00    -0.204 F 
HETATM   32  C14 UNL     1      -0.103  -4.966  -0.659  1.00  0.00     0.074 A 
HETATM   33 CL1  UNL     1       0.903  -6.341  -0.247  1.00  0.00    -0.081 Cl
HETATM   34  C15 UNL     1      -0.923  -4.363   0.271  1.00  0.00     0.056 A 
ENDBRANCH  25  27
ENDBRANCH   3  25
TORSDOF 8
