REMARK  0 active torsions:
REMARK  status: ('A' for Active; 'I' for Inactive)
ROOT
HETATM    1  C1  UNL     1       1.782   2.955  -0.618  1.00  0.00     0.024 C 
HETATM    2  C2  UNL     1       1.413   1.834  -0.047  1.00  0.00     0.001 C 
HETATM    3  C3  UNL     1       0.331   0.860   0.006  1.00  0.00     0.164 C 
HETATM    4  N1  UNL     1      -0.865   1.010  -0.717  1.00  0.00    -0.382 N 
HETATM    5  C4  UNL     1      -1.355   2.363  -0.672  1.00  0.00     0.123 C 
HETATM    6  C5  UNL     1      -2.079   2.663  -1.938  1.00  0.00     0.020 C 
HETATM    7  C6  UNL     1      -3.036   1.535  -2.258  1.00  0.00     0.007 C 
HETATM    8  C7  UNL     1      -2.361   0.242  -2.469  1.00  0.00     0.053 C 
HETATM    9  C8  UNL     1      -1.493  -0.163  -1.314  1.00  0.00    -0.007 C 
HETATM   10  C9  UNL     1      -1.102  -1.281  -0.661  1.00  0.00     0.067 C 
HETATM   11  C10 UNL     1      -1.191  -2.768  -0.529  1.00  0.00    -0.015 C 
HETATM   12  C11 UNL     1      -0.465  -3.342   0.408  1.00  0.00    -0.003 C 
HETATM   13  C12 UNL     1       0.382  -3.817   1.467  1.00  0.00     0.001 C 
HETATM   14  C13 UNL     1       1.235  -3.265   2.315  1.00  0.00     0.011 C 
HETATM   15  C14 UNL     1       1.540  -1.868   2.349  1.00  0.00    -0.036 A 
HETATM   16  C15 UNL     1       2.337  -1.848   1.190  1.00  0.00     0.012 A 
HETATM   17  C16 UNL     1       2.811  -0.615   0.706  1.00  0.00     0.016 A 
HETATM   18  C17 UNL     1       2.288   0.258   1.614  1.00  0.00     0.015 A 
HETATM   19  C18 UNL     1       1.535   0.356   2.742  1.00  0.00     0.016 A 
HETATM   20  C19 UNL     1       1.085  -0.892   3.187  1.00  0.00     0.012 A 
HETATM   21  C20 UNL     1       2.546   1.529   0.894  1.00  0.00     0.189 C 
HETATM   22  O1  UNL     1       3.621   2.061   1.216  1.00  0.00    -0.287 OA
ENDROOT
TORSDOF 0
