REMARK  8 active torsions:
REMARK  status: ('A' for Active; 'I' for Inactive)
REMARK    1  A    between atoms: C2_2  and  C3_3 
REMARK    2  A    between atoms: C2_2  and  C9_10 
REMARK    3  A    between atoms: C3_3  and  N1_4 
REMARK    4  A    between atoms: C9_10  and  C10_12 
REMARK    5  A    between atoms: C13_15  and  O2_16 
REMARK    6  A    between atoms: O2_16  and  C14_17 
REMARK    7  A    between atoms: C14_17  and  C15_18 
REMARK    8  A    between atoms: C16_19  and  C17_20 
ROOT
HETATM    1  C10 UNL     1      -0.588   0.688  -0.320  1.00  0.00     0.015 A 
HETATM    2  C11 UNL     1      -0.324   1.295  -1.548  1.00  0.00     0.018 A 
HETATM    3  C12 UNL     1       0.962   1.287  -2.100  1.00  0.00     0.038 A 
HETATM    4  C13 UNL     1       1.990   0.676  -1.432  1.00  0.00     0.069 A 
HETATM    5  C21 UNL     1       1.779   0.067  -0.223  1.00  0.00     0.038 A 
HETATM    6  C22 UNL     1       0.502   0.104   0.271  1.00  0.00     0.018 A 
ENDROOT
BRANCH   1   7
HETATM    7  C9  UNL     1      -1.948   0.765   0.130  1.00  0.00     0.189 C 
HETATM    8  O1  UNL     1      -2.710   1.369  -0.648  1.00  0.00    -0.287 OA
BRANCH   7   9
HETATM    9  C2  UNL     1      -2.545   0.249   1.336  1.00  0.00     0.001 C 
HETATM   10  C1  UNL     1      -1.758  -0.379   2.171  1.00  0.00     0.024 C 
BRANCH   9  11
HETATM   11  C3  UNL     1      -3.859   0.254   1.969  1.00  0.00     0.158 C 
BRANCH  11  12
HETATM   12  N1  UNL     1      -4.853  -0.448   1.294  1.00  0.00    -0.408 N 
HETATM   13  C4  UNL     1      -5.442  -0.043   0.106  1.00  0.00     0.117 C 
HETATM   14  C5  UNL     1      -5.071  -0.972  -1.031  1.00  0.00     0.019 C 
HETATM   15  C6  UNL     1      -5.555  -2.386  -0.752  1.00  0.00     0.003 C 
HETATM   16  C7  UNL     1      -5.899  -2.584   0.696  1.00  0.00     0.019 C 
HETATM   17  C8  UNL     1      -4.879  -1.874   1.543  1.00  0.00     0.117 C 
ENDBRANCH  11  12
ENDBRANCH   9  11
ENDBRANCH   7   9
ENDBRANCH   1   7
BRANCH   4  18
HETATM   18  O2  UNL     1       3.265   0.664  -1.974  1.00  0.00    -0.347 OA
BRANCH  18  19
HETATM   19  C14 UNL     1       4.335   0.041  -1.304  1.00  0.00     0.203 C 
BRANCH  19  20
HETATM   20  C15 UNL     1       5.564   0.169  -2.104  1.00  0.00    -0.000 C 
HETATM   21  C16 UNL     1       6.738   0.727  -1.864  1.00  0.00    -0.001 C 
BRANCH  21  22
HETATM   22  C17 UNL     1       7.010   1.383  -0.593  1.00  0.00     0.011 C 
HETATM   23  C18 UNL     1       8.202   1.917  -0.418  1.00  0.00    -0.036 A 
HETATM   24  C19 UNL     1       9.483   2.103  -1.124  1.00  0.00     0.012 A 
HETATM   25  C20 UNL     1       9.355   2.609   0.154  1.00  0.00     0.012 A 
ENDBRANCH  21  22
ENDBRANCH  19  20
ENDBRANCH  18  19
ENDBRANCH   4  18
TORSDOF 8
