REMARK  11 active torsions:
REMARK  status: ('A' for Active; 'I' for Inactive)
REMARK    1  A    between atoms: N1_2  and  C3_4 
REMARK    2  A    between atoms: C3_4  and  C4_5 
REMARK    3  A    between atoms: C4_5  and  C5_6 
REMARK    4  A    between atoms: C4_5  and  C7_10 
REMARK    5  A    between atoms: C5_6  and  S1_7 
REMARK    6  A    between atoms: S1_7  and  C6_8 
REMARK    7  A    between atoms: C6_8  and  N2_9 
REMARK    8  A    between atoms: C7_10  and  C8_12 
REMARK    9  A    between atoms: C11_15  and  O2_16 
REMARK   10  A    between atoms: O2_16  and  C12_17 
REMARK   11  A    between atoms: C12_17  and  C13_18 
ROOT
HETATM    1  C8  UNL     1      -0.630   0.660   0.158  1.00  0.00     0.010 A 
HETATM    2  C9  UNL     1      -0.187  -0.070  -0.923  1.00  0.00     0.018 A 
HETATM    3  C10 UNL     1       1.115  -0.324  -1.245  1.00  0.00     0.037 A 
HETATM    4  C11 UNL     1       2.102   0.188  -0.428  1.00  0.00     0.069 A 
HETATM    5  C19 UNL     1       1.729   0.925   0.663  1.00  0.00     0.037 A 
HETATM    6  C20 UNL     1       0.405   1.160   0.957  1.00  0.00     0.018 A 
ENDROOT
BRANCH   1   7
HETATM    7  C7  UNL     1      -2.009   0.925   0.540  1.00  0.00     0.166 C 
HETATM    8  O1  UNL     1      -2.154   1.677   1.575  1.00  0.00    -0.292 OA
BRANCH   7   9
HETATM    9  C4  UNL     1      -3.245   0.461  -0.080  1.00  0.00     0.098 C 
BRANCH   9  10
HETATM   10  C3  UNL     1      -3.471  -1.011  -0.127  1.00  0.00     0.284 C 
BRANCH  10  11
HETATM   11  N1  UNL     1      -3.551  -1.647   1.191  1.00  0.00     0.080 N 
HETATM   12  C1  UNL     1      -3.870  -3.058   0.878  1.00  0.00     0.309 C 
HETATM   13  C2  UNL     1      -2.239  -1.725   1.822  1.00  0.00     0.309 C 
ENDBRANCH  10  11
ENDBRANCH   9  10
BRANCH   9  14
HETATM   14  C5  UNL     1      -4.429   1.050   0.673  1.00  0.00     0.090 C 
BRANCH  14  15
HETATM   15  S1  UNL     1      -5.994   0.717  -0.124  1.00  0.00    -0.139 SA
BRANCH  15  16
HETATM   16  C6  UNL     1      -6.081   1.620  -1.691  1.00  0.00     0.340 C 
BRANCH  16  17
HETATM   17  N2  UNL     1      -6.132   3.054  -1.481  1.00  0.00     0.087 N 
HETATM   18  H14 UNL     1      -5.240   3.544  -1.572  1.00  0.00     0.313 HD
HETATM   19  H15 UNL     1      -6.664   3.310  -0.623  1.00  0.00     0.313 HD
ENDBRANCH  16  17
ENDBRANCH  15  16
ENDBRANCH  14  15
ENDBRANCH   9  14
ENDBRANCH   7   9
ENDBRANCH   1   7
BRANCH   4  20
HETATM   20  O2  UNL     1       3.439  -0.040  -0.706  1.00  0.00    -0.347 OA
BRANCH  20  21
HETATM   21  C12 UNL     1       4.423   0.509   0.162  1.00  0.00     0.214 C 
BRANCH  21  22
HETATM   22  C13 UNL     1       5.814   0.164  -0.270  1.00  0.00    -0.034 A 
HETATM   23  C14 UNL     1       6.335  -1.017   0.272  1.00  0.00     0.009 A 
HETATM   24  C15 UNL     1       7.607  -1.427  -0.056  1.00  0.00     0.001 A 
HETATM   25  C16 UNL     1       8.346  -0.646  -0.926  1.00  0.00     0.000 A 
HETATM   26  C17 UNL     1       7.815   0.522  -1.453  1.00  0.00     0.001 A 
HETATM   27  C18 UNL     1       6.550   0.964  -1.150  1.00  0.00     0.009 A 
ENDBRANCH  21  22
ENDBRANCH  20  21
ENDBRANCH   4  20
TORSDOF 11
