REMARK  10 active torsions:
REMARK  status: ('A' for Active; 'I' for Inactive)
REMARK    1  A    between atoms: C3_3  and  C4_4 
REMARK    2  A    between atoms: C5_5  and  O1_6 
REMARK    3  A    between atoms: C7_8  and  O2_9 
REMARK    4  A    between atoms: C7_8  and  C14_17 
REMARK    5  A    between atoms: O2_9  and  C8_10 
REMARK    6  A    between atoms: C8_10  and  C9_11 
REMARK    7  A    between atoms: C14_17  and  C15_18 
REMARK    8  A    between atoms: C14_17  and  C16_21 
REMARK    9  A    between atoms: C15_18  and  S1_19 
REMARK   10  A    between atoms: C16_21  and  N1_22 
ROOT
HETATM    1  C4  UNL     1      -1.189   1.744  -0.495  1.00  0.00     0.006 A 
HETATM    2  C5  UNL     1      -1.484   2.005  -1.703  1.00  0.00     0.055 A 
HETATM    3  C6  UNL     1      -0.726   0.922  -2.274  1.00  0.00     0.108 A 
HETATM    4  C7  UNL     1      -0.290   0.594  -0.901  1.00  0.00     0.102 A 
ENDROOT
BRANCH   4   5
HETATM    5  O2  UNL     1       0.966   0.973  -0.551  1.00  0.00    -0.374 OA
BRANCH   5   6
HETATM    6  C8  UNL     1       2.085   0.344  -0.871  1.00  0.00     0.167 C 
BRANCH   6   7
HETATM    7  C9  UNL     1       3.354   1.043  -0.349  1.00  0.00    -0.010 C 
HETATM    8  B1  UNL     1       3.272   1.137   1.437  1.00  0.00     0.193 B 
HETATM    9  C10 UNL     1       4.180  -0.344   2.217  1.00  0.00    -0.111 C 
HETATM   10  C11 UNL     1       4.583  -1.145   1.290  1.00  0.00    -0.007 C 
HETATM   11  C12 UNL     1       5.124  -0.723   0.006  1.00  0.00    -0.005 C 
HETATM   12  C13 UNL     1       4.542   0.240  -0.663  1.00  0.00    -0.030 C 
ENDBRANCH   6   7
ENDBRANCH   5   6
ENDBRANCH   4   5
BRANCH   4  13
HETATM   13  C14 UNL     1      -0.922  -0.629  -0.288  1.00  0.00     0.065 C 
BRANCH  13  14
HETATM   14  C15 UNL     1      -2.316  -0.923  -0.756  1.00  0.00     0.120 C 
BRANCH  14  15
HETATM   15  S1  UNL     1      -3.506   0.384  -0.394  1.00  0.00     0.041 SA
HETATM   16  F1  UNL     1      -5.069   0.012  -0.935  1.00  0.00    -0.164 F 
ENDBRANCH  14  15
ENDBRANCH  13  14
BRANCH  13  17
HETATM   17  C16 UNL     1      -0.158  -1.900  -0.321  1.00  0.00     0.280 C 
BRANCH  17  18
HETATM   18  N1  UNL     1      -1.061  -2.919   0.333  1.00  0.00     0.080 N 
HETATM   19  C17 UNL     1      -0.386  -4.222   0.197  1.00  0.00     0.309 C 
HETATM   20  C18 UNL     1      -1.106  -2.572   1.756  1.00  0.00     0.309 C 
ENDBRANCH  17  18
ENDBRANCH  13  17
ENDBRANCH   4  13
BRANCH   1  21
HETATM   21  C3  UNL     1      -1.517   2.323   0.826  1.00  0.00     0.008 C 
HETATM   22  C2  UNL     1      -2.303   3.381   0.886  1.00  0.00    -0.030 C 
HETATM   23  C1  UNL     1      -2.654   3.985   2.166  1.00  0.00     0.036 C 
ENDBRANCH   1  21
BRANCH   2  24
HETATM   24  O1  UNL     1      -2.244   2.945  -2.387  1.00  0.00    -0.364 OA
HETATM   25  H6  UNL     1      -1.769   3.782  -2.745  1.00  0.00     0.217 HD
ENDBRANCH   2  24
TORSDOF 10
