REMARK  9 active torsions:
REMARK  status: ('A' for Active; 'I' for Inactive)
REMARK    1  A    between atoms: C2_2  and  C3_3 
REMARK    2  A    between atoms: C2_2  and  C6_7 
REMARK    3  A    between atoms: C3_3  and  N1_4 
REMARK    4  A    between atoms: C6_7  and  C7_9 
REMARK    5  A    between atoms: C9_11  and  O2_12 
REMARK    6  A    between atoms: O2_12  and  S1_13 
REMARK    7  A    between atoms: S1_13  and  C10_16 
REMARK    8  A    between atoms: C13_19  and  C14_20 
REMARK    9  A    between atoms: C14_20  and  O6_22 
ROOT
HETATM    1  O2  UNL     1       1.324   1.196   0.752  1.00  0.00    -0.259 OA
ENDROOT
BRANCH   1   2
HETATM    2  C9  UNL     1       0.908  -0.120   0.581  1.00  0.00     0.189 A 
HETATM    3  C8  UNL     1      -0.484  -0.181   1.138  1.00  0.00     0.025 A 
HETATM    4  C7  UNL     1      -1.351  -0.471   0.185  1.00  0.00     0.013 A 
HETATM    5  C18 UNL     1      -0.599  -0.620  -1.050  1.00  0.00     0.014 A 
HETATM    6  C17 UNL     1       0.694  -0.425  -0.853  1.00  0.00     0.011 A 
BRANCH   4   7
HETATM    7  C6  UNL     1      -2.758  -0.576   0.522  1.00  0.00     0.185 C 
HETATM    8  O1  UNL     1      -3.111  -0.388   1.709  1.00  0.00    -0.287 OA
BRANCH   7   9
HETATM    9  C2  UNL     1      -3.803  -0.889  -0.434  1.00  0.00    -0.011 C 
HETATM   10  C1  UNL     1      -3.460  -1.090  -1.690  1.00  0.00     0.044 C 
BRANCH   9  11
HETATM   11  C3  UNL     1      -5.220  -0.985  -0.027  1.00  0.00     0.154 C 
BRANCH  11  12
HETATM   12  N1  UNL     1      -5.768   0.189   0.529  1.00  0.00    -0.417 N 
HETATM   13  C4  UNL     1      -5.957   1.314  -0.307  1.00  0.00     0.142 C 
HETATM   14  C5  UNL     1      -6.813  -0.026   1.471  1.00  0.00     0.142 C 
ENDBRANCH  11  12
ENDBRANCH   9  11
ENDBRANCH   7   9
ENDBRANCH   4   7
ENDBRANCH   1   2
BRANCH   1  15
HETATM   15  S1  UNL     1       2.679   1.209   1.734  1.00  0.00     0.298 S 
HETATM   16  O3  UNL     1       2.762   2.518   2.461  1.00  0.00    -0.193 OA
HETATM   17  O4  UNL     1       2.591   0.098   2.773  1.00  0.00    -0.193 OA
BRANCH  15  18
HETATM   18  C10 UNL     1       4.083   0.910   0.756  1.00  0.00     0.086 A 
HETATM   19  C11 UNL     1       4.794   1.922   0.138  1.00  0.00     0.027 A 
HETATM   20  C12 UNL     1       5.927   1.693  -0.648  1.00  0.00     0.020 A 
HETATM   21  C13 UNL     1       6.312   0.386  -0.780  1.00  0.00     0.037 A 
HETATM   22  C15 UNL     1       5.655  -0.668  -0.196  1.00  0.00     0.020 A 
HETATM   23  C16 UNL     1       4.548  -0.380   0.564  1.00  0.00     0.027 A 
BRANCH  21  24
HETATM   24  C14 UNL     1       7.495   0.167  -1.601  1.00  0.00     0.176 C 
HETATM   25  O5  UNL     1       8.100   1.121  -2.138  1.00  0.00    -0.646 OA
BRANCH  24  26
HETATM   26  O6  UNL     1       8.087  -1.070  -1.887  1.00  0.00    -0.773 OA
HETATM   27  H15 UNL     1       9.083  -1.233  -1.669  1.00  0.00     0.167 HD
ENDBRANCH  24  26
ENDBRANCH  21  24
ENDBRANCH  15  18
ENDBRANCH   1  15
TORSDOF 9
