REMARK  5 active torsions:
REMARK  status: ('A' for Active; 'I' for Inactive)
REMARK    1  A    between atoms: C3_3  and  C4_4 
REMARK    2  A    between atoms: C12_14  and  C13_15 
REMARK    3  A    between atoms: C13_15  and  N1_16 
REMARK    4  A    between atoms: C15_19  and  C16_20 
REMARK    5  A    between atoms: C16_20  and  N2_21 
ROOT
HETATM    1  C4  UNL     1      -1.220  -2.048   0.278  1.00  0.00     0.120 A 
HETATM    2  C5  UNL     1      -0.034  -2.289  -0.468  1.00  0.00     0.060 C 
HETATM    3  C6  UNL     1       0.871  -1.511  -1.419  1.00  0.00     0.176 C 
HETATM    4  O1  UNL     1       2.063  -1.339  -1.037  1.00  0.00    -0.390 OA
HETATM    5  C7  UNL     1       3.195  -1.867  -0.756  1.00  0.00     0.172 C 
HETATM    6  C8  UNL     1       4.103  -0.719  -0.209  1.00  0.00     0.011 C 
HETATM    7  C9  UNL     1       5.501  -1.164  -0.064  1.00  0.00     0.012 C 
HETATM    8  C10 UNL     1       3.846   0.488  -0.973  1.00  0.00     0.012 C 
HETATM    9  C11 UNL     1       3.259   1.615  -0.495  1.00  0.00     0.163 C 
HETATM   10  S1  UNL     1       2.752   3.227  -0.934  1.00  0.00    -0.221 SA
HETATM   11  C12 UNL     1       1.286   3.891  -0.196  1.00  0.00     0.119 C 
HETATM   12  S2  UNL     1      -0.270   3.134  -0.688  1.00  0.00    -0.153 SA
HETATM   13  C14 UNL     1      -0.306   1.468  -0.032  1.00  0.00     0.084 C 
HETATM   14  C15 UNL     1      -1.463   0.615  -0.549  1.00  0.00     0.064 C 
HETATM   15  C19 UNL     1      -1.230  -0.739  -0.200  1.00  0.00     0.138 A 
HETATM   16  O2  UNL     1      -2.161  -1.171   0.577  1.00  0.00    -0.354 OA
ENDROOT
BRANCH  11  17
HETATM   17  C13 UNL     1       1.384   4.058   1.319  1.00  0.00     0.290 C 
BRANCH  17  18
HETATM   18  N1  UNL     1       2.464   4.949   1.619  1.00  0.00     0.080 N 
HETATM   19  H20 UNL     1       2.137   5.927   1.670  1.00  0.00     0.312 HD
HETATM   20  H21 UNL     1       3.260   4.759   0.996  1.00  0.00     0.312 HD
ENDBRANCH  17  18
ENDBRANCH  11  17
BRANCH  14  21
HETATM   21  C16 UNL     1      -2.752   1.216  -0.009  1.00  0.00     0.280 C 
BRANCH  21  22
HETATM   22  N2  UNL     1      -3.845   0.406  -0.497  1.00  0.00     0.080 N 
HETATM   23  C17 UNL     1      -4.025   0.511  -1.920  1.00  0.00     0.309 C 
HETATM   24  C18 UNL     1      -5.066   0.637   0.252  1.00  0.00     0.309 C 
ENDBRANCH  21  22
ENDBRANCH  14  21
BRANCH   1  25
HETATM   25  C3  UNL     1      -1.349  -3.325   0.837  1.00  0.00     0.010 C 
HETATM   26  C2  UNL     1      -2.417  -3.500   1.657  1.00  0.00    -0.032 C 
HETATM   27  C1  UNL     1      -2.793  -4.763   2.380  1.00  0.00     0.036 C 
ENDBRANCH   1  25
TORSDOF 5
