REMARK  4 active torsions:
REMARK  status: ('A' for Active; 'I' for Inactive)
REMARK    1  A    between atoms: N1_2  and  C3_4 
REMARK    2  A    between atoms: C3_4  and  C4_5 
REMARK    3  A    between atoms: C7_8  and  C8_9 
REMARK    4  A    between atoms: C8_9  and  O2_11 
ROOT
HETATM    1  C4  UNL     1      -0.775  -0.842   1.199  1.00  0.00     0.012 A 
HETATM    2  C5  UNL     1      -0.556   0.503   1.587  1.00  0.00     0.009 C 
HETATM    3  C6  UNL     1       0.239   1.660   1.087  1.00  0.00     0.031 C 
HETATM    4  C7  UNL     1       1.052   2.463   0.378  1.00  0.00     0.143 C 
HETATM    5  C9  UNL     1       1.817   2.260  -0.785  1.00  0.00    -0.064 C 
HETATM    6  C10 UNL     1       2.436   2.075  -1.736  1.00  0.00     0.057 C 
HETATM    7  S1  UNL     1       3.331   1.775  -3.118  1.00  0.00     0.344 S 
HETATM    8  O3  UNL     1       2.756   2.398  -4.331  1.00  0.00    -0.184 OA
HETATM    9  O4  UNL     1       4.773   2.119  -2.930  1.00  0.00    -0.184 OA
HETATM   10  O5  UNL     1       3.325   0.023  -3.433  1.00  0.00    -0.223 OA
HETATM   11  C11 UNL     1       2.666  -0.688  -2.388  1.00  0.00     0.089 A 
HETATM   12  C12 UNL     1       1.383  -0.317  -2.712  1.00  0.00     0.035 A 
HETATM   13  C13 UNL     1       0.332  -0.738  -1.955  1.00  0.00    -0.008 A 
HETATM   14  C14 UNL     1       0.582  -1.572  -0.814  1.00  0.00     0.021 A 
HETATM   15  C15 UNL     1       1.945  -1.901  -0.579  1.00  0.00    -0.008 A 
HETATM   16  C16 UNL     1       2.993  -1.483  -1.335  1.00  0.00     0.035 A 
HETATM   17  C17 UNL     1      -0.450  -1.999   0.218  1.00  0.00     0.007 A 
HETATM   18  O6  UNL     1      -0.013  -0.892   0.255  1.00  0.00     0.000 OA
ENDROOT
BRANCH   1  19
HETATM   19  C3  UNL     1      -1.725  -1.532   2.143  1.00  0.00     0.283 C 
BRANCH  19  20
HETATM   20  N1  UNL     1      -2.864  -1.963   1.335  1.00  0.00     0.080 N 
HETATM   21  C1  UNL     1      -3.845  -2.642   2.126  1.00  0.00     0.309 C 
HETATM   22  C2  UNL     1      -3.433  -0.807   0.675  1.00  0.00     0.309 C 
ENDBRANCH  19  20
ENDBRANCH   1  19
BRANCH   4  23
HETATM   23  C8  UNL     1       1.033   3.731   1.066  1.00  0.00     0.164 C 
HETATM   24  O1  UNL     1       0.328   3.780   2.070  1.00  0.00    -0.649 OA
BRANCH  23  25
HETATM   25  O2  UNL     1       1.771   4.765   0.580  1.00  0.00    -0.775 OA
HETATM   26  H11 UNL     1       1.589   5.732   0.858  1.00  0.00     0.167 HD
ENDBRANCH  23  25
ENDBRANCH   4  23
TORSDOF 4
