REMARK  6 active torsions:
REMARK  status: ('A' for Active; 'I' for Inactive)
REMARK    1  A    between atoms: C9_10  and  O1_11 
REMARK    2  A    between atoms: O1_11  and  S1_12 
REMARK    3  A    between atoms: S1_12  and  C10_15 
REMARK    4  A    between atoms: C13_18  and  C14_19 
REMARK    5  A    between atoms: C14_19  and  O4_20 
REMARK    6  A    between atoms: C18_25  and  O6_26 
ROOT
HETATM    1  C1  UNL     1      -4.532   1.654   1.578  1.00  0.00     0.016 C 
HETATM    2  C2  UNL     1      -4.357   0.159   1.527  1.00  0.00     0.041 C 
HETATM    3  C3  UNL     1      -5.548  -0.557   0.946  1.00  0.00     0.280 C 
HETATM    4  N1  UNL     1      -5.306  -0.719  -0.463  1.00  0.00     0.088 N 
HETATM    5  C4  UNL     1      -6.226   0.076  -1.253  1.00  0.00     0.310 C 
HETATM    6  C5  UNL     1      -3.934  -0.446  -0.725  1.00  0.00     0.307 C 
HETATM    7  C6  UNL     1      -3.258  -0.127   0.558  1.00  0.00    -0.033 C 
HETATM    8  C7  UNL     1      -1.939  -0.133   0.679  1.00  0.00     0.008 A 
HETATM    9  C8  UNL     1      -1.021  -0.452  -0.435  1.00  0.00     0.080 A 
HETATM   10  C9  UNL     1       0.281  -0.433  -0.222  1.00  0.00     0.203 A 
HETATM   11  O5  UNL     1       0.833  -0.121   1.019  1.00  0.00    -0.297 OA
HETATM   12  C17 UNL     1       0.038   0.189   2.114  1.00  0.00     0.182 A 
HETATM   13  C18 UNL     1      -1.275   0.184   1.952  1.00  0.00     0.098 A 
ENDROOT
BRANCH  10  14
HETATM   14  O1  UNL     1       1.003  -0.753  -1.363  1.00  0.00    -0.204 OA
BRANCH  14  15
HETATM   15  S1  UNL     1       2.124   0.343  -2.020  1.00  0.00     0.304 S 
HETATM   16  O2  UNL     1       2.183   0.194  -3.533  1.00  0.00    -0.193 OA
HETATM   17  O3  UNL     1       1.580   1.741  -1.783  1.00  0.00    -0.193 OA
BRANCH  15  18
HETATM   18  C10 UNL     1       3.712   0.172  -1.338  1.00  0.00     0.086 A 
HETATM   19  C11 UNL     1       4.557  -0.723  -1.995  1.00  0.00     0.026 A 
HETATM   20  C12 UNL     1       5.853  -0.917  -1.508  1.00  0.00     0.011 A 
HETATM   21  C13 UNL     1       6.286  -0.229  -0.390  1.00  0.00    -0.035 A 
HETATM   22  C15 UNL     1       5.460   0.660   0.270  1.00  0.00     0.011 A 
HETATM   23  C16 UNL     1       4.189   0.833  -0.230  1.00  0.00     0.026 A 
BRANCH  21  24
HETATM   24  C14 UNL     1       7.680  -0.492   0.064  1.00  0.00     0.202 C 
BRANCH  24  25
HETATM   25  O4  UNL     1       8.516   0.431  -0.593  1.00  0.00    -0.396 OA
HETATM   26  H17 UNL     1       9.027  -0.010  -1.335  1.00  0.00     0.209 HD
ENDBRANCH  24  25
ENDBRANCH  21  24
ENDBRANCH  15  18
ENDBRANCH  14  15
ENDBRANCH  10  14
BRANCH  13  27
HETATM   27  O6  UNL     1      -2.023   0.501   3.076  1.00  0.00    -0.358 OA
HETATM   28  H21 UNL     1      -2.094   1.453   3.439  1.00  0.00     0.217 HD
ENDBRANCH  13  27
TORSDOF 6
