REMARK  6 active torsions:
REMARK  status: ('A' for Active; 'I' for Inactive)
REMARK    1  A    between atoms: C2_2  and  C3_3 
REMARK    2  A    between atoms: C2_2  and  C6_7 
REMARK    3  A    between atoms: C3_3  and  N1_4 
REMARK    4  A    between atoms: C6_7  and  C7_9 
REMARK    5  A    between atoms: C10_12  and  O2_13 
REMARK    6  A    between atoms: O2_13  and  C11_14 
ROOT
HETATM    1  C7  UNL     1      -0.448  -1.306   0.777  1.00  0.00     0.015 A 
HETATM    2  C8  UNL     1      -0.908  -0.018   0.550  1.00  0.00     0.018 A 
HETATM    3  C9  UNL     1      -0.379   0.986   1.307  1.00  0.00     0.038 A 
HETATM    4  C10 UNL     1       0.576   0.729   2.263  1.00  0.00     0.076 A 
HETATM    5  C17 UNL     1       1.044  -0.548   2.500  1.00  0.00     0.038 A 
HETATM    6  C18 UNL     1       0.510  -1.560   1.736  1.00  0.00     0.018 A 
ENDROOT
BRANCH   1   7
HETATM    7  C6  UNL     1      -0.867  -2.495   0.098  1.00  0.00     0.189 C 
HETATM    8  O1  UNL     1      -0.478  -3.678   0.279  1.00  0.00    -0.287 OA
BRANCH   7   9
HETATM    9  C2  UNL     1      -1.762  -2.952  -0.943  1.00  0.00     0.011 C 
HETATM   10  C1  UNL     1      -1.652  -4.289  -1.079  1.00  0.00     0.025 C 
BRANCH   9  11
HETATM   11  C3  UNL     1      -2.712  -2.187  -1.800  1.00  0.00     0.313 C 
BRANCH  11  12
HETATM   12  N1  UNL     1      -2.077  -1.206  -2.620  1.00  0.00     0.084 N 
HETATM   13  C4  UNL     1      -1.251  -1.772  -3.660  1.00  0.00     0.309 C 
HETATM   14  C5  UNL     1      -3.017  -0.290  -3.183  1.00  0.00     0.309 C 
ENDBRANCH  11  12
ENDBRANCH   9  11
ENDBRANCH   7   9
ENDBRANCH   1   7
BRANCH   4  15
HETATM   15  O2  UNL     1       0.980   1.893   2.920  1.00  0.00    -0.311 OA
BRANCH  15  16
HETATM   16  C11 UNL     1       2.005   2.697   2.519  1.00  0.00     0.076 A 
HETATM   17  C12 UNL     1       3.288   2.422   3.009  1.00  0.00     0.037 A 
HETATM   18  C13 UNL     1       4.320   3.264   2.581  1.00  0.00     0.003 A 
HETATM   19  C14 UNL     1       4.037   4.316   1.706  1.00  0.00     0.000 A 
HETATM   20  C15 UNL     1       2.768   4.544   1.255  1.00  0.00     0.003 A 
HETATM   21  C16 UNL     1       1.725   3.739   1.653  1.00  0.00     0.037 A 
ENDBRANCH  15  16
ENDBRANCH   4  15
TORSDOF 6
