REMARK  9 active torsions:
REMARK  status: ('A' for Active; 'I' for Inactive)
REMARK    1  A    between atoms: N1_1  and  C1_2 
REMARK    2  A    between atoms: C1_2  and  C2_3 
REMARK    3  A    between atoms: C1_2  and  C6_8 
REMARK    4  A    between atoms: C2_3  and  C3_4 
REMARK    5  A    between atoms: C3_4  and  C4_5 
REMARK    6  A    between atoms: C6_8  and  C7_9 
REMARK    7  A    between atoms: C10_12  and  O2_13 
REMARK    8  A    between atoms: O2_13  and  C11_14 
REMARK    9  A    between atoms: C11_14  and  C12_15 
ROOT
HETATM    1  C4  UNL     1      -5.674   1.018   0.613  1.00  0.00     0.032 C 
HETATM    2  C5  UNL     1      -5.942   2.283   0.387  1.00  0.00     0.217 C 
HETATM    3  O1  UNL     1      -6.313   3.432   0.132  1.00  0.00    -0.284 OA
ENDROOT
BRANCH   1   4
HETATM    4  C3  UNL     1      -5.848   0.051  -0.465  1.00  0.00     0.033 C 
BRANCH   4   5
HETATM    5  C2  UNL     1      -4.907  -1.109  -0.444  1.00  0.00     0.039 C 
BRANCH   5   6
HETATM    6  C1  UNL     1      -3.462  -0.768  -0.615  1.00  0.00     0.222 C 
BRANCH   6   7
HETATM    7  N1  UNL     1      -2.774  -2.080  -0.564  1.00  0.00     0.083 N 
HETATM    8  H1  UNL     1      -3.193  -2.638   0.216  1.00  0.00     0.313 HD
HETATM    9  H2  UNL     1      -2.867  -2.539  -1.506  1.00  0.00     0.313 HD
ENDBRANCH   6   7
BRANCH   6  10
HETATM   10  C6  UNL     1      -2.931   0.077   0.484  1.00  0.00     0.073 C 
BRANCH  10  11
HETATM   11  C7  UNL     1      -1.425   0.212   0.287  1.00  0.00    -0.056 A 
HETATM   12  C8  UNL     1      -0.668  -0.763   0.912  1.00  0.00     0.010 A 
HETATM   13  C9  UNL     1       0.705  -0.688   0.765  1.00  0.00     0.037 A 
HETATM   14  C10 UNL     1       1.228   0.345   0.012  1.00  0.00     0.069 A 
HETATM   15  C18 UNL     1       0.457   1.320  -0.612  1.00  0.00     0.037 A 
HETATM   16  C19 UNL     1      -0.917   1.257  -0.474  1.00  0.00     0.010 A 
BRANCH  14  17
HETATM   17  O2  UNL     1       2.621   0.458  -0.163  1.00  0.00    -0.347 OA
BRANCH  17  18
HETATM   18  C11 UNL     1       3.509  -0.477   0.425  1.00  0.00     0.214 C 
BRANCH  18  19
HETATM   19  C12 UNL     1       4.887  -0.077   0.052  1.00  0.00    -0.034 A 
HETATM   20  C13 UNL     1       5.633   0.782   0.822  1.00  0.00     0.009 A 
HETATM   21  C14 UNL     1       6.907   1.127   0.441  1.00  0.00     0.001 A 
HETATM   22  C15 UNL     1       7.446   0.601  -0.737  1.00  0.00     0.000 A 
HETATM   23  C16 UNL     1       6.706  -0.261  -1.514  1.00  0.00     0.001 A 
HETATM   24  C17 UNL     1       5.413  -0.607  -1.120  1.00  0.00     0.009 A 
ENDBRANCH  18  19
ENDBRANCH  17  18
ENDBRANCH  14  17
ENDBRANCH  10  11
ENDBRANCH   6  10
ENDBRANCH   5   6
ENDBRANCH   4   5
ENDBRANCH   1   4
TORSDOF 9
