REMARK  8 active torsions:
REMARK  status: ('A' for Active; 'I' for Inactive)
REMARK    1  A    between atoms: C2_2  and  C3_3 
REMARK    2  A    between atoms: C2_2  and  C6_7 
REMARK    3  A    between atoms: C3_3  and  N1_4 
REMARK    4  A    between atoms: C6_7  and  C7_9 
REMARK    5  A    between atoms: C7_9  and  O2_19 
REMARK    6  A    between atoms: C8_10  and  C9_11 
REMARK    7  A    between atoms: C9_11  and  C10_12 
REMARK    8  A    between atoms: C10_12  and  C11_13 
ROOT
HETATM    1  C7  UNL     1       0.035   0.980   0.893  1.00  0.00     0.114 C 
HETATM    2  C8  UNL     1       1.080   1.028   0.083  1.00  0.00     0.014 C 
ENDROOT
BRANCH   1   3
HETATM    3  C6  UNL     1      -1.079   0.113   0.540  1.00  0.00     0.208 C 
HETATM    4  O1  UNL     1      -0.938  -0.526  -0.540  1.00  0.00    -0.285 OA
BRANCH   3   5
HETATM    5  C2  UNL     1      -2.297  -0.060   1.315  1.00  0.00    -0.009 C 
HETATM    6  C1  UNL     1      -2.336   0.650   2.421  1.00  0.00     0.044 C 
BRANCH   5   7
HETATM    7  C3  UNL     1      -3.354  -0.974   0.816  1.00  0.00     0.154 C 
BRANCH   7   8
HETATM    8  N1  UNL     1      -4.475  -0.979   1.710  1.00  0.00    -0.417 N 
HETATM    9  C4  UNL     1      -4.244  -1.565   2.986  1.00  0.00     0.142 C 
HETATM   10  C5  UNL     1      -5.224   0.231   1.689  1.00  0.00     0.142 C 
ENDBRANCH   7   8
ENDBRANCH   5   7
ENDBRANCH   3   5
ENDBRANCH   1   3
BRANCH   1  11
HETATM   11  O2  UNL     1       0.010   1.744   2.052  1.00  0.00    -0.352 OA
HETATM   12  C17 UNL     1      -0.236   3.144   1.833  1.00  0.00     0.210 C 
ENDBRANCH   1  11
BRANCH   2  13
HETATM   13  C9  UNL     1       1.700   0.542  -1.168  1.00  0.00     0.035 C 
BRANCH  13  14
HETATM   14  C10 UNL     1       3.009  -0.130  -0.812  1.00  0.00     0.042 C 
BRANCH  14  15
HETATM   15  C11 UNL     1       3.725  -0.659  -2.015  1.00  0.00    -0.058 A 
HETATM   16  C12 UNL     1       4.590   0.248  -2.590  1.00  0.00     0.007 A 
HETATM   17  C13 UNL     1       5.267  -0.256  -3.711  1.00  0.00     0.001 A 
HETATM   18  C14 UNL     1       5.063  -1.552  -4.175  1.00  0.00     0.000 A 
HETATM   19  C15 UNL     1       4.160  -2.399  -3.522  1.00  0.00     0.001 A 
HETATM   20  C16 UNL     1       3.463  -1.952  -2.407  1.00  0.00     0.007 A 
ENDBRANCH  14  15
ENDBRANCH  13  14
ENDBRANCH   2  13
TORSDOF 8
