REMARK  9 active torsions:
REMARK  status: ('A' for Active; 'I' for Inactive)
REMARK    1  A    between atoms: C5_5  and  S1_6 
REMARK    2  A    between atoms: S1_6  and  O3_9 
REMARK    3  A    between atoms: O3_9  and  C6_10 
REMARK    4  A    between atoms: C9_13  and  C10_14 
REMARK    5  A    between atoms: C10_14  and  C11_15 
REMARK    6  A    between atoms: C11_15  and  C13_17 
REMARK    7  A    between atoms: C13_17  and  N1_18 
REMARK    8  A    between atoms: C18_23  and  C19_24 
REMARK    9  A    between atoms: C19_24  and  O5_26 
ROOT
HETATM    1  O3  UNL     1      -2.522   0.709   0.490  1.00  0.00    -0.229 OA
ENDROOT
BRANCH   1   2
HETATM    2  S1  UNL     1      -3.679   1.231  -0.667  1.00  0.00     0.304 S 
HETATM    3  O1  UNL     1      -3.410   0.398  -1.916  1.00  0.00    -0.193 OA
HETATM    4  O2  UNL     1      -3.541   2.666  -1.015  1.00  0.00    -0.193 OA
BRANCH   2   5
HETATM    5  C5  UNL     1      -5.265   0.845  -0.051  1.00  0.00     0.104 A 
HETATM    6  C4  UNL     1      -5.936  -0.426  -0.310  1.00  0.00     0.028 A 
HETATM    7  C3  UNL     1      -7.107  -0.459   0.264  1.00  0.00     0.013 A 
HETATM    8  C2  UNL     1      -7.193   0.834   0.913  1.00  0.00    -0.027 A 
HETATM    9  C1  UNL     1      -8.230   1.207   1.612  1.00  0.00     0.024 C 
HETATM   10  C18 UNL     1      -6.004   1.632   0.690  1.00  0.00     0.070 A 
BRANCH  10  11
HETATM   11  C19 UNL     1      -5.797   2.961   1.213  1.00  0.00     0.178 C 
HETATM   12  O4  UNL     1      -6.644   3.550   1.914  1.00  0.00    -0.646 OA
BRANCH  11  13
HETATM   13  O5  UNL     1      -4.697   3.767   1.043  1.00  0.00    -0.773 OA
HETATM   14  H23 UNL     1      -4.274   4.253   1.828  1.00  0.00     0.167 HD
ENDBRANCH  11  13
ENDBRANCH  10  11
ENDBRANCH   2   5
ENDBRANCH   1   2
BRANCH   1  15
HETATM   15  C6  UNL     1      -1.244   0.358   0.015  1.00  0.00     0.089 A 
HETATM   16  C7  UNL     1      -0.819  -0.875  -0.424  1.00  0.00     0.039 A 
HETATM   17  C8  UNL     1       0.456  -1.074  -0.859  1.00  0.00     0.010 A 
HETATM   18  C9  UNL     1       1.381  -0.054  -0.881  1.00  0.00    -0.058 A 
HETATM   19  C16 UNL     1       0.970   1.210  -0.439  1.00  0.00     0.010 A 
HETATM   20  C17 UNL     1      -0.336   1.420   0.008  1.00  0.00     0.039 A 
BRANCH  18  21
HETATM   21  C10 UNL     1       2.757  -0.328  -1.368  1.00  0.00     0.044 C 
BRANCH  21  22
HETATM   22  C11 UNL     1       3.670  -0.761  -0.239  1.00  0.00     0.003 C 
HETATM   23  C12 UNL     1       3.081  -2.023   0.352  1.00  0.00     0.012 C 
BRANCH  22  24
HETATM   24  C13 UNL     1       5.010  -0.993  -0.856  1.00  0.00     0.120 C 
BRANCH  24  25
HETATM   25  N1  UNL     1       6.048  -1.411   0.003  1.00  0.00    -0.420 N 
HETATM   26  C14 UNL     1       6.568  -0.552   0.975  1.00  0.00     0.142 C 
HETATM   27  C15 UNL     1       7.054  -2.229  -0.609  1.00  0.00     0.142 C 
ENDBRANCH  24  25
ENDBRANCH  22  24
ENDBRANCH  21  22
ENDBRANCH  18  21
ENDBRANCH   1  15
TORSDOF 9
