REMARK  3 active torsions:
REMARK  status: ('A' for Active; 'I' for Inactive)
REMARK    1  A    between atoms: O1_2  and  C2_3 
REMARK    2  A    between atoms: C4_5  and  C5_6 
REMARK    3  A    between atoms: C8_10  and  N2_11 
ROOT
HETATM    1  C2  UNL     1      -2.812  -0.263   0.706  1.00  0.00     0.077 C 
HETATM    2  C3  UNL     1      -3.555   0.020  -0.398  1.00  0.00     0.054 C 
HETATM    3  C4  UNL     1      -2.560   0.298  -1.578  1.00  0.00     0.122 C 
HETATM    4  C6  UNL     1      -1.279   0.799  -1.092  1.00  0.00     0.076 C 
HETATM    5  C7  UNL     1      -0.170   0.250  -0.377  1.00  0.00     0.120 C 
HETATM    6  C8  UNL     1       0.105   1.182   0.841  1.00  0.00     0.264 C 
HETATM    7  C9  UNL     1       1.116   2.221   0.539  1.00  0.00     0.027 C 
HETATM    8  C10 UNL     1       2.337   2.473   0.985  1.00  0.00     0.085 C 
HETATM    9  N3  UNL     1       3.574   2.403   1.700  1.00  0.00    -0.376 N 
HETATM   10  C11 UNL     1       4.774   1.897   1.071  1.00  0.00     0.084 C 
HETATM   11  C12 UNL     1       5.114   0.841   0.354  1.00  0.00    -0.004 C 
HETATM   12  C13 UNL     1       3.969   0.001   0.178  1.00  0.00     0.025 C 
HETATM   13  C14 UNL     1       3.180  -0.949  -0.168  1.00  0.00     0.037 C 
HETATM   14  C15 UNL     1       2.412  -2.076  -0.628  1.00  0.00     0.197 C 
HETATM   15  F1  UNL     1       2.401  -3.051   0.379  1.00  0.00    -0.247 F 
HETATM   16  C16 UNL     1       0.983  -1.766  -1.002  1.00  0.00     0.110 C 
HETATM   17  C17 UNL     1       0.459  -3.030  -1.614  1.00  0.00     0.035 C 
HETATM   18  N4  UNL     1       0.197  -1.086  -0.064  1.00  0.00    -0.395 N 
HETATM   19  C18 UNL     1      -0.768  -1.870   0.722  1.00  0.00     0.161 C 
HETATM   20  C19 UNL     1      -2.125  -1.485   0.129  1.00  0.00     0.014 C 
HETATM   21  C20 UNL     1      -2.380  -2.030  -1.112  1.00  0.00     0.148 C 
HETATM   22  O2  UNL     1      -2.429  -1.043  -2.125  1.00  0.00    -0.342 OA
HETATM   23  H15 UNL     1       3.592   2.752   2.678  1.00  0.00     0.164 HD
ENDROOT
BRANCH   3  24
HETATM   24  C5  UNL     1      -3.219   1.132  -2.593  1.00  0.00     0.122 C 
HETATM   25  N1  UNL     1      -3.584   2.253  -2.110  1.00  0.00    -0.313 NA
HETATM   26  H6  UNL     1      -3.371   2.410  -1.103  1.00  0.00     0.185 HD
ENDBRANCH   3  24
BRANCH   1  27
HETATM   27  O1  UNL     1      -3.319   0.847   1.485  1.00  0.00    -0.355 OA
HETATM   28  C1  UNL     1      -4.197   0.368   2.520  1.00  0.00     0.210 C 
ENDBRANCH   1  27
BRANCH   6  29
HETATM   29  N2  UNL     1       0.410   0.478   2.036  1.00  0.00     0.088 N 
HETATM   30  H11 UNL     1      -0.302   0.571   2.764  1.00  0.00     0.313 HD
HETATM   31  H12 UNL     1       1.390   0.652   2.377  1.00  0.00     0.313 HD
ENDBRANCH   6  29
TORSDOF 3
