REMARK  9 active torsions:
REMARK  status: ('A' for Active; 'I' for Inactive)
REMARK    1  A    between atoms: C2_2  and  C3_3 
REMARK    2  A    between atoms: C2_2  and  C6_7 
REMARK    3  A    between atoms: C3_3  and  N1_4 
REMARK    4  A    between atoms: C6_7  and  C7_9 
REMARK    5  A    between atoms: C10_12  and  O2_13 
REMARK    6  A    between atoms: O2_13  and  S1_14 
REMARK    7  A    between atoms: S1_14  and  C11_17 
REMARK    8  A    between atoms: C14_20  and  C15_21 
REMARK    9  A    between atoms: C15_21  and  O6_23 
ROOT
HETATM    1  C7  UNL     1      -1.770   0.453  -0.268  1.00  0.00     0.010 A 
HETATM    2  C8  UNL     1      -1.188   0.581   0.970  1.00  0.00     0.018 A 
HETATM    3  C9  UNL     1       0.166   0.628   1.227  1.00  0.00     0.039 A 
HETATM    4  C10 UNL     1       1.034   0.539   0.163  1.00  0.00     0.089 A 
HETATM    5  C18 UNL     1       0.524   0.412  -1.104  1.00  0.00     0.039 A 
HETATM    6  C19 UNL     1      -0.851   0.367  -1.327  1.00  0.00     0.018 A 
ENDROOT
BRANCH   4   7
HETATM    7  O2  UNL     1       2.438   0.551   0.111  1.00  0.00    -0.229 OA
BRANCH   7   8
HETATM    8  S1  UNL     1       3.202  -0.998   0.135  1.00  0.00     0.303 S 
HETATM    9  O3  UNL     1       2.851  -1.624  -1.196  1.00  0.00    -0.193 OA
HETATM   10  O4  UNL     1       2.655  -1.834   1.254  1.00  0.00    -0.193 OA
BRANCH   8  11
HETATM   11  C11 UNL     1       4.932  -0.806   0.196  1.00  0.00     0.086 A 
HETATM   12  C12 UNL     1       5.630  -0.672  -0.996  1.00  0.00     0.027 A 
HETATM   13  C13 UNL     1       7.001  -0.529  -1.100  1.00  0.00     0.020 A 
HETATM   14  C14 UNL     1       7.704  -0.524   0.101  1.00  0.00     0.037 A 
HETATM   15  C16 UNL     1       7.071  -0.653   1.322  1.00  0.00     0.020 A 
HETATM   16  C17 UNL     1       5.681  -0.794   1.364  1.00  0.00     0.027 A 
BRANCH  14  17
HETATM   17  C15 UNL     1       9.157  -0.384   0.172  1.00  0.00     0.176 C 
HETATM   18  O5  UNL     1       9.912  -0.368   1.184  1.00  0.00    -0.646 OA
BRANCH  17  19
HETATM   19  O6  UNL     1       9.976  -0.235  -0.957  1.00  0.00    -0.773 OA
HETATM   20  H17 UNL     1      10.626   0.550  -1.059  1.00  0.00     0.167 HD
ENDBRANCH  17  19
ENDBRANCH  14  17
ENDBRANCH   8  11
ENDBRANCH   7   8
ENDBRANCH   4   7
BRANCH   1  21
HETATM   21  C6  UNL     1      -3.240   0.404  -0.431  1.00  0.00     0.165 C 
HETATM   22  O1  UNL     1      -3.463   0.212  -1.629  1.00  0.00    -0.292 OA
BRANCH  21  23
HETATM   23  C2  UNL     1      -4.117   0.566   0.722  1.00  0.00     0.085 C 
HETATM   24  C1  UNL     1      -4.180   2.028   1.122  1.00  0.00     0.020 C 
BRANCH  23  25
HETATM   25  C3  UNL     1      -5.400  -0.144   0.768  1.00  0.00     0.283 C 
BRANCH  25  26
HETATM   26  N1  UNL     1      -6.468   0.358  -0.044  1.00  0.00     0.080 N 
HETATM   27  C4  UNL     1      -7.684  -0.346   0.521  1.00  0.00     0.309 C 
HETATM   28  C5  UNL     1      -6.335  -0.182  -1.417  1.00  0.00     0.309 C 
ENDBRANCH  25  26
ENDBRANCH  23  25
ENDBRANCH  21  23
ENDBRANCH   1  21
TORSDOF 9
