REMARK  6 active torsions:
REMARK  status: ('A' for Active; 'I' for Inactive)
REMARK    1  A    between atoms: C2_2  and  C3_3 
REMARK    2  A    between atoms: C3_3  and  N1_4 
REMARK    3  A    between atoms: N1_4  and  C5_6 
REMARK    4  A    between atoms: C5_6  and  C6_7 
REMARK    5  A    between atoms: C6_7  and  C7_9 
REMARK    6  A    between atoms: C13_18  and  C14_19 
ROOT
HETATM    1  C7  UNL     1      -0.187   0.548  -0.643  1.00  0.00     0.013 C 
HETATM    2  C8  UNL     1       0.043   1.487   0.275  1.00  0.00     0.011 C 
HETATM    3  C9  UNL     1      -0.867   2.487   0.886  1.00  0.00     0.010 C 
HETATM    4  C10 UNL     1      -1.986   3.183   1.161  1.00  0.00     0.197 C 
HETATM    5  O2  UNL     1      -3.251   3.707   1.237  1.00  0.00    -0.280 OA
HETATM    6  S1  UNL     1      -4.720   2.756   1.244  1.00  0.00     0.179 S 
HETATM    7  O3  UNL     1      -5.850   3.720   0.989  1.00  0.00    -0.224 OA
HETATM    8  C11 UNL     1      -4.635   1.610  -0.144  1.00  0.00     0.105 C 
HETATM    9  C12 UNL     1      -4.207   0.352  -0.178  1.00  0.00    -0.001 C 
HETATM   10  C13 UNL     1      -3.653  -0.785   0.561  1.00  0.00     0.099 C 
HETATM   11  C15 UNL     1      -2.241  -1.134   0.122  1.00  0.00     0.132 C 
HETATM   12  C16 UNL     1      -1.628  -2.312   0.724  1.00  0.00     0.040 C 
HETATM   13  O5  UNL     1      -1.982  -0.977  -1.220  1.00  0.00    -0.381 OA
HETATM   14  C17 UNL     1      -1.390   0.283  -1.407  1.00  0.00     0.210 C 
ENDROOT
BRANCH   1  15
HETATM   15  C6  UNL     1       0.983  -0.214  -0.942  1.00  0.00     0.185 C 
HETATM   16  O1  UNL     1       0.967  -1.147  -1.783  1.00  0.00    -0.291 OA
BRANCH  15  17
HETATM   17  C5  UNL     1       2.354  -0.020  -0.317  1.00  0.00     0.355 C 
BRANCH  17  18
HETATM   18  N1  UNL     1       3.246  -0.993  -0.801  1.00  0.00     0.091 NA
HETATM   19  C4  UNL     1       2.635  -2.307  -0.540  1.00  0.00     0.310 C 
BRANCH  18  20
HETATM   20  C3  UNL     1       4.578  -1.042  -0.383  1.00  0.00     0.272 C 
BRANCH  20  21
HETATM   21  C2  UNL     1       5.463   0.133  -0.510  1.00  0.00     0.026 C 
HETATM   22  C1  UNL     1       4.973   1.299   0.291  1.00  0.00     0.007 C 
ENDBRANCH  20  21
ENDBRANCH  18  20
ENDBRANCH  17  18
ENDBRANCH  15  17
ENDBRANCH   1  15
BRANCH  10  23
HETATM   23  C14 UNL     1      -4.461  -2.024   0.488  1.00  0.00     0.242 C 
HETATM   24  O4  UNL     1      -5.479  -2.517   0.025  1.00  0.00    -0.306 OA
ENDBRANCH  10  23
TORSDOF 6
