REMARK  6 active torsions:
REMARK  status: ('A' for Active; 'I' for Inactive)
REMARK       I    between atoms: N1_2  and  C2_3 
REMARK    1  A    between atoms: C2_3  and  C3_5 
REMARK    2  A    between atoms: N2_9  and  C7_10 
REMARK    3  A    between atoms: C7_10  and  C8_11 
REMARK    4  A    between atoms: C11_14  and  N3_15 
REMARK    5  A    between atoms: N3_15  and  C12_16 
REMARK    6  A    between atoms: C21_29  and  O2_30 
ROOT
HETATM    1  C8  UNL     1       0.027  -0.418  -0.664  1.00  0.00     0.004 A 
HETATM    2  C9  UNL     1      -1.208  -0.468   0.007  1.00  0.00     0.029 A 
HETATM    3  C10 UNL     1      -2.068  -1.538   0.141  1.00  0.00     0.039 A 
HETATM    4  C11 UNL     1      -3.245  -1.409   0.841  1.00  0.00     0.142 A 
HETATM    5  N4  UNL     1      -3.984  -2.532   0.895  1.00  0.00    -0.224 NA
HETATM    6  C18 UNL     1      -3.600  -3.681   0.313  1.00  0.00     0.236 A 
HETATM    7  N5  UNL     1      -2.458  -3.766  -0.354  1.00  0.00    -0.241 NA
HETATM    8  C19 UNL     1      -1.648  -2.719  -0.472  1.00  0.00     0.074 A 
HETATM    9  C20 UNL     1      -0.448  -2.744  -1.149  1.00  0.00     0.070 A 
HETATM   10  C21 UNL     1       0.352  -1.633  -1.237  1.00  0.00     0.078 A 
ENDROOT
BRANCH   1  11
HETATM   11  C7  UNL     1       0.774   0.843  -0.637  1.00  0.00     0.315 C 
BRANCH  11  12
HETATM   12  N2  UNL     1       1.821   0.980   0.305  1.00  0.00     0.106 N 
HETATM   13  C3  UNL     1       3.034   0.279   0.116  1.00  0.00     0.314 C 
HETATM   14  C4  UNL     1       3.652   0.820  -1.126  1.00  0.00     0.047 C 
HETATM   15  C5  UNL     1       3.128   2.243  -1.118  1.00  0.00     0.033 C 
HETATM   16  C6  UNL     1       2.292   2.372   0.137  1.00  0.00     0.274 C 
BRANCH  13  17
HETATM   17  C2  UNL     1       3.934   0.641   1.284  1.00  0.00     0.251 C 
HETATM   18  N1  UNL     1       5.205   0.005   1.067  1.00  0.00    -0.364 N 
HETATM   19  C1  UNL     1       6.395   0.052   1.913  1.00  0.00     0.149 C 
HETATM   20  H4  UNL     1       5.505  -0.603   0.261  1.00  0.00     0.161 HD
HETATM   21  O1  UNL     1       3.998   1.292   2.384  1.00  0.00    -0.271 OA
ENDBRANCH  13  17
ENDBRANCH  11  12
ENDBRANCH   1  11
BRANCH  10  22
HETATM   22  O2  UNL     1       1.554  -1.654  -1.919  1.00  0.00    -0.355 OA
HETATM   23  C22 UNL     1       1.956  -2.858  -2.533  1.00  0.00     0.210 C 
ENDBRANCH  10  22
BRANCH   4  24
HETATM   24  N3  UNL     1      -3.586  -0.157   1.424  1.00  0.00    -0.338 N 
HETATM   25  H15 UNL     1      -3.338   0.251   2.346  1.00  0.00     0.167 HD
BRANCH  24  26
HETATM   26  C12 UNL     1      -4.397   0.828   0.779  1.00  0.00     0.074 A 
HETATM   27  C13 UNL     1      -4.108   2.124   0.420  1.00  0.00     0.033 A 
HETATM   28  C14 UNL     1      -5.067   2.896  -0.193  1.00  0.00     0.004 A 
HETATM   29  C15 UNL     1      -6.333   2.427  -0.473  1.00  0.00     0.027 A 
HETATM   30  C16 UNL     1      -6.621   1.114  -0.108  1.00  0.00     0.074 A 
HETATM   31 CL1  UNL     1      -8.255   0.562  -0.486  1.00  0.00    -0.081 Cl
HETATM   32  C17 UNL     1      -5.673   0.322   0.508  1.00  0.00     0.164 A 
HETATM   33  F1  UNL     1      -6.117  -0.915   0.791  1.00  0.00    -0.202 F 
ENDBRANCH  24  26
ENDBRANCH   4  24
TORSDOF 6
