REMARK  8 active torsions:
REMARK  status: ('A' for Active; 'I' for Inactive)
REMARK    1  A    between atoms: C2_2  and  C3_3 
REMARK    2  A    between atoms: C2_2  and  C6_7 
REMARK    3  A    between atoms: C3_3  and  N1_4 
REMARK    4  A    between atoms: C6_7  and  C7_9 
REMARK    5  A    between atoms: C9_12  and  O2_13 
REMARK    6  A    between atoms: O2_13  and  C10_14 
REMARK    7  A    between atoms: C10_14  and  C11_15 
REMARK    8  A    between atoms: C17_21  and  O3_22 
ROOT
HETATM    1  C7  UNL     1      -1.127  -0.685  -1.739  1.00  0.00     0.045 A 
HETATM    2  B1  UNL     1      -0.392   0.721  -1.740  1.00  0.00     0.202 B 
HETATM    3  C8  UNL     1       1.065   0.767  -1.196  1.00  0.00    -0.043 A 
HETATM    4  C9  UNL     1       1.760  -0.258  -0.728  1.00  0.00     0.087 A 
HETATM    5  C17 UNL     1       1.064  -1.535  -0.739  1.00  0.00     0.093 A 
HETATM    6  C18 UNL     1      -0.176  -1.680  -1.180  1.00  0.00     0.015 A 
HETATM    7  H12 UNL     1      -1.016   1.747  -1.733  1.00  0.00    -0.021 HD
ENDROOT
BRANCH   1   8
HETATM    8  C6  UNL     1      -2.384  -0.670  -0.995  1.00  0.00     0.155 C 
HETATM    9  O1  UNL     1      -1.933  -1.580  -0.230  1.00  0.00    -0.293 OA
BRANCH   8  10
HETATM   10  C2  UNL     1      -3.638   0.054  -1.061  1.00  0.00     0.006 C 
HETATM   11  C1  UNL     1      -3.920   0.978  -1.947  1.00  0.00     0.024 C 
BRANCH  10  12
HETATM   12  C3  UNL     1      -4.494  -0.428   0.023  1.00  0.00     0.312 C 
BRANCH  12  13
HETATM   13  N1  UNL     1      -5.768   0.198   0.111  1.00  0.00     0.084 N 
HETATM   14  C4  UNL     1      -5.775   1.570   0.506  1.00  0.00     0.309 C 
HETATM   15  C5  UNL     1      -6.610  -0.560   1.012  1.00  0.00     0.309 C 
ENDBRANCH  12  13
ENDBRANCH  10  12
ENDBRANCH   8  10
ENDBRANCH   1   8
BRANCH   5  16
HETATM   16  O3  UNL     1       1.749  -2.643  -0.258  1.00  0.00    -0.358 OA
HETATM   17  H21 UNL     1       2.050  -3.372  -0.899  1.00  0.00     0.217 HD
ENDBRANCH   5  16
BRANCH   4  18
HETATM   18  O2  UNL     1       3.042  -0.036  -0.286  1.00  0.00    -0.345 OA
BRANCH  18  19
HETATM   19  C10 UNL     1       3.596  -0.692   0.831  1.00  0.00     0.214 C 
BRANCH  19  20
HETATM   20  C11 UNL     1       4.972  -0.123   0.996  1.00  0.00    -0.034 A 
HETATM   21  C12 UNL     1       5.183   0.999   1.792  1.00  0.00     0.009 A 
HETATM   22  C13 UNL     1       6.466   1.512   1.931  1.00  0.00     0.001 A 
HETATM   23  C14 UNL     1       7.535   0.902   1.273  1.00  0.00     0.000 A 
HETATM   24  C15 UNL     1       7.362  -0.212   0.475  1.00  0.00     0.001 A 
HETATM   25  C16 UNL     1       6.069  -0.677   0.374  1.00  0.00     0.009 A 
ENDBRANCH  19  20
ENDBRANCH  18  19
ENDBRANCH   4  18
TORSDOF 8
