REMARK  8 active torsions:
REMARK  status: ('A' for Active; 'I' for Inactive)
REMARK    1  A    between atoms: C2_2  and  C3_3 
REMARK    2  A    between atoms: C2_2  and  C16_17 
REMARK    3  A    between atoms: C3_3  and  C4_4 
REMARK    4  A    between atoms: C4_4  and  O1_5 
REMARK    5  A    between atoms: C5_6  and  C6_7 
REMARK    6  A    between atoms: C6_7  and  C8_9 
REMARK    7  A    between atoms: C8_9  and  C9_10 
REMARK    8  A    between atoms: C16_17  and  N1_18 
ROOT
HETATM    1  C4  UNL     1      -0.969  -0.198   0.943  1.00  0.00     0.043 C 
HETATM    2  C5  UNL     1      -0.204   0.796   0.593  1.00  0.00     0.010 C 
ENDROOT
BRANCH   2   3
HETATM    3  C6  UNL     1       1.161   1.077   0.088  1.00  0.00     0.010 C 
HETATM    4  C7  UNL     1       1.034   1.791  -1.238  1.00  0.00     0.014 C 
BRANCH   3   5
HETATM    5  C8  UNL     1       1.872  -0.253  -0.063  1.00  0.00     0.047 C 
BRANCH   5   6
HETATM    6  C9  UNL     1       3.257  -0.125  -0.564  1.00  0.00    -0.052 A 
HETATM    7  C10 UNL     1       3.655  -0.405  -1.874  1.00  0.00     0.007 A 
HETATM    8  C11 UNL     1       4.958  -0.265  -2.273  1.00  0.00     0.001 A 
HETATM    9  C12 UNL     1       5.905   0.157  -1.384  1.00  0.00     0.001 A 
HETATM   10  C13 UNL     1       5.549   0.448  -0.065  1.00  0.00     0.007 A 
HETATM   11  C14 UNL     1       4.212   0.295   0.312  1.00  0.00    -0.056 A 
HETATM   12  C15 UNL     1       3.997   0.642   1.744  1.00  0.00     0.049 C 
ENDBRANCH   5   6
ENDBRANCH   3   5
ENDBRANCH   2   3
BRANCH   1  13
HETATM   13  C3  UNL     1      -2.331  -0.533   1.452  1.00  0.00     0.098 C 
BRANCH  13  14
HETATM   14  C2  UNL     1      -3.048  -1.421   0.503  1.00  0.00    -0.066 C 
HETATM   15  C1  UNL     1      -3.358  -2.638   0.990  1.00  0.00     0.016 C 
BRANCH  14  16
HETATM   16  C16 UNL     1      -3.435  -1.106  -0.893  1.00  0.00     0.149 C 
BRANCH  16  17
HETATM   17  N1  UNL     1      -4.346  -0.005  -1.012  1.00  0.00    -0.417 N 
HETATM   18  C17 UNL     1      -5.649  -0.240  -0.489  1.00  0.00     0.142 C 
HETATM   19  C18 UNL     1      -3.822   1.287  -0.765  1.00  0.00     0.142 C 
ENDBRANCH  16  17
ENDBRANCH  14  16
ENDBRANCH  13  14
ENDBRANCH   1  13
BRANCH   1  20
HETATM   20  O1  UNL     1      -0.394  -1.481   0.840  1.00  0.00    -0.365 OA
HETATM   21  H5  UNL     1      -0.658  -2.052   0.024  1.00  0.00     0.217 HD
ENDBRANCH   1  20
TORSDOF 8
