REMARK  11 active torsions:
REMARK  status: ('A' for Active; 'I' for Inactive)
REMARK    1  A    between atoms: C2_2  and  N1_3 
REMARK    2  A    between atoms: N1_3  and  C4_5 
REMARK    3  A    between atoms: C4_5  and  C5_6 
REMARK    4  A    between atoms: C5_6  and  C6_8 
REMARK    5  A    between atoms: C6_8  and  C7_9 
REMARK    6  A    between atoms: C7_9  and  O2_10 
REMARK    7  A    between atoms: C7_9  and  C8_11 
REMARK    8  A    between atoms: C8_11  and  O3_15 
REMARK    9  A    between atoms: C9_12  and  C10_13 
REMARK   10  A    between atoms: O3_15  and  C12_16 
REMARK   11  A    between atoms: C12_16  and  C13_17 
ROOT
HETATM    1  C8  UNL     1      -0.933   1.184  -0.358  1.00  0.00     0.072 C 
HETATM    2  C9  UNL     1      -1.292   2.461  -0.467  1.00  0.00     0.008 C 
ENDROOT
BRANCH   1   3
HETATM    3  C7  UNL     1       0.378   0.549  -0.247  1.00  0.00     0.181 C 
BRANCH   3   4
HETATM    4  C6  UNL     1       1.535   1.543  -0.301  1.00  0.00     0.118 C 
BRANCH   4   5
HETATM    5  C5  UNL     1       2.764   0.716  -0.230  1.00  0.00     0.147 C 
HETATM    6  O1  UNL     1       3.028  -0.457  -0.142  1.00  0.00    -0.296 OA
BRANCH   5   7
HETATM    7  C4  UNL     1       4.200   0.950  -0.233  1.00  0.00     0.199 C 
BRANCH   7   8
HETATM    8  N1  UNL     1       4.982  -0.265  -0.137  1.00  0.00    -0.391 N 
HETATM    9  C3  UNL     1       5.816  -0.806  -1.203  1.00  0.00     0.149 C 
BRANCH   8  10
HETATM   10  C2  UNL     1       4.891  -0.940   1.113  1.00  0.00     0.058 C 
HETATM   11  C1  UNL     1       5.082  -2.206   1.452  1.00  0.00     0.049 C 
ENDBRANCH   8  10
ENDBRANCH   7   8
ENDBRANCH   5   7
ENDBRANCH   4   5
ENDBRANCH   3   4
BRANCH   3  12
HETATM   12  O2  UNL     1       0.550  -0.112   0.990  1.00  0.00    -0.389 OA
HETATM   13  H12 UNL     1       0.988  -0.979   0.869  1.00  0.00     0.210 HD
ENDBRANCH   3  12
ENDBRANCH   1   3
BRANCH   1  14
HETATM   14  O3  UNL     1      -1.938   0.232  -0.342  1.00  0.00    -0.349 OA
BRANCH  14  15
HETATM   15  C12 UNL     1      -2.280  -0.597   0.724  1.00  0.00     0.214 C 
BRANCH  15  16
HETATM   16  C13 UNL     1      -3.411  -1.505   0.335  1.00  0.00    -0.034 A 
HETATM   17  C14 UNL     1      -3.085  -2.730  -0.228  1.00  0.00     0.009 A 
HETATM   18  C15 UNL     1      -3.990  -3.675  -0.637  1.00  0.00     0.001 A 
HETATM   19  C16 UNL     1      -5.348  -3.385  -0.474  1.00  0.00     0.000 A 
HETATM   20  C17 UNL     1      -5.691  -2.170   0.085  1.00  0.00     0.001 A 
HETATM   21  C18 UNL     1      -4.758  -1.239   0.487  1.00  0.00     0.009 A 
ENDBRANCH  15  16
ENDBRANCH  14  15
ENDBRANCH   1  14
BRANCH   2  22
HETATM   22  C10 UNL     1      -2.555   3.238  -0.587  1.00  0.00     0.025 C 
HETATM   23  C11 UNL     1      -2.650   4.179   0.608  1.00  0.00     0.009 C 
ENDBRANCH   2  22
TORSDOF 11
