REMARK  8 active torsions:
REMARK  status: ('A' for Active; 'I' for Inactive)
REMARK    1  A    between atoms: C2_2  and  C3_3 
REMARK    2  A    between atoms: C2_2  and  C17_20 
REMARK    3  A    between atoms: C3_3  and  O1_4 
REMARK    4  A    between atoms: O1_4  and  C4_5 
REMARK    5  A    between atoms: C9_10  and  O2_11 
REMARK    6  A    between atoms: O2_11  and  C10_12 
REMARK    7  A    between atoms: C10_12  and  C11_13 
REMARK    8  A    between atoms: C17_20  and  N1_21 
ROOT
HETATM    1  C4  UNL     1      -0.059  -0.499   0.681  1.00  0.00     0.102 A 
HETATM    2  C5  UNL     1      -0.405  -0.893   1.955  1.00  0.00     0.039 A 
HETATM    3  C6  UNL     1       0.365  -1.606   2.849  1.00  0.00     0.003 A 
HETATM    4  C7  UNL     1       1.618  -1.953   2.397  1.00  0.00     0.003 A 
HETATM    5  C8  UNL     1       2.022  -1.578   1.111  1.00  0.00     0.039 A 
HETATM    6  C9  UNL     1       1.231  -0.870   0.250  1.00  0.00     0.102 A 
ENDROOT
BRANCH   6   7
HETATM    7  O2  UNL     1       1.557  -0.470  -1.015  1.00  0.00    -0.342 OA
BRANCH   7   8
HETATM    8  C10 UNL     1       2.734  -0.661  -1.734  1.00  0.00     0.240 C 
BRANCH   8   9
HETATM    9  C11 UNL     1       3.951  -0.087  -1.166  1.00  0.00     0.076 C 
HETATM   10  C12 UNL     1       5.074  -0.721  -0.798  1.00  0.00     0.035 C 
HETATM   11  C13 UNL     1       6.347  -0.307  -0.229  1.00  0.00     0.003 C 
HETATM   12  C14 UNL     1       6.610   0.898   0.238  1.00  0.00     0.002 C 
HETATM   13  C15 UNL     1       5.734   2.053   0.296  1.00  0.00     0.025 C 
HETATM   14  C16 UNL     1       4.533   2.214  -0.255  1.00  0.00     0.142 C 
HETATM   15  O3  UNL     1       3.797   1.306  -1.041  1.00  0.00    -0.325 OA
ENDBRANCH   8   9
ENDBRANCH   7   8
ENDBRANCH   6   7
BRANCH   1  16
HETATM   16  O1  UNL     1      -0.856   0.205  -0.170  1.00  0.00    -0.344 OA
BRANCH  16  17
HETATM   17  C3  UNL     1      -2.154   0.625   0.091  1.00  0.00     0.211 C 
BRANCH  17  18
HETATM   18  C2  UNL     1      -3.146  -0.430   0.326  1.00  0.00    -0.048 C 
HETATM   19  C1  UNL     1      -3.054  -1.752   0.339  1.00  0.00     0.018 C 
BRANCH  18  20
HETATM   20  C17 UNL     1      -4.472   0.212   0.585  1.00  0.00     0.151 C 
BRANCH  20  21
HETATM   21  N1  UNL     1      -4.922   1.016  -0.502  1.00  0.00    -0.417 N 
HETATM   22  C18 UNL     1      -5.275   0.308  -1.686  1.00  0.00     0.142 C 
HETATM   23  C19 UNL     1      -5.773   2.106  -0.143  1.00  0.00     0.142 C 
ENDBRANCH  20  21
ENDBRANCH  18  20
ENDBRANCH  17  18
ENDBRANCH  16  17
ENDBRANCH   1  16
TORSDOF 8
