REMARK  8 active torsions:
REMARK  status: ('A' for Active; 'I' for Inactive)
REMARK    1  A    between atoms: N1_1  and  C1_2 
REMARK    2  A    between atoms: C1_2  and  C2_3 
REMARK    3  A    between atoms: C1_2  and  C6_8 
REMARK    4  A    between atoms: C2_3  and  C3_4 
REMARK    5  A    between atoms: C3_4  and  C4_5 
REMARK    6  A    between atoms: C4_5  and  C5_6 
REMARK    7  A    between atoms: C6_8  and  O2_9 
REMARK    8  A    between atoms: O2_9  and  C7_10 
ROOT
HETATM    1  C7  UNL     1       0.013  -0.354  -0.715  1.00  0.00     0.055 C 
HETATM    2  C8  UNL     1      -0.979   0.498  -1.038  1.00  0.00     0.079 A 
HETATM    3  C9  UNL     1      -1.035   1.569  -2.025  1.00  0.00    -0.014 A 
HETATM    4  C10 UNL     1      -2.270   2.101  -1.927  1.00  0.00    -0.003 A 
HETATM    5  O3  UNL     1      -2.402   1.143  -0.951  1.00  0.00     0.000 OA
HETATM    6  C11 UNL     1      -3.346   0.121  -1.053  1.00  0.00     0.043 C 
HETATM    7  C12 UNL     1      -3.828  -0.203   0.337  1.00  0.00    -0.052 A 
HETATM    8  C13 UNL     1      -3.151  -0.842   1.265  1.00  0.00    -0.051 A 
HETATM    9  C14 UNL     1      -1.773  -1.353   1.076  1.00  0.00     0.010 C 
HETATM   10  C15 UNL     1      -0.695  -1.126   0.345  1.00  0.00     0.033 C 
HETATM   11  C16 UNL     1      -3.703  -1.107   2.601  1.00  0.00     0.043 A 
HETATM   12  C17 UNL     1      -5.054  -0.570   2.892  1.00  0.00     0.032 A 
HETATM   13  C18 UNL     1      -5.702   0.122   1.765  1.00  0.00    -0.026 A 
HETATM   14  C19 UNL     1      -5.164   0.307   0.579  1.00  0.00     0.004 A 
ENDROOT
BRANCH   1  15
HETATM   15  O2  UNL     1       1.350  -0.810  -0.932  1.00  0.00    -0.353 OA
BRANCH  15  16
HETATM   16  C6  UNL     1       2.412   0.114  -1.072  1.00  0.00     0.210 C 
BRANCH  16  17
HETATM   17  C1  UNL     1       3.687  -0.682  -1.257  1.00  0.00     0.242 C 
BRANCH  17  18
HETATM   18  N1  UNL     1       3.905  -1.528  -0.108  1.00  0.00     0.085 N 
HETATM   19  H1  UNL     1       3.304  -1.277   0.707  1.00  0.00     0.313 HD
HETATM   20  H2  UNL     1       3.762  -2.546  -0.294  1.00  0.00     0.313 HD
ENDBRANCH  17  18
BRANCH  17  21
HETATM   21  C2  UNL     1       4.835   0.182  -1.607  1.00  0.00     0.041 C 
BRANCH  21  22
HETATM   22  C3  UNL     1       5.255   1.139  -0.528  1.00  0.00     0.033 C 
BRANCH  22  23
HETATM   23  C4  UNL     1       5.660   0.472   0.719  1.00  0.00     0.032 C 
BRANCH  23  24
HETATM   24  C5  UNL     1       6.515  -0.530   0.687  1.00  0.00     0.217 C 
HETATM   25  O1  UNL     1       7.079  -1.635   0.509  1.00  0.00    -0.284 OA
ENDBRANCH  23  24
ENDBRANCH  22  23
ENDBRANCH  21  22
ENDBRANCH  17  21
ENDBRANCH  16  17
ENDBRANCH  15  16
ENDBRANCH   1  15
TORSDOF 8
