REMARK  3 active torsions:
REMARK  status: ('A' for Active; 'I' for Inactive)
REMARK    1  A    between atoms: C8_9  and  O1_10 
REMARK    2  A    between atoms: O1_10  and  C9_11 
REMARK    3  A    between atoms: C16_18  and  O2_19 
ROOT
HETATM    1  C1  UNL     1      -1.813   0.764   1.516  1.00  0.00     0.178 C 
HETATM    2  N1  UNL     1      -2.492  -0.343   0.968  1.00  0.00    -0.290 N 
HETATM    3  C2  UNL     1      -3.860  -0.247   0.685  1.00  0.00     0.149 C 
HETATM    4  C3  UNL     1      -4.285   0.668  -0.438  1.00  0.00     0.022 C 
HETATM    5  C4  UNL     1      -3.742   0.284  -1.797  1.00  0.00     0.007 C 
HETATM    6  C5  UNL     1      -2.278   0.309  -1.920  1.00  0.00    -0.001 C 
HETATM    7  C6  UNL     1      -1.068   0.664  -2.428  1.00  0.00     0.023 C 
HETATM    8  C7  UNL     1       0.283   0.216  -1.940  1.00  0.00     0.016 C 
HETATM    9  C8  UNL     1       1.097  -0.475  -1.076  1.00  0.00     0.077 C 
HETATM   10  C15 UNL     1       0.562  -1.219   0.059  1.00  0.00     0.102 C 
HETATM   11  C16 UNL     1      -0.473  -1.599   0.777  1.00  0.00     0.206 C 
HETATM   12  O3  UNL     1      -1.873  -1.540   0.970  1.00  0.00    -0.215 OA
ENDROOT
BRANCH   9  13
HETATM   13  O1  UNL     1       2.462  -0.498  -1.200  1.00  0.00    -0.311 OA
BRANCH  13  14
HETATM   14  C9  UNL     1       3.377   0.116  -0.397  1.00  0.00     0.076 A 
HETATM   15  C10 UNL     1       4.680  -0.128  -0.829  1.00  0.00     0.037 A 
HETATM   16  C11 UNL     1       5.776   0.401  -0.155  1.00  0.00     0.003 A 
HETATM   17  C12 UNL     1       5.593   1.199   0.982  1.00  0.00     0.000 A 
HETATM   18  C13 UNL     1       4.283   1.433   1.400  1.00  0.00     0.003 A 
HETATM   19  C14 UNL     1       3.192   0.900   0.722  1.00  0.00     0.037 A 
ENDBRANCH  13  14
ENDBRANCH   9  13
BRANCH  11  20
HETATM   20  O2  UNL     1      -0.861  -2.352   1.892  1.00  0.00    -0.339 OA
HETATM   21  H19 UNL     1      -0.154  -2.724   2.520  1.00  0.00     0.220 HD
ENDBRANCH  11  20
TORSDOF 3
