REMARK  4 active torsions:
REMARK  status: ('A' for Active; 'I' for Inactive)
REMARK    1  A    between atoms: C2_2  and  O1_3 
REMARK    2  A    between atoms: O1_3  and  C3_4 
REMARK    3  A    between atoms: C8_10  and  O2_11 
REMARK    4  A    between atoms: C15_19  and  C16_20 
ROOT
HETATM    1  C3  UNL     1       2.167  -0.342  -0.413  1.00  0.00     0.129 C 
HETATM    2  C4  UNL     1       1.790   1.089  -0.012  1.00  0.00     0.041 C 
HETATM    3  C5  UNL     1       1.293   2.299   0.346  1.00  0.00     0.098 A 
HETATM    4  C6  UNL     1      -0.075   2.802   0.628  1.00  0.00    -0.004 A 
HETATM    5 BR1  UNL     1       1.074   4.328   0.904  1.00  0.00    -0.121 Br
HETATM    6  C7  UNL     1      -1.412   2.901   0.798  1.00  0.00     0.052 C 
HETATM    7  C8  UNL     1      -2.387   1.842   0.615  1.00  0.00     0.071 C 
HETATM    8  C9  UNL     1      -2.283   0.595   0.223  1.00  0.00    -0.012 C 
HETATM    9  C10 UNL     1      -1.322  -0.430  -0.238  1.00  0.00     0.310 C 
HETATM   10  N1  UNL     1      -0.617  -0.814   0.978  1.00  0.00     0.092 N 
HETATM   11  C11 UNL     1       0.409  -1.745   0.757  1.00  0.00     0.275 C 
HETATM   12  C12 UNL     1       1.826  -1.290   0.641  1.00  0.00     0.062 C 
HETATM   13  C13 UNL     1      -1.695  -1.240   1.864  1.00  0.00     0.273 C 
HETATM   14  C14 UNL     1      -3.006  -1.475   1.151  1.00  0.00     0.042 C 
HETATM   15  C15 UNL     1      -3.524  -0.264   0.386  1.00  0.00     0.054 C 
ENDROOT
BRANCH   1  16
HETATM   16  O1  UNL     1       3.523  -0.199  -0.678  1.00  0.00    -0.386 OA
BRANCH  16  17
HETATM   17  C2  UNL     1       3.902  -0.312  -1.979  1.00  0.00     0.163 C 
HETATM   18  C1  UNL     1       5.401  -0.129  -2.066  1.00  0.00     0.033 C 
ENDBRANCH  16  17
ENDBRANCH   1  16
BRANCH   7  19
HETATM   19  O2  UNL     1      -3.660   2.295   0.931  1.00  0.00    -0.360 OA
HETATM   20  H10 UNL     1      -4.011   2.062   1.853  1.00  0.00     0.217 HD
ENDBRANCH   7  19
BRANCH  15  21
HETATM   21  C16 UNL     1      -3.944  -0.735  -0.959  1.00  0.00     0.400 C 
HETATM   22  O3  UNL     1      -4.990  -0.559  -1.565  1.00  0.00    -0.429 OA
ENDBRANCH  15  21
TORSDOF 4
