REMARK  3 active torsions:
REMARK  status: ('A' for Active; 'I' for Inactive)
REMARK    1  A    between atoms: C5_7  and  C6_8 
REMARK    2  A    between atoms: C6_8  and  C7_9 
REMARK    3  A    between atoms: C7_9  and  C8_11 
ROOT
HETATM    1  O1  UNL     1      -4.851   1.028   1.167  1.00  0.00    -0.265 OA
HETATM    2  C1  UNL     1      -4.521   0.351   0.125  1.00  0.00     0.263 C 
HETATM    3  O2  UNL     1      -4.529  -1.072   0.173  1.00  0.00    -0.321 OA
HETATM    4  C2  UNL     1      -4.862  -1.631   1.492  1.00  0.00     0.184 C 
HETATM    5  C3  UNL     1      -3.663  -1.170   2.365  1.00  0.00     0.023 C 
HETATM    6  C4  UNL     1      -2.553  -0.445   2.001  1.00  0.00     0.021 C 
HETATM    7  C5  UNL     1      -1.462   0.339   1.352  1.00  0.00     0.091 C 
HETATM    8  N1  UNL     1      -1.762   1.102   0.212  1.00  0.00    -0.407 N 
HETATM    9  C17 UNL     1      -1.685   0.539  -1.071  1.00  0.00     0.118 C 
HETATM   10  C18 UNL     1      -3.010   0.274  -1.763  1.00  0.00     0.034 C 
HETATM   11  C19 UNL     1      -4.121   1.072  -1.110  1.00  0.00     0.088 C 
HETATM   12  C20 UNL     1      -3.593   2.416  -0.643  1.00  0.00     0.034 C 
HETATM   13  C21 UNL     1      -2.477   2.302   0.329  1.00  0.00     0.118 C 
ENDROOT
BRANCH   7  14
HETATM   14  C6  UNL     1      -0.271  -0.576   1.171  1.00  0.00     0.106 C 
BRANCH  14  15
HETATM   15  C7  UNL     1       0.836   0.153   0.540  1.00  0.00     0.161 C 
HETATM   16  O3  UNL     1       0.672   1.351   0.255  1.00  0.00    -0.295 OA
BRANCH  15  17
HETATM   17  C8  UNL     1       2.194  -0.220   0.132  1.00  0.00     0.213 C 
HETATM   18  C9  UNL     1       2.331  -0.078  -1.368  1.00  0.00     0.010 C 
HETATM   19  C10 UNL     1       3.560  -0.432  -1.727  1.00  0.00    -0.008 C 
HETATM   20  C11 UNL     1       4.592  -0.890  -0.723  1.00  0.00     0.034 A 
HETATM   21  C12 UNL     1       5.670  -1.647  -1.383  1.00  0.00    -0.007 A 
HETATM   22  C15 UNL     1       5.296   0.369  -0.313  1.00  0.00    -0.007 A 
HETATM   23  C16 UNL     1       3.939  -1.605   0.406  1.00  0.00     0.190 C 
HETATM   24  C13 UNL     1       6.820  -0.952  -1.367  1.00  0.00    -0.003 A 
HETATM   25  C14 UNL     1       6.566   0.334  -0.680  1.00  0.00    -0.003 A 
HETATM   26  O4  UNL     1       2.542  -1.541   0.404  1.00  0.00    -0.373 OA
ENDBRANCH  15  17
ENDBRANCH  14  15
ENDBRANCH   7  14
TORSDOF 3
