REMARK  8 active torsions:
REMARK  status: ('A' for Active; 'I' for Inactive)
REMARK    1  A    between atoms: C2_2  and  O1_3 
REMARK    2  A    between atoms: O1_3  and  C3_4 
REMARK    3  A    between atoms: C3_4  and  C4_6 
REMARK    4  A    between atoms: N1_9  and  C7_10 
REMARK    5  A    between atoms: C7_10  and  C8_11 
REMARK    6  A    between atoms: C11_14  and  O3_15 
REMARK    7  A    between atoms: O3_15  and  C12_16 
REMARK    8  A    between atoms: C13_17  and  O4_18 
ROOT
HETATM    1  C8  UNL     1      -0.663   0.344  -1.263  1.00  0.00    -0.030 A 
HETATM    2  C9  UNL     1      -0.793   1.618  -0.723  1.00  0.00     0.012 A 
HETATM    3  C10 UNL     1      -1.968   2.058  -0.113  1.00  0.00     0.038 A 
HETATM    4  C11 UNL     1      -3.053   1.197  -0.038  1.00  0.00     0.075 A 
HETATM    5  C19 UNL     1      -2.932  -0.071  -0.573  1.00  0.00     0.038 A 
HETATM    6  C20 UNL     1      -1.759  -0.494  -1.175  1.00  0.00     0.012 A 
ENDROOT
BRANCH   1   7
HETATM    7  C7  UNL     1       0.631  -0.054  -1.902  1.00  0.00     0.311 C 
BRANCH   7   8
HETATM    8  N1  UNL     1       1.547  -0.649  -0.979  1.00  0.00     0.092 N 
HETATM    9  C6  UNL     1       2.759  -0.994  -1.700  1.00  0.00     0.273 C 
HETATM   10  C5  UNL     1       3.973  -0.328  -1.047  1.00  0.00     0.045 C 
HETATM   11  C4  UNL     1       4.035  -0.862   0.378  1.00  0.00     0.089 C 
HETATM   12  C22 UNL     1       2.821  -0.293   1.085  1.00  0.00     0.045 C 
HETATM   13  C21 UNL     1       1.806   0.251   0.128  1.00  0.00     0.273 C 
BRANCH  11  14
HETATM   14  C3  UNL     1       5.294  -0.489   1.063  1.00  0.00     0.263 C 
HETATM   15  O2  UNL     1       5.563   0.176   2.109  1.00  0.00    -0.265 OA
BRANCH  14  16
HETATM   16  O1  UNL     1       6.473  -0.936   0.483  1.00  0.00    -0.322 OA
BRANCH  16  17
HETATM   17  C2  UNL     1       7.719  -0.619   1.081  1.00  0.00     0.174 C 
HETATM   18  C1  UNL     1       7.877   0.888   1.134  1.00  0.00     0.034 C 
ENDBRANCH  16  17
ENDBRANCH  14  16
ENDBRANCH  11  14
ENDBRANCH   7   8
ENDBRANCH   1   7
BRANCH   4  19
HETATM   19  O3  UNL     1      -4.192   1.697   0.582  1.00  0.00    -0.312 OA
BRANCH  19  20
HETATM   20  C12 UNL     1      -5.289   0.849   0.666  1.00  0.00     0.090 C 
HETATM   21  C13 UNL     1      -5.928   0.598  -0.466  1.00  0.00     0.095 C 
HETATM   22  C14 UNL     1      -7.099  -0.247  -0.669  1.00  0.00     0.039 C 
HETATM   23  C15 UNL     1      -7.574  -1.236   0.106  1.00  0.00     0.003 C 
HETATM   24  C16 UNL     1      -6.956  -1.667   1.374  1.00  0.00    -0.004 C 
HETATM   25  C17 UNL     1      -6.126  -0.964   2.129  1.00  0.00    -0.020 C 
HETATM   26  C18 UNL     1      -5.516   0.392   2.061  1.00  0.00     0.095 C 
BRANCH  21  27
HETATM   27  O4  UNL     1      -5.403   1.226  -1.593  1.00  0.00    -0.358 OA
HETATM   28  H15 UNL     1      -6.019   1.875  -2.069  1.00  0.00     0.217 HD
ENDBRANCH  21  27
ENDBRANCH  19  20
ENDBRANCH   4  19
TORSDOF 8
