REMARK  9 active torsions:
REMARK  status: ('A' for Active; 'I' for Inactive)
REMARK    1  A    between atoms: C2_2  and  O1_3 
REMARK    2  A    between atoms: O1_3  and  C3_4 
REMARK       I    between atoms: C3_4  and  N1_6 
REMARK    3  A    between atoms: N1_6  and  C5_8 
REMARK    4  A    between atoms: C5_8  and  C6_9 
REMARK    5  A    between atoms: C6_9  and  C7_10 
REMARK    6  A    between atoms: C7_10  and  C8_12 
REMARK    7  A    between atoms: C11_15  and  O4_16 
REMARK    8  A    between atoms: O4_16  and  C12_17 
REMARK    9  A    between atoms: C12_17  and  C13_18 
ROOT
HETATM    1  C8  UNL     1       0.125   1.041   0.336  1.00  0.00     0.010 A 
HETATM    2  C9  UNL     1      -0.878   1.508  -0.521  1.00  0.00     0.018 A 
HETATM    3  C10 UNL     1      -2.146   0.946  -0.576  1.00  0.00     0.037 A 
HETATM    4  C11 UNL     1      -2.444  -0.121   0.244  1.00  0.00     0.069 A 
HETATM    5  C19 UNL     1      -1.491  -0.621   1.107  1.00  0.00     0.037 A 
HETATM    6  C20 UNL     1      -0.258  -0.017   1.110  1.00  0.00     0.018 A 
ENDROOT
BRANCH   1   7
HETATM    7  C7  UNL     1       1.459   1.661   0.368  1.00  0.00     0.161 C 
HETATM    8  O3  UNL     1       1.555   2.618  -0.442  1.00  0.00    -0.292 OA
BRANCH   7   9
HETATM    9  C6  UNL     1       2.403   1.045   1.330  1.00  0.00     0.104 C 
BRANCH   9  10
HETATM   10  C5  UNL     1       3.747   1.691   1.331  1.00  0.00     0.135 C 
BRANCH  10  11
HETATM   11  N1  UNL     1       4.443   1.645   0.068  1.00  0.00    -0.332 N 
HETATM   12  C3  UNL     1       5.282   0.491  -0.156  1.00  0.00     0.362 C 
HETATM   13  O2  UNL     1       5.855   0.527  -1.266  1.00  0.00    -0.238 OA
HETATM   14  C4  UNL     1       4.469   2.567  -1.050  1.00  0.00     0.155 C 
BRANCH  12  15
HETATM   15  O1  UNL     1       5.436  -0.547   0.761  1.00  0.00    -0.304 OA
BRANCH  15  16
HETATM   16  C2  UNL     1       6.281  -1.649   0.466  1.00  0.00     0.176 C 
HETATM   17  C1  UNL     1       7.708  -1.214   0.231  1.00  0.00     0.034 C 
ENDBRANCH  15  16
ENDBRANCH  12  15
ENDBRANCH  10  11
ENDBRANCH   9  10
ENDBRANCH   7   9
ENDBRANCH   1   7
BRANCH   4  18
HETATM   18  O4  UNL     1      -3.718  -0.681   0.184  1.00  0.00    -0.347 OA
BRANCH  18  19
HETATM   19  C12 UNL     1      -4.662  -0.143  -0.708  1.00  0.00     0.214 C 
BRANCH  19  20
HETATM   20  C13 UNL     1      -5.955  -0.836  -0.658  1.00  0.00    -0.034 A 
HETATM   21  C14 UNL     1      -6.250  -1.923  -1.458  1.00  0.00     0.009 A 
HETATM   22  C15 UNL     1      -7.466  -2.563  -1.401  1.00  0.00     0.001 A 
HETATM   23  C16 UNL     1      -8.442  -2.120  -0.520  1.00  0.00     0.000 A 
HETATM   24  C17 UNL     1      -8.179  -1.043   0.287  1.00  0.00     0.001 A 
HETATM   25  C18 UNL     1      -6.943  -0.415   0.209  1.00  0.00     0.009 A 
ENDBRANCH  19  20
ENDBRANCH  18  19
ENDBRANCH   4  18
TORSDOF 9
