REMARK  8 active torsions:
REMARK  status: ('A' for Active; 'I' for Inactive)
REMARK    1  A    between atoms: N1_7  and  C6_8 
REMARK    2  A    between atoms: C6_8  and  C7_9 
REMARK    3  A    between atoms: C7_9  and  C8_10 
REMARK    4  A    between atoms: C8_10  and  C9_11 
REMARK    5  A    between atoms: C9_11  and  C10_13 
REMARK    6  A    between atoms: C13_16  and  O3_17 
REMARK    7  A    between atoms: O3_17  and  C14_18 
REMARK    8  A    between atoms: C14_18  and  C15_19 
ROOT
HETATM    1  C10 UNL     1       0.399  -0.652  -0.406  1.00  0.00     0.107 A 
HETATM    2  C11 UNL     1       0.472  -0.143   0.990  1.00  0.00    -0.007 A 
HETATM    3  C12 UNL     1       1.742   0.173   1.269  1.00  0.00     0.033 A 
HETATM    4  C13 UNL     1       2.564  -0.106   0.089  1.00  0.00     0.066 A 
HETATM    5  C21 UNL     1       1.806  -0.574  -0.865  1.00  0.00     0.026 A 
ENDROOT
BRANCH   1   6
HETATM    6  C9  UNL     1      -0.509   0.147  -1.242  1.00  0.00     0.160 C 
HETATM    7  O2  UNL     1       0.006   0.748  -2.200  1.00  0.00    -0.292 OA
BRANCH   6   8
HETATM    8  C8  UNL     1      -1.944   0.195  -0.916  1.00  0.00     0.049 C 
BRANCH   8   9
HETATM    9  C7  UNL     1      -2.631  -0.382   0.044  1.00  0.00    -0.004 C 
BRANCH   9  10
HETATM   10  C6  UNL     1      -3.706  -0.807   0.907  1.00  0.00     0.150 C 
BRANCH  10  11
HETATM   11  N1  UNL     1      -5.034  -0.301   0.626  1.00  0.00    -0.380 N 
HETATM   12  C2  UNL     1      -5.497   0.685  -0.285  1.00  0.00     0.009 C 
HETATM   13  C1  UNL     1      -4.699   1.752  -0.365  1.00  0.00     0.060 C 
HETATM   14  C3  UNL     1      -6.772   0.365  -0.978  1.00  0.00     0.219 C 
HETATM   15  O1  UNL     1      -7.744  -0.067  -0.079  1.00  0.00    -0.384 OA
HETATM   16  C4  UNL     1      -7.367  -1.121   0.711  1.00  0.00     0.187 C 
HETATM   17  C5  UNL     1      -6.062  -0.920   1.457  1.00  0.00     0.149 C 
ENDBRANCH  10  11
ENDBRANCH   9  10
ENDBRANCH   8   9
ENDBRANCH   6   8
ENDBRANCH   1   6
BRANCH   4  18
HETATM   18  O3  UNL     1       3.924   0.019  -0.213  1.00  0.00    -0.347 OA
BRANCH  18  19
HETATM   19  C14 UNL     1       4.826   0.661   0.670  1.00  0.00     0.214 C 
BRANCH  19  20
HETATM   20  C15 UNL     1       6.192   0.552   0.126  1.00  0.00    -0.034 A 
HETATM   21  C16 UNL     1       6.866  -0.581   0.546  1.00  0.00     0.009 A 
HETATM   22  C17 UNL     1       8.157  -0.871   0.152  1.00  0.00     0.001 A 
HETATM   23  C18 UNL     1       8.802   0.006  -0.695  1.00  0.00     0.000 A 
HETATM   24  C19 UNL     1       8.118   1.127  -1.102  1.00  0.00     0.001 A 
HETATM   25  C20 UNL     1       6.833   1.441  -0.727  1.00  0.00     0.009 A 
ENDBRANCH  19  20
ENDBRANCH  18  19
ENDBRANCH   4  18
TORSDOF 8
