REMARK  11 active torsions:
REMARK  status: ('A' for Active; 'I' for Inactive)
REMARK    1  A    between atoms: C2_2  and  C3_3 
REMARK    2  A    between atoms: C2_2  and  C15_17 
REMARK    3  A    between atoms: C3_3  and  C4_4 
REMARK    4  A    between atoms: C5_5  and  C6_6 
REMARK    5  A    between atoms: C6_6  and  C7_7 
REMARK    6  A    between atoms: C6_6  and  C8_9 
REMARK    7  A    between atoms: C7_7  and  O1_8 
REMARK    8  A    between atoms: C8_9  and  C9_10 
REMARK    9  A    between atoms: C14_15  and  O2_16 
REMARK   10  A    between atoms: C15_17  and  C16_18 
REMARK   11  A    between atoms: C16_18  and  N1_19 
ROOT
HETATM    1  C4  UNL     1      -0.477  -0.898   0.135  1.00  0.00    -0.029 C 
HETATM    2  C5  UNL     1      -1.384   0.058   0.180  1.00  0.00    -0.024 C 
ENDROOT
BRANCH   2   3
HETATM    3  C6  UNL     1      -2.825   0.025  -0.210  1.00  0.00     0.036 C 
BRANCH   3   4
HETATM    4  C7  UNL     1      -3.019   0.854  -1.432  1.00  0.00     0.172 C 
BRANCH   4   5
HETATM    5  O1  UNL     1      -4.328   0.898  -1.898  1.00  0.00    -0.400 OA
HETATM    6  H10 UNL     1      -4.338   1.074  -2.874  1.00  0.00     0.209 HD
ENDBRANCH   4   5
ENDBRANCH   3   4
BRANCH   3   7
HETATM    7  C8  UNL     1      -3.720   0.346   0.936  1.00  0.00     0.052 C 
BRANCH   7   8
HETATM    8  C9  UNL     1      -5.130   0.298   0.490  1.00  0.00    -0.024 A 
HETATM    9  C10 UNL     1      -5.889   1.451   0.277  1.00  0.00     0.010 A 
HETATM   10  C11 UNL     1      -7.205   1.467  -0.129  1.00  0.00     0.001 A 
HETATM   11  C12 UNL     1      -7.833   0.253  -0.346  1.00  0.00     0.003 A 
HETATM   12  C13 UNL     1      -7.127  -0.916  -0.150  1.00  0.00     0.037 A 
HETATM   13  C14 UNL     1      -5.810  -0.889   0.258  1.00  0.00     0.071 A 
BRANCH  13  14
HETATM   14  O2  UNL     1      -5.136  -2.110   0.444  1.00  0.00    -0.360 OA
HETATM   15  H17 UNL     1      -5.235  -2.502   1.387  1.00  0.00     0.217 HD
ENDBRANCH  13  14
ENDBRANCH   7   8
ENDBRANCH   3   7
ENDBRANCH   2   3
BRANCH   1  16
HETATM   16  C3  UNL     1       0.919  -1.271   0.392  1.00  0.00     0.037 C 
BRANCH  16  17
HETATM   17  C2  UNL     1       1.726  -0.146   0.940  1.00  0.00    -0.028 C 
HETATM   18  C1  UNL     1       1.092   1.006   1.113  1.00  0.00     0.011 C 
BRANCH  17  19
HETATM   19  C15 UNL     1       3.164  -0.351   1.262  1.00  0.00     0.041 C 
BRANCH  19  20
HETATM   20  C16 UNL     1       3.872  -0.749   0.010  1.00  0.00     0.273 C 
BRANCH  20  21
HETATM   21  N1  UNL     1       5.290  -0.978   0.199  1.00  0.00     0.092 N 
HETATM   22  C17 UNL     1       5.832  -1.351  -1.095  1.00  0.00     0.298 C 
HETATM   23  C18 UNL     1       6.874  -0.349  -1.565  1.00  0.00     0.198 C 
HETATM   24  O3  UNL     1       6.444   0.956  -1.503  1.00  0.00    -0.388 OA
HETATM   25  C19 UNL     1       5.836   1.320  -0.321  1.00  0.00     0.198 C 
HETATM   26  C20 UNL     1       5.984   0.192   0.656  1.00  0.00     0.298 C 
ENDBRANCH  20  21
ENDBRANCH  19  20
ENDBRANCH  17  19
ENDBRANCH  16  17
ENDBRANCH   1  16
TORSDOF 11
