REMARK  3 active torsions:
REMARK  status: ('A' for Active; 'I' for Inactive)
REMARK    1  A    between atoms: P1_2  and  C2_3 
REMARK    2  A    between atoms: C2_3  and  C3_4 
REMARK    3  A    between atoms: C10_12  and  C11_13 
ROOT
HETATM    1  C3  UNL     1       1.342  -0.566  -0.383  1.00  0.00     0.040 C 
HETATM    2  C4  UNL     1       1.072  -1.882  -0.977  1.00  0.00     0.078 C 
HETATM    3  C5  UNL     1       0.715  -3.040  -0.165  1.00  0.00     0.173 C 
HETATM    4  O1  UNL     1      -0.322  -3.227   0.619  1.00  0.00    -0.390 OA
HETATM    5  C6  UNL     1      -1.628  -3.197   0.240  1.00  0.00     0.178 C 
HETATM    6  C7  UNL     1      -1.988  -1.793  -0.206  1.00  0.00    -0.005 A 
HETATM    7  C8  UNL     1      -1.705  -1.154   0.967  1.00  0.00     0.012 A 
HETATM    8  C9  UNL     1      -1.593   0.176   1.251  1.00  0.00     0.006 A 
HETATM    9  C10 UNL     1      -1.879   0.240  -0.083  1.00  0.00    -0.017 A 
HETATM   10  C11 UNL     1      -2.163  -0.383  -1.245  1.00  0.00     0.012 A 
HETATM   11  C12 UNL     1      -2.283  -1.711  -1.529  1.00  0.00     0.008 A 
HETATM   12  C13 UNL     1      -1.483   1.664  -0.264  1.00  0.00     0.060 C 
HETATM   13  C14 UNL     1      -2.329   2.592   0.502  1.00  0.00     0.280 C 
HETATM   14  N1  UNL     1      -1.595   3.832   0.797  1.00  0.00     0.087 N 
HETATM   15  C15 UNL     1      -0.540   4.014  -0.206  1.00  0.00     0.297 C 
HETATM   16  C16 UNL     1       0.493   3.001   0.133  1.00  0.00     0.014 C 
HETATM   17  C17 UNL     1      -0.014   1.779   0.100  1.00  0.00    -0.002 C 
HETATM   18  C18 UNL     1       0.771   0.554   0.414  1.00  0.00     0.192 C 
HETATM   19  O2  UNL     1       1.137   0.219   1.602  1.00  0.00    -0.287 OA
HETATM   20  H17 UNL     1      -1.102   3.657   1.701  1.00  0.00     0.316 HD
ENDROOT
BRANCH   1  21
HETATM   21  C2  UNL     1       2.562  -0.054  -0.588  1.00  0.00    -0.108 C 
BRANCH  21  22
HETATM   22  P1  UNL     1       4.172   0.351  -0.735  1.00  0.00    -0.007 P 
HETATM   23  C1  UNL     1       5.362  -0.500   0.437  1.00  0.00     0.063 C 
ENDBRANCH  21  22
ENDBRANCH   1  21
TORSDOF 3
