REMARK  4 active torsions:
REMARK  status: ('A' for Active; 'I' for Inactive)
REMARK    1  A    between atoms: C2_2  and  N1_3 
REMARK       I    between atoms: N1_3  and  C3_4 
REMARK    2  A    between atoms: C3_4  and  C4_6 
REMARK    3  A    between atoms: C7_10  and  C8_11 
REMARK    4  A    between atoms: N3_13  and  C10_14 
ROOT
HETATM    1  C8  UNL     1       0.354   0.108  -0.560  1.00  0.00     0.066 C 
HETATM    2  C9  UNL     1      -1.096  -0.171  -0.483  1.00  0.00     0.136 C 
HETATM    3  N3  UNL     1      -2.044   0.717   0.062  1.00  0.00    -0.359 N 
HETATM    4  C16 UNL     1      -2.743   1.990  -0.146  1.00  0.00     0.274 C 
HETATM    5  N4  UNL     1      -2.218   2.703  -1.286  1.00  0.00    -0.272 NA
HETATM    6  C17 UNL     1      -2.405   2.172  -2.482  1.00  0.00     0.164 C 
HETATM    7  N5  UNL     1      -1.723   3.184  -3.296  1.00  0.00    -0.295 NA
HETATM    8  C18 UNL     1      -0.388   3.122  -3.158  1.00  0.00     0.258 C 
HETATM    9  C19 UNL     1      -0.193   2.068  -2.264  1.00  0.00    -0.001 C 
HETATM   10  C20 UNL     1       0.603   1.284  -1.487  1.00  0.00    -0.078 C 
HETATM   11  C21 UNL     1       1.848   2.015  -1.828  1.00  0.00     0.043 C 
ENDROOT
BRANCH   1  12
HETATM   12  C7  UNL     1       0.969  -1.099  -1.239  1.00  0.00     0.243 C 
HETATM   13  C4  UNL     1       2.452  -1.169  -1.241  1.00  0.00     0.113 C 
HETATM   14  C5  UNL     1       2.647  -2.610  -1.790  1.00  0.00     0.046 C 
HETATM   15  C6  UNL     1       1.425  -3.306  -1.340  1.00  0.00     0.271 C 
HETATM   16  N2  UNL     1       0.587  -2.358  -0.645  1.00  0.00     0.089 N 
HETATM   17  H10 UNL     1      -0.409  -2.537  -0.986  1.00  0.00     0.316 HD
BRANCH  13  18
HETATM   18  C3  UNL     1       2.978  -1.295   0.170  1.00  0.00     0.227 C 
HETATM   19  N1  UNL     1       3.284  -0.357   1.179  1.00  0.00    -0.340 N 
HETATM   20  H4  UNL     1       3.130   0.610   0.868  1.00  0.00     0.167 HD
HETATM   21  O1  UNL     1       3.132  -2.549   0.354  1.00  0.00    -0.273 OA
BRANCH  19  22
HETATM   22  C2  UNL     1       3.741  -0.890   2.405  1.00  0.00     0.064 C 
HETATM   23  C1  UNL     1       3.990   0.091   3.249  1.00  0.00     0.049 C 
ENDBRANCH  19  22
ENDBRANCH  13  18
ENDBRANCH   1  12
BRANCH   3  24
HETATM   24  C10 UNL     1      -2.665   0.330   1.338  1.00  0.00     0.072 A 
HETATM   25  C11 UNL     1      -4.031   0.031   1.426  1.00  0.00     0.032 A 
HETATM   26  C12 UNL     1      -4.624  -0.343   2.648  1.00  0.00     0.004 A 
HETATM   27  C13 UNL     1      -3.842  -0.414   3.771  1.00  0.00     0.027 A 
HETATM   28  C14 UNL     1      -2.500  -0.125   3.711  1.00  0.00     0.074 A 
HETATM   29 CL1  UNL     1      -1.559  -0.238   5.185  1.00  0.00    -0.081 Cl
HETATM   30  C15 UNL     1      -1.953   0.237   2.506  1.00  0.00     0.164 A 
HETATM   31  F1  UNL     1      -0.643   0.516   2.544  1.00  0.00    -0.202 F 
ENDBRANCH   3  24
TORSDOF 4
