REMARK  9 active torsions:
REMARK  status: ('A' for Active; 'I' for Inactive)
REMARK    1  A    between atoms: C2_2  and  C3_3 
REMARK    2  A    between atoms: C2_2  and  C12_15 
REMARK    3  A    between atoms: C4_4  and  C5_5 
REMARK    4  A    between atoms: C5_5  and  C6_6 
REMARK    5  A    between atoms: C6_6  and  C7_8 
REMARK    6  A    between atoms: C7_8  and  N1_9 
REMARK    7  A    between atoms: C12_15  and  O3_16 
REMARK    8  A    between atoms: O3_16  and  C13_17 
REMARK    9  A    between atoms: C13_17  and  C14_18 
ROOT
HETATM    1  C3  UNL     1       0.515   0.015  -2.426  1.00  0.00     0.005 C 
HETATM    2  C4  UNL     1       0.215   0.430  -1.235  1.00  0.00    -0.019 C 
ENDROOT
BRANCH   1   3
HETATM    3  C2  UNL     1       1.795  -0.552  -2.819  1.00  0.00    -0.044 C 
HETATM    4  C1  UNL     1       2.061  -0.964  -4.047  1.00  0.00     0.021 C 
BRANCH   3   5
HETATM    5  C12 UNL     1       2.868  -0.683  -1.800  1.00  0.00     0.205 C 
BRANCH   5   6
HETATM    6  O3  UNL     1       2.450  -1.496  -0.755  1.00  0.00    -0.382 OA
BRANCH   6   7
HETATM    7  C13 UNL     1       3.422  -1.647   0.221  1.00  0.00     0.206 C 
BRANCH   7   8
HETATM    8  C14 UNL     1       3.827  -0.351   0.843  1.00  0.00    -0.035 A 
HETATM    9  C15 UNL     1       4.878   0.317   0.241  1.00  0.00     0.009 A 
HETATM   10  C16 UNL     1       5.286   1.527   0.789  1.00  0.00     0.001 A 
HETATM   11  C17 UNL     1       4.689   2.068   1.890  1.00  0.00     0.000 A 
HETATM   12  C18 UNL     1       3.642   1.402   2.490  1.00  0.00     0.001 A 
HETATM   13  C19 UNL     1       3.223   0.199   1.960  1.00  0.00     0.009 A 
ENDBRANCH   7   8
ENDBRANCH   6   7
ENDBRANCH   5   6
ENDBRANCH   3   5
ENDBRANCH   1   3
BRANCH   2  14
HETATM   14  C5  UNL     1      -1.118   1.004  -0.894  1.00  0.00     0.107 C 
BRANCH  14  15
HETATM   15  C6  UNL     1      -1.775   0.195   0.164  1.00  0.00     0.158 C 
HETATM   16  O1  UNL     1      -0.717  -0.440   0.040  1.00  0.00    -0.296 OA
BRANCH  15  17
HETATM   17  C7  UNL     1      -2.620  -0.443   1.197  1.00  0.00     0.354 C 
BRANCH  17  18
HETATM   18  N1  UNL     1      -3.874   0.220   1.419  1.00  0.00     0.125 N 
HETATM   19  C8  UNL     1      -4.563  -0.536   2.452  1.00  0.00     0.302 C 
HETATM   20  C9  UNL     1      -5.024  -1.735   1.612  1.00  0.00     0.201 C 
HETATM   21  O2  UNL     1      -4.886  -1.333   0.270  1.00  0.00    -0.356 OA
HETATM   22  C10 UNL     1      -4.836   0.037   0.362  1.00  0.00     0.355 C 
HETATM   23  C11 UNL     1      -4.571   0.758  -0.899  1.00  0.00     0.073 C 
ENDBRANCH  17  18
ENDBRANCH  15  17
ENDBRANCH  14  15
ENDBRANCH   2  14
TORSDOF 9
