REMARK  9 active torsions:
REMARK  status: ('A' for Active; 'I' for Inactive)
REMARK    1  A    between atoms: C2_2  and  C3_3 
REMARK    2  A    between atoms: C2_2  and  C8_10 
REMARK    3  A    between atoms: C3_3  and  N1_4 
REMARK    4  A    between atoms: C8_10  and  C9_12 
REMARK    5  A    between atoms: C9_12  and  C12_15 
REMARK    6  A    between atoms: C12_15  and  C13_16 
REMARK    7  A    between atoms: C13_16  and  O2_17 
REMARK    8  A    between atoms: O2_17  and  C14_18 
REMARK    9  A    between atoms: C14_18  and  C15_19 
ROOT
HETATM    1  C8  UNL     1      -0.521   0.238   1.052  1.00  0.00     0.185 C 
HETATM    2  O1  UNL     1      -0.716   1.497   0.906  1.00  0.00    -0.287 OA
ENDROOT
BRANCH   1   3
HETATM    3  C2  UNL     1      -1.818  -0.392   0.957  1.00  0.00     0.011 C 
HETATM    4  C1  UNL     1      -2.129  -1.658   1.037  1.00  0.00     0.025 C 
BRANCH   3   5
HETATM    5  C3  UNL     1      -3.097   0.288   0.755  1.00  0.00     0.314 C 
BRANCH   5   6
HETATM    6  N1  UNL     1      -4.250  -0.536   0.655  1.00  0.00     0.096 N 
HETATM    7  C4  UNL     1      -5.406   0.363   0.741  1.00  0.00     0.302 C 
HETATM    8  C5  UNL     1      -5.422   1.351  -0.378  1.00  0.00     0.299 C 
HETATM    9  N2  UNL     1      -5.462   0.668  -1.629  1.00  0.00     0.086 N 
HETATM   10  C6  UNL     1      -4.412  -0.315  -1.780  1.00  0.00     0.299 C 
HETATM   11  H9  UNL     1      -5.337   1.365  -2.408  1.00  0.00     0.315 HD
HETATM   12  C7  UNL     1      -4.354  -1.258  -0.604  1.00  0.00     0.302 C 
ENDBRANCH   5   6
ENDBRANCH   3   5
ENDBRANCH   1   3
BRANCH   1  13
HETATM   13  C9  UNL     1       0.795  -0.344   1.268  1.00  0.00    -0.010 C 
HETATM   14  C10 UNL     1       1.207  -1.625   1.458  1.00  0.00    -0.020 C 
HETATM   15  C11 UNL     1       0.643  -2.987   1.544  1.00  0.00     0.036 C 
BRANCH  13  16
HETATM   16  C12 UNL     1       1.886   0.669   1.302  1.00  0.00     0.068 C 
BRANCH  16  17
HETATM   17  C13 UNL     1       2.089   1.439   0.042  1.00  0.00     0.172 C 
BRANCH  17  18
HETATM   18  O2  UNL     1       2.410   0.697  -1.045  1.00  0.00    -0.387 OA
BRANCH  18  19
HETATM   19  C14 UNL     1       3.502  -0.082  -1.075  1.00  0.00     0.202 C 
BRANCH  19  20
HETATM   20  C15 UNL     1       4.840   0.549  -0.978  1.00  0.00    -0.053 A 
HETATM   21  C16 UNL     1       5.726   0.388  -1.991  1.00  0.00     0.005 A 
HETATM   22  C17 UNL     1       7.011   1.037  -1.809  1.00  0.00    -0.003 A 
HETATM   23  C18 UNL     1       6.877   1.607  -0.630  1.00  0.00    -0.022 A 
HETATM   24  C19 UNL     1       5.543   1.383   0.026  1.00  0.00     0.063 A 
ENDBRANCH  19  20
ENDBRANCH  18  19
ENDBRANCH  17  18
ENDBRANCH  16  17
ENDBRANCH  13  16
ENDBRANCH   1  13
TORSDOF 9
