REMARK  4 active torsions:
REMARK  status: ('A' for Active; 'I' for Inactive)
REMARK    1  A    between atoms: O1_2  and  C2_3 
REMARK    2  A    between atoms: C7_8  and  C8_9 
REMARK    3  A    between atoms: C8_9  and  O2_10 
REMARK    4  A    between atoms: O2_10  and  C9_11 
ROOT
HETATM    1  C9  UNL     1       0.674   0.492   0.102  1.00  0.00     0.043 C 
HETATM    2  C10 UNL     1      -0.116   0.890   1.113  1.00  0.00     0.006 C 
HETATM    3  C11 UNL     1      -1.599   0.974   1.172  1.00  0.00     0.041 C 
HETATM    4  C12 UNL     1      -2.273   0.351  -0.031  1.00  0.00    -0.002 C 
HETATM    5  C13 UNL     1      -1.378  -0.625  -0.737  1.00  0.00     0.018 C 
HETATM    6  C14 UNL     1      -0.094   0.089  -1.104  1.00  0.00     0.065 C 
HETATM    7  C15 UNL     1      -2.611   1.459  -1.006  1.00  0.00     0.042 C 
HETATM    8  C16 UNL     1      -4.092   1.624  -1.026  1.00  0.00     0.274 C 
HETATM    9  N1  UNL     1      -4.594   0.812   0.026  1.00  0.00     0.098 N 
HETATM   10  C17 UNL     1      -5.927   0.339  -0.142  1.00  0.00     0.299 C 
HETATM   11  C18 UNL     1      -6.028  -0.947  -0.918  1.00  0.00     0.198 C 
HETATM   12  O3  UNL     1      -4.764  -1.333  -1.422  1.00  0.00    -0.387 OA
HETATM   13  C19 UNL     1      -3.973  -1.510  -0.271  1.00  0.00     0.204 C 
HETATM   14  C20 UNL     1      -3.620  -0.199   0.329  1.00  0.00     0.255 C 
ENDROOT
BRANCH   1  15
HETATM   15  O2  UNL     1       2.029   0.521   0.341  1.00  0.00    -0.351 OA
BRANCH  15  16
HETATM   16  C8  UNL     1       2.761  -0.503   0.935  1.00  0.00     0.216 C 
BRANCH  16  17
HETATM   17  C7  UNL     1       4.212  -0.204   1.098  1.00  0.00    -0.001 A 
HETATM   18  C2  UNL     1       5.190  -0.212   0.139  1.00  0.00     0.076 A 
HETATM   19  C3  UNL     1       6.492   0.087   0.445  1.00  0.00     0.037 A 
HETATM   20  C4  UNL     1       6.907   0.413   1.717  1.00  0.00     0.003 A 
HETATM   21  C5  UNL     1       5.935   0.428   2.707  1.00  0.00     0.001 A 
HETATM   22  C6  UNL     1       4.627   0.126   2.393  1.00  0.00     0.012 A 
BRANCH  18  23
HETATM   23  O1  UNL     1       4.747  -0.546  -1.146  1.00  0.00    -0.355 OA
HETATM   24  C1  UNL     1       5.749  -0.561  -2.159  1.00  0.00     0.210 C 
ENDBRANCH  18  23
ENDBRANCH  16  17
ENDBRANCH  15  16
ENDBRANCH   1  15
TORSDOF 4
