REMARK  4 active torsions:
REMARK  status: ('A' for Active; 'I' for Inactive)
REMARK    1  A    between atoms: O1_2  and  C2_3 
REMARK    2  A    between atoms: C7_8  and  C8_9 
REMARK    3  A    between atoms: S1_12  and  C11_13 
REMARK    4  A    between atoms: C11_13  and  N1_14 
ROOT
HETATM    1  C8  UNL     1       1.276   0.530   0.319  1.00  0.00    -0.020 C 
HETATM    2  C9  UNL     1       0.537   0.081  -0.673  1.00  0.00     0.087 A 
HETATM    3  C10 UNL     1      -0.411   0.876  -1.081  1.00  0.00    -0.022 A 
HETATM    4  S1  UNL     1      -0.905  -0.806  -0.986  1.00  0.00    -0.142 SA
HETATM    5  C15 UNL     1      -0.091   2.314  -1.193  1.00  0.00     0.070 C 
HETATM    6  C16 UNL     1       0.642   2.787   0.016  1.00  0.00    -0.021 C 
HETATM    7  C17 UNL     1       1.324   1.934   0.780  1.00  0.00     0.006 C 
ENDROOT
BRANCH   1   8
HETATM    8  C7  UNL     1       2.125  -0.431   1.031  1.00  0.00     0.005 A 
HETATM    9  C2  UNL     1       3.099  -1.254   0.491  1.00  0.00     0.079 A 
HETATM   10  C3  UNL     1       3.807  -2.103   1.315  1.00  0.00     0.037 A 
HETATM   11  C4  UNL     1       3.534  -2.123   2.667  1.00  0.00     0.003 A 
HETATM   12  C5  UNL     1       2.575  -1.326   3.256  1.00  0.00     0.001 A 
HETATM   13  C6  UNL     1       1.875  -0.478   2.406  1.00  0.00     0.015 A 
BRANCH   9  14
HETATM   14  O1  UNL     1       3.208  -1.073  -0.881  1.00  0.00    -0.355 OA
HETATM   15  C1  UNL     1       4.162  -1.839  -1.593  1.00  0.00     0.210 C 
ENDBRANCH   9  14
ENDBRANCH   1   8
BRANCH   4  16
HETATM   16  C11 UNL     1      -2.636  -1.056  -1.481  1.00  0.00     0.344 C 
BRANCH  16  17
HETATM   17  N1  UNL     1      -3.435  -0.388  -0.486  1.00  0.00     0.121 N 
HETATM   18  C12 UNL     1      -3.128   1.026  -0.432  1.00  0.00     0.302 C 
HETATM   19  C13 UNL     1      -4.472   1.614  -0.023  1.00  0.00     0.200 C 
HETATM   20  O2  UNL     1      -5.297   0.514   0.240  1.00  0.00    -0.361 OA
HETATM   21  C14 UNL     1      -4.846  -0.392  -0.746  1.00  0.00     0.441 C 
ENDBRANCH  16  17
ENDBRANCH   4  16
TORSDOF 4
