REMARK  1 active torsions:
REMARK  status: ('A' for Active; 'I' for Inactive)
REMARK    1  A    between atoms: C14_16  and  C15_17 
ROOT
HETATM    1  C1  UNL     1       0.249   3.190  -0.075  1.00  0.00     0.119 A 
HETATM    2  C2  UNL     1       0.333   2.026  -0.770  1.00  0.00    -0.013 A 
HETATM    3  C3  UNL     1       1.602   1.930  -1.492  1.00  0.00     0.161 C 
HETATM    4  N1  UNL     1       2.484   0.858  -1.121  1.00  0.00    -0.377 N 
HETATM    5  C4  UNL     1       3.937   1.122  -1.038  1.00  0.00     0.149 C 
HETATM    6  C5  UNL     1       4.305   1.155   0.431  1.00  0.00     0.188 C 
HETATM    7  O1  UNL     1       3.097   0.883   1.093  1.00  0.00    -0.384 OA
HETATM    8  C6  UNL     1       2.728  -0.389   0.663  1.00  0.00     0.224 C 
HETATM    9  C7  UNL     1       2.371  -0.508  -0.763  1.00  0.00     0.027 C 
HETATM   10  C8  UNL     1       2.134  -1.783  -1.060  1.00  0.00     0.000 C 
HETATM   11  C9  UNL     1       2.179  -2.897  -0.096  1.00  0.00     0.029 C 
HETATM   12  C10 UNL     1       0.922  -3.709   0.015  1.00  0.00     0.009 C 
HETATM   13  C11 UNL     1      -0.272  -2.875   0.201  1.00  0.00    -0.001 C 
HETATM   14  C12 UNL     1      -1.406  -2.298   0.117  1.00  0.00     0.023 C 
HETATM   15  C13 UNL     1      -2.719  -1.897  -0.301  1.00  0.00     0.011 C 
HETATM   16  C14 UNL     1      -3.098  -0.930   0.556  1.00  0.00     0.043 C 
HETATM   17  O2  UNL     1      -2.351  -0.395   1.641  1.00  0.00    -0.352 OA
HETATM   18  C17 UNL     1      -2.229   1.006   1.740  1.00  0.00     0.203 C 
HETATM   19  C18 UNL     1      -1.005   1.551   2.308  1.00  0.00     0.012 C 
HETATM   20  C19 UNL     1      -0.847   2.826   1.971  1.00  0.00    -0.024 C 
HETATM   21  C20 UNL     1      -1.355   3.137   0.783  1.00  0.00     0.059 C 
HETATM   22  C21 UNL     1      -0.948   2.027  -0.094  1.00  0.00     0.119 A 
HETATM   23  O3  UNL     1      -0.917   0.951  -0.753  1.00  0.00    -0.296 OA
ENDROOT
BRANCH  16  24
HETATM   24  C15 UNL     1      -4.435  -0.314   0.386  1.00  0.00     0.060 C 
HETATM   25  C16 UNL     1      -5.176  -0.924  -0.792  1.00  0.00     0.012 C 
ENDBRANCH  16  24
TORSDOF 1
