REMARK  4 active torsions:
REMARK  status: ('A' for Active; 'I' for Inactive)
REMARK    1  A    between atoms: N2_7  and  C6_8 
REMARK    2  A    between atoms: C6_8  and  C7_9 
REMARK    3  A    between atoms: C7_9  and  C8_11 
REMARK    4  A    between atoms: C8_11  and  C9_12 
ROOT
HETATM    1  C9  UNL     1      -0.597  -0.542   0.111  1.00  0.00    -0.070 C 
HETATM    2  C10 UNL     1      -1.024  -1.217   1.201  1.00  0.00     0.005 C 
HETATM    3  C11 UNL     1      -2.090  -2.243   1.291  1.00  0.00     0.237 C 
HETATM    4  O2  UNL     1      -3.116  -1.822   2.143  1.00  0.00    -0.237 OA
HETATM    5  O3  UNL     1      -4.283  -1.896   1.603  1.00  0.00    -0.236 OA
HETATM    6  C12 UNL     1      -4.407  -1.428   0.303  1.00  0.00     0.249 C 
HETATM    7  C13 UNL     1      -4.035   0.003   0.128  1.00  0.00    -0.025 A 
HETATM    8  C14 UNL     1      -4.876   0.728   0.982  1.00  0.00     0.010 A 
HETATM    9  C15 UNL     1      -4.886   2.120   1.141  1.00  0.00     0.001 A 
HETATM   10  C16 UNL     1      -3.987   2.852   0.391  1.00  0.00     0.001 A 
HETATM   11  C17 UNL     1      -3.163   2.111  -0.448  1.00  0.00     0.007 A 
HETATM   12  C18 UNL     1      -3.134   0.721  -0.624  1.00  0.00    -0.049 A 
HETATM   13  C19 UNL     1      -2.090   0.334  -1.619  1.00  0.00     0.048 C 
HETATM   14  C20 UNL     1      -1.236  -0.809  -1.205  1.00  0.00     0.015 C 
HETATM   15  C21 UNL     1      -0.273  -1.183  -2.292  1.00  0.00     0.015 C 
ENDROOT
BRANCH   1  16
HETATM   16  C8  UNL     1       0.489   0.502   0.013  1.00  0.00     0.114 C 
BRANCH  16  17
HETATM   17  C7  UNL     1       1.130   0.774   1.324  1.00  0.00     0.148 C 
HETATM   18  O1  UNL     1       0.525   1.054   2.353  1.00  0.00    -0.296 OA
BRANCH  17  19
HETATM   19  C6  UNL     1       2.567   0.768   1.690  1.00  0.00     0.201 C 
BRANCH  19  20
HETATM   20  N2  UNL     1       3.452   0.581   0.560  1.00  0.00    -0.375 N 
HETATM   21  C2  UNL     1       4.137  -0.648   0.378  1.00  0.00     0.026 C 
HETATM   22  C1  UNL     1       3.868  -1.630   1.205  1.00  0.00     0.039 C 
HETATM   23  C3  UNL     1       5.117  -0.843  -0.737  1.00  0.00     0.325 C 
HETATM   24  N1  UNL     1       5.543   0.457  -1.237  1.00  0.00     0.090 N 
HETATM   25  C4  UNL     1       4.349   1.215  -1.581  1.00  0.00     0.289 C 
HETATM   26  H5  UNL     1       6.155   0.963  -0.565  1.00  0.00     0.316 HD
HETATM   27  C5  UNL     1       3.577   1.657  -0.366  1.00  0.00     0.153 C 
ENDBRANCH  19  20
ENDBRANCH  17  19
ENDBRANCH  16  17
ENDBRANCH   1  16
TORSDOF 4
