REMARK  7 active torsions:
REMARK  status: ('A' for Active; 'I' for Inactive)
REMARK    1  A    between atoms: C1_2  and  C2_3 
REMARK    2  A    between atoms: C1_2  and  C8_11 
REMARK    3  A    between atoms: C3_4  and  N1_5 
REMARK    4  A    between atoms: C8_11  and  C9_12 
REMARK    5  A    between atoms: C11_14  and  O3_15 
REMARK    6  A    between atoms: O3_15  and  C12_16 
REMARK    7  A    between atoms: C12_16  and  C13_17 
ROOT
HETATM    1  C9  UNL     1       0.061   0.521  -0.033  1.00  0.00     0.015 A 
HETATM    2  C10 UNL     1       1.377   0.754  -0.076  1.00  0.00     0.061 A 
HETATM    3  C11 UNL     1       2.336  -0.307   0.231  1.00  0.00     0.068 A 
HETATM    4  C19 UNL     1       1.940  -1.515   0.557  1.00  0.00     0.029 A 
HETATM    5  C20 UNL     1       0.504  -1.895   0.639  1.00  0.00     0.149 A 
HETATM    6  N2  UNL     1      -0.348  -0.787   0.320  1.00  0.00    -0.389 N 
HETATM    7  H24 UNL     1      -1.386  -0.989   0.360  1.00  0.00     0.159 HD
ENDROOT
BRANCH   1   8
HETATM    8  C8  UNL     1      -0.944   1.591  -0.345  1.00  0.00     0.139 C 
BRANCH   8   9
HETATM    9  C1  UNL     1      -1.828   1.831   0.822  1.00  0.00     0.156 C 
HETATM   10  O1  UNL     1      -1.417   2.436   1.843  1.00  0.00    -0.293 OA
BRANCH   9  11
HETATM   11  C2  UNL     1      -3.191   1.338   0.742  1.00  0.00     0.067 C 
HETATM   12  C3  UNL     1      -3.716   0.691  -0.284  1.00  0.00     0.089 C 
BRANCH  12  13
HETATM   13  N1  UNL     1      -5.044   0.196  -0.393  1.00  0.00    -0.386 N 
HETATM   14  C4  UNL     1      -5.383  -0.902   0.472  1.00  0.00     0.148 C 
HETATM   15  C5  UNL     1      -6.588  -1.680   0.066  1.00  0.00     0.187 C 
HETATM   16  O2  UNL     1      -7.550  -0.993  -0.621  1.00  0.00    -0.388 OA
HETATM   17  C6  UNL     1      -7.381   0.365  -0.719  1.00  0.00     0.187 C 
HETATM   18  C7  UNL     1      -6.019   0.730  -1.298  1.00  0.00     0.148 C 
ENDBRANCH  12  13
ENDBRANCH   9  11
ENDBRANCH   8   9
ENDBRANCH   1   8
BRANCH   3  19
HETATM   19  O3  UNL     1       3.648   0.132   0.131  1.00  0.00    -0.347 OA
BRANCH  19  20
HETATM   20  C12 UNL     1       4.692  -0.768   0.449  1.00  0.00     0.214 C 
BRANCH  20  21
HETATM   21  C13 UNL     1       6.029  -0.157   0.259  1.00  0.00    -0.034 A 
HETATM   22  C14 UNL     1       6.753   0.530   1.201  1.00  0.00     0.009 A 
HETATM   23  C15 UNL     1       7.989   1.027   0.830  1.00  0.00     0.001 A 
HETATM   24  C16 UNL     1       8.507   0.856  -0.436  1.00  0.00     0.000 A 
HETATM   25  C17 UNL     1       7.802   0.170  -1.404  1.00  0.00     0.001 A 
HETATM   26  C18 UNL     1       6.573  -0.319  -1.020  1.00  0.00     0.009 A 
ENDBRANCH  20  21
ENDBRANCH  19  20
ENDBRANCH   3  19
TORSDOF 7
