REMARK  7 active torsions:
REMARK  status: ('A' for Active; 'I' for Inactive)
REMARK    1  A    between atoms: C2_2  and  C3_3 
REMARK    2  A    between atoms: C2_2  and  C8_10 
REMARK    3  A    between atoms: C3_3  and  N1_4 
REMARK    4  A    between atoms: C8_10  and  C10_12 
REMARK    5  A    between atoms: C13_15  and  O1_16 
REMARK    6  A    between atoms: O1_16  and  S1_17 
REMARK    7  A    between atoms: S1_17  and  C14_18 
ROOT
HETATM    1  C10 UNL     1       0.369   1.269   1.147  1.00  0.00    -0.050 A 
HETATM    2  C11 UNL     1       1.036   1.352  -0.072  1.00  0.00     0.010 A 
HETATM    3  C12 UNL     1       2.389   1.271  -0.202  1.00  0.00     0.038 A 
HETATM    4  C13 UNL     1       3.185   1.095   0.920  1.00  0.00     0.085 A 
HETATM    5  C19 UNL     1       2.585   1.005   2.167  1.00  0.00     0.038 A 
HETATM    6  C20 UNL     1       1.202   1.092   2.258  1.00  0.00     0.010 A 
ENDROOT
BRANCH   1   7
HETATM    7  C8  UNL     1      -1.084   1.359   1.265  1.00  0.00     0.044 C 
HETATM    8  C9  UNL     1      -1.486   2.800   0.941  1.00  0.00     0.020 C 
BRANCH   7   9
HETATM    9  C2  UNL     1      -1.838   0.386   0.474  1.00  0.00    -0.064 C 
HETATM   10  C1  UNL     1      -1.160  -0.478  -0.275  1.00  0.00     0.016 C 
BRANCH   9  11
HETATM   11  C3  UNL     1      -3.283   0.589   0.697  1.00  0.00     0.151 C 
BRANCH  11  12
HETATM   12  N1  UNL     1      -4.157  -0.274   0.001  1.00  0.00    -0.405 N 
HETATM   13  C4  UNL     1      -4.229  -0.137  -1.419  1.00  0.00     0.147 C 
HETATM   14  C5  UNL     1      -5.700  -0.386  -1.782  1.00  0.00     0.289 C 
HETATM   15  N2  UNL     1      -6.239  -1.398  -0.891  1.00  0.00     0.086 N 
HETATM   16  C6  UNL     1      -5.219  -2.338  -0.496  1.00  0.00     0.289 C 
HETATM   17  H9  UNL     1      -6.694  -0.966  -0.043  1.00  0.00     0.316 HD
HETATM   18  C7  UNL     1      -4.286  -1.608   0.478  1.00  0.00     0.147 C 
ENDBRANCH  11  12
ENDBRANCH   9  11
ENDBRANCH   7   9
ENDBRANCH   1   7
BRANCH   4  19
HETATM   19  O1  UNL     1       4.575   0.986   1.019  1.00  0.00    -0.274 OA
BRANCH  19  20
HETATM   20  S1  UNL     1       5.267  -0.605   0.924  1.00  0.00     0.032 SA
BRANCH  20  21
HETATM   21  C14 UNL     1       6.282  -0.755  -0.537  1.00  0.00     0.010 A 
HETATM   22  C15 UNL     1       6.800  -1.972  -0.598  1.00  0.00     0.016 A 
HETATM   23  C16 UNL     1       7.618  -2.054  -1.800  1.00  0.00    -0.003 A 
HETATM   24  C17 UNL     1       7.583  -0.883  -2.451  1.00  0.00    -0.021 A 
HETATM   25  C18 UNL     1       6.726   0.050  -1.701  1.00  0.00     0.075 A 
ENDBRANCH  20  21
ENDBRANCH  19  20
ENDBRANCH   4  19
TORSDOF 7
