REMARK  7 active torsions:
REMARK  status: ('A' for Active; 'I' for Inactive)
REMARK    1  A    between atoms: C1_4  and  N3_5 
REMARK    2  A    between atoms: C1_4  and  O1_20 
REMARK    3  A    between atoms: N3_5  and  C2_6 
REMARK    4  A    between atoms: C2_6  and  C3_7 
REMARK    5  A    between atoms: C3_7  and  N4_8 
REMARK    6  A    between atoms: N4_8  and  C4_9 
REMARK    7  A    between atoms: C5_10  and  C6_11 
ROOT
HETATM    1  C3  UNL     1       1.085  -0.829  -2.243  1.00  0.00    -0.003 C 
ENDROOT
BRANCH   1   2
HETATM    2  C2  UNL     1       2.350  -0.436  -2.137  1.00  0.00     0.189 C 
BRANCH   2   3
HETATM    3  N3  UNL     1       2.235  -0.152  -0.752  1.00  0.00    -0.244 NA
BRANCH   3   4
HETATM    4  C1  UNL     1       3.296   0.242  -0.087  1.00  0.00     0.342 A 
HETATM    5  N2  UNL     1       2.529   0.349   1.159  1.00  0.00     0.046 N 
HETATM    6  S1  UNL     1       5.140   1.114   1.685  1.00  0.00     0.078 SA
HETATM    7  H2  UNL     1       1.763   0.299   1.878  1.00  0.00     0.300 HD
HETATM    8  C12 UNL     1       3.572   0.625   1.283  1.00  0.00     0.323 A 
HETATM    9  N1  UNL     1       6.283   1.462   1.946  1.00  0.00    -0.104 N 
HETATM   10  H1  UNL     1       4.968   1.060   1.650  1.00  0.00     0.137 HD
HETATM   11  O1  UNL     1       4.264   0.520   0.026  1.00  0.00     0.000 OA
ENDBRANCH   3   4
ENDBRANCH   2   3
ENDBRANCH   1   2
BRANCH   1  12
HETATM   12  N4  UNL     1      -0.100  -1.187  -2.680  1.00  0.00    -0.245 NA
BRANCH  12  13
HETATM   13  C4  UNL     1      -1.111  -0.152  -2.670  1.00  0.00     0.107 C 
HETATM   14  C5  UNL     1      -1.484  -0.566  -1.495  1.00  0.00     0.114 C 
BRANCH  14  15
HETATM   15  C6  UNL     1      -2.517  -0.068  -0.659  1.00  0.00    -0.008 C 
HETATM   16  C7  UNL     1      -3.430   0.312   0.180  1.00  0.00     0.042 C 
HETATM   17 CL1  UNL     1      -4.052   1.288  -1.331  1.00  0.00    -0.084 Cl
HETATM   18  C8  UNL     1      -4.349   0.695   1.026  1.00  0.00     0.024 C 
HETATM   19  C9  UNL     1      -3.709  -0.158   2.000  1.00  0.00     0.003 C 
HETATM   20  C10 UNL     1      -2.557  -0.967   1.824  1.00  0.00     0.024 C 
HETATM   21  C11 UNL     1      -1.997  -0.891   0.487  1.00  0.00     0.042 C 
HETATM   22 CL2  UNL     1      -0.508  -1.911   0.748  1.00  0.00    -0.084 Cl
ENDBRANCH  14  15
ENDBRANCH  12  13
ENDBRANCH   1  12
TORSDOF 7
