REMARK  3 active torsions:
REMARK  status: ('A' for Active; 'I' for Inactive)
REMARK       I    between atoms: N1_2  and  C2_3 
REMARK    1  A    between atoms: C2_3  and  C3_5 
REMARK    2  A    between atoms: N2_9  and  C7_10 
REMARK    3  A    between atoms: C7_10  and  C8_11 
ROOT
HETATM    1  C8  UNL     1      -0.060   0.766   0.654  1.00  0.00     0.000 A 
HETATM    2  C9  UNL     1       0.686   0.374   1.722  1.00  0.00     0.031 A 
HETATM    3  C10 UNL     1       1.551   1.187   2.232  1.00  0.00     0.256 A 
HETATM    4  C11 UNL     1       2.781   0.971   2.878  1.00  0.00     0.409 A 
HETATM    5  N3  UNL     1       3.749   1.846   3.339  1.00  0.00     0.387 N 
HETATM    6  C12 UNL     1       3.169   3.058   2.968  1.00  0.00     0.536 A 
HETATM    7  N4  UNL     1       2.342   2.134   2.590  1.00  0.00     0.047 N 
HETATM    8  C13 UNL     1       1.400   2.083   1.516  1.00  0.00     0.300 A 
HETATM    9  C14 UNL     1       0.434   2.008   0.429  1.00  0.00     0.089 A 
HETATM   10  O2  UNL     1       0.481   3.294  -0.406  1.00  0.00    -0.346 OA
HETATM   11  C15 UNL     1       2.013   3.358  -0.561  1.00  0.00     0.247 C 
HETATM   12  C16 UNL     1       2.335   2.031  -1.180  1.00  0.00     0.139 C 
HETATM   13  F1  UNL     1       1.655   2.142  -2.380  1.00  0.00    -0.207 F 
HETATM   14  C17 UNL     1       2.966   0.901  -0.945  1.00  0.00     0.070 C 
HETATM   15 CL1  UNL     1       2.811  -0.113  -2.436  1.00  0.00    -0.081 Cl
HETATM   16  C18 UNL     1       3.517  -0.201  -0.085  1.00  0.00     0.023 C 
HETATM   17  C19 UNL     1       3.531  -0.547   1.249  1.00  0.00    -0.020 C 
HETATM   18  C20 UNL     1       3.240  -0.439   2.775  1.00  0.00     0.107 C 
ENDROOT
BRANCH   1  19
HETATM   19  C7  UNL     1      -1.164  -0.081   0.226  1.00  0.00     0.314 C 
BRANCH  19  20
HETATM   20  N2  UNL     1      -1.144  -0.686  -1.003  1.00  0.00     0.106 NA
HETATM   21  C3  UNL     1      -2.408  -1.055  -1.576  1.00  0.00     0.314 C 
HETATM   22  C4  UNL     1      -2.124  -2.336  -2.350  1.00  0.00     0.047 C 
HETATM   23  C5  UNL     1      -1.082  -2.990  -1.422  1.00  0.00     0.033 C 
HETATM   24  C6  UNL     1      -0.215  -1.746  -1.169  1.00  0.00     0.274 C 
BRANCH  21  25
HETATM   25  C2  UNL     1      -3.441  -1.365  -0.583  1.00  0.00     0.251 C 
HETATM   26  N1  UNL     1      -4.839  -1.230  -0.561  1.00  0.00    -0.364 N 
HETATM   27  C1  UNL     1      -6.242  -1.171  -0.359  1.00  0.00     0.149 C 
HETATM   28  H4  UNL     1      -4.928  -0.772  -1.554  1.00  0.00     0.161 HD
HETATM   29  O1  UNL     1      -3.256  -1.875   0.592  1.00  0.00    -0.271 OA
ENDBRANCH  21  25
ENDBRANCH  19  20
ENDBRANCH   1  19
TORSDOF 3
