REMARK  3 active torsions:
REMARK  status: ('A' for Active; 'I' for Inactive)
REMARK    1  A    between atoms: C9_10  and  O2_11 
REMARK    2  A    between atoms: O2_11  and  C10_12 
REMARK    3  A    between atoms: C10_12  and  C11_13 
ROOT
HETATM    1  C1  UNL     1      -4.388  -0.221  -0.587  1.00  0.00     0.048 C 
HETATM    2  C2  UNL     1      -3.275   0.032   0.131  1.00  0.00     0.071 C 
HETATM    3  O1  UNL     1      -2.962  -1.148  -0.114  1.00  0.00    -0.349 OA
HETATM    4  C3  UNL     1      -2.629  -2.403  -0.374  1.00  0.00     0.128 C 
HETATM    5  C4  UNL     1      -3.797  -3.383  -0.477  1.00  0.00     0.040 C 
HETATM    6  C5  UNL     1      -1.623  -2.910   0.656  1.00  0.00     0.016 C 
HETATM    7  C6  UNL     1      -1.400  -4.398   0.541  1.00  0.00     0.013 C 
HETATM    8  C7  UNL     1      -0.399  -2.118   0.537  1.00  0.00     0.039 C 
HETATM    9  C8  UNL     1       0.948  -2.075   0.390  1.00  0.00     0.032 C 
HETATM   10  C9  UNL     1       1.459  -0.692   0.357  1.00  0.00     0.044 C 
HETATM   11  C17 UNL     1       0.763   0.400   0.432  1.00  0.00     0.012 C 
HETATM   12  C18 UNL     1      -0.414   1.213   0.546  1.00  0.00     0.033 C 
HETATM   13  C19 UNL     1      -1.602   1.737   0.655  1.00  0.00     0.043 C 
HETATM   14  C20 UNL     1      -1.251   3.163   0.657  1.00  0.00     0.285 C 
HETATM   15  N1  UNL     1      -2.437   3.929   1.044  1.00  0.00     0.112 N 
HETATM   16  C21 UNL     1      -3.543   3.670   0.175  1.00  0.00     0.538 C 
HETATM   17  N2  UNL     1      -3.829   2.294  -0.035  1.00  0.00     0.123 N 
HETATM   18  C22 UNL     1      -3.040   1.361   0.737  1.00  0.00     0.289 C 
HETATM   19  H24 UNL     1      -2.172   4.932   0.960  1.00  0.00     0.318 HD
HETATM   20  H27 UNL     1      -3.929   1.988  -1.028  1.00  0.00     0.319 HD
ENDROOT
BRANCH  10  21
HETATM   21  O2  UNL     1       2.753  -0.220   0.244  1.00  0.00    -0.351 OA
BRANCH  21  22
HETATM   22  C10 UNL     1       3.352   0.118  -0.977  1.00  0.00     0.213 C 
BRANCH  22  23
HETATM   23  C11 UNL     1       4.731   0.619  -0.678  1.00  0.00    -0.034 A 
HETATM   24  C12 UNL     1       5.752  -0.305  -0.637  1.00  0.00     0.009 A 
HETATM   25  C13 UNL     1       7.071   0.072  -0.360  1.00  0.00     0.001 A 
HETATM   26  C14 UNL     1       7.294   1.414  -0.131  1.00  0.00     0.000 A 
HETATM   27  C15 UNL     1       6.272   2.359  -0.168  1.00  0.00     0.001 A 
HETATM   28  C16 UNL     1       4.981   1.963  -0.444  1.00  0.00     0.009 A 
ENDBRANCH  22  23
ENDBRANCH  21  22
ENDBRANCH  10  21
TORSDOF 3
