REMARK  7 active torsions:
REMARK  status: ('A' for Active; 'I' for Inactive)
REMARK    1  A    between atoms: N2_7  and  C5_8 
REMARK    2  A    between atoms: C5_8  and  C6_9 
REMARK    3  A    between atoms: C6_9  and  C7_10 
REMARK    4  A    between atoms: C8_11  and  C9_12 
REMARK    5  A    between atoms: C12_15  and  O2_16 
REMARK    6  A    between atoms: O2_16  and  C13_17 
REMARK    7  A    between atoms: C13_17  and  C14_18 
ROOT
HETATM    1  C7  UNL     1      -0.766  -0.822  -0.364  1.00  0.00    -0.024 C 
HETATM    2  C8  UNL     1       0.243  -0.066  -0.749  1.00  0.00     0.007 C 
ENDROOT
BRANCH   2   3
HETATM    3  C9  UNL     1       1.631  -0.232  -0.315  1.00  0.00    -0.036 A 
HETATM    4  C10 UNL     1       2.594   0.626  -0.791  1.00  0.00     0.014 A 
HETATM    5  C11 UNL     1       3.909   0.504  -0.405  1.00  0.00     0.037 A 
HETATM    6  C12 UNL     1       4.321  -0.475   0.469  1.00  0.00     0.068 A 
HETATM    7  C17 UNL     1       3.333  -1.349   0.952  1.00  0.00     0.037 A 
HETATM    8  C18 UNL     1       1.999  -1.213   0.551  1.00  0.00     0.014 A 
BRANCH   6   9
HETATM    9  O2  UNL     1       5.519  -0.839   1.025  1.00  0.00    -0.350 OA
BRANCH   9  10
HETATM   10  C13 UNL     1       6.755  -0.260   0.840  1.00  0.00     0.188 C 
BRANCH  10  11
HETATM   11  C14 UNL     1       6.831   1.168   1.262  1.00  0.00     0.054 A 
HETATM   12  C15 UNL     1       8.206   1.757   1.053  1.00  0.00    -0.019 A 
HETATM   13  C16 UNL     1       7.168   2.211   0.297  1.00  0.00    -0.019 A 
ENDBRANCH  10  11
ENDBRANCH   9  10
ENDBRANCH   6   9
ENDBRANCH   2   3
BRANCH   1  14
HETATM   14  C6  UNL     1      -2.158  -0.635  -0.816  1.00  0.00     0.047 C 
BRANCH  14  15
HETATM   15  C5  UNL     1      -3.046  -0.362   0.395  1.00  0.00     0.129 C 
BRANCH  15  16
HETATM   16  N2  UNL     1      -4.426  -0.171  -0.008  1.00  0.00    -0.349 N 
HETATM   17  C1  UNL     1      -4.967   1.088  -0.342  1.00  0.00     0.248 C 
HETATM   18  O1  UNL     1      -4.353   2.119  -0.002  1.00  0.00    -0.271 OA
HETATM   19  C2  UNL     1      -6.239   1.291  -1.085  1.00  0.00     0.372 C 
HETATM   20  N1  UNL     1      -6.715   0.001  -1.492  1.00  0.00     0.093 N 
HETATM   21  C3  UNL     1      -6.694  -0.992  -0.455  1.00  0.00     0.290 C 
HETATM   22  H3  UNL     1      -7.583   0.032  -2.057  1.00  0.00     0.316 HD
HETATM   23  C4  UNL     1      -5.292  -1.329  -0.071  1.00  0.00     0.155 C 
ENDBRANCH  15  16
ENDBRANCH  14  15
ENDBRANCH   1  14
TORSDOF 7
