REMARK  5 active torsions:
REMARK  status: ('A' for Active; 'I' for Inactive)
REMARK    1  A    between atoms: C1_2  and  C2_3 
REMARK    2  A    between atoms: C1_2  and  C15_17 
REMARK    3  A    between atoms: C5_6  and  O2_7 
REMARK    4  A    between atoms: O2_7  and  C6_8 
REMARK    5  A    between atoms: C6_8  and  C7_9 
ROOT
HETATM    1  C2  UNL     1      -0.393   0.352   0.069  1.00  0.00     0.012 A 
HETATM    2  C3  UNL     1       0.085  -0.719  -0.650  1.00  0.00     0.018 A 
HETATM    3  C4  UNL     1       1.439  -0.817  -0.822  1.00  0.00     0.038 A 
HETATM    4  C5  UNL     1       2.267   0.138  -0.283  1.00  0.00     0.069 A 
HETATM    5  C13 UNL     1       1.746   1.211   0.441  1.00  0.00     0.038 A 
HETATM    6  C14 UNL     1       0.368   1.346   0.639  1.00  0.00     0.018 A 
ENDROOT
BRANCH   1   7
HETATM    7  C1  UNL     1      -1.805   0.513   0.288  1.00  0.00     0.181 C 
HETATM    8  O1  UNL     1      -2.467   1.403   0.903  1.00  0.00    -0.290 OA
BRANCH   7   9
HETATM    9  C15 UNL     1      -3.142  -0.033   0.055  1.00  0.00     0.152 C 
HETATM   10  C16 UNL     1      -3.298  -1.449   0.587  1.00  0.00     0.034 C 
HETATM   11  C17 UNL     1      -4.652  -1.997   0.286  1.00  0.00     0.022 C 
HETATM   12  C18 UNL     1      -5.677  -1.813   1.353  1.00  0.00     0.114 C 
HETATM   13  N1  UNL     1      -6.163  -0.497   1.536  1.00  0.00    -0.420 N 
HETATM   14  C19 UNL     1      -6.423   0.268   0.371  1.00  0.00     0.133 C 
HETATM   15  H19 UNL     1      -6.003  -0.023   2.412  1.00  0.00     0.153 HD
HETATM   16  C20 UNL     1      -5.265   1.121  -0.080  1.00  0.00     0.133 C 
HETATM   17  N2  UNL     1      -4.085   0.870   0.686  1.00  0.00    -0.409 N 
HETATM   18  H24 UNL     1      -4.209   0.707   1.690  1.00  0.00     0.154 HD
ENDBRANCH   7   9
ENDBRANCH   1   7
BRANCH   4  19
HETATM   19  O2  UNL     1       3.623  -0.013  -0.488  1.00  0.00    -0.347 OA
BRANCH  19  20
HETATM   20  C6  UNL     1       4.493   0.963   0.061  1.00  0.00     0.214 C 
BRANCH  20  21
HETATM   21  C7  UNL     1       5.915   0.648  -0.253  1.00  0.00    -0.034 A 
HETATM   22  C8  UNL     1       6.482   1.147  -1.414  1.00  0.00     0.009 A 
HETATM   23  C9  UNL     1       7.783   0.919  -1.803  1.00  0.00     0.001 A 
HETATM   24  C10 UNL     1       8.568   0.144  -0.980  1.00  0.00     0.000 A 
HETATM   25  C11 UNL     1       8.015  -0.357   0.179  1.00  0.00     0.001 A 
HETATM   26  C12 UNL     1       6.719  -0.138   0.579  1.00  0.00     0.009 A 
ENDBRANCH  20  21
ENDBRANCH  19  20
ENDBRANCH   4  19
TORSDOF 5
