REMARK  7 active torsions:
REMARK  status: ('A' for Active; 'I' for Inactive)
REMARK    1  A    between atoms: C2_2  and  C3_3 
REMARK    2  A    between atoms: C2_2  and  C8_10 
REMARK    3  A    between atoms: C3_3  and  N1_4 
REMARK    4  A    between atoms: C8_10  and  C9_12 
REMARK    5  A    between atoms: C12_15  and  O2_16 
REMARK    6  A    between atoms: O2_16  and  C13_17 
REMARK    7  A    between atoms: C13_17  and  C14_18 
ROOT
HETATM    1  C9  UNL     1      -0.345  -0.261  -0.617  1.00  0.00     0.015 A 
HETATM    2  C10 UNL     1       0.536  -1.051   0.085  1.00  0.00     0.018 A 
HETATM    3  C11 UNL     1       1.890  -0.853   0.219  1.00  0.00     0.038 A 
HETATM    4  C12 UNL     1       2.437   0.235  -0.401  1.00  0.00     0.069 A 
HETATM    5  C20 UNL     1       1.619   1.075  -1.124  1.00  0.00     0.038 A 
HETATM    6  C21 UNL     1       0.273   0.816  -1.216  1.00  0.00     0.018 A 
ENDROOT
BRANCH   1   7
HETATM    7  C8  UNL     1      -1.771  -0.481  -0.754  1.00  0.00     0.189 C 
HETATM    8  O1  UNL     1      -2.384   0.398  -1.455  1.00  0.00    -0.287 OA
BRANCH   7   9
HETATM    9  C2  UNL     1      -2.598  -1.541  -0.217  1.00  0.00     0.001 C 
HETATM   10  C1  UNL     1      -2.175  -2.544   0.528  1.00  0.00     0.024 C 
BRANCH   9  11
HETATM   11  C3  UNL     1      -4.050  -1.545  -0.506  1.00  0.00     0.159 C 
BRANCH  11  12
HETATM   12  N1  UNL     1      -4.733  -0.395  -0.041  1.00  0.00    -0.405 N 
HETATM   13  C4  UNL     1      -4.855  -0.216   1.360  1.00  0.00     0.147 C 
HETATM   14  C5  UNL     1      -5.263   1.196   1.728  1.00  0.00     0.289 C 
HETATM   15  N2  UNL     1      -6.553   1.431   1.097  1.00  0.00     0.086 N 
HETATM   16  C6  UNL     1      -6.398   1.378  -0.321  1.00  0.00     0.289 C 
HETATM   17  H9  UNL     1      -7.239   0.728   1.434  1.00  0.00     0.316 HD
HETATM   18  C7  UNL     1      -5.798   0.095  -0.844  1.00  0.00     0.147 C 
ENDBRANCH  11  12
ENDBRANCH   9  11
ENDBRANCH   7   9
ENDBRANCH   1   7
BRANCH   4  19
HETATM   19  O2  UNL     1       3.777   0.591  -0.375  1.00  0.00    -0.347 OA
BRANCH  19  20
HETATM   20  C13 UNL     1       4.670  -0.230   0.351  1.00  0.00     0.214 C 
BRANCH  20  21
HETATM   21  C14 UNL     1       6.060   0.297   0.273  1.00  0.00    -0.034 A 
HETATM   22  C15 UNL     1       6.674   1.198   1.124  1.00  0.00     0.009 A 
HETATM   23  C16 UNL     1       7.979   1.580   0.900  1.00  0.00     0.001 A 
HETATM   24  C17 UNL     1       8.696   1.078  -0.167  1.00  0.00     0.000 A 
HETATM   25  C18 UNL     1       8.131   0.174  -1.049  1.00  0.00     0.001 A 
HETATM   26  C19 UNL     1       6.823  -0.187  -0.795  1.00  0.00     0.009 A 
ENDBRANCH  20  21
ENDBRANCH  19  20
ENDBRANCH   4  19
TORSDOF 7
