REMARK  4 active torsions:
REMARK  status: ('A' for Active; 'I' for Inactive)
REMARK    1  A    between atoms: N1_2  and  C3_4 
REMARK    2  A    between atoms: C3_4  and  C4_5 
REMARK    3  A    between atoms: C4_5  and  C5_6 
REMARK    4  A    between atoms: C6_7  and  O1_8 
ROOT
HETATM    1  C5  UNL     1       0.831   0.248  -0.245  1.00  0.00    -0.049 C 
HETATM    2  C6  UNL     1      -0.249   1.052  -0.060  1.00  0.00     0.050 C 
HETATM    3  C7  UNL     1      -1.468   1.396  -0.807  1.00  0.00     0.103 C 
HETATM    4  C8  UNL     1      -2.757   1.068  -0.197  1.00  0.00    -0.044 A 
HETATM    5  C9  UNL     1      -3.700   2.105  -0.290  1.00  0.00     0.008 A 
HETATM    6  C10 UNL     1      -4.997   2.093   0.168  1.00  0.00     0.001 A 
HETATM    7  C11 UNL     1      -5.464   0.955   0.793  1.00  0.00     0.001 A 
HETATM    8  C12 UNL     1      -4.582  -0.096   0.914  1.00  0.00     0.010 A 
HETATM    9  C13 UNL     1      -3.297  -0.042   0.444  1.00  0.00    -0.028 A 
HETATM   10  C14 UNL     1      -2.435  -1.243   0.663  1.00  0.00     0.206 C 
HETATM   11  O2  UNL     1      -1.521  -1.238  -0.370  1.00  0.00    -0.387 OA
HETATM   12  C15 UNL     1      -0.499  -2.168  -0.210  1.00  0.00     0.168 C 
HETATM   13  C16 UNL     1       0.506  -1.952  -1.347  1.00  0.00     0.030 C 
HETATM   14  C17 UNL     1       0.699  -0.455  -1.537  1.00  0.00     0.039 C 
ENDROOT
BRANCH   1  15
HETATM   15  C4  UNL     1       1.876   0.178   0.766  1.00  0.00     0.056 C 
BRANCH  15  16
HETATM   16  C3  UNL     1       3.240   0.618   0.343  1.00  0.00     0.120 C 
BRANCH  16  17
HETATM   17  N1  UNL     1       3.865  -0.064  -0.701  1.00  0.00    -0.421 N 
HETATM   18  C1  UNL     1       4.305  -1.388  -0.546  1.00  0.00     0.142 C 
HETATM   19  C2  UNL     1       4.432   0.697  -1.756  1.00  0.00     0.142 C 
ENDBRANCH  16  17
ENDBRANCH  15  16
ENDBRANCH   1  15
BRANCH   2  20
HETATM   20  O1  UNL     1      -0.246   1.768   1.156  1.00  0.00    -0.364 OA
HETATM   21  H11 UNL     1      -0.428   1.323   2.038  1.00  0.00     0.217 HD
ENDBRANCH   2  20
TORSDOF 4
