REMARK  4 active torsions:
REMARK  status: ('A' for Active; 'I' for Inactive)
REMARK    1  A    between atoms: C2_2  and  C3_3 
REMARK    2  A    between atoms: C3_3  and  C5_5 
REMARK    3  A    between atoms: C5_5  and  C6_6 
REMARK    4  A    between atoms: C7_7  and  C8_9 
ROOT
HETATM    1  C8  UNL     1      -0.947  -0.073  -1.118  1.00  0.00     0.007 A 
HETATM    2  C9  UNL     1      -0.960   0.214  -2.400  1.00  0.00     0.014 A 
HETATM    3  C10 UNL     1      -2.126   0.735  -3.137  1.00  0.00     0.204 A 
HETATM    4  O2  UNL     1      -3.273   0.913  -2.317  1.00  0.00    -0.347 OA
HETATM    5  C11 UNL     1      -3.257   0.609  -0.968  1.00  0.00     0.080 A 
HETATM    6  C12 UNL     1      -2.166   0.145  -0.401  1.00  0.00     0.016 A 
HETATM    7  C13 UNL     1      -2.100  -0.190   0.994  1.00  0.00    -0.044 C 
HETATM    8  C14 UNL     1      -1.059  -0.905   1.367  1.00  0.00     0.044 C 
HETATM    9  C15 UNL     1      -2.971   0.102   2.139  1.00  0.00     0.008 C 
HETATM   10  C16 UNL     1      -4.228   0.569   2.044  1.00  0.00     0.001 C 
HETATM   11  C17 UNL     1      -4.995   0.886   0.838  1.00  0.00     0.003 C 
HETATM   12  C18 UNL     1      -4.595   0.905  -0.435  1.00  0.00     0.037 C 
ENDROOT
BRANCH   1  13
HETATM   13  C7  UNL     1       0.256  -0.584  -0.477  1.00  0.00     0.079 A 
HETATM   14  C6  UNL     1       1.436  -0.750  -1.344  1.00  0.00     0.212 A 
HETATM   15  O1  UNL     1       1.214  -1.018   0.154  1.00  0.00    -0.348 OA
BRANCH  14  16
HETATM   16  C5  UNL     1       2.757  -0.984  -0.736  1.00  0.00     0.039 C 
BRANCH  16  17
HETATM   17  C3  UNL     1       3.380   0.065   0.101  1.00  0.00     0.005 C 
HETATM   18  C4  UNL     1       4.804  -0.367   0.476  1.00  0.00     0.014 C 
BRANCH  17  19
HETATM   19  C2  UNL     1       2.701   0.531   1.314  1.00  0.00    -0.033 C 
HETATM   20  C1  UNL     1       3.290   0.405   2.521  1.00  0.00     0.007 C 
ENDBRANCH  17  19
ENDBRANCH  16  17
ENDBRANCH  14  16
ENDBRANCH   1  13
TORSDOF 4
