REMARK  8 active torsions:
REMARK  status: ('A' for Active; 'I' for Inactive)
REMARK    1  A    between atoms: C2_2  and  C3_3 
REMARK    2  A    between atoms: C2_2  and  C7_9 
REMARK    3  A    between atoms: C3_3  and  C4_4 
REMARK    4  A    between atoms: C4_4  and  N1_5 
REMARK    5  A    between atoms: N1_5  and  C6_7 
REMARK    6  A    between atoms: C10_12  and  O2_13 
REMARK    7  A    between atoms: O2_13  and  C11_14 
REMARK    8  A    between atoms: C11_14  and  C12_15 
ROOT
HETATM    1  C7  UNL     1      -0.693  -0.228   0.030  1.00  0.00    -0.034 A 
HETATM    2  C8  UNL     1      -0.349   0.143   1.315  1.00  0.00     0.014 A 
HETATM    3  C9  UNL     1       1.001   0.050   1.693  1.00  0.00     0.037 A 
HETATM    4  C10 UNL     1       1.988  -0.406   0.805  1.00  0.00     0.068 A 
HETATM    5  C17 UNL     1       1.517  -0.742  -0.431  1.00  0.00     0.037 A 
HETATM    6  C18 UNL     1       0.226  -0.682  -0.886  1.00  0.00     0.014 A 
ENDROOT
BRANCH   1   7
HETATM    7  C2  UNL     1      -2.076  -0.165  -0.458  1.00  0.00    -0.068 C 
HETATM    8  C1  UNL     1      -2.481  -0.503  -1.671  1.00  0.00     0.039 C 
BRANCH   7   9
HETATM    9  C3  UNL     1      -3.212   0.308   0.407  1.00  0.00     0.055 C 
BRANCH   9  10
HETATM   10  C4  UNL     1      -4.437   0.220  -0.459  1.00  0.00     0.129 C 
BRANCH  10  11
HETATM   11  N1  UNL     1      -5.659   0.625   0.160  1.00  0.00    -0.363 N 
HETATM   12  C5  UNL     1      -6.329   1.897   0.250  1.00  0.00     0.152 C 
BRANCH  11  13
HETATM   13  C6  UNL     1      -6.454  -0.334   0.852  1.00  0.00     0.350 C 
HETATM   14  O1  UNL     1      -5.748  -1.363   0.684  1.00  0.00    -0.284 OA
ENDBRANCH  11  13
ENDBRANCH  10  11
ENDBRANCH   9  10
ENDBRANCH   7   9
ENDBRANCH   1   7
BRANCH   4  15
HETATM   15  O2  UNL     1       3.132  -0.373   1.469  1.00  0.00    -0.350 OA
BRANCH  15  16
HETATM   16  C11 UNL     1       4.455  -0.606   1.351  1.00  0.00     0.188 C 
BRANCH  16  17
HETATM   17  C12 UNL     1       5.166   0.280   0.393  1.00  0.00     0.055 A 
HETATM   18  C13 UNL     1       4.747   0.267  -1.002  1.00  0.00    -0.016 A 
HETATM   19  C14 UNL     1       5.759  -0.079  -1.817  1.00  0.00    -0.004 A 
HETATM   20  C15 UNL     1       6.966  -0.330  -0.999  1.00  0.00    -0.004 A 
HETATM   21  C16 UNL     1       6.617  -0.122   0.261  1.00  0.00    -0.016 A 
ENDBRANCH  16  17
ENDBRANCH  15  16
ENDBRANCH   4  15
TORSDOF 8
