REMARK  6 active torsions:
REMARK  status: ('A' for Active; 'I' for Inactive)
REMARK    1  A    between atoms: C3_3  and  C4_4 
REMARK    2  A    between atoms: C11_12  and  C12_13 
REMARK    3  A    between atoms: C13_14  and  C14_15 
REMARK    4  A    between atoms: C14_15  and  C15_16 
REMARK    5  A    between atoms: C15_16  and  N1_17 
REMARK    6  A    between atoms: C20_23  and  O3_24 
ROOT
HETATM    1  C4  UNL     1       3.452  -0.157  -0.786  1.00  0.00     0.011 C 
HETATM    2  C5  UNL     1       2.614  -1.153  -0.446  1.00  0.00    -0.005 C 
HETATM    3  C6  UNL     1       3.250  -2.452  -0.707  1.00  0.00     0.210 C 
HETATM    4  O1  UNL     1       2.785  -3.442  -1.525  1.00  0.00    -0.372 OA
HETATM    5  C7  UNL     1       1.636  -4.264  -1.328  1.00  0.00     0.102 A 
HETATM    6  C8  UNL     1       0.940  -3.459  -0.578  1.00  0.00     0.035 A 
HETATM    7  C9  UNL     1       0.120  -2.793   0.170  1.00  0.00     0.048 A 
HETATM    8  C10 UNL     1      -0.768  -2.316   0.862  1.00  0.00    -0.025 A 
HETATM    9  C11 UNL     1      -0.459  -3.638   0.068  1.00  0.00     0.008 A 
HETATM   10  C12 UNL     1       0.331  -4.511  -0.765  1.00  0.00     0.036 A 
HETATM   11  C13 UNL     1       0.187  -1.057   0.563  1.00  0.00     0.020 A 
HETATM   12  C20 UNL     1       1.391  -0.521   0.104  1.00  0.00     0.061 C 
ENDROOT
BRANCH  11  13
HETATM   13  C14 UNL     1      -0.869  -0.103   1.060  1.00  0.00     0.047 C 
BRANCH  13  14
HETATM   14  C15 UNL     1      -2.142  -0.171   0.305  1.00  0.00     0.273 C 
BRANCH  14  15
HETATM   15  N1  UNL     1      -3.133   0.752   0.806  1.00  0.00     0.092 N 
HETATM   16  C16 UNL     1      -4.392   0.607   0.064  1.00  0.00     0.298 C 
HETATM   17  C17 UNL     1      -5.242   1.864   0.259  1.00  0.00     0.198 C 
HETATM   18  O2  UNL     1      -4.988   2.440   1.491  1.00  0.00    -0.388 OA
HETATM   19  C18 UNL     1      -3.709   2.934   1.631  1.00  0.00     0.198 C 
HETATM   20  C19 UNL     1      -2.788   2.134   0.733  1.00  0.00     0.298 C 
ENDBRANCH  14  15
ENDBRANCH  13  14
ENDBRANCH  11  13
BRANCH  12  21
HETATM   21  O3  UNL     1       1.304   0.846   0.239  1.00  0.00    -0.363 OA
HETATM   22  H25 UNL     1       1.535   1.305   1.132  1.00  0.00     0.217 HD
ENDBRANCH  12  21
BRANCH   1  23
HETATM   23  C3  UNL     1       3.418   1.309  -0.772  1.00  0.00    -0.004 C 
HETATM   24  C2  UNL     1       4.423   2.062  -1.181  1.00  0.00    -0.031 C 
HETATM   25  C1  UNL     1       4.948   3.414  -1.394  1.00  0.00     0.036 C 
ENDBRANCH   1  23
TORSDOF 6
