REMARK  1 active torsions:
REMARK  status: ('A' for Active; 'I' for Inactive)
REMARK    1  A    between atoms: C2_2  and  C3_3 
ROOT
HETATM    1  C3  UNL     1       2.423  -0.028   0.083  1.00  0.00     0.043 C 
HETATM    2  C4  UNL     1       1.517  -1.218  -0.071  1.00  0.00    -0.021 C 
HETATM    3  C5  UNL     1       0.481  -1.764   0.515  1.00  0.00    -0.025 C 
HETATM    4  C6  UNL     1      -0.624  -2.716   0.792  1.00  0.00     0.065 C 
HETATM    5  C7  UNL     1      -1.941  -1.986   0.743  1.00  0.00    -0.051 A 
HETATM    6  C8  UNL     1      -3.100  -2.397   1.348  1.00  0.00     0.034 A 
HETATM    7  C9  UNL     1      -4.233  -1.630   1.233  1.00  0.00     0.075 A 
HETATM    8 CL1  UNL     1      -5.690  -2.180   2.013  1.00  0.00    -0.081 Cl
HETATM    9  C10 UNL     1      -4.208  -0.459   0.518  1.00  0.00     0.164 A 
HETATM   10  F1  UNL     1      -5.267   0.354   0.345  1.00  0.00    -0.202 F 
HETATM   11  C11 UNL     1      -3.078  -0.012  -0.099  1.00  0.00     0.070 A 
HETATM   12  C12 UNL     1      -1.930  -0.785   0.013  1.00  0.00     0.039 A 
HETATM   13  N1  UNL     1      -2.951   1.211  -0.860  1.00  0.00    -0.369 N 
HETATM   14  C13 UNL     1      -1.933   2.033  -0.233  1.00  0.00     0.272 C 
HETATM   15  N2  UNL     1      -1.637   3.245  -0.978  1.00  0.00    -0.263 NA
HETATM   16  C14 UNL     1      -0.365   3.401  -1.288  1.00  0.00     0.229 C 
HETATM   17  N3  UNL     1       0.472   2.346  -0.830  1.00  0.00    -0.242 NA
HETATM   18  C15 UNL     1       1.450   1.878  -1.501  1.00  0.00     0.065 A 
HETATM   19  C16 UNL     1       2.527   1.431  -2.344  1.00  0.00     0.042 A 
HETATM   20  C17 UNL     1       2.337   0.831  -1.136  1.00  0.00    -0.019 A 
HETATM   21  H13 UNL     1      -3.668   1.012  -1.584  1.00  0.00     0.161 HD
ENDROOT
BRANCH   1  22
HETATM   22  C2  UNL     1       3.819  -0.537   0.303  1.00  0.00     0.009 C 
HETATM   23  C1  UNL     1       4.716   0.653   0.459  1.00  0.00     0.006 C 
ENDBRANCH   1  22
TORSDOF 1
