REMARK  5 active torsions:
REMARK  status: ('A' for Active; 'I' for Inactive)
REMARK    1  A    between atoms: C9_10  and  C10_11 
REMARK    2  A    between atoms: C10_11  and  C12_13 
REMARK    3  A    between atoms: C12_13  and  C13_14 
REMARK    4  A    between atoms: C13_14  and  N1_15 
REMARK    5  A    between atoms: N1_15  and  B1_17 
ROOT
HETATM    1  C1  UNL     1      -1.062  -3.507   2.265  1.00  0.00     0.050 C 
HETATM    2  C2  UNL     1      -1.893  -2.466   2.120  1.00  0.00    -0.030 C 
HETATM    3  C3  UNL     1      -3.283  -1.935   2.606  1.00  0.00    -0.025 C 
HETATM    4  C4  UNL     1      -4.051  -0.808   2.236  1.00  0.00    -0.028 C 
HETATM    5  C5  UNL     1      -4.073   0.315   1.371  1.00  0.00     0.053 C 
HETATM    6  C6  UNL     1      -4.138   1.763   1.774  1.00  0.00     0.171 C 
HETATM    7  O1  UNL     1      -3.365   2.443   0.649  1.00  0.00    -0.390 OA
HETATM    8  C7  UNL     1      -2.063   2.002   0.964  1.00  0.00     0.173 C 
HETATM    9  C8  UNL     1      -1.048   1.584   0.065  1.00  0.00     0.054 C 
HETATM   10  C9  UNL     1      -0.402   0.329  -0.028  1.00  0.00    -0.039 C 
HETATM   11  C16 UNL     1      -0.234  -1.207   0.452  1.00  0.00     0.011 C 
HETATM   12  C17 UNL     1      -1.296  -1.281   1.424  1.00  0.00    -0.010 C 
HETATM   13  C18 UNL     1      -1.062  -0.399   2.665  1.00  0.00     0.010 C 
ENDROOT
BRANCH  10  14
HETATM   14  C10 UNL     1       0.563   0.509  -1.146  1.00  0.00    -0.013 C 
HETATM   15  C11 UNL     1       0.348  -0.506  -2.252  1.00  0.00     0.010 C 
BRANCH  14  16
HETATM   16  C12 UNL     1       2.018   0.321  -0.714  1.00  0.00     0.018 C 
BRANCH  16  17
HETATM   17  C13 UNL     1       2.842   0.570  -1.964  1.00  0.00     0.073 C 
BRANCH  17  18
HETATM   18  N1  UNL     1       4.254   0.432  -1.723  1.00  0.00    -0.367 NA
HETATM   19  C14 UNL     1       4.782   1.475  -0.878  1.00  0.00     0.092 C 
BRANCH  18  20
HETATM   20  B1  UNL     1       4.943   0.418  -3.096  1.00  0.00     0.236 B 
HETATM   21  C15 UNL     1       4.143  -0.289  -4.289  1.00  0.00    -0.040 C 
HETATM   22  H23 UNL     1       6.117   0.156  -3.021  1.00  0.00    -0.008 HD
ENDBRANCH  18  20
ENDBRANCH  17  18
ENDBRANCH  16  17
ENDBRANCH  14  16
ENDBRANCH  10  14
TORSDOF 5
