REMARK  10 active torsions:
REMARK  status: ('A' for Active; 'I' for Inactive)
REMARK    1  A    between atoms: C6_7  and  C7_8 
REMARK    2  A    between atoms: C7_8  and  C8_9 
REMARK    3  A    between atoms: C8_9  and  C9_10 
REMARK    4  A    between atoms: C8_9  and  C18_22 
REMARK    5  A    between atoms: C10_11  and  C11_12 
REMARK    6  A    between atoms: C11_12  and  C12_13 
REMARK    7  A    between atoms: C12_13  and  C13_15 
REMARK    8  A    between atoms: C13_15  and  C14_16 
REMARK    9  A    between atoms: C14_16  and  N1_17 
REMARK   10  A    between atoms: C18_22  and  O3_23 
ROOT
HETATM    1  C8  UNL     1      -2.680   1.775  -0.639  1.00  0.00     0.036 C 
ENDROOT
BRANCH   1   2
HETATM    2  C7  UNL     1      -3.846   1.142   0.056  1.00  0.00     0.049 C 
BRANCH   2   3
HETATM    3  C6  UNL     1      -3.453  -0.000   0.884  1.00  0.00    -0.054 C 
HETATM    4  C2  UNL     1      -2.938  -1.279   0.403  1.00  0.00    -0.044 C 
HETATM    5  C1  UNL     1      -3.441  -1.777  -0.928  1.00  0.00     0.049 C 
HETATM    6  C3  UNL     1      -2.104  -2.112   0.942  1.00  0.00    -0.008 C 
HETATM    7  P1  UNL     1      -2.349  -2.304   2.554  1.00  0.00    -0.045 P 
HETATM    8  C4  UNL     1      -3.380  -0.949   3.313  1.00  0.00     0.072 C 
HETATM    9  C5  UNL     1      -3.607   0.018   2.216  1.00  0.00    -0.014 C 
ENDBRANCH   2   3
ENDBRANCH   1   2
BRANCH   1  10
HETATM   10  C9  UNL     1      -1.948   0.874  -1.525  1.00  0.00    -0.023 C 
HETATM   11  C10 UNL     1      -0.634   0.631  -1.319  1.00  0.00    -0.023 C 
BRANCH  11  12
HETATM   12  C11 UNL     1       0.401   1.053  -0.362  1.00  0.00     0.105 C 
BRANCH  12  13
HETATM   13  C12 UNL     1       0.958  -0.117   0.352  1.00  0.00     0.132 C 
HETATM   14  O1  UNL     1       0.546  -0.429   1.455  1.00  0.00    -0.298 OA
BRANCH  13  15
HETATM   15  C13 UNL     1       2.056  -0.939  -0.287  1.00  0.00     0.109 C 
BRANCH  15  16
HETATM   16  C14 UNL     1       3.377  -0.218  -0.176  1.00  0.00     0.282 C 
BRANCH  16  17
HETATM   17  N1  UNL     1       4.490  -0.948  -0.746  1.00  0.00     0.113 N 
HETATM   18  C15 UNL     1       5.679  -0.088  -0.615  1.00  0.00     0.301 C 
HETATM   19  C16 UNL     1       6.749  -1.105  -0.289  1.00  0.00     0.200 C 
HETATM   20  O2  UNL     1       6.069  -1.929   0.600  1.00  0.00    -0.361 OA
HETATM   21  C17 UNL     1       4.821  -2.123   0.041  1.00  0.00     0.440 C 
ENDBRANCH  16  17
ENDBRANCH  15  16
ENDBRANCH  13  15
ENDBRANCH  12  13
ENDBRANCH  11  12
ENDBRANCH   1  10
BRANCH   1  22
HETATM   22  C18 UNL     1      -3.201   2.997  -1.438  1.00  0.00     0.172 C 
BRANCH  22  23
HETATM   23  O3  UNL     1      -3.798   3.927  -0.571  1.00  0.00    -0.400 OA
HETATM   24  H26 UNL     1      -3.081   4.524  -0.244  1.00  0.00     0.209 HD
ENDBRANCH  22  23
ENDBRANCH   1  22
TORSDOF 10
