REMARK  7 active torsions:
REMARK  status: ('A' for Active; 'I' for Inactive)
REMARK    1  A    between atoms: C1_2  and  C2_3 
REMARK    2  A    between atoms: C1_2  and  C8_11 
REMARK    3  A    between atoms: C2_3  and  C3_4 
REMARK    4  A    between atoms: C3_4  and  N1_5 
REMARK    5  A    between atoms: C11_14  and  O3_15 
REMARK    6  A    between atoms: O3_15  and  C12_16 
REMARK    7  A    between atoms: C12_16  and  C13_17 
ROOT
HETATM    1  C8  UNL     1      -0.073   0.474   0.390  1.00  0.00     0.010 A 
HETATM    2  C9  UNL     1       0.398   1.590   1.048  1.00  0.00     0.018 A 
HETATM    3  C10 UNL     1       1.680   2.058   0.734  1.00  0.00     0.037 A 
HETATM    4  C11 UNL     1       2.496   1.431  -0.223  1.00  0.00     0.069 A 
HETATM    5  C19 UNL     1       1.937   0.328  -0.822  1.00  0.00     0.037 A 
HETATM    6  C20 UNL     1       0.696  -0.177  -0.560  1.00  0.00     0.018 A 
ENDROOT
BRANCH   1   7
HETATM    7  C1  UNL     1      -1.381  -0.138   0.588  1.00  0.00     0.161 C 
HETATM    8  O1  UNL     1      -1.832  -1.166   0.012  1.00  0.00    -0.292 OA
BRANCH   7   9
HETATM    9  C2  UNL     1      -2.474   0.314   1.512  1.00  0.00     0.114 C 
BRANCH   9  10
HETATM   10  C3  UNL     1      -3.615  -0.648   1.356  1.00  0.00     0.280 C 
BRANCH  10  11
HETATM   11  N1  UNL     1      -4.121  -0.701   0.027  1.00  0.00     0.092 N 
HETATM   12  C4  UNL     1      -4.809   0.474  -0.437  1.00  0.00     0.298 C 
HETATM   13  C5  UNL     1      -6.311   0.373  -0.271  1.00  0.00     0.198 C 
HETATM   14  O2  UNL     1      -6.703  -0.516   0.717  1.00  0.00    -0.388 OA
HETATM   15  C6  UNL     1      -6.266  -1.811   0.485  1.00  0.00     0.198 C 
HETATM   16  C7  UNL     1      -4.954  -1.845  -0.268  1.00  0.00     0.298 C 
ENDBRANCH  10  11
ENDBRANCH   9  10
ENDBRANCH   7   9
ENDBRANCH   1   7
BRANCH   4  17
HETATM   17  O3  UNL     1       3.649   2.125  -0.284  1.00  0.00    -0.347 OA
BRANCH  17  18
HETATM   18  C12 UNL     1       4.800   1.977  -1.025  1.00  0.00     0.214 C 
BRANCH  18  19
HETATM   19  C13 UNL     1       5.461   0.702  -0.756  1.00  0.00    -0.034 A 
HETATM   20  C14 UNL     1       6.293   0.782   0.372  1.00  0.00     0.009 A 
HETATM   21  C15 UNL     1       7.030  -0.319   0.791  1.00  0.00     0.001 A 
HETATM   22  C16 UNL     1       6.983  -1.526   0.134  1.00  0.00     0.000 A 
HETATM   23  C17 UNL     1       6.162  -1.615  -0.983  1.00  0.00     0.001 A 
HETATM   24  C18 UNL     1       5.448  -0.512  -1.373  1.00  0.00     0.009 A 
ENDBRANCH  18  19
ENDBRANCH  17  18
ENDBRANCH   4  17
TORSDOF 7
