REMARK  6 active torsions:
REMARK  status: ('A' for Active; 'I' for Inactive)
REMARK    1  A    between atoms: C7_7  and  O1_8 
REMARK    2  A    between atoms: O1_8  and  C8_9 
REMARK    3  A    between atoms: C11_12  and  C12_13 
REMARK    4  A    between atoms: C12_13  and  C13_15 
REMARK    5  A    between atoms: C13_15  and  C14_16 
REMARK    6  A    between atoms: C14_16  and  N1_17 
ROOT
HETATM    1  C8  UNL     1       2.276   1.026  -0.150  1.00  0.00     0.058 A 
HETATM    2  C9  UNL     1       2.055   2.112  -0.867  1.00  0.00     0.034 A 
HETATM    3  C10 UNL     1       0.582   2.241  -0.883  1.00  0.00     0.013 A 
HETATM    4  C11 UNL     1      -0.026   1.259  -0.197  1.00  0.00    -0.006 A 
HETATM    5  C19 UNL     1       1.051   0.365   0.352  1.00  0.00     0.107 A 
ENDROOT
BRANCH   4   6
HETATM    6  C12 UNL     1      -1.511   1.224  -0.103  1.00  0.00     0.157 C 
HETATM    7  O2  UNL     1      -2.071   2.174  -0.713  1.00  0.00    -0.293 OA
BRANCH   6   8
HETATM    8  C13 UNL     1      -1.887   0.057   0.698  1.00  0.00     0.103 C 
BRANCH   8   9
HETATM    9  C14 UNL     1      -3.324  -0.234   0.896  1.00  0.00     0.124 C 
BRANCH   9  10
HETATM   10  N1  UNL     1      -4.139  -0.533  -0.206  1.00  0.00    -0.408 N 
HETATM   11  C15 UNL     1      -4.490   0.420  -1.161  1.00  0.00     0.143 C 
HETATM   12  C16 UNL     1      -5.874   0.071  -1.741  1.00  0.00     0.187 C 
HETATM   13  O3  UNL     1      -6.812   0.029  -0.732  1.00  0.00    -0.388 OA
HETATM   14  C17 UNL     1      -6.517  -0.952   0.216  1.00  0.00     0.187 C 
HETATM   15  C18 UNL     1      -5.135  -1.528  -0.015  1.00  0.00     0.143 C 
ENDBRANCH   9  10
ENDBRANCH   8   9
ENDBRANCH   6   8
ENDBRANCH   4   6
BRANCH   1  16
HETATM   16  O1  UNL     1       3.386   0.345   0.253  1.00  0.00    -0.314 OA
BRANCH  16  17
HETATM   17  C7  UNL     1       4.554   0.118  -0.408  1.00  0.00     0.081 A 
HETATM   18  C2  UNL     1       5.419  -0.627   0.389  1.00  0.00    -0.028 A 
HETATM   19  C1  UNL     1       5.147  -1.128   1.771  1.00  0.00     0.051 C 
HETATM   20  C3  UNL     1       6.692  -1.000  -0.052  1.00  0.00     0.009 A 
HETATM   21  C4  UNL     1       7.110  -0.620  -1.315  1.00  0.00     0.001 A 
HETATM   22  C5  UNL     1       6.262   0.121  -2.118  1.00  0.00     0.003 A 
HETATM   23  C6  UNL     1       5.004   0.478  -1.657  1.00  0.00     0.038 A 
ENDBRANCH  16  17
ENDBRANCH   1  16
TORSDOF 6
