REMARK  10 active torsions:
REMARK  status: ('A' for Active; 'I' for Inactive)
REMARK    1  A    between atoms: C2_2  and  N1_3 
REMARK    2  A    between atoms: N1_3  and  C3_4 
REMARK    3  A    between atoms: N1_3  and  C5_8 
REMARK    4  A    between atoms: C3_4  and  C4_5 
REMARK    5  A    between atoms: C4_5  and  P1_6 
REMARK    6  A    between atoms: C5_8  and  C6_9 
REMARK    7  A    between atoms: C6_9  and  C7_10 
REMARK    8  A    between atoms: C8_11  and  C9_12 
REMARK    9  A    between atoms: C9_12  and  C10_13 
REMARK   10  A    between atoms: C15_18  and  O2_19 
ROOT
HETATM    1  C7  UNL     1      -0.178  -0.914   0.873  1.00  0.00    -0.072 C 
HETATM    2  C8  UNL     1      -1.314  -1.221   0.263  1.00  0.00    -0.070 C 
HETATM    3  C16 UNL     1      -2.079  -2.389   0.797  1.00  0.00     0.061 C 
HETATM    4  C17 UNL     1      -1.115  -3.512   1.081  1.00  0.00    -0.026 C 
HETATM    5  C18 UNL     1       0.030  -3.239   1.696  1.00  0.00    -0.026 C 
HETATM    6  C19 UNL     1       0.163  -1.794   2.010  1.00  0.00     0.061 C 
ENDROOT
BRANCH   1   7
HETATM    7  C6  UNL     1       0.725   0.184   0.518  1.00  0.00     0.054 C 
BRANCH   7   8
HETATM    8  C5  UNL     1       2.090  -0.356   0.156  1.00  0.00     0.126 C 
BRANCH   8   9
HETATM    9  N1  UNL     1       3.011   0.705  -0.202  1.00  0.00    -0.390 N 
BRANCH   9  10
HETATM   10  C2  UNL     1       2.673   2.083  -0.213  1.00  0.00     0.075 C 
HETATM   11  C1  UNL     1       2.720   2.978   0.786  1.00  0.00     0.029 C 
ENDBRANCH   9  10
BRANCH   9  12
HETATM   12  C3  UNL     1       4.351   0.279  -0.565  1.00  0.00     0.129 C 
BRANCH  12  13
HETATM   13  C4  UNL     1       5.267   1.408  -0.927  1.00  0.00     0.093 C 
BRANCH  13  14
HETATM   14  P1  UNL     1       6.927   0.658  -1.359  1.00  0.00     0.124 P 
HETATM   15  O1  UNL     1       7.992   1.438  -2.155  1.00  0.00    -0.203 OA
ENDBRANCH  13  14
ENDBRANCH  12  13
ENDBRANCH   9  12
ENDBRANCH   8   9
ENDBRANCH   7   8
ENDBRANCH   1   7
BRANCH   2  16
HETATM   16  C9  UNL     1      -1.929  -0.534  -0.905  1.00  0.00     0.076 C 
BRANCH  16  17
HETATM   17  C10 UNL     1      -3.266  -0.005  -0.528  1.00  0.00    -0.021 A 
HETATM   18  C11 UNL     1      -4.424  -0.635  -0.928  1.00  0.00     0.010 A 
HETATM   19  C12 UNL     1      -5.676  -0.163  -0.589  1.00  0.00     0.001 A 
HETATM   20  C13 UNL     1      -5.774   0.980   0.177  1.00  0.00     0.003 A 
HETATM   21  C14 UNL     1      -4.613   1.609   0.576  1.00  0.00     0.037 A 
HETATM   22  C15 UNL     1      -3.331   1.153   0.247  1.00  0.00     0.072 A 
BRANCH  22  23
HETATM   23  O2  UNL     1      -2.201   1.840   0.685  1.00  0.00    -0.360 OA
HETATM   24  H18 UNL     1      -2.013   2.802   0.430  1.00  0.00     0.217 HD
ENDBRANCH  22  23
ENDBRANCH  16  17
ENDBRANCH   2  16
TORSDOF 10
