REMARK  8 active torsions:
REMARK  status: ('A' for Active; 'I' for Inactive)
REMARK    1  A    between atoms: C2_2  and  S1_3 
REMARK    2  A    between atoms: S1_3  and  C4_5 
REMARK    3  A    between atoms: C4_5  and  C5_6 
REMARK    4  A    between atoms: C5_6  and  C6_8 
REMARK    5  A    between atoms: C6_8  and  P1_9 
REMARK    6  A    between atoms: C9_12  and  O2_13 
REMARK    7  A    between atoms: O2_13  and  C10_14 
REMARK    8  A    between atoms: C10_14  and  C11_15 
ROOT
HETATM    1  P1  UNL     1      -0.659  -1.981  -0.785  1.00  0.00    -0.044 P 
HETATM    2  C7  UNL     1      -0.506  -0.323  -0.925  1.00  0.00     0.017 A 
HETATM    3  C8  UNL     1       0.825   0.277  -0.916  1.00  0.00     0.038 A 
HETATM    4  C9  UNL     1       1.917  -0.471  -0.796  1.00  0.00     0.069 A 
HETATM    5  C17 UNL     1       2.028  -1.919  -0.659  1.00  0.00     0.038 A 
HETATM    6  C18 UNL     1       0.962  -2.724  -0.637  1.00  0.00     0.017 A 
ENDROOT
BRANCH   1   7
HETATM    7  C6  UNL     1      -2.015  -2.350   0.067  1.00  0.00     0.065 C 
BRANCH   7   8
HETATM    8  C5  UNL     1      -3.330  -1.787  -0.026  1.00  0.00     0.159 C 
HETATM    9  O1  UNL     1      -4.190  -2.253   0.744  1.00  0.00    -0.292 OA
BRANCH   8  10
HETATM   10  C4  UNL     1      -4.194  -0.807  -0.696  1.00  0.00     0.150 C 
BRANCH  10  11
HETATM   11  S1  UNL     1      -5.863  -0.952  -0.019  1.00  0.00    -0.197 SA
HETATM   12  C3  UNL     1      -6.910   0.254  -0.861  1.00  0.00     0.083 C 
BRANCH  11  13
HETATM   13  C2  UNL     1      -5.760  -0.502   1.549  1.00  0.00     0.003 C 
HETATM   14  C1  UNL     1      -6.449   0.711   2.082  1.00  0.00     0.042 C 
ENDBRANCH  11  13
ENDBRANCH  10  11
ENDBRANCH   8  10
ENDBRANCH   7   8
ENDBRANCH   1   7
BRANCH   4  15
HETATM   15  O2  UNL     1       3.083   0.280  -0.809  1.00  0.00    -0.347 OA
BRANCH  15  16
HETATM   16  C10 UNL     1       4.155  -0.144   0.006  1.00  0.00     0.214 C 
BRANCH  16  17
HETATM   17  C11 UNL     1       5.298   0.821  -0.077  1.00  0.00    -0.034 A 
HETATM   18  C12 UNL     1       6.311   0.706  -1.020  1.00  0.00     0.009 A 
HETATM   19  C13 UNL     1       7.341   1.629  -1.048  1.00  0.00     0.001 A 
HETATM   20  C14 UNL     1       7.406   2.689  -0.153  1.00  0.00     0.000 A 
HETATM   21  C15 UNL     1       6.393   2.793   0.780  1.00  0.00     0.001 A 
HETATM   22  C16 UNL     1       5.349   1.874   0.823  1.00  0.00     0.009 A 
ENDBRANCH  16  17
ENDBRANCH  15  16
ENDBRANCH   4  15
TORSDOF 8
