REMARK  6 active torsions:
REMARK  status: ('A' for Active; 'I' for Inactive)
REMARK    1  A    between atoms: N1_7  and  C6_8 
REMARK    2  A    between atoms: C6_8  and  C7_9 
REMARK    3  A    between atoms: C7_9  and  C9_11 
REMARK    4  A    between atoms: C9_11  and  C10_12 
REMARK    5  A    between atoms: C11_13  and  O2_14 
REMARK    6  A    between atoms: O2_14  and  C12_15 
ROOT
HETATM    1  C9  UNL     1       0.231  -1.462   0.024  1.00  0.00     0.035 C 
ENDROOT
BRANCH   1   2
HETATM    2  C7  UNL     1      -1.020  -0.724   0.437  1.00  0.00     0.003 C 
HETATM    3  C8  UNL     1      -1.194  -0.912   1.904  1.00  0.00     0.012 C 
BRANCH   2   4
HETATM    4  C6  UNL     1      -2.202  -1.111  -0.406  1.00  0.00     0.127 C 
BRANCH   4   5
HETATM    5  N1  UNL     1      -3.383  -0.354  -0.087  1.00  0.00    -0.381 N 
HETATM    6  C2  UNL     1      -3.846   0.600  -1.066  1.00  0.00     0.021 C 
HETATM    7  C1  UNL     1      -3.711   0.464  -2.376  1.00  0.00     0.040 C 
HETATM    8  C3  UNL     1      -4.536   1.857  -0.599  1.00  0.00     0.223 C 
HETATM    9  O1  UNL     1      -4.187   2.046   0.734  1.00  0.00    -0.384 OA
HETATM   10  C4  UNL     1      -4.527   1.027   1.579  1.00  0.00     0.187 C 
HETATM   11  C5  UNL     1      -4.226  -0.359   1.090  1.00  0.00     0.149 C 
ENDBRANCH   4   5
ENDBRANCH   2   4
ENDBRANCH   1   2
BRANCH   1  12
HETATM   12  C10 UNL     1       0.555  -1.156  -1.393  1.00  0.00    -0.002 C 
HETATM   13  C11 UNL     1       1.693  -0.556  -1.696  1.00  0.00     0.138 C 
BRANCH  13  14
HETATM   14  O2  UNL     1       2.483  -0.272  -0.594  1.00  0.00    -0.323 OA
BRANCH  14  15
HETATM   15  C12 UNL     1       3.822   0.065  -0.682  1.00  0.00     0.080 A 
HETATM   16  C13 UNL     1       4.631   0.180  -1.791  1.00  0.00     0.038 A 
HETATM   17  C14 UNL     1       5.960   0.536  -1.639  1.00  0.00     0.003 A 
HETATM   18  C15 UNL     1       6.489   0.776  -0.410  1.00  0.00     0.001 A 
HETATM   19  C16 UNL     1       5.703   0.671   0.738  1.00  0.00     0.009 A 
HETATM   20  C17 UNL     1       4.378   0.315   0.572  1.00  0.00    -0.028 A 
HETATM   21  C18 UNL     1       3.631   0.234   1.860  1.00  0.00     0.051 C 
ENDBRANCH  14  15
ENDBRANCH  13  14
ENDBRANCH   1  12
TORSDOF 6
