REMARK  8 active torsions:
REMARK  status: ('A' for Active; 'I' for Inactive)
REMARK    1  A    between atoms: O1_2  and  C2_3 
REMARK    2  A    between atoms: C2_3  and  C3_5 
REMARK    3  A    between atoms: C8_10  and  S1_11 
REMARK    4  A    between atoms: S1_11  and  C9_12 
REMARK    5  A    between atoms: C9_12  and  C10_13 
REMARK    6  A    between atoms: C13_16  and  O3_17 
REMARK    7  A    between atoms: O3_17  and  C14_18 
REMARK    8  A    between atoms: C19_23  and  O4_24 
ROOT
HETATM    1  C10 UNL     1       0.094  -1.267   0.137  1.00  0.00     0.036 C 
HETATM    2  C11 UNL     1      -0.532  -0.221   0.914  1.00  0.00    -0.017 C 
HETATM    3  C12 UNL     1      -1.791  -0.007   1.172  1.00  0.00     0.034 C 
HETATM    4  C13 UNL     1      -3.159  -0.495   0.987  1.00  0.00     0.075 C 
HETATM    5  C20 UNL     1      -3.734  -1.551   0.414  1.00  0.00     0.038 C 
HETATM    6  C21 UNL     1      -3.375  -2.784  -0.325  1.00  0.00     0.020 C 
HETATM    7  C22 UNL     1      -2.323  -3.452  -0.798  1.00  0.00     0.085 C 
HETATM    8  N1  UNL     1      -0.878  -3.295  -0.839  1.00  0.00    -0.394 N 
HETATM    9  C23 UNL     1       0.018  -4.380  -0.985  1.00  0.00     0.148 C 
HETATM   10  C24 UNL     1      -0.831  -1.898  -0.874  1.00  0.00     0.131 C 
ENDROOT
BRANCH   1  11
HETATM   11  C9  UNL     1       1.476  -1.116  -0.347  1.00  0.00     0.089 C 
BRANCH  11  12
HETATM   12  S1  UNL     1       2.666  -0.900   1.032  1.00  0.00    -0.128 SA
BRANCH  12  13
HETATM   13  C8  UNL     1       4.281  -0.731   0.267  1.00  0.00     0.016 A 
HETATM   14  C3  UNL     1       4.723   0.540  -0.071  1.00  0.00     0.056 A 
HETATM   15  C4  UNL     1       5.988   0.604  -0.662  1.00  0.00     0.019 A 
HETATM   16  C5  UNL     1       6.721  -0.544  -0.880  1.00  0.00     0.001 A 
HETATM   17  C6  UNL     1       6.253  -1.794  -0.532  1.00  0.00     0.001 A 
HETATM   18  C7  UNL     1       4.999  -1.890   0.057  1.00  0.00     0.019 A 
BRANCH  14  19
HETATM   19  C2  UNL     1       3.912   1.725   0.180  1.00  0.00     0.294 C 
HETATM   20  O2  UNL     1       2.801   1.506   0.716  1.00  0.00    -0.259 OA
BRANCH  19  21
HETATM   21  O1  UNL     1       4.457   2.953  -0.201  1.00  0.00    -0.322 OA
HETATM   22  C1  UNL     1       3.776   4.179  -0.016  1.00  0.00     0.213 C 
ENDBRANCH  19  21
ENDBRANCH  14  19
ENDBRANCH  12  13
ENDBRANCH  11  12
ENDBRANCH   1  11
BRANCH   4  23
HETATM   23  O3  UNL     1      -4.121   0.378   1.563  1.00  0.00    -0.308 OA
BRANCH  23  24
HETATM   24  C14 UNL     1      -4.337   1.616   0.976  1.00  0.00     0.109 A 
HETATM   25  C15 UNL     1      -3.635   2.022  -0.160  1.00  0.00     0.040 A 
HETATM   26  C16 UNL     1      -3.900   3.276  -0.699  1.00  0.00     0.003 A 
HETATM   27  C17 UNL     1      -4.840   4.098  -0.116  1.00  0.00     0.003 A 
HETATM   28  C18 UNL     1      -5.529   3.679   1.015  1.00  0.00     0.039 A 
HETATM   29  C19 UNL     1      -5.277   2.438   1.559  1.00  0.00     0.099 A 
BRANCH  29  30
HETATM   30  O4  UNL     1      -5.990   2.087   2.672  1.00  0.00    -0.358 OA
HETATM   31  H17 UNL     1      -5.766   1.307   3.293  1.00  0.00     0.217 HD
ENDBRANCH  29  30
ENDBRANCH  23  24
ENDBRANCH   4  23
TORSDOF 8
