REMARK  9 active torsions:
REMARK  status: ('A' for Active; 'I' for Inactive)
REMARK    1  A    between atoms: C2_2  and  C3_3 
REMARK    2  A    between atoms: C2_2  and  C6_7 
REMARK    3  A    between atoms: C3_3  and  N1_4 
REMARK    4  A    between atoms: C10_11  and  O1_12 
REMARK    5  A    between atoms: O1_12  and  S1_13 
REMARK    6  A    between atoms: S1_13  and  C11_16 
REMARK    7  A    between atoms: C14_19  and  C15_20 
REMARK    8  A    between atoms: C15_20  and  O5_22 
REMARK    9  A    between atoms: C16_23  and  O6_24 
ROOT
HETATM    1  S1  UNL     1       2.193  -0.828  -0.954  1.00  0.00     0.303 S 
HETATM    2  O2  UNL     1       1.601  -2.036  -0.288  1.00  0.00    -0.193 OA
HETATM    3  O3  UNL     1       2.291  -1.066  -2.440  1.00  0.00    -0.193 OA
ENDROOT
BRANCH   1   4
HETATM    4  O1  UNL     1       1.208   0.512  -0.672  1.00  0.00    -0.229 OA
BRANCH   4   5
HETATM    5  C10 UNL     1       0.012   0.464   0.026  1.00  0.00     0.090 A 
HETATM    6  C9  UNL     1       0.179   0.664   1.390  1.00  0.00     0.038 A 
HETATM    7  C8  UNL     1      -0.923   0.645   2.225  1.00  0.00     0.004 A 
HETATM    8  C7  UNL     1      -2.157   0.424   1.654  1.00  0.00     0.012 A 
HETATM    9  C6  UNL     1      -2.337   0.224   0.302  1.00  0.00    -0.026 A 
HETATM   10  C18 UNL     1      -1.232   0.245  -0.522  1.00  0.00     0.050 A 
BRANCH   9  11
HETATM   11  C2  UNL     1      -3.668   0.004  -0.193  1.00  0.00    -0.040 C 
HETATM   12  C1  UNL     1      -3.828  -0.189  -1.486  1.00  0.00     0.021 C 
BRANCH  11  13
HETATM   13  C3  UNL     1      -4.841  -0.012   0.680  1.00  0.00     0.154 C 
BRANCH  13  14
HETATM   14  N1  UNL     1      -6.092  -0.235   0.056  1.00  0.00    -0.417 N 
HETATM   15  C4  UNL     1      -6.334  -1.516  -0.503  1.00  0.00     0.142 C 
HETATM   16  C5  UNL     1      -6.718   0.876  -0.573  1.00  0.00     0.142 C 
ENDBRANCH  13  14
ENDBRANCH  11  13
ENDBRANCH   9  11
ENDBRANCH   4   5
ENDBRANCH   1   4
BRANCH   1  17
HETATM   17  C11 UNL     1       3.812  -0.482  -0.379  1.00  0.00     0.089 A 
HETATM   18  C12 UNL     1       4.220  -0.759   0.918  1.00  0.00     0.027 A 
HETATM   19  C13 UNL     1       5.526  -0.452   1.299  1.00  0.00     0.022 A 
HETATM   20  C14 UNL     1       6.424   0.120   0.421  1.00  0.00     0.070 A 
HETATM   21  C16 UNL     1       6.019   0.401  -0.885  1.00  0.00     0.084 A 
HETATM   22  C17 UNL     1       4.725   0.095  -1.255  1.00  0.00     0.063 A 
BRANCH  20  23
HETATM   23  C15 UNL     1       7.759   0.403   0.910  1.00  0.00     0.178 C 
HETATM   24  O4  UNL     1       8.198   0.177   2.074  1.00  0.00    -0.646 OA
BRANCH  23  25
HETATM   25  O5  UNL     1       8.748   0.978   0.119  1.00  0.00    -0.773 OA
HETATM   26  H16 UNL     1       9.294   1.798   0.409  1.00  0.00     0.167 HD
ENDBRANCH  23  25
ENDBRANCH  20  23
BRANCH  21  27
HETATM   27  O6  UNL     1       6.927   0.978  -1.763  1.00  0.00    -0.360 OA
HETATM   28  H17 UNL     1       7.362   0.385  -2.459  1.00  0.00     0.217 HD
ENDBRANCH  21  27
ENDBRANCH   1  17
TORSDOF 9
