REMARK  5 active torsions:
REMARK  status: ('A' for Active; 'I' for Inactive)
REMARK       I    between atoms: N1_2  and  C2_3 
REMARK       I    between atoms: C2_3  and  N5_22 
REMARK       I    between atoms: N2_4  and  C3_5 
REMARK    1  A    between atoms: C3_5  and  C4_7 
REMARK    2  A    between atoms: N3_11  and  C8_12 
REMARK    3  A    between atoms: C8_12  and  C9_13 
REMARK    4  A    between atoms: C14_19  and  O2_20 
REMARK    5  A    between atoms: N5_22  and  C16_23 
ROOT
HETATM    1  C1  UNL     1       1.880  -2.882  -1.108  1.00  0.00     0.169 C 
HETATM    2  N1  UNL     1       1.851  -1.637  -1.445  1.00  0.00    -0.086 NA
HETATM    3  C2  UNL     1       2.435  -0.677  -0.558  1.00  0.00     0.729 C 
HETATM    4  N2  UNL     1       1.806   0.051   0.270  1.00  0.00    -0.024 NA
HETATM    5  C3  UNL     1       0.418   0.082   0.504  1.00  0.00     0.293 C 
HETATM    6  O1  UNL     1      -0.029  -0.421   1.583  1.00  0.00    -0.268 OA
HETATM    7  N5  UNL     1       3.839  -0.506  -0.595  1.00  0.00    -0.185 N 
HETATM    8  H18 UNL     1       4.344  -0.501  -1.533  1.00  0.00     0.184 HD
ENDROOT
BRANCH   5   9
HETATM    9  C4  UNL     1      -0.254   0.749  -0.657  1.00  0.00     0.317 C 
HETATM   10  C5  UNL     1       0.235   2.177  -0.701  1.00  0.00     0.047 C 
HETATM   11  C6  UNL     1      -1.077   2.961  -0.758  1.00  0.00     0.033 C 
HETATM   12  C7  UNL     1      -1.939   2.090   0.132  1.00  0.00     0.274 C 
HETATM   13  N3  UNL     1      -1.657   0.774  -0.400  1.00  0.00     0.106 N 
BRANCH  13  14
HETATM   14  C8  UNL     1      -2.480   0.408  -1.496  1.00  0.00     0.314 C 
BRANCH  14  15
HETATM   15  C9  UNL     1      -3.899   0.216  -1.033  1.00  0.00     0.002 C 
HETATM   16  C10 UNL     1      -4.884   0.979  -1.545  1.00  0.00     0.018 C 
HETATM   17  C11 UNL     1      -6.146   0.562  -0.955  1.00  0.00     0.183 A 
HETATM   18  N4  UNL     1      -7.000   1.137  -0.032  1.00  0.00    -0.276 NA
HETATM   19  C12 UNL     1      -5.958   0.213   0.410  1.00  0.00     0.061 A 
HETATM   20  C13 UNL     1      -4.952  -0.699   0.984  1.00  0.00     0.066 C 
HETATM   21  C14 UNL     1      -3.866  -0.640   0.179  1.00  0.00     0.078 C 
BRANCH  21  22
HETATM   22  O2  UNL     1      -2.829  -1.415   0.607  1.00  0.00    -0.355 OA
HETATM   23  C15 UNL     1      -2.619  -2.760   0.227  1.00  0.00     0.210 C 
ENDBRANCH  21  22
ENDBRANCH  14  15
ENDBRANCH  13  14
ENDBRANCH   5   9
BRANCH   7  24
HETATM   24  C16 UNL     1       4.663  -0.341   0.552  1.00  0.00     0.089 A 
HETATM   25  C17 UNL     1       4.218  -0.359   1.848  1.00  0.00     0.033 A 
HETATM   26  C18 UNL     1       5.052  -0.200   2.930  1.00  0.00     0.004 A 
HETATM   27  C19 UNL     1       6.406  -0.011   2.772  1.00  0.00     0.027 A 
HETATM   28  C20 UNL     1       6.901   0.014   1.487  1.00  0.00     0.074 A 
HETATM   29 CL1  UNL     1       8.596   0.249   1.207  1.00  0.00    -0.081 Cl
HETATM   30  C21 UNL     1       6.036  -0.148   0.429  1.00  0.00     0.165 A 
HETATM   31  F1  UNL     1       6.567  -0.117  -0.821  1.00  0.00    -0.202 F 
ENDBRANCH   7  24
TORSDOF 5
