REMARK  8 active torsions:
REMARK  status: ('A' for Active; 'I' for Inactive)
REMARK    1  A    between atoms: N1_2  and  C3_4 
REMARK    2  A    between atoms: C3_4  and  C4_5 
REMARK    3  A    between atoms: C4_5  and  C5_6 
REMARK    4  A    between atoms: C5_6  and  C6_8 
REMARK    5  A    between atoms: C8_10  and  O2_11 
REMARK    6  A    between atoms: O2_11  and  C9_12 
REMARK    7  A    between atoms: C9_12  and  C10_13 
REMARK    8  A    between atoms: C16_19  and  O3_20 
ROOT
HETATM    1  C6  UNL     1      -0.977   0.022   0.459  1.00  0.00     0.011 A 
HETATM    2  C7  UNL     1       0.026   0.230  -0.401  1.00  0.00     0.026 A 
HETATM    3  C8  UNL     1       1.177   0.786   0.317  1.00  0.00     0.202 A 
HETATM    4  C16 UNL     1       0.684   0.865   1.708  1.00  0.00     0.076 A 
HETATM    5  C17 UNL     1      -0.568   0.422   1.799  1.00  0.00     0.050 A 
ENDROOT
BRANCH   3   6
HETATM    6  O2  UNL     1       2.361   0.098   0.167  1.00  0.00    -0.371 OA
BRANCH   6   7
HETATM    7  C9  UNL     1       3.286   1.013  -0.357  1.00  0.00     0.207 C 
BRANCH   7   8
HETATM    8  C10 UNL     1       4.619   0.445  -0.578  1.00  0.00    -0.035 A 
HETATM    9  C11 UNL     1       4.911  -0.133  -1.789  1.00  0.00     0.009 A 
HETATM   10  C12 UNL     1       6.152  -0.667  -2.006  1.00  0.00     0.001 A 
HETATM   11  C13 UNL     1       7.141  -0.650  -1.050  1.00  0.00     0.000 A 
HETATM   12  C14 UNL     1       6.897  -0.074   0.200  1.00  0.00     0.001 A 
HETATM   13  C15 UNL     1       5.629   0.448   0.363  1.00  0.00     0.009 A 
ENDBRANCH   7   8
ENDBRANCH   6   7
ENDBRANCH   3   6
BRANCH   4  14
HETATM   14  O3  UNL     1       1.522   1.361   2.717  1.00  0.00    -0.362 OA
HETATM   15  H20 UNL     1       1.796   2.339   2.742  1.00  0.00     0.217 HD
ENDBRANCH   4  14
BRANCH   1  16
HETATM   16  C5  UNL     1      -2.267  -0.525   0.058  1.00  0.00     0.161 C 
HETATM   17  O1  UNL     1      -2.463  -0.822  -1.147  1.00  0.00    -0.292 OA
BRANCH  16  18
HETATM   18  C4  UNL     1      -3.330  -0.717   1.104  1.00  0.00     0.114 C 
BRANCH  18  19
HETATM   19  C3  UNL     1      -4.583  -1.296   0.485  1.00  0.00     0.279 C 
BRANCH  19  20
HETATM   20  N1  UNL     1      -5.120  -0.429  -0.540  1.00  0.00     0.080 N 
HETATM   21  C1  UNL     1      -5.637   0.799   0.055  1.00  0.00     0.309 C 
HETATM   22  C2  UNL     1      -6.208  -1.038  -1.279  1.00  0.00     0.309 C 
ENDBRANCH  19  20
ENDBRANCH  18  19
ENDBRANCH  16  18
ENDBRANCH   1  16
TORSDOF 8
