REMARK  5 active torsions:
REMARK  status: ('A' for Active; 'I' for Inactive)
REMARK    1  A    between atoms: C8_11  and  C9_12 
REMARK    2  A    between atoms: C10_13  and  O3_14 
REMARK    3  A    between atoms: C12_16  and  C13_17 
REMARK    4  A    between atoms: C15_21  and  C16_22 
REMARK    5  A    between atoms: C16_22  and  N1_23 
ROOT
HETATM    1  C1  UNL     1       3.806  -1.914  -2.918  1.00  0.00     0.000 C 
HETATM    2  O1  UNL     1       3.336  -0.819  -2.232  1.00  0.00     0.000 OA
HETATM    3  C2  UNL     1       2.483  -0.697  -1.180  1.00  0.00     0.011 A 
HETATM    4  C3  UNL     1       1.971  -1.843  -0.675  1.00  0.00     0.049 A 
HETATM    5  C4  UNL     1       1.070  -2.075   0.382  1.00  0.00     0.127 A 
HETATM    6  C5  UNL     1       1.514  -0.780  -0.002  1.00  0.00     0.056 A 
HETATM    7  C6  UNL     1       2.012   0.450  -0.461  1.00  0.00     0.096 A 
HETATM    8  C7  UNL     1       2.908   0.531  -1.572  1.00  0.00     0.072 A 
HETATM    9  S1  UNL     1       2.499   2.241  -1.382  1.00  0.00    -0.026 S 
HETATM   10  O2  UNL     1       3.346   3.017  -2.350  1.00  0.00    -0.268 OA
HETATM   11  C8  UNL     1       0.739   2.563  -1.792  1.00  0.00     0.116 C 
HETATM   12  C11 UNL     1      -0.236   2.248  -0.787  1.00  0.00     0.004 C 
HETATM   13  C12 UNL     1      -0.962   1.662   0.215  1.00  0.00    -0.012 C 
HETATM   14  C14 UNL     1      -1.082   0.500   1.059  1.00  0.00     0.067 C 
HETATM   15  C15 UNL     1      -0.846  -0.717   1.605  1.00  0.00    -0.010 C 
HETATM   16  C19 UNL     1       0.055  -1.921   1.473  1.00  0.00     0.089 A 
HETATM   17  O6  UNL     1       0.730  -2.959   1.474  1.00  0.00    -0.333 OA
ENDROOT
BRANCH  11  18
HETATM   18  C9  UNL     1       0.430   2.166  -3.184  1.00  0.00     0.018 C 
HETATM   19  C10 UNL     1       0.491   2.932  -4.290  1.00  0.00     0.128 C 
BRANCH  19  20
HETATM   20  O3  UNL     1       0.913   4.124  -3.710  1.00  0.00    -0.373 OA
HETATM   21  H10 UNL     1       1.733   4.638  -3.923  1.00  0.00     0.216 HD
ENDBRANCH  19  20
ENDBRANCH  11  18
BRANCH  13  22
HETATM   22  C13 UNL     1      -2.195   2.316   0.739  1.00  0.00     0.150 A 
HETATM   23  O4  UNL     1      -3.093   2.157   1.574  1.00  0.00    -0.188 OA
HETATM   24  O5  UNL     1      -3.164   3.276   0.832  1.00  0.00     0.000 OA
HETATM   25  H12 UNL     1      -3.089   4.243   0.500  1.00  0.00     0.000 HD
ENDBRANCH  13  22
BRANCH  15  26
HETATM   26  C16 UNL     1      -1.813  -0.976   2.683  1.00  0.00     0.309 C 
BRANCH  26  27
HETATM   27  N1  UNL     1      -2.693  -2.089   2.496  1.00  0.00     0.083 N 
HETATM   28  C17 UNL     1      -2.116  -3.397   2.558  1.00  0.00     0.309 C 
HETATM   29  C18 UNL     1      -3.790  -2.019   3.439  1.00  0.00     0.309 C 
ENDBRANCH  26  27
ENDBRANCH  15  26
TORSDOF 5
