REMARK  6 active torsions:
REMARK  status: ('A' for Active; 'I' for Inactive)
REMARK    1  A    between atoms: N1_2  and  C2_3 
REMARK    2  A    between atoms: C2_3  and  C3_4 
REMARK    3  A    between atoms: C3_4  and  N2_5 
REMARK       I    between atoms: N2_5  and  C4_6 
REMARK    4  A    between atoms: C4_6  and  C5_8 
REMARK    5  A    between atoms: B1_10  and  O2_11 
REMARK    6  A    between atoms: O2_11  and  C7_12 
ROOT
HETATM    1  C5  UNL     1       0.603   0.258   0.167  1.00  0.00     0.019 A 
HETATM    2  C6  UNL     1      -0.324   0.526  -0.765  1.00  0.00    -0.023 A 
HETATM    3  B1  UNL     1      -1.648   0.887   0.015  1.00  0.00     0.389 B 
HETATM    4  C14 UNL     1      -1.213   0.750   1.507  1.00  0.00    -0.039 A 
HETATM    5  C15 UNL     1       0.044   0.400   1.489  1.00  0.00     0.003 A 
ENDROOT
BRANCH   1   6
HETATM    6  C4  UNL     1       2.004  -0.129  -0.116  1.00  0.00     0.250 C 
HETATM    7  N2  UNL     1       2.938  -0.400   0.923  1.00  0.00    -0.355 N 
HETATM    8  H9  UNL     1       2.518  -0.294   1.895  1.00  0.00     0.162 HD
HETATM    9  O1  UNL     1       2.391  -0.225  -1.303  1.00  0.00    -0.268 OA
BRANCH   7  10
HETATM   10  C3  UNL     1       4.299  -0.777   0.716  1.00  0.00     0.152 C 
BRANCH  10  11
HETATM   11  C2  UNL     1       5.111   0.231  -0.037  1.00  0.00     0.288 C 
BRANCH  11  12
HETATM   12  N1  UNL     1       6.466  -0.295  -0.166  1.00  0.00     0.080 N 
HETATM   13  C1  UNL     1       7.321   0.628  -0.887  1.00  0.00     0.306 C 
HETATM   14  H4  UNL     1       6.441  -1.163  -0.748  1.00  0.00     0.315 HD
ENDBRANCH  11  12
ENDBRANCH  10  11
ENDBRANCH   7  10
ENDBRANCH   1   6
BRANCH   3  15
HETATM   15  O2  UNL     1      -3.005   1.095  -0.548  1.00  0.00    -0.406 OA
BRANCH  15  16
HETATM   16  C7  UNL     1      -3.994   0.157  -0.284  1.00  0.00     0.056 A 
HETATM   17  C8  UNL     1      -3.786  -0.966   0.478  1.00  0.00     0.035 A 
HETATM   18  C9  UNL     1      -4.730  -1.921   0.767  1.00  0.00     0.003 A 
HETATM   19  C10 UNL     1      -5.976  -1.680   0.220  1.00  0.00     0.001 A 
HETATM   20  C11 UNL     1      -6.289  -0.593  -0.553  1.00  0.00     0.009 A 
HETATM   21  C12 UNL     1      -5.270   0.317  -0.790  1.00  0.00    -0.030 A 
HETATM   22  C13 UNL     1      -5.615   1.493  -1.629  1.00  0.00     0.051 C 
ENDBRANCH  15  16
ENDBRANCH   3  15
TORSDOF 6
