REMARK  7 active torsions:
REMARK  status: ('A' for Active; 'I' for Inactive)
REMARK    1  A    between atoms: C2_2  and  C4_4 
REMARK    2  A    between atoms: C4_4  and  C5_5 
REMARK    3  A    between atoms: C5_5  and  N1_6 
REMARK    4  A    between atoms: C7_8  and  O1_9 
REMARK    5  A    between atoms: O1_9  and  C8_10 
REMARK    6  A    between atoms: C8_10  and  C9_11 
REMARK    7  A    between atoms: C15_17  and  O2_18 
ROOT
HETATM    1  C5  UNL     1      -2.039  -0.705   0.179  1.00  0.00     0.179 A 
HETATM    2  C6  UNL     1      -0.572  -0.620  -0.045  1.00  0.00     0.053 A 
HETATM    3  C7  UNL     1       0.597  -0.935   0.539  1.00  0.00     0.100 A 
HETATM    4  C15 UNL     1       0.326  -1.584   1.842  1.00  0.00     0.095 A 
HETATM    5  C16 UNL     1      -0.961  -1.695   2.110  1.00  0.00     0.015 A 
HETATM    6  C17 UNL     1      -2.259  -1.360   1.488  1.00  0.00     0.075 A 
ENDROOT
BRANCH   3   7
HETATM    7  O1  UNL     1       1.897  -0.763   0.148  1.00  0.00    -0.344 OA
BRANCH   7   8
HETATM    8  C8  UNL     1       2.464   0.543   0.022  1.00  0.00     0.214 C 
BRANCH   8   9
HETATM    9  C9  UNL     1       3.880   0.492  -0.413  1.00  0.00    -0.034 A 
HETATM   10  C10 UNL     1       4.336   0.501  -1.717  1.00  0.00     0.009 A 
HETATM   11  C11 UNL     1       5.694   0.448  -1.990  1.00  0.00     0.001 A 
HETATM   12  C12 UNL     1       6.643   0.385  -0.999  1.00  0.00     0.000 A 
HETATM   13  C13 UNL     1       6.218   0.374   0.328  1.00  0.00     0.001 A 
HETATM   14  C14 UNL     1       4.861   0.427   0.581  1.00  0.00     0.009 A 
ENDBRANCH   8   9
ENDBRANCH   7   8
ENDBRANCH   3   7
BRANCH   4  15
HETATM   15  O2  UNL     1       1.302  -2.038   2.713  1.00  0.00    -0.358 OA
HETATM   16  H20 UNL     1       2.120  -2.475   2.260  1.00  0.00     0.217 HD
ENDBRANCH   4  15
BRANCH   1  17
HETATM   17  C4  UNL     1      -2.593   0.674   0.057  1.00  0.00     0.049 C 
BRANCH  17  18
HETATM   18  C2  UNL     1      -4.052   0.818   0.078  1.00  0.00    -0.020 C 
HETATM   19  C1  UNL     1      -4.820   0.122  -0.981  1.00  0.00     0.009 C 
HETATM   20  C3  UNL     1      -4.364   2.306  -0.055  1.00  0.00     0.009 C 
ENDBRANCH  17  18
ENDBRANCH   1  17
BRANCH   1  21
HETATM   21  N1  UNL     1      -2.538  -1.519  -0.943  1.00  0.00     0.092 N 
HETATM   22  H10 UNL     1      -2.021  -2.394  -1.075  1.00  0.00     0.314 HD
HETATM   23  H11 UNL     1      -2.488  -0.980  -1.835  1.00  0.00     0.314 HD
ENDBRANCH   1  21
TORSDOF 7
