REMARK  5 active torsions:
REMARK  status: ('A' for Active; 'I' for Inactive)
REMARK    1  A    between atoms: C2_2  and  C3_3 
REMARK    2  A    between atoms: C3_3  and  C4_4 
REMARK    3  A    between atoms: C6_6  and  N1_7 
REMARK    4  A    between atoms: C15_18  and  O3_19 
REMARK    5  A    between atoms: O3_19  and  O4_20 
ROOT
HETATM    1  C4  UNL     1       1.229  -0.962  -0.916  1.00  0.00     0.017 C 
HETATM    2  C5  UNL     1       1.316   0.332  -1.654  1.00  0.00    -0.001 C 
HETATM    3  C6  UNL     1       0.748   1.492  -1.941  1.00  0.00     0.006 C 
HETATM    4  C7  UNL     1      -0.479   1.737  -1.082  1.00  0.00     0.260 C 
HETATM    5  O1  UNL     1      -1.574   1.844  -1.837  1.00  0.00    -0.235 OA
HETATM    6  O2  UNL     1      -2.686   1.864  -1.289  1.00  0.00    -0.236 OA
HETATM    7  C8  UNL     1      -3.193   0.823  -0.654  1.00  0.00     0.249 C 
HETATM    8  C9  UNL     1      -2.569   0.324   0.561  1.00  0.00    -0.023 A 
HETATM    9  C10 UNL     1      -2.957   1.187   1.603  1.00  0.00     0.010 A 
HETATM   10  C11 UNL     1      -2.632   1.065   2.960  1.00  0.00     0.001 A 
HETATM   11  C12 UNL     1      -1.857   0.015   3.379  1.00  0.00     0.001 A 
HETATM   12  C13 UNL     1      -1.453  -0.863   2.362  1.00  0.00     0.010 A 
HETATM   13  C14 UNL     1      -1.773  -0.737   1.032  1.00  0.00    -0.017 A 
HETATM   14  C15 UNL     1      -1.215  -1.700   0.040  1.00  0.00     0.108 C 
HETATM   15  C16 UNL     1      -0.059  -1.166  -0.285  1.00  0.00     0.126 C 
ENDROOT
BRANCH   1  16
HETATM   16  C3  UNL     1       2.247  -0.852   0.243  1.00  0.00     0.009 C 
BRANCH  16  17
HETATM   17  C2  UNL     1       3.643  -0.641  -0.246  1.00  0.00    -0.004 C 
HETATM   18  C1  UNL     1       4.564  -0.553   0.966  1.00  0.00     0.005 C 
ENDBRANCH  16  17
ENDBRANCH   1  16
BRANCH   3  19
HETATM   19  N1  UNL     1       1.089   2.626  -2.759  1.00  0.00    -0.305 NA
HETATM   20  H10 UNL     1       1.320   2.496  -3.786  1.00  0.00     0.124 HD
HETATM   21  H11 UNL     1       1.286   2.324  -3.737  1.00  0.00     0.124 HD
ENDBRANCH   3  19
BRANCH  14  22
HETATM   22  O3  UNL     1      -2.343  -2.439   0.208  1.00  0.00    -0.232 OA
BRANCH  22  23
HETATM   23  O4  UNL     1      -2.720  -3.480  -0.520  1.00  0.00    -0.250 OA
HETATM   24  H20 UNL     1      -2.232  -3.392  -1.399  1.00  0.00     0.253 HD
ENDBRANCH  22  23
ENDBRANCH  14  22
TORSDOF 5
