REMARK  8 active torsions:
REMARK  status: ('A' for Active; 'I' for Inactive)
REMARK    1  A    between atoms: N1_2  and  C2_3 
REMARK    2  A    between atoms: N1_2  and  C3_5 
REMARK    3  A    between atoms: C3_5  and  C4_6 
REMARK    4  A    between atoms: C4_6  and  C5_7 
REMARK    5  A    between atoms: C8_10  and  O2_11 
REMARK    6  A    between atoms: O2_11  and  C9_12 
REMARK    7  A    between atoms: C9_12  and  C10_13 
REMARK    8  A    between atoms: C16_19  and  O3_20 
ROOT
HETATM    1  C5  UNL     1      -1.943   0.234  -0.559  1.00  0.00    -0.054 A 
HETATM    2  C6  UNL     1      -1.305  -0.986  -0.308  1.00  0.00     0.010 A 
HETATM    3  C7  UNL     1       0.065  -0.975  -0.237  1.00  0.00     0.040 A 
HETATM    4  C8  UNL     1       0.779   0.192  -0.407  1.00  0.00     0.102 A 
HETATM    5  C16 UNL     1       0.174   1.400  -0.654  1.00  0.00     0.099 A 
HETATM    6  C17 UNL     1      -1.204   1.397  -0.726  1.00  0.00     0.046 A 
ENDROOT
BRANCH   4   7
HETATM    7  O2  UNL     1       2.163   0.140  -0.324  1.00  0.00    -0.344 OA
BRANCH   7   8
HETATM    8  C9  UNL     1       2.877  -1.041  -0.076  1.00  0.00     0.214 C 
BRANCH   8   9
HETATM    9  C10 UNL     1       4.344  -0.826  -0.037  1.00  0.00    -0.034 A 
HETATM   10  C11 UNL     1       5.144  -0.920  -1.157  1.00  0.00     0.009 A 
HETATM   11  C12 UNL     1       6.495  -0.698  -0.988  1.00  0.00     0.001 A 
HETATM   12  C13 UNL     1       7.100  -0.386   0.232  1.00  0.00     0.000 A 
HETATM   13  C14 UNL     1       6.245  -0.307   1.311  1.00  0.00     0.001 A 
HETATM   14  C15 UNL     1       4.892  -0.521   1.190  1.00  0.00     0.009 A 
ENDBRANCH   8   9
ENDBRANCH   7   8
ENDBRANCH   4   7
BRANCH   5  15
HETATM   15  O3  UNL     1       0.938   2.547  -0.817  1.00  0.00    -0.358 OA
HETATM   16  H18 UNL     1       1.885   2.514  -1.143  1.00  0.00     0.217 HD
ENDBRANCH   5  15
BRANCH   1  17
HETATM   17  C4  UNL     1      -3.431   0.263  -0.643  1.00  0.00     0.058 C 
BRANCH  17  18
HETATM   18  C3  UNL     1      -3.918   0.526   0.766  1.00  0.00     0.123 C 
BRANCH  18  19
HETATM   19  N1  UNL     1      -5.357   0.574   0.797  1.00  0.00    -0.386 N 
HETATM   20  C1  UNL     1      -6.114  -0.637   1.030  1.00  0.00     0.146 C 
BRANCH  19  21
HETATM   21  C2  UNL     1      -5.859   1.888   0.580  1.00  0.00     0.513 C 
HETATM   22  O1  UNL     1      -6.831   2.679   0.468  1.00  0.00    -0.412 OA
ENDBRANCH  19  21
ENDBRANCH  18  19
ENDBRANCH  17  18
ENDBRANCH   1  17
TORSDOF 8
