REMARK  6 active torsions:
REMARK  status: ('A' for Active; 'I' for Inactive)
REMARK    1  A    between atoms: C2_2  and  C4_4 
REMARK    2  A    between atoms: C4_4  and  C5_5 
REMARK    3  A    between atoms: C5_5  and  C6_7 
REMARK    4  A    between atoms: C9_10  and  O2_11 
REMARK    5  A    between atoms: O2_11  and  C10_12 
REMARK    6  A    between atoms: C10_12  and  C11_13 
ROOT
HETATM    1  C6  UNL     1       1.670   0.629   0.123  1.00  0.00     0.010 A 
HETATM    2  C7  UNL     1       0.809   1.628  -0.239  1.00  0.00     0.018 A 
HETATM    3  C8  UNL     1      -0.570   1.485  -0.306  1.00  0.00     0.037 A 
HETATM    4  C9  UNL     1      -1.119   0.264   0.011  1.00  0.00     0.069 A 
HETATM    5  C17 UNL     1      -0.297  -0.771   0.381  1.00  0.00     0.037 A 
HETATM    6  C18 UNL     1       1.068  -0.585   0.434  1.00  0.00     0.018 A 
ENDROOT
BRANCH   4   7
HETATM    7  O2  UNL     1      -2.470  -0.050  -0.003  1.00  0.00    -0.347 OA
BRANCH   7   8
HETATM    8  C10 UNL     1      -3.464   0.876  -0.355  1.00  0.00     0.214 C 
BRANCH   8   9
HETATM    9  C11 UNL     1      -4.771   0.143  -0.241  1.00  0.00    -0.034 A 
HETATM   10  C12 UNL     1      -5.277  -0.531  -1.340  1.00  0.00     0.009 A 
HETATM   11  C13 UNL     1      -6.496  -1.194  -1.175  1.00  0.00     0.001 A 
HETATM   12  C14 UNL     1      -7.178  -1.186   0.029  1.00  0.00     0.000 A 
HETATM   13  C15 UNL     1      -6.645  -0.502   1.110  1.00  0.00     0.001 A 
HETATM   14  C16 UNL     1      -5.435   0.166   0.975  1.00  0.00     0.009 A 
ENDBRANCH   8   9
ENDBRANCH   7   8
ENDBRANCH   4   7
BRANCH   1  15
HETATM   15  C5  UNL     1       3.127   0.831   0.178  1.00  0.00     0.159 C 
HETATM   16  O1  UNL     1       3.467   2.020  -0.145  1.00  0.00    -0.292 OA
BRANCH  15  17
HETATM   17  C4  UNL     1       3.944  -0.339   0.588  1.00  0.00     0.087 C 
BRANCH  17  18
HETATM   18  C2  UNL     1       5.406   0.036   0.591  1.00  0.00    -0.015 C 
HETATM   19  C1  UNL     1       5.809   0.465  -0.781  1.00  0.00     0.010 C 
HETATM   20  C3  UNL     1       6.263  -1.062   1.149  1.00  0.00     0.010 C 
ENDBRANCH  17  18
ENDBRANCH  15  17
ENDBRANCH   1  15
TORSDOF 6
