REMARK  9 active torsions:
REMARK  status: ('A' for Active; 'I' for Inactive)
REMARK    1  A    between atoms: C2_2  and  N1_3 
REMARK    2  A    between atoms: N1_3  and  C4_5 
REMARK    3  A    between atoms: C4_5  and  C5_6 
REMARK    4  A    between atoms: C4_5  and  C12_14 
REMARK    5  A    between atoms: C5_6  and  C6_7 
REMARK    6  A    between atoms: C12_14  and  C13_16 
REMARK    7  A    between atoms: C16_19  and  O2_20 
REMARK    8  A    between atoms: O2_20  and  C17_21 
REMARK    9  A    between atoms: C17_21  and  C18_22 
ROOT
HETATM    1  C12 UNL     1      -1.033  -1.162  -1.467  1.00  0.00     0.193 C 
HETATM    2  O1  UNL     1      -1.575  -2.133  -2.089  1.00  0.00    -0.290 OA
ENDROOT
BRANCH   1   3
HETATM    3  C4  UNL     1      -1.973  -0.109  -0.880  1.00  0.00     0.299 C 
BRANCH   3   4
HETATM    4  N1  UNL     1      -3.208  -0.310  -1.562  1.00  0.00     0.096 N 
HETATM    5  C3  UNL     1      -4.373   0.341  -1.089  1.00  0.00     0.310 C 
BRANCH   4   6
HETATM    6  C2  UNL     1      -3.040  -0.069  -2.998  1.00  0.00     0.268 C 
HETATM    7  C1  UNL     1      -4.127  -0.775  -3.770  1.00  0.00     0.037 C 
ENDBRANCH   4   6
ENDBRANCH   3   4
BRANCH   3   8
HETATM    8  C5  UNL     1      -2.003  -0.372   0.592  1.00  0.00     0.066 C 
BRANCH   8   9
HETATM    9  C6  UNL     1      -2.864   0.397   1.451  1.00  0.00    -0.114 C 
HETATM   10  C7  UNL     1      -2.553   1.694   1.838  1.00  0.00    -0.071 C 
HETATM   11  C8  UNL     1      -1.866   2.582   0.879  1.00  0.00     0.047 C 
HETATM   12  C9  UNL     1      -2.828   2.186   3.073  1.00  0.00     0.005 C 
HETATM   13  C10 UNL     1      -3.415   1.573   4.121  1.00  0.00    -0.015 C 
HETATM   14  C11 UNL     1      -3.900   0.301   4.254  1.00  0.00    -0.081 C 
HETATM   15  B1  UNL     1      -4.467  -0.256   2.162  1.00  0.00     0.206 B 
ENDBRANCH   8   9
ENDBRANCH   3   8
ENDBRANCH   1   3
BRANCH   1  16
HETATM   16  C13 UNL     1       0.401  -1.153  -1.382  1.00  0.00     0.012 A 
HETATM   17  C14 UNL     1       1.079  -2.222  -1.919  1.00  0.00     0.018 A 
HETATM   18  C15 UNL     1       2.475  -2.265  -1.880  1.00  0.00     0.038 A 
HETATM   19  C16 UNL     1       3.247  -1.247  -1.306  1.00  0.00     0.069 A 
HETATM   20  C23 UNL     1       2.539  -0.189  -0.777  1.00  0.00     0.038 A 
HETATM   21  C24 UNL     1       1.163  -0.154  -0.819  1.00  0.00     0.018 A 
BRANCH  19  22
HETATM   22  O2  UNL     1       4.618  -1.434  -1.346  1.00  0.00    -0.347 OA
BRANCH  22  23
HETATM   23  C17 UNL     1       5.565  -0.562  -0.831  1.00  0.00     0.210 C 
BRANCH  23  24
HETATM   24  C18 UNL     1       5.387  -0.433   0.632  1.00  0.00    -0.053 A 
HETATM   25  C19 UNL     1       4.628  -0.873   1.625  1.00  0.00     0.005 A 
HETATM   26  C20 UNL     1       4.979  -0.334   2.933  1.00  0.00    -0.003 A 
HETATM   27  C21 UNL     1       6.002   0.462   2.674  1.00  0.00    -0.022 A 
HETATM   28  C22 UNL     1       6.375   0.501   1.257  1.00  0.00     0.063 A 
ENDBRANCH  23  24
ENDBRANCH  22  23
ENDBRANCH  19  22
ENDBRANCH   1  16
TORSDOF 9
