REMARK  6 active torsions:
REMARK  status: ('A' for Active; 'I' for Inactive)
REMARK       I    between atoms: N1_2  and  C2_3 
REMARK    1  A    between atoms: C2_3  and  C3_5 
REMARK    2  A    between atoms: N2_9  and  C7_10 
REMARK    3  A    between atoms: C7_10  and  C8_11 
REMARK    4  A    between atoms: C11_14  and  N3_15 
REMARK    5  A    between atoms: N3_15  and  C12_16 
REMARK    6  A    between atoms: C19_26  and  O2_27 
ROOT
HETATM    1  C8  UNL     1      -0.334  -0.928   0.318  1.00  0.00     0.017 C 
HETATM    2  C9  UNL     1       0.027   0.266   0.030  1.00  0.00     0.002 C 
HETATM    3  C10 UNL     1       1.168   0.774   0.116  1.00  0.00     0.035 C 
HETATM    4  C11 UNL     1       2.291   0.211  -0.297  1.00  0.00     0.117 C 
HETATM    5  N4  UNL     1       2.658  -1.187  -0.300  1.00  0.00    -0.349 N 
HETATM    6  C18 UNL     1       1.816  -2.204   0.291  1.00  0.00     0.127 C 
HETATM    7  C19 UNL     1       0.502  -2.123   0.575  1.00  0.00     0.092 C 
HETATM    8  H18 UNL     1       3.557  -1.462  -0.743  1.00  0.00     0.167 HD
ENDROOT
BRANCH   1   9
HETATM    9  C7  UNL     1      -1.769  -1.259   0.435  1.00  0.00     0.316 C 
BRANCH   9  10
HETATM   10  N2  UNL     1      -2.565  -0.108   0.157  1.00  0.00     0.106 N 
HETATM   11  C3  UNL     1      -3.931  -0.200   0.541  1.00  0.00     0.314 C 
HETATM   12  C4  UNL     1      -4.669  -0.594  -0.699  1.00  0.00     0.047 C 
HETATM   13  C5  UNL     1      -3.762  -0.252  -1.840  1.00  0.00     0.033 C 
HETATM   14  C6  UNL     1      -2.559   0.363  -1.181  1.00  0.00     0.274 C 
BRANCH  11  15
HETATM   15  C2  UNL     1      -4.408   1.140   0.977  1.00  0.00     0.251 C 
HETATM   16  N1  UNL     1      -3.822   2.396   1.178  1.00  0.00    -0.364 N 
HETATM   17  C1  UNL     1      -4.632   3.497   1.618  1.00  0.00     0.149 C 
HETATM   18  H4  UNL     1      -2.805   2.339   0.965  1.00  0.00     0.161 HD
HETATM   19  O1  UNL     1      -5.658   0.968   1.186  1.00  0.00    -0.271 OA
ENDBRANCH  11  15
ENDBRANCH   9  10
ENDBRANCH   1   9
BRANCH   7  20
HETATM   20  O2  UNL     1      -0.013  -3.278   1.141  1.00  0.00    -0.354 OA
HETATM   21  C20 UNL     1      -0.245  -4.489   0.496  1.00  0.00     0.210 C 
ENDBRANCH   7  20
BRANCH   4  22
HETATM   22  N3  UNL     1       3.307   1.047  -0.819  1.00  0.00    -0.339 N 
HETATM   23  H14 UNL     1       3.013   1.560  -1.674  1.00  0.00     0.167 HD
BRANCH  22  24
HETATM   24  C12 UNL     1       4.598   1.172  -0.232  1.00  0.00     0.074 A 
HETATM   25  C13 UNL     1       4.872   0.440   0.904  1.00  0.00     0.033 A 
HETATM   26  C14 UNL     1       6.144   0.569   1.473  1.00  0.00     0.004 A 
HETATM   27  C15 UNL     1       7.047   1.420   0.865  1.00  0.00     0.027 A 
HETATM   28  C16 UNL     1       6.740   2.146  -0.284  1.00  0.00     0.074 A 
HETATM   29 CL1  UNL     1       7.901   3.225  -1.048  1.00  0.00    -0.081 Cl
HETATM   30  C17 UNL     1       5.488   2.028  -0.856  1.00  0.00     0.164 A 
HETATM   31  F1  UNL     1       5.140   2.716  -1.976  1.00  0.00    -0.202 F 
ENDBRANCH  22  24
ENDBRANCH   4  22
TORSDOF 6
