REMARK  4 active torsions:
REMARK  status: ('A' for Active; 'I' for Inactive)
REMARK    1  A    between atoms: N1_2  and  C3_4 
REMARK    2  A    between atoms: C3_4  and  C4_5 
REMARK    3  A    between atoms: C4_5  and  C5_6 
REMARK    4  A    between atoms: C7_9  and  C8_10 
ROOT
HETATM    1  C8  UNL     1      -0.560   0.214   0.125  1.00  0.00     0.017 C 
HETATM    2  C9  UNL     1      -0.954  -1.142   0.005  1.00  0.00     0.098 C 
HETATM    3  N2  UNL     1      -1.520  -2.443  -0.094  1.00  0.00    -0.250 N 
HETATM    4  O2  UNL     1      -2.359  -2.265  -1.198  1.00  0.00    -0.113 OA
HETATM    5  O3  UNL     1      -3.277  -1.521  -0.712  1.00  0.00    -0.213 OA
HETATM    6  C10 UNL     1      -4.096  -0.829  -1.547  1.00  0.00     0.251 C 
HETATM    7  C11 UNL     1      -5.025  -0.023  -0.605  1.00  0.00    -0.025 A 
HETATM    8  C12 UNL     1      -6.371  -0.073  -0.818  1.00  0.00     0.010 A 
HETATM    9  C13 UNL     1      -7.023   0.626   0.161  1.00  0.00     0.001 A 
HETATM   10  C14 UNL     1      -6.551   1.316   1.243  1.00  0.00     0.001 A 
HETATM   11  C15 UNL     1      -5.176   1.278   1.324  1.00  0.00     0.008 A 
HETATM   12  C16 UNL     1      -4.300   0.621   0.429  1.00  0.00    -0.044 A 
HETATM   13  C17 UNL     1      -2.857   0.470   0.316  1.00  0.00     0.057 C 
HETATM   14  C18 UNL     1      -1.747   1.228   0.314  1.00  0.00    -0.006 C 
HETATM   15  H14 UNL     1      -1.304  -3.210   0.541  1.00  0.00     0.196 HD
ENDROOT
BRANCH   1  16
HETATM   16  C7  UNL     1       0.870   0.879   0.082  1.00  0.00     0.204 A 
HETATM   17  C6  UNL     1       1.762  -0.075  -0.097  1.00  0.00     0.038 A 
HETATM   18  C5  UNL     1       2.910   0.810  -0.092  1.00  0.00     0.047 A 
HETATM   19  O1  UNL     1       2.049   1.705   0.079  1.00  0.00    -0.345 OA
BRANCH  18  20
HETATM   20  C4  UNL     1       4.248   1.459  -0.129  1.00  0.00     0.094 C 
BRANCH  20  21
HETATM   21  C3  UNL     1       5.273   0.368  -0.353  1.00  0.00     0.277 C 
BRANCH  21  22
HETATM   22  N1  UNL     1       5.196  -0.582   0.732  1.00  0.00     0.080 N 
HETATM   23  C1  UNL     1       5.655   0.047   1.958  1.00  0.00     0.309 C 
HETATM   24  C2  UNL     1       6.001  -1.763   0.459  1.00  0.00     0.309 C 
ENDBRANCH  21  22
ENDBRANCH  20  21
ENDBRANCH  18  20
ENDBRANCH   1  16
TORSDOF 4
