REMARK  4 active torsions:
REMARK  status: ('A' for Active; 'I' for Inactive)
REMARK    1  A    between atoms: C1_2  and  C15_18 
REMARK    2  A    between atoms: C2_3  and  C3_4 
REMARK    3  A    between atoms: C15_18  and  C16_19 
REMARK    4  A    between atoms: C16_19  and  N1_20 
ROOT
HETATM    1  C3  UNL     1      -1.536  -0.586   0.464  1.00  0.00    -0.041 C 
HETATM    2  C4  UNL     1      -2.327   0.461  -0.261  1.00  0.00     0.127 C 
HETATM    3  C5  UNL     1      -3.577   0.922  -0.348  1.00  0.00     0.146 C 
HETATM    4  O2  UNL     1      -4.979   1.076  -0.119  1.00  0.00    -0.240 OA
HETATM    5  O3  UNL     1      -5.269   1.670   1.069  1.00  0.00    -0.236 OA
HETATM    6  C6  UNL     1      -4.567   1.019   2.137  1.00  0.00     0.249 C 
HETATM    7  C7  UNL     1      -4.972  -0.387   2.221  1.00  0.00    -0.021 A 
HETATM    8  C8  UNL     1      -6.366  -0.358   2.425  1.00  0.00     0.010 A 
HETATM    9  C9  UNL     1      -7.070  -1.569   2.514  1.00  0.00     0.001 A 
HETATM   10  C10 UNL     1      -6.450  -2.747   2.407  1.00  0.00     0.001 A 
HETATM   11  C11 UNL     1      -5.101  -2.829   2.214  1.00  0.00     0.012 A 
HETATM   12  C12 UNL     1      -4.380  -1.668   2.125  1.00  0.00    -0.028 A 
HETATM   13  C13 UNL     1      -2.968  -1.802   1.928  1.00  0.00     0.012 C 
HETATM   14  C14 UNL     1      -1.744  -1.647   1.502  1.00  0.00     0.007 C 
ENDROOT
BRANCH   1  15
HETATM   15  C2  UNL     1      -0.487  -0.173  -0.151  1.00  0.00     0.190 A 
HETATM   16  C1  UNL     1       0.915  -0.289  -0.388  1.00  0.00     0.127 A 
HETATM   17  O1  UNL     1       0.551  -1.173   0.499  1.00  0.00    -0.361 OA
BRANCH  16  18
HETATM   18  C15 UNL     1       2.327  -0.665  -0.390  1.00  0.00     0.074 C 
BRANCH  18  19
HETATM   19  C16 UNL     1       2.953   0.209  -1.466  1.00  0.00     0.275 C 
BRANCH  19  20
HETATM   20  N1  UNL     1       4.361   0.074  -1.575  1.00  0.00     0.088 N 
HETATM   21  C17 UNL     1       5.103   0.548  -0.467  1.00  0.00     0.272 C 
HETATM   22  C18 UNL     1       6.460   1.125  -0.668  1.00  0.00     0.030 C 
HETATM   23  C19 UNL     1       6.571   2.031  -1.884  1.00  0.00     0.003 C 
HETATM   24  C20 UNL     1       5.191   2.068  -2.552  1.00  0.00     0.030 C 
HETATM   25  C21 UNL     1       4.795   0.637  -2.837  1.00  0.00     0.272 C 
ENDBRANCH  19  20
ENDBRANCH  18  19
ENDBRANCH  16  18
ENDBRANCH   1  15
TORSDOF 4
