REMARK  6 active torsions:
REMARK  status: ('A' for Active; 'I' for Inactive)
REMARK    1  A    between atoms: C1_2  and  C2_3 
REMARK    2  A    between atoms: C1_2  and  C9_11 
REMARK    3  A    between atoms: C2_3  and  C3_4 
REMARK    4  A    between atoms: C3_4  and  N1_5 
REMARK    5  A    between atoms: C12_14  and  O2_15 
REMARK    6  A    between atoms: O2_15  and  C13_16 
ROOT
HETATM    1  C9  UNL     1       0.396   0.172   0.435  1.00  0.00     0.024 A 
HETATM    2  C10 UNL     1       1.209   0.106  -0.670  1.00  0.00     0.019 A 
HETATM    3  C11 UNL     1       2.510  -0.347  -0.666  1.00  0.00     0.038 A 
HETATM    4  C12 UNL     1       3.273  -0.817   0.380  1.00  0.00     0.077 A 
HETATM    5  C19 UNL     1       2.778  -0.900   1.680  1.00  0.00     0.054 A 
HETATM    6  P1  UNL     1       1.123  -0.372   1.926  1.00  0.00    -0.016 P 
ENDROOT
BRANCH   1   7
HETATM    7  C1  UNL     1      -0.977   0.646   0.439  1.00  0.00     0.162 C 
HETATM    8  O1  UNL     1      -1.680   0.675   1.491  1.00  0.00    -0.292 OA
BRANCH   7   9
HETATM    9  C2  UNL     1      -1.703   1.133  -0.734  1.00  0.00     0.103 C 
BRANCH   9  10
HETATM   10  C3  UNL     1      -2.820   0.148  -1.069  1.00  0.00     0.124 C 
BRANCH  10  11
HETATM   11  N1  UNL     1      -3.754  -0.010  -0.009  1.00  0.00    -0.412 N 
HETATM   12  C4  UNL     1      -4.581   1.093   0.273  1.00  0.00     0.117 C 
HETATM   13  C5  UNL     1      -6.010   0.864  -0.160  1.00  0.00     0.019 C 
HETATM   14  C6  UNL     1      -6.504  -0.279   0.721  1.00  0.00     0.003 C 
HETATM   15  C7  UNL     1      -5.711  -1.495   0.346  1.00  0.00     0.019 C 
HETATM   16  C8  UNL     1      -4.259  -1.312   0.192  1.00  0.00     0.117 C 
ENDBRANCH  10  11
ENDBRANCH   9  10
ENDBRANCH   7   9
ENDBRANCH   1   7
BRANCH   4  17
HETATM   17  O2  UNL     1       4.569  -1.217   0.124  1.00  0.00    -0.311 OA
BRANCH  17  18
HETATM   18  C13 UNL     1       5.688  -0.432   0.152  1.00  0.00     0.076 A 
HETATM   19  C14 UNL     1       6.831  -1.176  -0.158  1.00  0.00     0.037 A 
HETATM   20  C15 UNL     1       8.098  -0.627  -0.202  1.00  0.00     0.003 A 
HETATM   21  C16 UNL     1       8.251   0.733   0.076  1.00  0.00     0.000 A 
HETATM   22  C17 UNL     1       7.117   1.480   0.387  1.00  0.00     0.003 A 
HETATM   23  C18 UNL     1       5.866   0.906   0.421  1.00  0.00     0.037 A 
ENDBRANCH  17  18
ENDBRANCH   4  17
TORSDOF 6
