REMARK  5 active torsions:
REMARK  status: ('A' for Active; 'I' for Inactive)
REMARK    1  A    between atoms: C7_7  and  C8_8 
REMARK    2  A    between atoms: C8_8  and  C9_9 
REMARK    3  A    between atoms: C9_9  and  C10_10 
REMARK    4  A    between atoms: C11_11  and  C12_12 
REMARK    5  A    between atoms: C12_12  and  C13_13 
REMARK       I    between atoms: C13_13  and  N1_15 
ROOT
HETATM    1  C10 UNL     1      -0.927  -1.510  -0.186  1.00  0.00    -0.030 C 
HETATM    2  C11 UNL     1       0.051  -0.803   0.342  1.00  0.00    -0.022 C 
ENDROOT
BRANCH   1   3
HETATM    3  C9  UNL     1      -2.329  -1.128  -0.393  1.00  0.00     0.031 C 
BRANCH   3   4
HETATM    4  C8  UNL     1      -2.665   0.271   0.078  1.00  0.00     0.043 C 
BRANCH   4   5
HETATM    5  C7  UNL     1      -4.100   0.533  -0.185  1.00  0.00    -0.052 A 
HETATM    6  C2  UNL     1      -4.986  -0.072   0.686  1.00  0.00    -0.056 A 
HETATM    7  C1  UNL     1      -4.634  -0.935   1.830  1.00  0.00     0.049 C 
HETATM    8  C3  UNL     1      -6.332   0.144   0.478  1.00  0.00     0.007 A 
HETATM    9  C4  UNL     1      -6.882   0.913  -0.527  1.00  0.00     0.001 A 
HETATM   10  C5  UNL     1      -5.950   1.507  -1.386  1.00  0.00     0.001 A 
HETATM   11  C6  UNL     1      -4.596   1.300  -1.190  1.00  0.00     0.007 A 
ENDBRANCH   4   5
ENDBRANCH   3   4
ENDBRANCH   1   3
BRANCH   2  12
HETATM   12  C12 UNL     1       1.495  -1.017   0.625  1.00  0.00     0.129 C 
BRANCH  12  13
HETATM   13  C13 UNL     1       2.256   0.012  -0.135  1.00  0.00     0.223 C 
HETATM   14  O1  UNL     1       1.272   0.596  -0.675  1.00  0.00    -0.273 OA
HETATM   15  N1  UNL     1       3.674   0.113  -0.109  1.00  0.00    -0.352 N 
HETATM   16  C14 UNL     1       4.607  -0.735   0.642  1.00  0.00     0.125 C 
HETATM   17  C18 UNL     1       4.254   1.168  -0.911  1.00  0.00     0.125 C 
HETATM   18  C15 UNL     1       5.754   0.199   1.027  1.00  0.00     0.020 C 
HETATM   19  C16 UNL     1       6.511   0.474  -0.255  1.00  0.00     0.003 C 
HETATM   20  C17 UNL     1       5.573   0.640  -1.430  1.00  0.00     0.020 C 
ENDBRANCH  12  13
ENDBRANCH   2  12
TORSDOF 5
