REMARK  5 active torsions:
REMARK  status: ('A' for Active; 'I' for Inactive)
REMARK    1  A    between atoms: N1_2  and  C3_4 
REMARK    2  A    between atoms: C3_4  and  C4_5 
REMARK    3  A    between atoms: C9_10  and  C10_11 
REMARK    4  A    between atoms: C10_11  and  S1_12 
REMARK    5  A    between atoms: S1_12  and  C11_13 
ROOT
HETATM    1  C4  UNL     1      -2.642   0.874   0.404  1.00  0.00    -0.061 C 
HETATM    2  C5  UNL     1      -1.445   0.782  -0.120  1.00  0.00     0.003 C 
HETATM    3  C6  UNL     1      -0.280   1.282  -0.803  1.00  0.00    -0.003 C 
HETATM    4  C7  UNL     1       0.878   0.848  -1.226  1.00  0.00    -0.017 C 
HETATM    5  C8  UNL     1       1.916  -0.082  -1.461  1.00  0.00     0.053 C 
HETATM    6  C9  UNL     1       2.749  -1.062  -1.589  1.00  0.00    -0.011 C 
HETATM    7  C17 UNL     1       2.796  -2.520  -1.312  1.00  0.00     0.186 C 
HETATM    8  O1  UNL     1       2.974  -3.735  -1.132  1.00  0.00    -0.287 OA
HETATM    9  C18 UNL     1       1.434  -2.702  -0.791  1.00  0.00     0.014 A 
HETATM   10  C19 UNL     1       0.501  -2.818  -1.832  1.00  0.00     0.016 A 
HETATM   11  C20 UNL     1      -0.837  -2.911  -1.542  1.00  0.00     0.007 A 
HETATM   12  C21 UNL     1      -1.148  -2.880  -0.212  1.00  0.00    -0.067 A 
HETATM   13  C22 UNL     1      -0.255  -2.773   0.838  1.00  0.00     0.007 A 
HETATM   14  C23 UNL     1       1.085  -2.681   0.538  1.00  0.00     0.016 A 
HETATM   15  C24 UNL     1      -2.544  -2.813   0.390  1.00  0.00    -0.016 C 
HETATM   16  B1  UNL     1      -2.573  -1.524   1.356  1.00  0.00     0.165 B 
HETATM   17  C25 UNL     1      -3.341  -0.201   1.121  1.00  0.00    -0.018 C 
HETATM   18  H26 UNL     1      -2.096  -1.756   2.443  1.00  0.00    -0.026 HD
ENDROOT
BRANCH   6  19
HETATM   19  C10 UNL     1       4.019  -0.684  -2.261  1.00  0.00     0.118 C 
BRANCH  19  20
HETATM   20  S1  UNL     1       5.362  -1.032  -1.066  1.00  0.00    -0.126 SA
BRANCH  20  21
HETATM   21  C11 UNL     1       5.163   0.088   0.306  1.00  0.00     0.000 A 
HETATM   22  C12 UNL     1       5.718   1.335   0.400  1.00  0.00     0.018 A 
HETATM   23  C13 UNL     1       5.516   2.147   1.504  1.00  0.00     0.001 A 
HETATM   24  C14 UNL     1       4.732   1.723   2.574  1.00  0.00     0.000 A 
HETATM   25  C15 UNL     1       4.179   0.465   2.468  1.00  0.00     0.001 A 
HETATM   26  C16 UNL     1       4.397  -0.310   1.368  1.00  0.00     0.018 A 
ENDBRANCH  20  21
ENDBRANCH  19  20
ENDBRANCH   6  19
BRANCH   1  27
HETATM   27  C3  UNL     1      -3.243   2.216   0.282  1.00  0.00     0.304 C 
BRANCH  27  28
HETATM   28  N1  UNL     1      -4.470   2.299  -0.459  1.00  0.00     0.083 N 
HETATM   29  C1  UNL     1      -4.769   3.753  -0.533  1.00  0.00     0.309 C 
HETATM   30  C2  UNL     1      -5.622   1.714   0.216  1.00  0.00     0.309 C 
ENDBRANCH  27  28
ENDBRANCH   1  27
TORSDOF 5
