REMARK  5 active torsions:
REMARK  status: ('A' for Active; 'I' for Inactive)
REMARK    1  A    between atoms: C2_2  and  N1_3 
REMARK    2  A    between atoms: N1_3  and  C4_5 
REMARK    3  A    between atoms: C4_5  and  C5_6 
REMARK    4  A    between atoms: S1_7  and  C6_8 
REMARK    5  A    between atoms: C7_10  and  C8_12 
ROOT
HETATM    1  C6  UNL     1      -0.943  -0.147  -0.423  1.00  0.00     0.083 A 
HETATM    2  O1  UNL     1       0.295   0.362  -0.043  1.00  0.00     0.000 OA
HETATM    3  C7  UNL     1       1.206  -0.089   0.859  1.00  0.00    -0.031 A 
HETATM    4  O2  UNL     1       0.105  -0.539   0.529  1.00  0.00     0.000 OA
ENDROOT
BRANCH   3   5
HETATM    5  C8  UNL     1       2.520   0.349   1.328  1.00  0.00     0.069 A 
HETATM    6  C9  UNL     1       2.989  -0.596   2.405  1.00  0.00     0.011 A 
HETATM    7  C10 UNL     1       4.085  -1.318   2.361  1.00  0.00     0.139 A 
HETATM    8  O3  UNL     1       4.961  -1.290   1.288  1.00  0.00    -0.323 OA
HETATM    9  C11 UNL     1       4.664  -0.455   0.201  1.00  0.00     0.082 A 
HETATM   10  C12 UNL     1       5.558  -0.411  -0.921  1.00  0.00    -0.003 A 
HETATM   11  C18 UNL     1       3.561   0.259   0.265  1.00  0.00     0.025 A 
HETATM   12  C13 UNL     1       6.707  -1.191  -0.919  1.00  0.00     0.014 A 
HETATM   13  C17 UNL     1       5.381   0.350  -2.035  1.00  0.00     0.014 A 
HETATM   14  C14 UNL     1       7.610  -1.193  -1.980  1.00  0.00     0.001 A 
HETATM   15  C15 UNL     1       7.372  -0.397  -3.081  1.00  0.00     0.000 A 
HETATM   16  C16 UNL     1       6.239   0.390  -3.113  1.00  0.00     0.001 A 
ENDBRANCH   3   5
BRANCH   1  17
HETATM   17  S1  UNL     1      -2.109  -0.295   0.961  1.00  0.00    -0.164 SA
HETATM   18  C5  UNL     1      -3.522   0.509   0.958  1.00  0.00    -0.010 A 
HETATM   19  C22 UNL     1      -4.323   0.257   2.168  1.00  0.00     0.015 A 
HETATM   20  C21 UNL     1      -3.993  -0.524   3.184  1.00  0.00     0.002 A 
HETATM   21  C20 UNL     1      -2.752  -1.308   3.320  1.00  0.00     0.006 A 
HETATM   22  C19 UNL     1      -1.787  -1.312   2.389  1.00  0.00     0.039 A 
BRANCH  18  23
HETATM   23  C4  UNL     1      -4.021   1.412  -0.106  1.00  0.00     0.166 C 
BRANCH  23  24
HETATM   24  N1  UNL     1      -5.263   0.821  -0.620  1.00  0.00    -0.393 N 
HETATM   25  C3  UNL     1      -5.564   0.227  -1.909  1.00  0.00     0.148 C 
BRANCH  24  26
HETATM   26  C2  UNL     1      -6.469   0.719   0.115  1.00  0.00     0.058 C 
HETATM   27  C1  UNL     1      -7.027   1.922  -0.043  1.00  0.00     0.049 C 
ENDBRANCH  24  26
ENDBRANCH  23  24
ENDBRANCH  18  23
ENDBRANCH   1  17
TORSDOF 5
