REMARK  6 active torsions:
REMARK  status: ('A' for Active; 'I' for Inactive)
REMARK    1  A    between atoms: O1_2  and  C2_3 
REMARK    2  A    between atoms: C2_3  and  N1_4 
REMARK    3  A    between atoms: N2_10  and  C8_11 
REMARK    4  A    between atoms: C8_11  and  C9_12 
REMARK    5  A    between atoms: C14_19  and  N5_20 
REMARK    6  A    between atoms: N5_20  and  C15_21 
ROOT
HETATM    1  C9  UNL     1      -0.152   1.877  -0.693  1.00  0.00     0.070 A 
HETATM    2  C10 UNL     1       1.027   2.316  -0.290  1.00  0.00     0.051 A 
HETATM    3  C11 UNL     1       1.621   3.441  -0.770  1.00  0.00     0.061 A 
HETATM    4  N3  UNL     1       2.804   3.855  -0.310  1.00  0.00    -0.242 NA
HETATM    5  C12 UNL     1       3.514   3.243   0.632  1.00  0.00     0.234 A 
HETATM    6  N4  UNL     1       2.923   2.149   1.091  1.00  0.00    -0.240 NA
HETATM    7  C13 UNL     1       1.738   1.659   0.690  1.00  0.00     0.088 A 
HETATM    8  C14 UNL     1       1.309   0.557   1.285  1.00  0.00     0.121 C 
HETATM    9  C21 UNL     1       1.124   4.340  -1.791  1.00  0.00    -0.019 A 
HETATM   10  B1  UNL     1      -0.509   3.895  -2.471  1.00  0.00     0.362 B 
HETATM   11  O2  UNL     1      -1.006   2.437  -1.636  1.00  0.00    -0.419 OA
ENDROOT
BRANCH   1  12
HETATM   12  C8  UNL     1      -0.765   0.634  -0.143  1.00  0.00     0.342 C 
BRANCH  12  13
HETATM   13  N2  UNL     1      -1.952   0.368  -0.931  1.00  0.00     0.161 N 
HETATM   14  C2  UNL     1      -2.910  -0.530  -0.391  1.00  0.00     0.458 C 
HETATM   15  C5  UNL     1      -3.998  -0.331  -1.468  1.00  0.00     0.109 C 
HETATM   16  C6  UNL     1      -3.136  -0.398  -2.748  1.00  0.00     0.037 C 
HETATM   17  C7  UNL     1      -1.738  -0.066  -2.260  1.00  0.00     0.279 C 
BRANCH  14  18
HETATM   18  O1  UNL     1      -3.338  -0.175   0.832  1.00  0.00    -0.334 OA
HETATM   19  C1  UNL     1      -3.819   1.073   0.972  1.00  0.00     0.207 C 
ENDBRANCH  14  18
BRANCH  14  20
HETATM   20  N1  UNL     1      -2.467  -1.920  -0.423  1.00  0.00     0.147 N 
HETATM   21  C3  UNL     1      -1.532  -2.271   0.614  1.00  0.00     0.316 C 
HETATM   22  C4  UNL     1      -3.567  -2.844  -0.367  1.00  0.00     0.316 C 
ENDBRANCH  14  20
ENDBRANCH  12  13
ENDBRANCH   1  12
BRANCH   8  23
HETATM   23  N5  UNL     1       2.195   0.004   2.298  1.00  0.00    -0.361 N 
HETATM   24  H20 UNL     1       2.189   0.072   3.355  1.00  0.00     0.165 HD
BRANCH  23  25
HETATM   25  C15 UNL     1       3.319  -0.772   1.816  1.00  0.00     0.072 A 
HETATM   26  C16 UNL     1       3.512  -0.957   0.465  1.00  0.00     0.033 A 
HETATM   27  C17 UNL     1       4.536  -1.663  -0.104  1.00  0.00     0.004 A 
HETATM   28  C18 UNL     1       5.467  -2.248   0.761  1.00  0.00     0.027 A 
HETATM   29  C19 UNL     1       5.311  -2.088   2.122  1.00  0.00     0.074 A 
HETATM   30 CL1  UNL     1       6.408  -2.771   3.291  1.00  0.00    -0.081 Cl
HETATM   31  C20 UNL     1       4.260  -1.366   2.626  1.00  0.00     0.164 A 
HETATM   32  F1  UNL     1       4.084  -1.194   3.976  1.00  0.00    -0.202 F 
ENDBRANCH  23  25
ENDBRANCH   8  23
TORSDOF 6
