REMARK  5 active torsions:
REMARK  status: ('A' for Active; 'I' for Inactive)
REMARK    1  A    between atoms: N1_1  and  C1_2 
REMARK    2  A    between atoms: C1_2  and  C2_3 
REMARK    3  A    between atoms: C16_19  and  C17_20 
REMARK    4  A    between atoms: C17_20  and  N3_21 
REMARK    5  A    between atoms: N3_21  and  N4_22 
ROOT
HETATM    1  C2  UNL     1      -0.478  -1.995   0.486  1.00  0.00    -0.019 C 
HETATM    2  C3  UNL     1       0.217  -1.087   1.184  1.00  0.00     0.097 C 
HETATM    3  N2  UNL     1       0.882   0.168   1.390  1.00  0.00    -0.366 N 
HETATM    4  C4  UNL     1       0.230   1.435   1.676  1.00  0.00     0.090 C 
HETATM    5  C5  UNL     1      -0.843   2.052   1.267  1.00  0.00     0.017 C 
HETATM    6  C6  UNL     1      -1.980   2.890   0.943  1.00  0.00     0.001 C 
HETATM    7  C7  UNL     1      -3.092   3.030   0.253  1.00  0.00    -0.000 C 
HETATM    8  C8  UNL     1      -3.826   2.209  -0.686  1.00  0.00    -0.004 C 
HETATM    9  C9  UNL     1      -4.555   1.541  -1.542  1.00  0.00    -0.025 C 
HETATM   10  C10 UNL     1      -3.948   0.115  -1.833  1.00  0.00     0.053 C 
HETATM   11  C11 UNL     1      -2.656   0.162  -1.070  1.00  0.00     0.172 C 
HETATM   12  O1  UNL     1      -1.796  -0.660  -0.956  1.00  0.00    -0.381 OA
HETATM   13  C12 UNL     1      -0.861  -1.556  -0.839  1.00  0.00     0.153 C 
HETATM   14  C13 UNL     1       0.403  -0.714  -1.450  1.00  0.00     0.036 C 
HETATM   15  C14 UNL     1       1.640  -1.397  -1.532  1.00  0.00     0.003 C 
HETATM   16  C15 UNL     1       2.651  -1.344  -0.423  1.00  0.00     0.008 C 
HETATM   17  C16 UNL     1       2.954   0.066  -0.014  1.00  0.00     0.023 C 
HETATM   18  C18 UNL     1       2.285   0.276   1.336  1.00  0.00     0.134 C 
ENDROOT
BRANCH  17  19
HETATM   19  C17 UNL     1       4.450   0.163   0.325  1.00  0.00     0.150 C 
BRANCH  19  20
HETATM   20  N3  UNL     1       4.714   1.575   0.711  1.00  0.00    -0.289 N 
HETATM   21  H26 UNL     1       5.046   2.341   1.335  1.00  0.00     0.184 HD
BRANCH  20  22
HETATM   22  N4  UNL     1       4.288   2.409  -0.329  1.00  0.00    -0.019 NA
HETATM   23  O2  UNL     1       5.000   2.402  -1.371  1.00  0.00    -0.042 OA
ENDBRANCH  20  22
ENDBRANCH  19  20
ENDBRANCH  17  19
BRANCH   1  24
HETATM   24  C1  UNL     1      -0.773  -3.271   1.240  1.00  0.00     0.149 C 
BRANCH  24  25
HETATM   25  N1  UNL     1      -2.166  -3.491   1.349  1.00  0.00    -0.426 N 
HETATM   26  H1  UNL     1      -2.654  -3.271   2.209  1.00  0.00     0.150 HD
HETATM   27  H2  UNL     1      -2.632  -3.322   0.447  1.00  0.00     0.150 HD
ENDBRANCH  24  25
ENDBRANCH   1  24
TORSDOF 5
