REMARK  9 active torsions:
REMARK  status: ('A' for Active; 'I' for Inactive)
REMARK    1  A    between atoms: N1_2  and  C3_4 
REMARK    2  A    between atoms: C3_4  and  C4_5 
REMARK    3  A    between atoms: C4_5  and  C5_6 
REMARK    4  A    between atoms: C4_5  and  C7_12 
REMARK    5  A    between atoms: C5_6  and  N2_7 
REMARK    6  A    between atoms: N2_7  and  N3_8 
REMARK       I    between atoms: N3_8  and  C6_9 
REMARK       I    between atoms: C6_9  and  N4_10 
REMARK    7  A    between atoms: C11_16  and  O2_17 
REMARK    8  A    between atoms: O2_17  and  C12_18 
REMARK    9  A    between atoms: C12_18  and  C13_19 
ROOT
HETATM    1  C7  UNL     1      -0.980  -0.456   0.669  1.00  0.00     0.037 C 
HETATM    2  C8  UNL     1      -0.322  -1.778   0.971  1.00  0.00    -0.018 C 
HETATM    3  C9  UNL     1       0.871  -2.325   0.889  1.00  0.00    -0.001 C 
HETATM    4  C10 UNL     1       2.035  -1.573   0.369  1.00  0.00     0.036 C 
HETATM    5  C11 UNL     1       2.043  -0.512  -0.461  1.00  0.00     0.068 C 
HETATM    6  C19 UNL     1       0.813   0.101  -1.015  1.00  0.00     0.033 C 
HETATM    7  C20 UNL     1      -0.424   0.126  -0.556  1.00  0.00    -0.015 C 
ENDROOT
BRANCH   1   8
HETATM    8  C4  UNL     1      -2.452  -0.617   0.707  1.00  0.00     0.040 C 
BRANCH   8   9
HETATM    9  C3  UNL     1      -2.888  -1.615  -0.325  1.00  0.00     0.278 C 
BRANCH   9  10
HETATM   10  N1  UNL     1      -4.280  -1.967  -0.231  1.00  0.00     0.080 N 
HETATM   11  C1  UNL     1      -4.599  -2.721   0.954  1.00  0.00     0.309 C 
HETATM   12  C2  UNL     1      -4.791  -2.566  -1.437  1.00  0.00     0.309 C 
ENDBRANCH   9  10
ENDBRANCH   8   9
BRANCH   8  13
HETATM   13  C5  UNL     1      -3.190   0.687   0.631  1.00  0.00     0.117 C 
BRANCH  13  14
HETATM   14  N2  UNL     1      -3.063   1.364  -0.615  1.00  0.00    -0.236 NA
HETATM   15  H12 UNL     1      -3.346   0.784  -1.438  1.00  0.00     0.146 HD
BRANCH  14  16
HETATM   16  N3  UNL     1      -3.753   2.575  -0.703  1.00  0.00    -0.274 N 
HETATM   17  C6  UNL     1      -3.259   3.872  -0.366  1.00  0.00     0.328 C 
HETATM   18  N4  UNL     1      -4.111   4.987  -0.522  1.00  0.00    -0.351 N 
HETATM   19  O1  UNL     1      -2.114   4.117   0.066  1.00  0.00    -0.246 OA
HETATM   20  H14 UNL     1      -5.049   5.126  -0.924  1.00  0.00     0.160 HD
HETATM   21  H15 UNL     1      -3.889   5.948  -0.217  1.00  0.00     0.160 HD
HETATM   22  H13 UNL     1      -4.741   2.518  -1.055  1.00  0.00     0.185 HD
ENDBRANCH  14  16
ENDBRANCH  13  14
ENDBRANCH   8  13
ENDBRANCH   1   8
BRANCH   5  23
HETATM   23  O2  UNL     1       3.317  -0.042  -0.753  1.00  0.00    -0.347 OA
BRANCH  23  24
HETATM   24  C12 UNL     1       4.111   0.407   0.330  1.00  0.00     0.214 C 
BRANCH  24  25
HETATM   25  C13 UNL     1       5.488   0.712  -0.135  1.00  0.00    -0.034 A 
HETATM   26  C14 UNL     1       6.336  -0.387  -0.066  1.00  0.00     0.009 A 
HETATM   27  C15 UNL     1       7.658  -0.363  -0.437  1.00  0.00     0.001 A 
HETATM   28  C16 UNL     1       8.164   0.848  -0.910  1.00  0.00     0.000 A 
HETATM   29  C17 UNL     1       7.340   1.945  -0.985  1.00  0.00     0.001 A 
HETATM   30  C18 UNL     1       6.010   1.893  -0.603  1.00  0.00     0.009 A 
ENDBRANCH  24  25
ENDBRANCH  23  24
ENDBRANCH   5  23
TORSDOF 9
