REMARK  9 active torsions:
REMARK  status: ('A' for Active; 'I' for Inactive)
REMARK    1  A    between atoms: N1_2  and  C2_3 
REMARK    2  A    between atoms: C2_3  and  C3_4 
REMARK    3  A    between atoms: C3_4  and  C4_5 
REMARK    4  A    between atoms: C3_4  and  C5_8 
REMARK    5  A    between atoms: C4_5  and  N2_6 
REMARK    6  A    between atoms: C5_8  and  C6_10 
REMARK    7  A    between atoms: C9_13  and  O2_14 
REMARK    8  A    between atoms: O2_14  and  C10_15 
REMARK    9  A    between atoms: C10_15  and  C11_16 
ROOT
HETATM    1  C6  UNL     1      -0.761   0.744  -0.289  1.00  0.00     0.010 A 
HETATM    2  C7  UNL     1      -0.430   1.772  -1.138  1.00  0.00     0.018 A 
HETATM    3  C8  UNL     1       0.923   2.139  -1.058  1.00  0.00     0.037 A 
HETATM    4  C9  UNL     1       1.843   1.513  -0.191  1.00  0.00     0.069 A 
HETATM    5  C17 UNL     1       1.380   0.498   0.605  1.00  0.00     0.037 A 
HETATM    6  C18 UNL     1       0.070   0.078   0.586  1.00  0.00     0.018 A 
ENDROOT
BRANCH   1   7
HETATM    7  C5  UNL     1      -2.113   0.252  -0.269  1.00  0.00     0.167 C 
HETATM    8  O1  UNL     1      -2.921   0.831  -1.077  1.00  0.00    -0.292 OA
BRANCH   7   9
HETATM    9  C3  UNL     1      -3.186  -0.594   0.173  1.00  0.00     0.110 C 
BRANCH   9  10
HETATM   10  C2  UNL     1      -4.456  -0.235  -0.613  1.00  0.00     0.283 C 
BRANCH  10  11
HETATM   11  N1  UNL     1      -5.547  -1.059  -0.126  1.00  0.00     0.080 N 
HETATM   12  C1  UNL     1      -5.275  -2.443  -0.523  1.00  0.00     0.306 C 
HETATM   13  H4  UNL     1      -6.431  -0.812  -0.604  1.00  0.00     0.315 HD
ENDBRANCH  10  11
ENDBRANCH   9  10
BRANCH   9  14
HETATM   14  C4  UNL     1      -3.519  -0.285   1.627  1.00  0.00     0.187 C 
BRANCH  14  15
HETATM   15  N2  UNL     1      -3.856   1.095   1.817  1.00  0.00    -0.200 NA
HETATM   16  N3  UNL     1      -5.016   1.526   1.896  1.00  0.00    -0.209 NA
HETATM   17  H10 UNL     1      -5.838   0.906   1.831  1.00  0.00     0.211 HD
ENDBRANCH  14  15
ENDBRANCH   9  14
ENDBRANCH   7   9
ENDBRANCH   1   7
BRANCH   4  18
HETATM   18  O2  UNL     1       3.034   2.128  -0.388  1.00  0.00    -0.347 OA
BRANCH  18  19
HETATM   19  C10 UNL     1       4.276   1.963   0.138  1.00  0.00     0.214 C 
BRANCH  19  20
HETATM   20  C11 UNL     1       4.844   0.631  -0.140  1.00  0.00    -0.034 A 
HETATM   21  C12 UNL     1       5.482   0.482  -1.369  1.00  0.00     0.009 A 
HETATM   22  C13 UNL     1       6.103  -0.673  -1.839  1.00  0.00     0.001 A 
HETATM   23  C14 UNL     1       6.062  -1.769  -0.963  1.00  0.00     0.000 A 
HETATM   24  C15 UNL     1       5.455  -1.710   0.268  1.00  0.00     0.001 A 
HETATM   25  C16 UNL     1       4.887  -0.505   0.593  1.00  0.00     0.009 A 
ENDBRANCH  19  20
ENDBRANCH  18  19
ENDBRANCH   4  18
TORSDOF 9
