REMARK  7 active torsions:
REMARK  status: ('A' for Active; 'I' for Inactive)
REMARK    1  A    between atoms: O1_2  and  C2_3 
REMARK    2  A    between atoms: C6_7  and  C7_8 
REMARK    3  A    between atoms: C6_7  and  N2_10 
REMARK    4  A    between atoms: C7_8  and  N1_9 
REMARK    5  A    between atoms: N2_10  and  C8_11 
REMARK    6  A    between atoms: C20_26  and  N5_27 
REMARK    7  A    between atoms: C22_29  and  O2_30 
ROOT
HETATM    1  C8  UNL     1      -0.787  -0.309   1.143  1.00  0.00     0.134 C 
HETATM    2  C9  UNL     1      -0.587  -1.388   0.074  1.00  0.00     0.175 C 
HETATM    3  N3  UNL     1      -1.756  -1.908  -0.475  1.00  0.00    -0.297 NA
HETATM    4  C10 UNL     1      -2.104  -3.061  -0.847  1.00  0.00     0.158 C 
HETATM    5  C11 UNL     1      -3.448  -2.588  -1.258  1.00  0.00     0.229 A 
HETATM    6  S1  UNL     1      -4.775  -3.344  -1.893  1.00  0.00     0.126 SA
HETATM    7  N4  UNL     1      -4.307  -1.466  -1.418  1.00  0.00     0.029 N 
HETATM    8  C12 UNL     1      -5.283  -0.437  -1.626  1.00  0.00     0.296 C 
HETATM    9  C13 UNL     1      -4.921   0.866  -1.014  1.00  0.00    -0.025 A 
HETATM   10  C14 UNL     1      -5.696   1.882  -1.587  1.00  0.00     0.009 A 
HETATM   11  C15 UNL     1      -5.673   3.210  -1.284  1.00  0.00     0.001 A 
HETATM   12  C16 UNL     1      -4.799   3.630  -0.307  1.00  0.00     0.001 A 
HETATM   13  C17 UNL     1      -4.026   2.626   0.267  1.00  0.00     0.008 A 
HETATM   14  C18 UNL     1      -4.015   1.273  -0.008  1.00  0.00    -0.048 A 
HETATM   15  C19 UNL     1      -3.054   0.487   0.778  1.00  0.00     0.076 C 
HETATM   16  C20 UNL     1      -1.622   0.821   0.640  1.00  0.00     0.246 C 
HETATM   17  H16 UNL     1      -3.425  -0.947  -1.282  1.00  0.00     0.303 HD
ENDROOT
BRANCH   1  18
HETATM   18  N2  UNL     1       0.560   0.214   1.429  1.00  0.00    -0.383 N 
HETATM   19  H11 UNL     1       0.862   1.207   1.299  1.00  0.00     0.160 HD
BRANCH  18  20
HETATM   20  C6  UNL     1       1.783  -0.283   1.906  1.00  0.00     0.040 C 
HETATM   21  C5  UNL     1       2.916  -0.499   1.259  1.00  0.00    -0.028 A 
HETATM   22  C4  UNL     1       4.039  -1.032   2.071  1.00  0.00     0.070 A 
HETATM   23  C21 UNL     1       3.059  -0.233  -0.160  1.00  0.00     0.049 A 
HETATM   24  C3  UNL     1       5.227  -1.205   1.182  1.00  0.00     0.017 A 
HETATM   25  C2  UNL     1       5.377  -0.968  -0.108  1.00  0.00     0.098 A 
HETATM   26  C22 UNL     1       4.197  -0.450  -0.788  1.00  0.00     0.101 A 
BRANCH  25  27
HETATM   27  O1  UNL     1       6.615  -1.229  -0.673  1.00  0.00    -0.353 OA
HETATM   28  C1  UNL     1       6.808  -1.802  -1.941  1.00  0.00     0.210 C 
ENDBRANCH  25  27
BRANCH  26  29
HETATM   29  O2  UNL     1       4.338  -0.193  -2.160  1.00  0.00    -0.353 OA
HETATM   30  C23 UNL     1       4.063   1.135  -2.576  1.00  0.00     0.210 C 
ENDBRANCH  26  29
BRANCH  20  31
HETATM   31  C7  UNL     1       1.665  -0.562   3.351  1.00  0.00     0.323 C 
BRANCH  31  32
HETATM   32  N1  UNL     1       1.326   0.624   4.111  1.00  0.00     0.083 N 
HETATM   33  H9  UNL     1       1.124   1.441   3.488  1.00  0.00     0.313 HD
HETATM   34  H10 UNL     1       0.480   0.426   4.724  1.00  0.00     0.313 HD
ENDBRANCH  31  32
ENDBRANCH  20  31
ENDBRANCH  18  20
ENDBRANCH   1  18
BRANCH  16  35
HETATM   35  N5  UNL     1      -1.301   2.013   1.424  1.00  0.00     0.085 N 
HETATM   36  H26 UNL     1      -0.590   2.607   0.969  1.00  0.00     0.313 HD
HETATM   37  H27 UNL     1      -1.043   1.682   2.384  1.00  0.00     0.313 HD
ENDBRANCH  16  35
TORSDOF 7
