REMARK  0 active torsions:
REMARK  status: ('A' for Active; 'I' for Inactive)
ROOT
HETATM    1  C1  UNL     1       0.244   3.180   0.350  1.00  0.00    -0.006 C 
HETATM    2  C2  UNL     1       1.067   2.315   0.891  1.00  0.00     0.087 C 
HETATM    3  N1  UNL     1       1.127   0.900   0.884  1.00  0.00    -0.355 N 
HETATM    4  C3  UNL     1       0.048   0.467   1.740  1.00  0.00     0.158 C 
HETATM    5  C4  UNL     1       0.005  -1.050   1.862  1.00  0.00     0.295 C 
HETATM    6  N2  UNL     1       0.007  -1.690   0.590  1.00  0.00     0.129 N 
HETATM    7  C5  UNL     1      -1.145  -1.490  -0.234  1.00  0.00     0.450 C 
HETATM    8  N3  UNL     1      -2.392  -1.585   0.413  1.00  0.00    -0.230 NA
HETATM    9  C6  UNL     1      -3.598  -1.258   0.122  1.00  0.00     0.212 C 
HETATM   10  N4  UNL     1      -4.111  -0.623  -1.079  1.00  0.00    -0.320 N 
HETATM   11  S1  UNL     1      -3.129   0.316  -2.251  1.00  0.00     0.004 SA
HETATM   12  C7  UNL     1      -1.716   0.939  -1.301  1.00  0.00     0.088 C 
HETATM   13  C8  UNL     1      -1.541   2.206  -1.012  1.00  0.00     0.015 C 
HETATM   14  C9  UNL     1      -0.932   3.460  -0.458  1.00  0.00     0.058 C 
HETATM   15  N5  UNL     1      -0.930  -0.257  -1.021  1.00  0.00    -0.323 N 
HETATM   16  C10 UNL     1       0.337  -0.173  -1.719  1.00  0.00     0.168 C 
HETATM   17  C11 UNL     1       1.449  -0.660  -0.889  1.00  0.00    -0.013 A 
HETATM   18  C12 UNL     1       2.238  -1.714  -1.307  1.00  0.00     0.011 A 
HETATM   19  C13 UNL     1       3.317  -2.267  -0.651  1.00  0.00     0.001 A 
HETATM   20  C14 UNL     1       3.660  -1.713   0.561  1.00  0.00     0.002 A 
HETATM   21  C15 UNL     1       2.921  -0.658   1.044  1.00  0.00     0.030 A 
HETATM   22  C16 UNL     1       1.861  -0.174   0.321  1.00  0.00     0.042 A 
HETATM   23  H7  UNL     1       0.166  -2.714   0.718  1.00  0.00     0.321 HD
HETATM   24  H10 UNL     1      -5.138  -0.784  -1.175  1.00  0.00     0.175 HD
ENDROOT
TORSDOF 0
