REMARK  7 active torsions:
REMARK  status: ('A' for Active; 'I' for Inactive)
REMARK    1  A    between atoms: O1_2  and  C2_3 
REMARK    2  A    between atoms: C6_9  and  N3_10 
REMARK    3  A    between atoms: C10_15  and  C11_16 
REMARK    4  A    between atoms: C11_16  and  N5_18 
REMARK    5  A    between atoms: N5_18  and  C12_19 
REMARK    6  A    between atoms: C12_19  and  C13_20 
REMARK    7  A    between atoms: C21_28  and  O2_29 
ROOT
HETATM    1  N3  UNL     1       0.370  -0.687  -0.368  1.00  0.00    -0.328 N 
HETATM    2  C7  UNL     1       0.957  -1.979   0.014  1.00  0.00     0.157 C 
HETATM    3  C8  UNL     1      -0.339  -2.792   0.149  1.00  0.00     0.295 C 
HETATM    4  N4  UNL     1      -0.963  -2.464  -1.095  1.00  0.00     0.115 N 
HETATM    5  C9  UNL     1      -0.834  -3.462  -2.120  1.00  0.00     0.313 C 
HETATM    6  C10 UNL     1      -0.419  -1.174  -1.480  1.00  0.00     0.387 C 
ENDROOT
BRANCH   1   7
HETATM    7  C6  UNL     1       0.671   0.543   0.323  1.00  0.00     0.141 A 
HETATM    8  N2  UNL     1      -0.243   1.279   0.977  1.00  0.00    -0.224 NA
HETATM    9  C5  UNL     1       0.071   2.418   1.612  1.00  0.00     0.236 A 
HETATM   10  N1  UNL     1       1.335   2.872   1.617  1.00  0.00    -0.241 NA
HETATM   11  C4  UNL     1       2.314   2.210   0.994  1.00  0.00     0.075 A 
HETATM   12  C3  UNL     1       3.600   2.719   1.024  1.00  0.00     0.072 A 
HETATM   13  C19 UNL     1       1.969   1.040   0.347  1.00  0.00     0.041 A 
HETATM   14  C2  UNL     1       4.587   2.010   0.366  1.00  0.00     0.103 A 
HETATM   15  C21 UNL     1       4.316   0.824  -0.309  1.00  0.00     0.102 A 
HETATM   16  C20 UNL     1       3.007   0.390  -0.286  1.00  0.00     0.057 A 
BRANCH  14  17
HETATM   17  O1  UNL     1       5.869   2.535   0.406  1.00  0.00    -0.353 OA
HETATM   18  C1  UNL     1       6.098   3.745   1.103  1.00  0.00     0.210 C 
ENDBRANCH  14  17
BRANCH  15  19
HETATM   19  O2  UNL     1       5.387   0.235  -0.912  1.00  0.00    -0.353 OA
HETATM   20  C22 UNL     1       5.232  -0.972  -1.628  1.00  0.00     0.210 C 
ENDBRANCH  15  19
ENDBRANCH   1   7
BRANCH   6  21
HETATM   21  C11 UNL     1      -1.553  -0.284  -1.842  1.00  0.00     0.127 C 
HETATM   22  S1  UNL     1      -1.416   0.567  -3.255  1.00  0.00    -0.061 SA
BRANCH  21  23
HETATM   23  N5  UNL     1      -2.731  -0.123  -1.058  1.00  0.00    -0.377 N 
HETATM   24  H14 UNL     1      -3.465   0.554  -1.424  1.00  0.00     0.160 HD
BRANCH  23  25
HETATM   25  C12 UNL     1      -3.101  -0.737   0.184  1.00  0.00     0.159 C 
BRANCH  25  26
HETATM   26  C13 UNL     1      -4.457  -0.310   0.677  1.00  0.00    -0.041 A 
HETATM   27  C14 UNL     1      -4.589   0.795   1.494  1.00  0.00     0.009 A 
HETATM   28  C15 UNL     1      -5.833   1.226   1.976  1.00  0.00     0.001 A 
HETATM   29  C16 UNL     1      -6.978   0.509   1.614  1.00  0.00     0.000 A 
HETATM   30  C17 UNL     1      -6.845  -0.602   0.792  1.00  0.00     0.001 A 
HETATM   31  C18 UNL     1      -5.599  -1.007   0.328  1.00  0.00     0.009 A 
ENDBRANCH  25  26
ENDBRANCH  23  25
ENDBRANCH  21  23
ENDBRANCH   6  21
TORSDOF 7
