REMARK  4 active torsions:
REMARK  status: ('A' for Active; 'I' for Inactive)
REMARK    1  A    between atoms: N4_15  and  C12_16 
REMARK    2  A    between atoms: C12_16  and  N5_17 
REMARK    3  A    between atoms: N5_17  and  C13_18 
REMARK    4  A    between atoms: C13_18  and  C14_19 
ROOT
HETATM    1  C1  UNL     1      -1.172  -2.017   2.463  1.00  0.00     0.131 C 
HETATM    2  C2  UNL     1      -0.865  -1.759   1.224  1.00  0.00     0.008 C 
HETATM    3  C3  UNL     1      -1.733  -1.243   0.103  1.00  0.00     0.065 C 
HETATM    4  C4  UNL     1      -3.115  -1.273   0.559  1.00  0.00    -0.045 C 
HETATM    5  C5  UNL     1      -4.255  -0.724   0.095  1.00  0.00     0.022 C 
HETATM    6  C6  UNL     1      -4.301   0.107  -1.108  1.00  0.00     0.028 A 
HETATM    7  C7  UNL     1      -5.536   0.174  -1.702  1.00  0.00     0.133 A 
HETATM    8  N1  UNL     1      -5.660   0.924  -2.817  1.00  0.00    -0.253 NA
HETATM    9  C8  UNL     1      -4.635   1.607  -3.375  1.00  0.00     0.234 A 
HETATM   10  N2  UNL     1      -3.387   1.573  -2.821  1.00  0.00    -0.224 NA
HETATM   11  C9  UNL     1      -3.268   0.814  -1.696  1.00  0.00     0.139 A 
HETATM   12  N3  UNL     1      -1.928   0.864  -1.222  1.00  0.00    -0.356 N 
HETATM   13  C10 UNL     1      -1.201   2.060  -1.662  1.00  0.00     0.155 C 
HETATM   14  C11 UNL     1      -0.737   2.770  -0.418  1.00  0.00     0.294 C 
HETATM   15  N4  UNL     1       0.210   1.931   0.250  1.00  0.00     0.119 N 
HETATM   16  C20 UNL     1      -0.489   0.757   0.729  1.00  0.00     0.300 C 
HETATM   17  C21 UNL     1      -1.151  -0.003  -0.409  1.00  0.00     0.126 C 
HETATM   18  C22 UNL     1      -3.471  -2.050   1.801  1.00  0.00     0.209 C 
HETATM   19  O1  UNL     1      -2.494  -1.787   2.818  1.00  0.00    -0.359 OA
ENDROOT
BRANCH  15  20
HETATM   20  C12 UNL     1       1.378   1.636  -0.519  1.00  0.00     0.540 C 
BRANCH  20  21
HETATM   21  N5  UNL     1       2.258   0.786   0.261  1.00  0.00     0.115 N 
HETATM   22  H13 UNL     1       2.502   1.183   1.178  1.00  0.00     0.318 HD
BRANCH  21  23
HETATM   23  C13 UNL     1       3.418   0.522  -0.565  1.00  0.00     0.310 C 
BRANCH  23  24
HETATM   24  C14 UNL     1       4.425  -0.345   0.101  1.00  0.00    -0.030 A 
HETATM   25  C15 UNL     1       4.413  -1.741   0.005  1.00  0.00     0.009 A 
HETATM   26  C16 UNL     1       5.376  -2.486   0.647  1.00  0.00     0.001 A 
HETATM   27  C17 UNL     1       6.380  -1.915   1.402  1.00  0.00     0.000 A 
HETATM   28  C18 UNL     1       6.426  -0.534   1.522  1.00  0.00     0.001 A 
HETATM   29  C19 UNL     1       5.442   0.181   0.862  1.00  0.00     0.009 A 
ENDBRANCH  23  24
ENDBRANCH  21  23
ENDBRANCH  20  21
ENDBRANCH  15  20
TORSDOF 4
