REMARK  7 active torsions:
REMARK  status: ('A' for Active; 'I' for Inactive)
REMARK    1  A    between atoms: O1_2  and  C2_3 
REMARK    2  A    between atoms: C6_9  and  N3_10 
REMARK    3  A    between atoms: N4_13  and  C9_14 
REMARK    4  A    between atoms: C9_14  and  N5_16 
REMARK    5  A    between atoms: N5_16  and  C10_17 
REMARK    6  A    between atoms: C10_17  and  C11_18 
REMARK    7  A    between atoms: C20_27  and  O2_28 
ROOT
HETATM    1  N3  UNL     1       0.989  -1.342  -0.629  1.00  0.00    -0.347 N 
HETATM    2  C7  UNL     1       0.260  -2.608  -0.876  1.00  0.00     0.146 C 
HETATM    3  C8  UNL     1      -0.877  -2.514   0.120  1.00  0.00     0.147 C 
HETATM    4  N4  UNL     1      -1.291  -1.145  -0.118  1.00  0.00    -0.340 N 
HETATM    5  C17 UNL     1       0.036  -0.617   0.145  1.00  0.00     0.253 C 
ENDROOT
BRANCH   1   6
HETATM    6  C6  UNL     1       2.274  -1.254  -1.211  1.00  0.00     0.141 A 
HETATM    7  N2  UNL     1       2.674  -2.034  -2.229  1.00  0.00    -0.224 NA
HETATM    8  C5  UNL     1       3.860  -1.962  -2.844  1.00  0.00     0.236 A 
HETATM    9  N1  UNL     1       4.769  -1.052  -2.454  1.00  0.00    -0.241 NA
HETATM   10  C4  UNL     1       4.494  -0.207  -1.443  1.00  0.00     0.075 A 
HETATM   11  C3  UNL     1       5.427   0.719  -1.033  1.00  0.00     0.072 A 
HETATM   12  C18 UNL     1       3.252  -0.349  -0.865  1.00  0.00     0.041 A 
HETATM   13  C2  UNL     1       5.152   1.577   0.011  1.00  0.00     0.103 A 
HETATM   14  C20 UNL     1       3.922   1.477   0.626  1.00  0.00     0.102 A 
HETATM   15  C19 UNL     1       3.030   0.530   0.172  1.00  0.00     0.057 A 
BRANCH  13  16
HETATM   16  O1  UNL     1       6.070   2.516   0.441  1.00  0.00    -0.353 OA
HETATM   17  C1  UNL     1       7.336   2.693  -0.116  1.00  0.00     0.210 C 
ENDBRANCH  13  16
BRANCH  14  18
HETATM   18  O2  UNL     1       3.647   2.341   1.677  1.00  0.00    -0.353 OA
HETATM   19  C21 UNL     1       2.370   2.230   2.309  1.00  0.00     0.210 C 
ENDBRANCH  14  18
ENDBRANCH   1   6
BRANCH   4  20
HETATM   20  C9  UNL     1      -2.552  -0.596  -0.476  1.00  0.00     0.171 C 
HETATM   21  S1  UNL     1      -2.422   1.025  -0.614  1.00  0.00    -0.041 SA
BRANCH  20  22
HETATM   22  N5  UNL     1      -3.675  -1.410  -0.661  1.00  0.00    -0.363 N 
HETATM   23  H10 UNL     1      -3.485  -2.449  -0.512  1.00  0.00     0.162 HD
BRANCH  22  24
HETATM   24  C10 UNL     1      -5.023  -1.085  -1.015  1.00  0.00     0.160 C 
BRANCH  24  25
HETATM   25  C11 UNL     1      -5.639  -0.201   0.009  1.00  0.00    -0.041 A 
HETATM   26  C12 UNL     1      -5.718   1.174   0.021  1.00  0.00     0.009 A 
HETATM   27  C13 UNL     1      -6.312   1.858   1.053  1.00  0.00     0.001 A 
HETATM   28  C14 UNL     1      -6.866   1.214   2.139  1.00  0.00     0.000 A 
HETATM   29  C15 UNL     1      -6.820  -0.163   2.188  1.00  0.00     0.001 A 
HETATM   30  C16 UNL     1      -6.214  -0.809   1.131  1.00  0.00     0.009 A 
ENDBRANCH  24  25
ENDBRANCH  22  24
ENDBRANCH  20  22
ENDBRANCH   4  20
TORSDOF 7
