REMARK  7 active torsions:
REMARK  status: ('A' for Active; 'I' for Inactive)
REMARK    1  A    between atoms: O1_2  and  C2_3 
REMARK    2  A    between atoms: C6_9  and  C7_10 
REMARK    3  A    between atoms: N3_13  and  C10_14 
REMARK    4  A    between atoms: C10_14  and  N4_16 
REMARK    5  A    between atoms: N4_16  and  C11_17 
REMARK    6  A    between atoms: C11_17  and  C12_18 
REMARK    7  A    between atoms: C21_27  and  O2_28 
ROOT
HETATM    1  C7  UNL     1      -0.809   1.852  -0.562  1.00  0.00     0.058 C 
HETATM    2  C8  UNL     1      -0.843   1.853  -2.096  1.00  0.00     0.032 C 
HETATM    3  C9  UNL     1       0.385   0.982  -2.356  1.00  0.00     0.126 C 
HETATM    4  N3  UNL     1       1.321   1.403  -1.337  1.00  0.00    -0.358 N 
HETATM    5  C18 UNL     1       0.636   2.252  -0.351  1.00  0.00     0.136 C 
ENDROOT
BRANCH   1   6
HETATM    6  C6  UNL     1      -0.922   0.457  -0.029  1.00  0.00     0.054 A 
HETATM    7  N2  UNL     1       0.152  -0.318   0.212  1.00  0.00    -0.245 NA
HETATM    8  C5  UNL     1       0.030  -1.561   0.688  1.00  0.00     0.234 A 
HETATM    9  N1  UNL     1      -1.175  -2.098   0.950  1.00  0.00    -0.241 NA
HETATM   10  C4  UNL     1      -2.324  -1.394   0.738  1.00  0.00     0.073 A 
HETATM   11  C3  UNL     1      -3.573  -1.921   0.998  1.00  0.00     0.072 A 
HETATM   12  C19 UNL     1      -2.156  -0.115   0.247  1.00  0.00     0.021 A 
HETATM   13  C2  UNL     1      -4.714  -1.177   0.771  1.00  0.00     0.103 A 
HETATM   14  C21 UNL     1      -4.594   0.112   0.278  1.00  0.00     0.102 A 
HETATM   15  C20 UNL     1      -3.320   0.587   0.036  1.00  0.00     0.055 A 
BRANCH  13  16
HETATM   16  O1  UNL     1      -5.991  -1.670   1.019  1.00  0.00    -0.353 OA
HETATM   17  C1  UNL     1      -6.099  -3.007   1.530  1.00  0.00     0.210 C 
ENDBRANCH  13  16
BRANCH  14  18
HETATM   18  O2  UNL     1      -5.725   0.849   0.053  1.00  0.00    -0.353 OA
HETATM   19  C22 UNL     1      -5.633   2.150  -0.444  1.00  0.00     0.210 C 
ENDBRANCH  14  18
ENDBRANCH   1   6
BRANCH   4  20
HETATM   20  C10 UNL     1       2.724   1.077  -1.240  1.00  0.00     0.170 C 
HETATM   21  S1  UNL     1       3.297   0.116  -2.449  1.00  0.00    -0.041 SA
BRANCH  20  22
HETATM   22  N4  UNL     1       3.516   1.569  -0.176  1.00  0.00    -0.363 N 
HETATM   23  H11 UNL     1       2.987   2.173   0.502  1.00  0.00     0.162 HD
BRANCH  22  24
HETATM   24  C11 UNL     1       4.885   1.422   0.178  1.00  0.00     0.160 C 
BRANCH  24  25
HETATM   25  C12 UNL     1       5.175  -0.010   0.457  1.00  0.00    -0.041 A 
HETATM   26  C13 UNL     1       4.877  -0.366   1.763  1.00  0.00     0.009 A 
HETATM   27  C14 UNL     1       5.064  -1.629   2.274  1.00  0.00     0.001 A 
HETATM   28  C15 UNL     1       5.580  -2.612   1.447  1.00  0.00     0.000 A 
HETATM   29  C16 UNL     1       5.874  -2.263   0.160  1.00  0.00     0.001 A 
HETATM   30  C17 UNL     1       5.685  -0.998  -0.345  1.00  0.00     0.009 A 
ENDBRANCH  24  25
ENDBRANCH  22  24
ENDBRANCH  20  22
ENDBRANCH   4  20
TORSDOF 7
