REMARK  5 active torsions:
REMARK  status: ('A' for Active; 'I' for Inactive)
REMARK    1  A    between atoms: O1_2  and  C2_3 
REMARK    2  A    between atoms: N3_9  and  C6_10 
REMARK    3  A    between atoms: C14_20  and  C15_21 
REMARK    4  A    between atoms: C15_21  and  N4_22 
REMARK    5  A    between atoms: C19_26  and  C20_27 
REMARK       I    between atoms: C20_27  and  N5_29 
ROOT
HETATM    1  C2  UNL     1      -0.078  -2.910   1.047  1.00  0.00     0.172 C 
HETATM    2  C3  UNL     1      -0.816  -3.292  -0.178  1.00  0.00     0.268 C 
HETATM    3  N1  UNL     1      -1.636  -3.444  -1.211  1.00  0.00    -0.296 NA
HETATM    4  C4  UNL     1      -2.713  -2.482  -1.170  1.00  0.00     0.164 C 
HETATM    5  N2  UNL     1      -2.016  -1.393  -1.400  1.00  0.00    -0.272 NA
HETATM    6  C5  UNL     1      -2.768  -0.155  -1.433  1.00  0.00     0.274 C 
HETATM    7  N3  UNL     1      -2.972   0.311  -0.042  1.00  0.00    -0.357 N 
HETATM    8  C12 UNL     1      -2.517  -0.520   1.054  1.00  0.00     0.152 C 
HETATM    9  C13 UNL     1      -1.037  -0.656   1.156  1.00  0.00    -0.000 C 
HETATM   10  C14 UNL     1       0.091  -1.441   1.179  1.00  0.00    -0.035 C 
ENDROOT
BRANCH  10  11
HETATM   11  C15 UNL     1       1.314  -0.664   1.428  1.00  0.00     0.154 C 
BRANCH  11  12
HETATM   12  N4  UNL     1       2.328  -0.586   0.494  1.00  0.00    -0.396 N 
HETATM   13  C16 UNL     1       3.182  -1.629   0.139  1.00  0.00     0.118 C 
HETATM   14  C17 UNL     1       2.787  -2.009  -1.290  1.00  0.00     0.022 C 
HETATM   15  C18 UNL     1       2.336  -0.673  -1.865  1.00  0.00     0.036 C 
HETATM   16  C19 UNL     1       2.071   0.223  -0.672  1.00  0.00     0.172 C 
BRANCH  16  17
HETATM   17  C20 UNL     1       2.963   1.405  -0.620  1.00  0.00     0.241 C 
HETATM   18  O2  UNL     1       3.458   1.002   0.476  1.00  0.00    -0.271 OA
HETATM   19  N5  UNL     1       3.612   2.627  -0.946  1.00  0.00    -0.359 N 
HETATM   20  C21 UNL     1       4.601   3.010   0.047  1.00  0.00     0.152 C 
HETATM   21  C22 UNL     1       3.390   3.478  -2.112  1.00  0.00     0.152 C 
ENDBRANCH  16  17
ENDBRANCH  11  12
ENDBRANCH  10  11
BRANCH   1  22
HETATM   22  O1  UNL     1       1.068  -3.649   1.080  1.00  0.00    -0.385 OA
HETATM   23  C1  UNL     1       0.975  -4.479   2.214  1.00  0.00     0.202 C 
ENDBRANCH   1  22
BRANCH   7  24
HETATM   24  C6  UNL     1      -3.633   1.577  -0.017  1.00  0.00     0.072 A 
HETATM   25  C7  UNL     1      -4.866   1.587   0.637  1.00  0.00     0.032 A 
HETATM   26  C8  UNL     1      -5.630   2.750   0.743  1.00  0.00     0.004 A 
HETATM   27  C9  UNL     1      -5.134   3.918   0.177  1.00  0.00     0.027 A 
HETATM   28  C10 UNL     1      -3.913   3.883  -0.465  1.00  0.00     0.074 A 
HETATM   29 CL1  UNL     1      -3.266   5.363  -1.191  1.00  0.00    -0.081 Cl
HETATM   30  C11 UNL     1      -3.152   2.751  -0.577  1.00  0.00     0.164 A 
HETATM   31  F1  UNL     1      -1.955   2.675  -1.195  1.00  0.00    -0.202 F 
ENDBRANCH   7  24
TORSDOF 5
