REMARK  9 active torsions:
REMARK  status: ('A' for Active; 'I' for Inactive)
REMARK    1  A    between atoms: C3_3  and  C4_4 
REMARK    2  A    between atoms: C5_5  and  C6_6 
REMARK    3  A    between atoms: C7_7  and  C8_8 
REMARK    4  A    between atoms: C8_8  and  N1_9 
REMARK    5  A    between atoms: N1_9  and  C9_10 
REMARK    6  A    between atoms: C9_10  and  N2_12 
REMARK    7  A    between atoms: N3_15  and  C12_16 
REMARK    8  A    between atoms: C15_19  and  O1_20 
REMARK    9  A    between atoms: C17_22  and  O2_23 
ROOT
HETATM    1  N2  UNL     1       0.547  -1.372   1.429  1.00  0.00    -0.355 N 
HETATM    2  C10 UNL     1      -0.648  -1.281   2.252  1.00  0.00     0.145 C 
HETATM    3  C11 UNL     1      -1.923  -1.343   1.481  1.00  0.00     0.144 C 
HETATM    4  N3  UNL     1      -2.007  -0.324   0.450  1.00  0.00    -0.363 N 
HETATM    5  C21 UNL     1      -0.691   0.187   0.095  1.00  0.00     0.144 C 
HETATM    6  C22 UNL     1       0.281  -0.997   0.077  1.00  0.00     0.145 C 
ENDROOT
BRANCH   1   7
HETATM    7  C9  UNL     1       1.759  -1.811   2.063  1.00  0.00     0.170 C 
HETATM    8  S1  UNL     1       1.670  -2.170   3.669  1.00  0.00    -0.041 SA
BRANCH   7   9
HETATM    9  N1  UNL     1       3.039  -1.966   1.428  1.00  0.00    -0.364 N 
HETATM   10  H12 UNL     1       3.811  -2.308   2.074  1.00  0.00     0.162 HD
BRANCH   9  11
HETATM   11  C8  UNL     1       3.505  -1.752   0.078  1.00  0.00     0.149 C 
BRANCH  11  12
HETATM   12  C7  UNL     1       4.948  -2.124  -0.040  1.00  0.00    -0.007 C 
HETATM   13  C6  UNL     1       5.926  -1.306  -0.399  1.00  0.00    -0.002 C 
BRANCH  13  14
HETATM   14  C5  UNL     1       7.303  -1.765  -0.484  1.00  0.00    -0.000 C 
HETATM   15  C4  UNL     1       8.285  -0.960  -0.841  1.00  0.00    -0.000 C 
BRANCH  15  16
HETATM   16  C3  UNL     1       8.049   0.434  -1.170  1.00  0.00    -0.004 C 
HETATM   17  C2  UNL     1       9.038   1.236  -1.526  1.00  0.00    -0.031 C 
HETATM   18  C1  UNL     1       8.939   2.668  -1.886  1.00  0.00     0.036 C 
ENDBRANCH  15  16
ENDBRANCH  13  14
ENDBRANCH  11  12
ENDBRANCH   9  11
ENDBRANCH   7   9
ENDBRANCH   1   7
BRANCH   4  19
HETATM   19  C12 UNL     1      -3.325  -0.029  -0.002  1.00  0.00     0.127 A 
HETATM   20  C13 UNL     1      -4.071   0.670   0.863  1.00  0.00     0.067 A 
HETATM   21  C14 UNL     1      -5.375   0.857   0.198  1.00  0.00     0.033 A 
HETATM   22  C15 UNL     1      -6.587   1.376   0.305  1.00  0.00     0.114 A 
HETATM   23  C20 UNL     1      -5.254   0.196  -1.095  1.00  0.00     0.075 A 
HETATM   24  C17 UNL     1      -7.316   1.071  -0.928  1.00  0.00     0.104 A 
HETATM   25  C19 UNL     1      -6.540   0.374  -1.766  1.00  0.00     0.072 A 
HETATM   26  N4  UNL     1      -4.071  -0.301  -1.181  1.00  0.00    -0.231 NA
BRANCH  22  27
HETATM   27  O1  UNL     1      -7.094   2.091   1.400  1.00  0.00    -0.352 OA
HETATM   28  C16 UNL     1      -6.447   3.231   1.918  1.00  0.00     0.210 C 
ENDBRANCH  22  27
BRANCH  24  29
HETATM   29  O2  UNL     1      -8.633   1.419  -1.267  1.00  0.00    -0.353 OA
HETATM   30  C18 UNL     1      -9.632   0.439  -1.451  1.00  0.00     0.210 C 
ENDBRANCH  24  29
ENDBRANCH   4  19
TORSDOF 9
