REMARK  9 active torsions:
REMARK  status: ('A' for Active; 'I' for Inactive)
REMARK    1  A    between atoms: C2_2  and  C3_3 
REMARK    2  A    between atoms: C4_4  and  C5_5 
REMARK    3  A    between atoms: C7_7  and  N1_8 
REMARK    4  A    between atoms: N2_11  and  C10_12 
REMARK    5  A    between atoms: C10_12  and  N3_13 
REMARK    6  A    between atoms: N3_13  and  C11_14 
REMARK    7  A    between atoms: C11_14  and  C12_15 
REMARK    8  A    between atoms: C12_15  and  C13_16 
REMARK    9  A    between atoms: C16_21  and  S1_22 
ROOT
HETATM    1  N1  UNL     1       1.820  -0.615   0.347  1.00  0.00    -0.362 N 
HETATM    2  C8  UNL     1       1.204   0.507   1.044  1.00  0.00     0.154 C 
HETATM    3  C9  UNL     1      -0.284   0.162   1.153  1.00  0.00     0.294 C 
HETATM    4  N2  UNL     1      -0.756   0.051  -0.216  1.00  0.00     0.119 N 
HETATM    5  C17 UNL     1      -0.267  -1.120  -0.875  1.00  0.00     0.294 C 
HETATM    6  C18 UNL     1       0.976  -1.644  -0.186  1.00  0.00     0.154 C 
ENDROOT
BRANCH   4   7
HETATM    7  C10 UNL     1      -2.192   0.236  -0.314  1.00  0.00     0.539 C 
BRANCH   7   8
HETATM    8  N3  UNL     1      -2.928  -0.725   0.445  1.00  0.00     0.111 N 
HETATM    9  H15 UNL     1      -2.776  -1.700   0.072  1.00  0.00     0.318 HD
BRANCH   8  10
HETATM   10  C11 UNL     1      -4.353  -0.489   0.331  1.00  0.00     0.275 C 
BRANCH  10  11
HETATM   11  C12 UNL     1      -4.896  -0.767  -1.055  1.00  0.00     0.060 C 
BRANCH  11  12
HETATM   12  C13 UNL     1      -6.339  -0.526  -1.156  1.00  0.00     0.011 C 
HETATM   13  C14 UNL     1      -7.123  -0.108  -0.179  1.00  0.00     0.084 C 
HETATM   14  O1  UNL     1      -6.800   0.198   1.135  1.00  0.00    -0.327 OA
HETATM   15  C16 UNL     1      -8.585   0.135  -0.284  1.00  0.00     0.239 C 
HETATM   16  C15 UNL     1      -7.854   1.033   1.632  1.00  0.00     0.346 C 
HETATM   17  O2  UNL     1      -8.714   1.261   0.562  1.00  0.00    -0.345 OA
BRANCH  15  18
HETATM   18  S1  UNL     1      -9.115   0.516  -1.968  1.00  0.00    -0.144 SA
HETATM   19  H24 UNL     1      -8.120   1.093  -2.745  1.00  0.00     0.104 HD
ENDBRANCH  15  18
ENDBRANCH  11  12
ENDBRANCH  10  11
ENDBRANCH   8  10
ENDBRANCH   7   8
ENDBRANCH   4   7
BRANCH   1  20
HETATM   20  C7  UNL     1       3.238  -0.660   0.216  1.00  0.00     0.129 A 
HETATM   21  C6  UNL     1       4.022   0.338   0.736  1.00  0.00     0.082 A 
HETATM   22  C5  UNL     1       5.414   0.278   0.597  1.00  0.00     0.061 A 
HETATM   23  N5  UNL     1       5.913  -0.783  -0.056  1.00  0.00    -0.242 NA
HETATM   24  C19 UNL     1       5.154  -1.764  -0.569  1.00  0.00     0.235 A 
HETATM   25  N4  UNL     1       3.797  -1.698  -0.429  1.00  0.00    -0.225 NA
BRANCH  22  26
HETATM   26  C4  UNL     1       6.243   1.338   1.151  1.00  0.00     0.027 C 
HETATM   27  C3  UNL     1       7.561   1.384   1.080  1.00  0.00    -0.025 C 
BRANCH  27  28
HETATM   28  C2  UNL     1       8.624   0.529   0.505  1.00  0.00     0.022 C 
HETATM   29  C1  UNL     1       9.436   1.301  -0.536  1.00  0.00     0.009 C 
ENDBRANCH  27  28
ENDBRANCH  22  26
ENDBRANCH   1  20
TORSDOF 9
