REMARK  7 active torsions:
REMARK  status: ('A' for Active; 'I' for Inactive)
REMARK    1  A    between atoms: O1_2  and  C2_3 
REMARK    2  A    between atoms: C6_9  and  N3_10 
REMARK    3  A    between atoms: N4_13  and  C9_14 
REMARK    4  A    between atoms: C9_14  and  N5_16 
REMARK    5  A    between atoms: N5_16  and  C10_17 
REMARK    6  A    between atoms: C10_17  and  C11_18 
REMARK    7  A    between atoms: C22_31  and  O4_32 
ROOT
HETATM    1  N3  UNL     1      -1.675   0.558   0.482  1.00  0.00    -0.362 N 
HETATM    2  C7  UNL     1      -1.452   1.753  -0.345  1.00  0.00     0.144 C 
HETATM    3  C8  UNL     1      -0.193   2.455   0.112  1.00  0.00     0.145 C 
HETATM    4  N4  UNL     1       0.912   1.519   0.135  1.00  0.00    -0.355 N 
HETATM    5  C18 UNL     1       0.639   0.117  -0.101  1.00  0.00     0.145 C 
HETATM    6  C19 UNL     1      -0.563  -0.349   0.690  1.00  0.00     0.144 C 
ENDROOT
BRANCH   1   7
HETATM    7  C6  UNL     1      -2.820   0.049   1.180  1.00  0.00     0.139 A 
HETATM    8  N2  UNL     1      -2.694  -0.103   2.529  1.00  0.00    -0.224 NA
HETATM    9  C5  UNL     1      -3.695  -0.572   3.303  1.00  0.00     0.236 A 
HETATM   10  N1  UNL     1      -4.872  -0.911   2.758  1.00  0.00    -0.241 NA
HETATM   11  C4  UNL     1      -5.043  -0.778   1.431  1.00  0.00     0.075 A 
HETATM   12  C3  UNL     1      -6.254  -1.122   0.835  1.00  0.00     0.072 A 
HETATM   13  C20 UNL     1      -4.033  -0.301   0.624  1.00  0.00     0.041 A 
HETATM   14  C2  UNL     1      -6.412  -0.976  -0.545  1.00  0.00     0.103 A 
HETATM   15  C22 UNL     1      -5.353  -0.489  -1.302  1.00  0.00     0.102 A 
HETATM   16  C21 UNL     1      -4.136  -0.138  -0.742  1.00  0.00     0.057 A 
BRANCH  14  17
HETATM   17  O1  UNL     1      -7.631  -1.324  -1.129  1.00  0.00    -0.353 OA
HETATM   18  C1  UNL     1      -8.627  -1.809  -0.237  1.00  0.00     0.210 C 
ENDBRANCH  14  17
BRANCH  15  19
HETATM   19  O4  UNL     1      -5.601  -0.378  -2.663  1.00  0.00    -0.353 OA
HETATM   20  C23 UNL     1      -4.623   0.101  -3.560  1.00  0.00     0.210 C 
ENDBRANCH  15  19
ENDBRANCH   1   7
BRANCH   4  21
HETATM   21  C9  UNL     1       2.233   2.017   0.390  1.00  0.00     0.170 C 
HETATM   22  S1  UNL     1       2.453   3.618   0.648  1.00  0.00    -0.041 SA
BRANCH  21  23
HETATM   23  N5  UNL     1       3.399   1.206   0.439  1.00  0.00    -0.363 N 
HETATM   24  H10 UNL     1       3.331   0.196   0.286  1.00  0.00     0.162 HD
BRANCH  23  25
HETATM   25  C10 UNL     1       4.720   1.732   0.698  1.00  0.00     0.160 C 
BRANCH  25  26
HETATM   26  C11 UNL     1       5.754   0.668   0.693  1.00  0.00    -0.038 A 
HETATM   27  C12 UNL     1       6.148  -0.057   1.804  1.00  0.00     0.012 A 
HETATM   28  C13 UNL     1       7.121  -1.028   1.693  1.00  0.00     0.040 A 
HETATM   29  C14 UNL     1       7.729  -1.309   0.489  1.00  0.00     0.105 A 
HETATM   30  C15 UNL     1       7.345  -0.595  -0.622  1.00  0.00     0.105 A 
HETATM   31  O3  UNL     1       8.723  -2.232   0.137  1.00  0.00    -0.323 OA
HETATM   32  C16 UNL     1       6.370   0.381  -0.520  1.00  0.00     0.048 A 
HETATM   33  O2  UNL     1       8.116  -1.086  -1.679  1.00  0.00    -0.323 OA
HETATM   34  C17 UNL     1       9.196  -1.829  -1.138  1.00  0.00     0.352 C 
ENDBRANCH  25  26
ENDBRANCH  23  25
ENDBRANCH  21  23
ENDBRANCH   4  21
TORSDOF 7
