REMARK  7 active torsions:
REMARK  status: ('A' for Active; 'I' for Inactive)
REMARK    1  A    between atoms: O1_2  and  C2_3 
REMARK    2  A    between atoms: C6_9  and  N3_10 
REMARK    3  A    between atoms: N4_13  and  C9_14 
REMARK    4  A    between atoms: C9_14  and  N5_16 
REMARK    5  A    between atoms: N5_16  and  C10_17 
REMARK    6  A    between atoms: C10_17  and  C11_18 
REMARK    7  A    between atoms: C22_31  and  O4_32 
ROOT
HETATM    1  N3  UNL     1       1.867  -0.665  -0.886  1.00  0.00    -0.362 N 
HETATM    2  C7  UNL     1       0.927  -0.831   0.216  1.00  0.00     0.144 C 
HETATM    3  C8  UNL     1       0.035  -2.030  -0.092  1.00  0.00     0.145 C 
HETATM    4  N4  UNL     1      -0.877  -1.748  -1.166  1.00  0.00    -0.355 N 
HETATM    5  C18 UNL     1      -0.046  -1.396  -2.258  1.00  0.00     0.145 C 
HETATM    6  C19 UNL     1       1.026  -0.392  -2.000  1.00  0.00     0.144 C 
ENDROOT
BRANCH   1   7
HETATM    7  C6  UNL     1       3.296  -0.771  -0.773  1.00  0.00     0.139 A 
HETATM    8  N2  UNL     1       3.897  -1.744  -1.479  1.00  0.00    -0.224 NA
HETATM    9  C5  UNL     1       5.231  -1.915  -1.426  1.00  0.00     0.236 A 
HETATM   10  N1  UNL     1       6.030  -1.116  -0.660  1.00  0.00    -0.241 NA
HETATM   11  C4  UNL     1       5.453  -0.136   0.055  1.00  0.00     0.075 A 
HETATM   12  C3  UNL     1       6.250   0.679   0.830  1.00  0.00     0.072 A 
HETATM   13  C20 UNL     1       4.088   0.041   0.002  1.00  0.00     0.041 A 
HETATM   14  C2  UNL     1       5.682   1.694   1.570  1.00  0.00     0.103 A 
HETATM   15  C22 UNL     1       4.292   1.856   1.501  1.00  0.00     0.100 A 
HETATM   16  C21 UNL     1       3.478   1.043   0.726  1.00  0.00     0.057 A 
BRANCH  14  17
HETATM   17  O1  UNL     1       6.309   2.607   2.399  1.00  0.00    -0.353 OA
HETATM   18  C1  UNL     1       7.706   2.553   2.560  1.00  0.00     0.210 C 
ENDBRANCH  14  17
BRANCH  15  19
HETATM   19  O4  UNL     1       3.630   2.849   2.210  1.00  0.00    -0.358 OA
HETATM   20  H23 UNL     1       3.657   2.738   3.226  1.00  0.00     0.217 HD
ENDBRANCH  15  19
ENDBRANCH   1   7
BRANCH   4  21
HETATM   21  C9  UNL     1      -2.321  -1.785  -1.230  1.00  0.00     0.170 C 
HETATM   22  S1  UNL     1      -2.931  -1.379  -2.688  1.00  0.00    -0.041 SA
BRANCH  21  23
HETATM   23  N5  UNL     1      -3.099  -2.151  -0.103  1.00  0.00    -0.363 N 
HETATM   24  H10 UNL     1      -2.514  -2.388   0.758  1.00  0.00     0.162 HD
BRANCH  23  25
HETATM   25  C10 UNL     1      -4.529  -2.256   0.079  1.00  0.00     0.160 C 
BRANCH  25  26
HETATM   26  C11 UNL     1      -5.229  -0.969  -0.094  1.00  0.00    -0.038 A 
HETATM   27  C12 UNL     1      -5.267  -0.217   1.086  1.00  0.00     0.012 A 
HETATM   28  C13 UNL     1      -5.884   1.023   1.154  1.00  0.00     0.040 A 
HETATM   29  C14 UNL     1      -6.496   1.584   0.062  1.00  0.00     0.105 A 
HETATM   30  C15 UNL     1      -6.448   0.827  -1.090  1.00  0.00     0.105 A 
HETATM   31  O3  UNL     1      -7.181   2.753  -0.220  1.00  0.00    -0.323 OA
HETATM   32  C16 UNL     1      -5.838  -0.408  -1.175  1.00  0.00     0.048 A 
HETATM   33  O2  UNL     1      -7.114   1.545  -2.092  1.00  0.00    -0.323 OA
HETATM   34  C17 UNL     1      -7.775   2.669  -1.515  1.00  0.00     0.352 C 
ENDBRANCH  25  26
ENDBRANCH  23  25
ENDBRANCH  21  23
ENDBRANCH   4  21
TORSDOF 7
