REMARK  4 active torsions:
REMARK  status: ('A' for Active; 'I' for Inactive)
REMARK    1  A    between atoms: C2_2  and  O1_3 
REMARK    2  A    between atoms: O1_3  and  C3_4 
REMARK       I    between atoms: N1_6  and  C5_7 
REMARK       I    between atoms: C5_7  and  N2_9 
REMARK    3  A    between atoms: N2_9  and  C6_10 
REMARK    4  A    between atoms: N3_17  and  C12_18 
ROOT
HETATM    1  C3  UNL     1      -0.298   1.017   0.372  1.00  0.00     0.242 C 
HETATM    2  C4  UNL     1       0.936   1.135  -0.507  1.00  0.00     0.181 C 
HETATM    3  N1  UNL     1       1.791   0.016  -0.176  1.00  0.00    -0.328 N 
HETATM    4  C5  UNL     1       3.167   0.208  -0.333  1.00  0.00     0.323 C 
HETATM    5  O2  UNL     1       3.379   1.346  -0.740  1.00  0.00    -0.247 OA
HETATM    6  N2  UNL     1       4.129  -0.760  -0.061  1.00  0.00    -0.308 N 
HETATM    7  C10 UNL     1       1.342  -1.270   0.297  1.00  0.00     0.147 C 
HETATM    8  C11 UNL     1      -0.127  -1.403   0.484  1.00  0.00     0.147 C 
HETATM    9  N3  UNL     1      -0.891  -0.265   0.083  1.00  0.00    -0.331 N 
HETATM   10  H9  UNL     1       3.737  -1.649   0.271  1.00  0.00     0.170 HD
ENDROOT
BRANCH   1  11
HETATM   11  O1  UNL     1      -1.209   1.981  -0.039  1.00  0.00    -0.365 OA
BRANCH  11  12
HETATM   12  C2  UNL     1      -1.531   2.849   0.978  1.00  0.00     0.166 C 
HETATM   13  C1  UNL     1      -0.334   3.599   1.515  1.00  0.00     0.033 C 
ENDBRANCH  11  12
ENDBRANCH   1  11
BRANCH   6  14
HETATM   14  C6  UNL     1       5.501  -0.550  -0.224  1.00  0.00     0.043 A 
HETATM   15  C7  UNL     1       6.418  -1.493   0.042  1.00  0.00     0.037 A 
HETATM   16  C8  UNL     1       7.774  -1.328  -0.103  1.00  0.00     0.052 A 
HETATM   17  S1  UNL     1       7.910   0.424  -0.717  1.00  0.00    -0.111 SA
HETATM   18  C9  UNL     1       6.086   0.736  -0.706  1.00  0.00     0.079 A 
ENDBRANCH   6  14
BRANCH   9  19
HETATM   19  C12 UNL     1      -2.140  -0.423  -0.550  1.00  0.00     0.251 A 
HETATM   20  C13 UNL     1      -3.221  -0.482  -1.244  1.00  0.00     0.303 A 
HETATM   21  C14 UNL     1      -4.415   0.468  -1.219  1.00  0.00     0.080 C 
HETATM   22  O3  UNL     1      -3.563  -1.504  -2.209  1.00  0.00    -0.346 OA
HETATM   23  N4  UNL     1      -3.134  -1.234   0.235  1.00  0.00     0.021 N 
HETATM   24  C15 UNL     1      -5.346  -0.432  -0.327  1.00  0.00     0.041 C 
HETATM   25  C16 UNL     1      -4.525  -1.720  -0.056  1.00  0.00     0.223 C 
HETATM   26  C17 UNL     1      -4.440  -2.424  -1.431  1.00  0.00     0.205 C 
HETATM   27  H24 UNL     1      -2.872  -1.594   1.245  1.00  0.00     0.293 HD
ENDBRANCH   9  19
TORSDOF 4
