REMARK  2 active torsions:
REMARK  status: ('A' for Active; 'I' for Inactive)
REMARK    1  A    between atoms: B1_3  and  C3_4 
REMARK    2  A    between atoms: C12_16  and  N2_17 
ROOT
HETATM    1  C1  UNL     1      -0.010  -2.434  -1.468  1.00  0.00     0.021 C 
HETATM    2  C2  UNL     1      -0.155  -1.422  -0.330  1.00  0.00     0.047 C 
HETATM    3  B1  UNL     1      -0.928  -0.119  -0.841  1.00  0.00     0.247 B 
HETATM    4  C9  UNL     1       0.060   0.855  -1.591  1.00  0.00     0.003 C 
HETATM    5  C10 UNL     1       1.320   1.065  -0.805  1.00  0.00    -0.002 A 
HETATM    6  C11 UNL     1       2.034   2.238  -0.855  1.00  0.00     0.146 A 
HETATM    7  N1  UNL     1       3.149   2.385  -0.141  1.00  0.00    -0.075 NA
HETATM    8  C12 UNL     1       3.638   1.420   0.655  1.00  0.00     0.721 A 
HETATM    9  N3  UNL     1       2.960   0.258   0.724  1.00  0.00    -0.045 NA
HETATM   10  C13 UNL     1       1.825   0.081   0.011  1.00  0.00     0.151 A 
HETATM   11  N4  UNL     1       1.173  -1.149   0.131  1.00  0.00    -0.373 N 
HETATM   12  C14 UNL     1       1.840  -2.274   0.761  1.00  0.00     0.150 C 
ENDROOT
BRANCH   3  13
HETATM   13  C3  UNL     1      -2.222   0.306  -0.119  1.00  0.00    -0.052 A 
HETATM   14  C4  UNL     1      -2.495   1.527   0.461  1.00  0.00     0.031 A 
HETATM   15 CL1  UNL     1      -1.223   2.720   0.361  1.00  0.00    -0.085 Cl
HETATM   16  C5  UNL     1      -3.695   1.797   1.084  1.00  0.00     0.023 A 
HETATM   17  C6  UNL     1      -4.661   0.819   1.133  1.00  0.00     0.003 A 
HETATM   18  C7  UNL     1      -4.412  -0.430   0.552  1.00  0.00     0.023 A 
HETATM   19  C8  UNL     1      -3.208  -0.681  -0.065  1.00  0.00     0.031 A 
HETATM   20 CL2  UNL     1      -3.091  -2.310  -0.732  1.00  0.00    -0.085 Cl
ENDBRANCH   3  13
BRANCH   8  21
HETATM   21  N2  UNL     1       4.835   1.571   1.424  1.00  0.00    -0.231 N 
HETATM   22  H11 UNL     1       4.872   2.413   2.062  1.00  0.00     0.174 HD
HETATM   23  H12 UNL     1       5.699   1.017   1.494  1.00  0.00     0.174 HD
ENDBRANCH   8  21
TORSDOF 2
