REMARK  6 active torsions:
REMARK  status: ('A' for Active; 'I' for Inactive)
REMARK    1  A    between atoms: O1_2  and  C2_3 
REMARK    2  A    between atoms: C6_9  and  N3_10 
REMARK    3  A    between atoms: N3_10  and  C8_12 
REMARK    4  A    between atoms: C8_12  and  N4_13 
REMARK       I    between atoms: N4_13  and  C10_15 
REMARK       I    between atoms: C10_15  and  N5_17 
REMARK    5  A    between atoms: N5_17  and  C11_18 
REMARK    6  A    between atoms: C17_25  and  O3_26 
ROOT
HETATM    1  C2  UNL     1      -3.307   2.046   0.090  1.00  0.00     0.103 A 
HETATM    2  C3  UNL     1      -3.465   2.026   1.430  1.00  0.00     0.072 A 
HETATM    3  C4  UNL     1      -2.644   1.163   2.152  1.00  0.00     0.075 A 
HETATM    4  N1  UNL     1      -2.698   1.060   3.491  1.00  0.00    -0.241 NA
HETATM    5  C5  UNL     1      -1.868   0.216   4.121  1.00  0.00     0.236 A 
HETATM    6  N2  UNL     1      -0.940  -0.580   3.503  1.00  0.00    -0.224 NA
HETATM    7  C6  UNL     1      -0.845  -0.514   2.147  1.00  0.00     0.140 A 
HETATM    8  C15 UNL     1      -1.702   0.360   1.503  1.00  0.00     0.041 A 
HETATM    9  C16 UNL     1      -1.631   0.464   0.125  1.00  0.00     0.057 A 
HETATM   10  C17 UNL     1      -2.415   1.303  -0.677  1.00  0.00     0.102 A 
ENDROOT
BRANCH   7  11
HETATM   11  N3  UNL     1       0.089  -1.321   1.404  1.00  0.00    -0.353 N 
HETATM   12  C7  UNL     1      -0.253  -2.447   0.553  1.00  0.00     0.153 C 
BRANCH  11  13
HETATM   13  C8  UNL     1       1.351  -0.718   1.681  1.00  0.00     0.254 C 
BRANCH  13  14
HETATM   14  N4  UNL     1       2.499  -1.388   1.105  1.00  0.00    -0.322 N 
HETATM   15  C9  UNL     1       3.207  -2.407   1.856  1.00  0.00     0.156 C 
HETATM   16  C10 UNL     1       2.989  -1.080  -0.224  1.00  0.00     0.323 C 
HETATM   17  O2  UNL     1       4.051  -1.664  -0.657  1.00  0.00    -0.247 OA
HETATM   18  N5  UNL     1       2.398  -0.164  -1.147  1.00  0.00    -0.308 N 
HETATM   19  H14 UNL     1       1.561   0.208  -0.704  1.00  0.00     0.170 HD
BRANCH  18  20
HETATM   20  C11 UNL     1       3.240  -0.225  -2.279  1.00  0.00     0.043 A 
HETATM   21  C12 UNL     1       3.030  -1.139  -3.257  1.00  0.00     0.037 A 
HETATM   22  C13 UNL     1       3.875  -1.140  -4.349  1.00  0.00     0.052 A 
HETATM   23  S1  UNL     1       5.030   0.173  -4.049  1.00  0.00    -0.111 SA
HETATM   24  C14 UNL     1       4.348   0.731  -2.404  1.00  0.00     0.079 A 
ENDBRANCH  18  20
ENDBRANCH  13  14
ENDBRANCH  11  13
ENDBRANCH   7  11
BRANCH  10  25
HETATM   25  O3  UNL     1      -2.306   1.373  -2.053  1.00  0.00    -0.353 OA
HETATM   26  C18 UNL     1      -1.364   0.568  -2.705  1.00  0.00     0.210 C 
ENDBRANCH  10  25
BRANCH   1  27
HETATM   27  O1  UNL     1      -4.093   2.890  -0.721  1.00  0.00    -0.353 OA
HETATM   28  C1  UNL     1      -5.046   3.708  -0.086  1.00  0.00     0.210 C 
ENDBRANCH   1  27
TORSDOF 6
