REMARK  8 active torsions:
REMARK  status: ('A' for Active; 'I' for Inactive)
REMARK    1  A    between atoms: C2_2  and  O1_3 
REMARK    2  A    between atoms: O1_3  and  C3_4 
REMARK    3  A    between atoms: C3_4  and  C4_5 
REMARK    4  A    between atoms: C4_5  and  O2_6 
REMARK    5  A    between atoms: C5_7  and  B1_8 
REMARK    6  A    between atoms: B1_8  and  C6_9 
REMARK    7  A    between atoms: C10_15  and  N3_16 
REMARK       I    between atoms: N4_19  and  C13_20 
REMARK       I    between atoms: C13_20  and  N5_22 
REMARK    8  A    between atoms: N5_22  and  C14_23 
ROOT
HETATM    1  C6  UNL     1      -2.076  -1.912   0.190  1.00  0.00    -0.032 A 
HETATM    2  C7  UNL     1      -3.157  -2.700  -0.080  1.00  0.00     0.030 A 
HETATM    3  C8  UNL     1      -4.475  -2.095  -0.389  1.00  0.00     0.070 C 
HETATM    4  N1  UNL     1      -2.920  -4.024  -0.041  1.00  0.00    -0.247 NA
HETATM    5  C9  UNL     1      -1.704  -4.522   0.245  1.00  0.00     0.235 A 
HETATM    6  N2  UNL     1      -0.680  -3.697   0.501  1.00  0.00    -0.225 NA
HETATM    7  C10 UNL     1      -0.802  -2.359   0.489  1.00  0.00     0.124 A 
ENDROOT
BRANCH   7   8
HETATM    8  N3  UNL     1       0.345  -1.574   0.776  1.00  0.00    -0.363 N 
HETATM    9  C11 UNL     1       1.614  -2.259   1.065  1.00  0.00     0.144 C 
HETATM   10  C12 UNL     1       2.607  -1.673   0.085  1.00  0.00     0.147 C 
HETATM   11  N4  UNL     1       2.902  -0.328   0.538  1.00  0.00    -0.331 N 
HETATM   12  C13 UNL     1       4.140   0.378   0.355  1.00  0.00     0.323 C 
HETATM   13  C18 UNL     1       1.826   0.337   1.232  1.00  0.00     0.147 C 
HETATM   14  O3  UNL     1       4.254   1.544   0.806  1.00  0.00    -0.247 OA
HETATM   15  N5  UNL     1       5.245  -0.187  -0.316  1.00  0.00    -0.308 N 
HETATM   16  H17 UNL     1       5.063  -1.149  -0.654  1.00  0.00     0.170 HD
HETATM   17  C19 UNL     1       0.469  -0.163   0.832  1.00  0.00     0.144 C 
BRANCH  15  18
HETATM   18  C14 UNL     1       6.484   0.427  -0.538  1.00  0.00     0.043 A 
HETATM   19  C15 UNL     1       6.639   1.659  -0.075  1.00  0.00     0.037 A 
HETATM   20  C16 UNL     1       7.888   2.313  -0.285  1.00  0.00     0.052 A 
HETATM   21  S1  UNL     1       8.912   1.027  -1.232  1.00  0.00    -0.111 SA
HETATM   22  C17 UNL     1       7.552  -0.270  -1.252  1.00  0.00     0.079 A 
ENDBRANCH  15  18
ENDBRANCH   7   8
BRANCH   1  23
HETATM   23  B1  UNL     1      -2.276  -0.133   0.164  1.00  0.00     0.235 B 
BRANCH  23  24
HETATM   24  C5  UNL     1      -2.338   1.494  -0.698  1.00  0.00    -0.072 C 
HETATM   25  C4  UNL     1      -2.700   2.749  -0.815  1.00  0.00     0.061 C 
BRANCH  25  26
HETATM   26  C3  UNL     1      -3.867   3.582  -0.467  1.00  0.00     0.231 C 
BRANCH  26  27
HETATM   27  O1  UNL     1      -4.864   2.799   0.066  1.00  0.00    -0.385 OA
BRANCH  27  28
HETATM   28  C2  UNL     1      -5.388   1.834  -0.746  1.00  0.00     0.163 C 
HETATM   29  C1  UNL     1      -6.486   1.038  -0.029  1.00  0.00     0.033 C 
ENDBRANCH  27  28
ENDBRANCH  26  27
ENDBRANCH  25  26
BRANCH  25  30
HETATM   30  O2  UNL     1      -1.611   3.369  -1.453  1.00  0.00    -0.363 OA
HETATM   31  H8  UNL     1      -1.267   4.242  -1.056  1.00  0.00     0.217 HD
ENDBRANCH  25  30
ENDBRANCH  23  24
ENDBRANCH   1  23
TORSDOF 8
