REMARK  7 active torsions:
REMARK  status: ('A' for Active; 'I' for Inactive)
REMARK    1  A    between atoms: O1_2  and  C2_3 
REMARK    2  A    between atoms: C6_9  and  N2_10 
REMARK    3  A    between atoms: C13_18  and  O2_19 
REMARK    4  A    between atoms: O2_19  and  C14_20 
REMARK    5  A    between atoms: C14_20  and  C15_21 
REMARK    6  A    between atoms: C15_21  and  N4_22 
REMARK    7  A    between atoms: C19_26  and  O3_27 
ROOT
HETATM    1  C2  UNL     1       0.576  -1.797  -0.139  1.00  0.00     0.098 C 
HETATM    2  C3  UNL     1      -0.208  -2.821  -0.397  1.00  0.00     0.027 C 
HETATM    3  C4  UNL     1      -1.495  -2.430  -0.927  1.00  0.00     0.079 C 
HETATM    4  P1  UNL     1      -2.842  -3.637  -0.651  1.00  0.00    -0.074 P 
HETATM    5  C5  UNL     1      -4.333  -2.553  -0.399  1.00  0.00     0.122 C 
HETATM    6  N1  UNL     1      -4.265  -1.285  -0.342  1.00  0.00    -0.242 NA
HETATM    7  C6  UNL     1      -3.063  -0.534  -0.480  1.00  0.00     0.132 C 
HETATM    8  C11 UNL     1      -1.824  -1.029  -0.724  1.00  0.00     0.003 C 
HETATM    9  C12 UNL     1      -0.866   0.044  -0.523  1.00  0.00     0.051 C 
HETATM   10  C13 UNL     1       0.386  -0.357  -0.190  1.00  0.00     0.102 C 
HETATM   11  H6  UNL     1      -2.605  -4.455   0.552  1.00  0.00     0.064 HD
ENDROOT
BRANCH  10  12
HETATM   12  O2  UNL     1       1.388   0.555   0.075  1.00  0.00    -0.347 OA
BRANCH  12  13
HETATM   13  C14 UNL     1       2.715   0.252   0.331  1.00  0.00     0.196 C 
BRANCH  13  14
HETATM   14  C15 UNL     1       3.458   1.563   0.555  1.00  0.00     0.157 C 
BRANCH  14  15
HETATM   15  N4  UNL     1       4.851   1.337   0.829  1.00  0.00    -0.336 N 
HETATM   16  C16 UNL     1       5.390   1.155   2.067  1.00  0.00     0.093 A 
HETATM   17  C17 UNL     1       6.761   0.961   1.997  1.00  0.00     0.022 A 
HETATM   18  C18 UNL     1       7.059   1.031   0.653  1.00  0.00     0.057 A 
HETATM   19  C19 UNL     1       5.862   1.262  -0.024  1.00  0.00     0.141 A 
BRANCH  19  20
HETATM   20  O3  UNL     1       5.811   1.385  -1.400  1.00  0.00    -0.346 OA
HETATM   21  H25 UNL     1       6.261   2.138  -1.880  1.00  0.00     0.219 HD
ENDBRANCH  19  20
ENDBRANCH  14  15
ENDBRANCH  13  14
ENDBRANCH  12  13
ENDBRANCH  10  12
BRANCH   1  22
HETATM   22  O1  UNL     1       1.838  -2.155   0.328  1.00  0.00    -0.353 OA
HETATM   23  C1  UNL     1       2.585  -3.228  -0.192  1.00  0.00     0.210 C 
ENDBRANCH   1  22
BRANCH   7  24
HETATM   24  N2  UNL     1      -3.411   0.861  -0.315  1.00  0.00    -0.362 N 
HETATM   25  C7  UNL     1      -3.843   1.300   1.013  1.00  0.00     0.154 C 
HETATM   26  C8  UNL     1      -5.351   1.403   0.910  1.00  0.00     0.289 C 
HETATM   27  N3  UNL     1      -5.739   1.772  -0.428  1.00  0.00     0.086 N 
HETATM   28  C9  UNL     1      -4.816   2.642  -1.101  1.00  0.00     0.289 C 
HETATM   29  H12 UNL     1      -5.975   0.949  -1.033  1.00  0.00     0.316 HD
HETATM   30  C10 UNL     1      -3.431   2.013  -1.231  1.00  0.00     0.154 C 
ENDBRANCH   7  24
TORSDOF 7
