REMARK  6 active torsions:
REMARK  status: ('A' for Active; 'I' for Inactive)
REMARK    1  A    between atoms: O1_2  and  C2_3 
REMARK    2  A    between atoms: C6_9  and  N3_10 
REMARK    3  A    between atoms: N3_10  and  C7_11 
REMARK    4  A    between atoms: C7_11  and  C8_12 
REMARK    5  A    between atoms: C8_12  and  N4_13 
REMARK       I    between atoms: N4_13  and  C10_15 
REMARK       I    between atoms: C10_15  and  N5_17 
REMARK    6  A    between atoms: C16_24  and  O3_25 
ROOT
HETATM    1  C2  UNL     1       4.693   0.382  -0.469  1.00  0.00     0.103 A 
HETATM    2  C3  UNL     1       4.313   1.683  -0.228  1.00  0.00     0.072 A 
HETATM    3  C4  UNL     1       3.020   1.921   0.165  1.00  0.00     0.075 A 
HETATM    4  N1  UNL     1       2.641   3.172   0.400  1.00  0.00    -0.241 NA
HETATM    5  C5  UNL     1       1.377   3.426   0.787  1.00  0.00     0.235 A 
HETATM    6  N2  UNL     1       0.494   2.423   0.937  1.00  0.00    -0.224 NA
HETATM    7  C6  UNL     1       0.798   1.138   0.719  1.00  0.00     0.137 A 
HETATM    8  C14 UNL     1       2.092   0.913   0.327  1.00  0.00     0.041 A 
HETATM    9  C15 UNL     1       2.508  -0.369   0.078  1.00  0.00     0.057 A 
HETATM   10  C16 UNL     1       3.796  -0.655  -0.319  1.00  0.00     0.102 A 
ENDROOT
BRANCH   7  11
HETATM   11  N3  UNL     1      -0.182   0.126   0.895  1.00  0.00    -0.372 N 
HETATM   12  H6  UNL     1      -0.051  -0.895   0.753  1.00  0.00     0.161 HD
BRANCH  11  13
HETATM   13  C7  UNL     1      -1.516   0.509   1.315  1.00  0.00     0.141 C 
BRANCH  13  14
HETATM   14  C8  UNL     1      -2.447  -0.672   1.457  1.00  0.00     0.146 C 
BRANCH  14  15
HETATM   15  N4  UNL     1      -2.612  -1.398   0.232  1.00  0.00    -0.336 N 
HETATM   16  C9  UNL     1      -1.806  -2.515  -0.225  1.00  0.00     0.154 C 
HETATM   17  C10 UNL     1      -3.644  -1.053  -0.683  1.00  0.00     0.330 C 
HETATM   18  O2  UNL     1      -3.985  -1.531  -1.801  1.00  0.00    -0.246 OA
HETATM   19  N5  UNL     1      -4.540   0.028  -0.397  1.00  0.00    -0.266 N 
HETATM   20  C11 UNL     1      -5.619   0.446  -1.274  1.00  0.00     0.170 C 
HETATM   21  S1  UNL     1      -5.010   1.319   0.753  1.00  0.00    -0.020 SA
HETATM   22  C12 UNL     1      -6.880   0.423  -0.521  1.00  0.00     0.002 C 
HETATM   23  C13 UNL     1      -6.780   0.901   0.738  1.00  0.00     0.066 C 
ENDBRANCH  14  15
ENDBRANCH  13  14
ENDBRANCH  11  13
ENDBRANCH   7  11
BRANCH  10  24
HETATM   24  O3  UNL     1       4.207  -1.957  -0.568  1.00  0.00    -0.353 OA
HETATM   25  C17 UNL     1       3.300  -3.032  -0.419  1.00  0.00     0.210 C 
ENDBRANCH  10  24
BRANCH   1  26
HETATM   26  O1  UNL     1       5.981   0.066  -0.868  1.00  0.00    -0.353 OA
HETATM   27  C1  UNL     1       6.982   1.061  -1.052  1.00  0.00     0.210 C 
ENDBRANCH   1  26
TORSDOF 6
