REMARK  3 active torsions:
REMARK  status: ('A' for Active; 'I' for Inactive)
REMARK    1  A    between atoms: N1_2  and  C2_3 
REMARK    2  A    between atoms: C8_10  and  N3_11 
REMARK    3  A    between atoms: N3_11  and  C9_12 
ROOT
HETATM    1  C2  UNL     1      -2.997  -0.299  -0.759  1.00  0.00     0.028 A 
HETATM    2  C3  UNL     1      -3.764   0.614  -0.067  1.00  0.00     0.031 A 
HETATM    3  C4  UNL     1      -3.127   1.478   0.799  1.00  0.00     0.035 A 
HETATM    4  C5  UNL     1      -1.763   1.430   0.968  1.00  0.00     0.069 A 
HETATM    5  N2  UNL     1      -1.281   2.348   1.858  1.00  0.00    -0.260 NA
HETATM    6  C6  UNL     1       0.061   2.397   2.108  1.00  0.00     0.119 A 
HETATM    7  C7  UNL     1       0.829   1.485   1.417  1.00  0.00     0.049 A 
HETATM    8  C8  UNL     1       0.401   0.543   0.513  1.00  0.00     0.046 A 
HETATM    9  C15 UNL     1      -0.951   0.538   0.301  1.00  0.00     0.021 A 
HETATM   10  C16 UNL     1      -1.636  -0.297  -0.547  1.00  0.00     0.045 A 
ENDROOT
BRANCH   8  11
HETATM   11  N3  UNL     1       1.200  -0.359  -0.186  1.00  0.00    -0.355 N 
HETATM   12  H9  UNL     1       0.814  -1.075  -0.828  1.00  0.00     0.166 HD
BRANCH  11  13
HETATM   13  C9  UNL     1       2.597  -0.573  -0.253  1.00  0.00     0.033 A 
HETATM   14  C10 UNL     1       3.249  -1.809  -0.326  1.00  0.00     0.029 A 
HETATM   15  C11 UNL     1       4.595  -1.986  -0.410  1.00  0.00     0.004 A 
HETATM   16  C12 UNL     1       5.420  -0.884  -0.426  1.00  0.00     0.019 A 
HETATM   17  C13 UNL     1       4.865   0.374  -0.358  1.00  0.00     0.013 A 
HETATM   18 BR1  UNL     1       6.069   1.824  -0.386  1.00  0.00    -0.051 Br
HETATM   19  C14 UNL     1       3.501   0.492  -0.275  1.00  0.00     0.048 A 
ENDBRANCH  11  13
ENDBRANCH   8  11
BRANCH   1  20
HETATM   20  N1  UNL     1      -3.623  -1.202  -1.658  1.00  0.00    -0.394 N 
HETATM   21  C1  UNL     1      -5.063  -1.129  -1.815  1.00  0.00     0.146 C 
HETATM   22  H4  UNL     1      -3.027  -1.880  -2.169  1.00  0.00     0.159 HD
ENDBRANCH   1  20
TORSDOF 3
