REMARK  6 active torsions:
REMARK  status: ('A' for Active; 'I' for Inactive)
REMARK    1  A    between atoms: C2_2  and  O1_3 
REMARK    2  A    between atoms: O1_3  and  C3_4 
REMARK    3  A    between atoms: C4_5  and  N1_6 
REMARK       I    between atoms: N1_6  and  C5_7 
REMARK    4  A    between atoms: C5_7  and  C6_9 
REMARK    5  A    between atoms: C7_10  and  C8_11 
REMARK    6  A    between atoms: C8_11  and  N2_12 
ROOT
HETATM    1  C3  UNL     1      -1.964  -0.493  -0.550  1.00  0.00     0.222 C 
HETATM    2  C4  UNL     1      -0.801   0.044   0.277  1.00  0.00     0.048 C 
HETATM    3  C11 UNL     1      -0.888   0.908   1.313  1.00  0.00     0.042 C 
HETATM    4  C12 UNL     1      -1.807   1.691   2.130  1.00  0.00    -0.004 A 
HETATM    5  C13 UNL     1      -1.763   1.194   3.446  1.00  0.00     0.058 A 
HETATM    6  C14 UNL     1      -2.474   1.612   4.585  1.00  0.00     0.139 A 
HETATM    7  F1  UNL     1      -2.344   1.056   5.788  1.00  0.00    -0.204 F 
HETATM    8  C15 UNL     1      -3.311   2.661   4.290  1.00  0.00     0.074 A 
HETATM    9 CL1  UNL     1      -4.239   3.224   5.690  1.00  0.00    -0.081 Cl
HETATM   10  C16 UNL     1      -3.412   3.204   3.026  1.00  0.00     0.057 A 
HETATM   11  C17 UNL     1      -2.685   2.738   1.971  1.00  0.00     0.044 A 
HETATM   12  N3  UNL     1      -3.117   3.551   0.851  1.00  0.00    -0.356 N 
HETATM   13  C18 UNL     1      -3.504   2.450   0.068  1.00  0.00     0.050 C 
HETATM   14  C19 UNL     1      -2.491   1.696  -0.322  1.00  0.00     0.058 C 
HETATM   15  C20 UNL     1      -3.158   0.361  -0.220  1.00  0.00     0.067 C 
HETATM   16  N4  UNL     1      -4.423   0.476   0.166  1.00  0.00    -0.265 NA
HETATM   17  C21 UNL     1      -4.797   1.864  -0.355  1.00  0.00     0.264 C 
HETATM   18  C22 UNL     1      -4.881   1.786  -1.795  1.00  0.00     0.093 C 
HETATM   19  N5  UNL     1      -4.954   1.708  -2.945  1.00  0.00    -0.195 NA
HETATM   20  H21 UNL     1      -3.183   4.510   0.617  1.00  0.00     0.166 HD
ENDROOT
BRANCH   1  21
HETATM   21  O1  UNL     1      -1.742  -0.376  -1.902  1.00  0.00    -0.374 OA
BRANCH  21  22
HETATM   22  C2  UNL     1      -1.814  -1.567  -2.566  1.00  0.00     0.165 C 
HETATM   23  C1  UNL     1      -0.859  -2.633  -2.149  1.00  0.00     0.033 C 
ENDBRANCH  21  22
ENDBRANCH   1  21
BRANCH   2  24
HETATM   24  N1  UNL     1       0.512  -0.410  -0.036  1.00  0.00    -0.324 N 
HETATM   25  C5  UNL     1       1.315  -0.280  -1.199  1.00  0.00     0.245 C 
HETATM   26  O2  UNL     1       0.878   0.336  -2.202  1.00  0.00    -0.268 OA
HETATM   27  H7  UNL     1       0.889  -0.929   0.798  1.00  0.00     0.169 HD
BRANCH  25  28
HETATM   28  C6  UNL     1       2.647  -0.863  -1.222  1.00  0.00     0.072 C 
HETATM   29  C7  UNL     1       3.204  -1.527  -0.225  1.00  0.00     0.008 C 
BRANCH  29  30
HETATM   30  C8  UNL     1       4.530  -2.150  -0.146  1.00  0.00     0.299 C 
BRANCH  30  31
HETATM   31  N2  UNL     1       5.326  -1.994  -1.355  1.00  0.00     0.083 N 
HETATM   32  C9  UNL     1       6.590  -2.688  -1.089  1.00  0.00     0.309 C 
HETATM   33  C10 UNL     1       5.675  -0.598  -1.574  1.00  0.00     0.309 C 
ENDBRANCH  30  31
ENDBRANCH  29  30
ENDBRANCH  25  28
ENDBRANCH   2  24
TORSDOF 6
