REMARK  7 active torsions:
REMARK  status: ('A' for Active; 'I' for Inactive)
REMARK    1  A    between atoms: N1_2  and  C3_4 
REMARK    2  A    between atoms: C3_4  and  C4_5 
REMARK    3  A    between atoms: C5_6  and  C6_7 
REMARK       I    between atoms: C6_7  and  N2_9 
REMARK    4  A    between atoms: N2_9  and  C7_10 
REMARK    5  A    between atoms: C13_18  and  C14_19 
REMARK    6  A    between atoms: C14_19  and  N5_20 
REMARK    7  A    between atoms: N5_20  and  C15_21 
ROOT
HETATM    1  C7  UNL     1      -0.450  -2.367  -0.585  1.00  0.00     0.065 A 
HETATM    2  C8  UNL     1      -1.685  -2.662  -0.272  1.00  0.00     0.029 A 
HETATM    3  C9  UNL     1      -2.099  -3.752  -0.998  1.00  0.00     0.067 A 
HETATM    4  N3  UNL     1      -3.323  -4.245  -0.851  1.00  0.00    -0.261 NA
HETATM    5  C10 UNL     1      -4.263  -3.775  -0.026  1.00  0.00     0.140 A 
HETATM    6  C11 UNL     1      -3.808  -2.694   0.674  1.00  0.00     0.071 A 
HETATM    7  C12 UNL     1      -4.744  -2.100   1.602  1.00  0.00     0.101 C 
HETATM    8  N4  UNL     1      -5.480  -1.614   2.356  1.00  0.00    -0.191 NA
HETATM    9  C13 UNL     1      -2.552  -2.078   0.616  1.00  0.00     0.004 A 
HETATM   10  C21 UNL     1      -1.415  -4.581  -2.007  1.00  0.00     0.208 A 
HETATM   11  N6  UNL     1      -0.070  -4.100  -2.215  1.00  0.00    -0.293 NA
HETATM   12  C22 UNL     1       0.336  -3.087  -1.548  1.00  0.00     0.141 A 
ENDROOT
BRANCH   9  13
HETATM   13  C14 UNL     1      -2.103  -1.054   1.266  1.00  0.00     0.145 C 
BRANCH  13  14
HETATM   14  N5  UNL     1      -1.916   0.060   2.113  1.00  0.00    -0.379 N 
HETATM   15  H14 UNL     1      -1.507  -0.001   3.114  1.00  0.00     0.160 HD
BRANCH  14  16
HETATM   16  C15 UNL     1      -2.222   1.411   1.686  1.00  0.00     0.030 A 
HETATM   17  C16 UNL     1      -2.086   2.514   2.478  1.00  0.00     0.032 A 
HETATM   18  C17 UNL     1      -2.401   3.767   1.981  1.00  0.00     0.046 A 
HETATM   19  C18 UNL     1      -2.856   3.892   0.673  1.00  0.00     0.138 A 
HETATM   20  F1  UNL     1      -3.149   5.143   0.237  1.00  0.00    -0.204 F 
HETATM   21  C19 UNL     1      -3.001   2.788  -0.144  1.00  0.00     0.074 A 
HETATM   22 CL1  UNL     1      -3.576   2.986  -1.783  1.00  0.00    -0.081 Cl
HETATM   23  C20 UNL     1      -2.678   1.558   0.384  1.00  0.00     0.056 A 
ENDBRANCH  14  16
ENDBRANCH  13  14
ENDBRANCH   9  13
BRANCH   1  24
HETATM   24  N2  UNL     1       0.082  -1.278   0.087  1.00  0.00    -0.322 N 
HETATM   25  C6  UNL     1       1.406  -0.843  -0.150  1.00  0.00     0.245 C 
HETATM   26  O1  UNL     1       2.259  -1.304  -0.924  1.00  0.00    -0.268 OA
HETATM   27  H11 UNL     1       0.046  -0.502   0.753  1.00  0.00     0.169 HD
BRANCH  25  28
HETATM   28  C5  UNL     1       2.342   0.177   0.281  1.00  0.00     0.072 C 
HETATM   29  C4  UNL     1       3.503   0.099  -0.310  1.00  0.00     0.008 C 
BRANCH  29  30
HETATM   30  C3  UNL     1       4.556   1.064   0.021  1.00  0.00     0.299 C 
BRANCH  30  31
HETATM   31  N1  UNL     1       4.970   1.825  -1.169  1.00  0.00     0.083 N 
HETATM   32  C1  UNL     1       6.019   2.783  -0.829  1.00  0.00     0.309 C 
HETATM   33  C2  UNL     1       3.789   2.568  -1.612  1.00  0.00     0.309 C 
ENDBRANCH  30  31
ENDBRANCH  29  30
ENDBRANCH  25  28
ENDBRANCH   1  24
TORSDOF 7
