REMARK  10 active torsions:
REMARK  status: ('A' for Active; 'I' for Inactive)
REMARK    1  A    between atoms: C2_2  and  N1_3 
REMARK    2  A    between atoms: C2_2  and  N4_23 
REMARK    3  A    between atoms: N1_3  and  C3_4 
REMARK    4  A    between atoms: C3_4  and  C4_5 
REMARK    5  A    between atoms: C4_5  and  C5_6 
REMARK    6  A    between atoms: C4_5  and  C7_9 
REMARK    7  A    between atoms: C5_6  and  C6_7 
REMARK    8  A    between atoms: C11_15  and  O2_16 
REMARK    9  A    between atoms: C13_18  and  O3_19 
REMARK   10  A    between atoms: N4_23  and  C17_24 
ROOT
HETATM    1  C4  UNL     1      -0.222   0.932   0.163  1.00  0.00     0.059 C 
ENDROOT
BRANCH   1   2
HETATM    2  C3  UNL     1      -0.911   0.135  -0.875  1.00  0.00     0.132 C 
BRANCH   2   3
HETATM    3  N1  UNL     1      -1.782  -0.900  -0.431  1.00  0.00    -0.377 N 
HETATM    4  H3  UNL     1      -1.618  -1.933  -0.547  1.00  0.00     0.161 HD
BRANCH   3   5
HETATM    5  C2  UNL     1      -3.022  -0.961   0.232  1.00  0.00     0.087 C 
HETATM    6  C1  UNL     1      -3.177  -1.384   1.472  1.00  0.00     0.063 C 
BRANCH   5   7
HETATM    7  N4  UNL     1      -4.245  -0.565  -0.414  1.00  0.00    -0.365 N 
HETATM    8  H19 UNL     1      -4.047   0.449  -0.159  1.00  0.00     0.162 HD
BRANCH   7   9
HETATM    9  C17 UNL     1      -5.501  -0.749  -1.156  1.00  0.00     0.134 A 
HETATM   10  C18 UNL     1      -6.239   0.438  -1.448  1.00  0.00     0.040 A 
HETATM   11  C19 UNL     1      -7.267   0.302  -0.702  1.00  0.00     0.167 A 
HETATM   12  S1  UNL     1      -6.794  -1.227  -0.021  1.00  0.00    -0.214 SA
ENDBRANCH   7   9
ENDBRANCH   5   7
ENDBRANCH   3   5
ENDBRANCH   2   3
ENDBRANCH   1   2
BRANCH   1  13
HETATM   13  C5  UNL     1      -1.157   1.680   1.115  1.00  0.00     0.049 C 
BRANCH  13  14
HETATM   14  C6  UNL     1      -2.035   2.624   0.405  1.00  0.00     0.391 C 
HETATM   15  O1  UNL     1      -2.870   2.950  -0.421  1.00  0.00    -0.430 OA
ENDBRANCH  13  14
ENDBRANCH   1  13
BRANCH   1  16
HETATM   16  C7  UNL     1       0.687   0.145   1.027  1.00  0.00     0.054 A 
HETATM   17  N2  UNL     1       0.319  -0.375   2.214  1.00  0.00    -0.245 NA
HETATM   18  C8  UNL     1       1.140  -1.097   3.013  1.00  0.00     0.234 A 
HETATM   19  N3  UNL     1       2.416  -1.327   2.623  1.00  0.00    -0.241 NA
HETATM   20  C9  UNL     1       2.865  -0.842   1.451  1.00  0.00     0.073 A 
HETATM   21  C10 UNL     1       4.161  -1.068   1.026  1.00  0.00     0.072 A 
HETATM   22  C16 UNL     1       2.013  -0.104   0.641  1.00  0.00     0.021 A 
HETATM   23  C11 UNL     1       4.661  -0.596  -0.168  1.00  0.00     0.103 A 
HETATM   24  C13 UNL     1       3.807   0.149  -0.990  1.00  0.00     0.102 A 
HETATM   25  C15 UNL     1       2.522   0.362  -0.549  1.00  0.00     0.055 A 
BRANCH  23  26
HETATM   26  O2  UNL     1       5.956  -0.798  -0.632  1.00  0.00    -0.353 OA
HETATM   27  C12 UNL     1       6.880  -1.544   0.148  1.00  0.00     0.210 C 
ENDBRANCH  23  26
BRANCH  24  28
HETATM   28  O3  UNL     1       4.264   0.648  -2.202  1.00  0.00    -0.353 OA
HETATM   29  C14 UNL     1       3.334   1.401  -2.986  1.00  0.00     0.210 C 
ENDBRANCH  24  28
ENDBRANCH   1  16
TORSDOF 10
