REMARK  8 active torsions:
REMARK  status: ('A' for Active; 'I' for Inactive)
REMARK    1  A    between atoms: C2_2  and  O1_3 
REMARK    2  A    between atoms: C2_2  and  C5_7 
REMARK    3  A    between atoms: O1_3  and  C3_4 
REMARK    4  A    between atoms: C3_4  and  O2_5 
REMARK    5  A    between atoms: C8_12  and  N3_13 
REMARK       I    between atoms: N4_16  and  C11_17 
REMARK       I    between atoms: C11_17  and  N5_19 
REMARK    6  A    between atoms: N5_19  and  C12_20 
REMARK    7  A    between atoms: C13_21  and  S1_22 
REMARK    8  A    between atoms: S1_22  and  C14_23 
ROOT
HETATM    1  N3  UNL     1      -1.781  -1.069   1.642  1.00  0.00    -0.362 N 
HETATM    2  C9  UNL     1      -0.740  -1.522   2.594  1.00  0.00     0.144 C 
HETATM    3  C10 UNL     1       0.517  -1.611   1.757  1.00  0.00     0.147 C 
HETATM    4  N4  UNL     1       0.753  -0.298   1.192  1.00  0.00    -0.331 N 
HETATM    5  C11 UNL     1       1.836  -0.033   0.286  1.00  0.00     0.322 C 
HETATM    6  O3  UNL     1       2.004   1.125  -0.182  1.00  0.00    -0.247 OA
HETATM    7  N5  UNL     1       2.682  -1.127  -0.043  1.00  0.00    -0.319 N 
HETATM    8  C17 UNL     1      -0.136   0.786   1.556  1.00  0.00     0.147 C 
HETATM    9  C18 UNL     1      -1.586   0.329   1.328  1.00  0.00     0.144 C 
HETATM   10  H14 UNL     1       2.527  -2.079   0.355  1.00  0.00     0.170 HD
ENDROOT
BRANCH   1  11
HETATM   11  C8  UNL     1      -2.695  -2.062   1.234  1.00  0.00     0.141 A 
HETATM   12  C5  UNL     1      -3.893  -1.894   0.621  1.00  0.00     0.057 A 
HETATM   13  C6  UNL     1      -4.717  -2.911   0.228  1.00  0.00     0.136 A 
HETATM   14  N1  UNL     1      -4.311  -4.172   0.466  1.00  0.00    -0.253 NA
HETATM   15  C7  UNL     1      -3.139  -4.374   1.068  1.00  0.00     0.234 A 
HETATM   16  N2  UNL     1      -2.381  -3.355   1.427  1.00  0.00    -0.224 NA
BRANCH  12  17
HETATM   17  C2  UNL     1      -4.391  -0.561   0.380  1.00  0.00     0.065 C 
HETATM   18  C1  UNL     1      -5.596  -0.421  -0.138  1.00  0.00     0.072 C 
BRANCH  17  19
HETATM   19  O1  UNL     1      -4.364   0.800   0.362  1.00  0.00    -0.329 OA
BRANCH  19  20
HETATM   20  C3  UNL     1      -4.160   1.673  -0.699  1.00  0.00     0.343 C 
BRANCH  20  21
HETATM   21  O2  UNL     1      -3.958   2.944  -0.159  1.00  0.00    -0.371 OA
HETATM   22  C4  UNL     1      -3.750   3.848  -1.183  1.00  0.00     0.204 C 
ENDBRANCH  20  21
ENDBRANCH  19  20
ENDBRANCH  17  19
ENDBRANCH  12  17
ENDBRANCH   1  11
BRANCH   7  23
HETATM   23  C12 UNL     1       3.776  -0.948  -0.933  1.00  0.00     0.100 C 
HETATM   24  C13 UNL     1       4.116   0.165  -1.520  1.00  0.00     0.066 C 
BRANCH  24  25
HETATM   25  S1  UNL     1       5.486   0.421  -2.644  1.00  0.00    -0.113 SA
BRANCH  25  26
HETATM   26  C14 UNL     1       6.967   0.827  -1.713  1.00  0.00     0.045 C 
HETATM   27  C15 UNL     1       7.396   2.009  -1.302  1.00  0.00    -0.024 C 
HETATM   28  C16 UNL     1       8.617   2.396  -0.528  1.00  0.00     0.036 C 
ENDBRANCH  25  26
ENDBRANCH  24  25
ENDBRANCH   7  23
TORSDOF 8
