REMARK  6 active torsions:
REMARK  status: ('A' for Active; 'I' for Inactive)
REMARK    1  A    between atoms: O1_2  and  C2_3 
REMARK    2  A    between atoms: C4_5  and  N1_6 
REMARK       I    between atoms: N1_6  and  C5_7 
REMARK    3  A    between atoms: C5_7  and  C6_9 
REMARK    4  A    between atoms: C7_10  and  C8_11 
REMARK    5  A    between atoms: C8_11  and  N2_12 
REMARK    6  A    between atoms: N2_12  and  C9_13 
ROOT
HETATM    1  N1  UNL     1      -2.244   0.724  -1.382  1.00  0.00    -0.324 N 
HETATM    2  C5  UNL     1      -1.004   0.568  -0.721  1.00  0.00     0.245 C 
HETATM    3  O2  UNL     1      -0.978   0.462   0.529  1.00  0.00    -0.268 OA
HETATM    4  H5  UNL     1      -2.164   0.802  -2.413  1.00  0.00     0.169 HD
ENDROOT
BRANCH   2   5
HETATM    5  C6  UNL     1       0.262   0.525  -1.436  1.00  0.00     0.072 C 
HETATM    6  C7  UNL     1       1.450   0.380  -0.880  1.00  0.00     0.008 C 
BRANCH   6   7
HETATM    7  C8  UNL     1       1.999   0.220   0.475  1.00  0.00     0.297 C 
BRANCH   7   8
HETATM    8  N2  UNL     1       2.738  -0.984   0.702  1.00  0.00     0.093 N 
HETATM    9  H10 UNL     1       2.952  -1.025   1.723  1.00  0.00     0.316 HD
BRANCH   8  10
HETATM   10  C9  UNL     1       3.997  -1.070  -0.004  1.00  0.00     0.247 C 
HETATM   11  C10 UNL     1       4.855   0.086   0.417  1.00  0.00     0.054 C 
HETATM   12  C11 UNL     1       6.325  -0.244   0.388  1.00  0.00     0.119 C 
HETATM   13  N3  UNL     1       6.481  -1.319  -0.576  1.00  0.00    -0.206 NA
HETATM   14  O3  UNL     1       5.997  -2.432   0.005  1.00  0.00    -0.304 OA
HETATM   15  H16 UNL     1       5.891  -1.021  -1.400  1.00  0.00     0.153 HD
HETATM   16  C12 UNL     1       4.634  -2.407   0.199  1.00  0.00     0.229 C 
ENDBRANCH   8  10
ENDBRANCH   7   8
ENDBRANCH   6   7
ENDBRANCH   2   5
BRANCH   1  17
HETATM   17  C4  UNL     1      -3.509   0.777  -0.743  1.00  0.00     0.036 A 
HETATM   18  C3  UNL     1      -4.776   0.933  -1.445  1.00  0.00     0.065 A 
HETATM   19  C2  UNL     1      -5.770   0.948  -0.574  1.00  0.00     0.085 A 
HETATM   20  C14 UNL     1      -5.250   0.799   0.821  1.00  0.00     0.251 A 
HETATM   21  C13 UNL     1      -3.788   0.701   0.545  1.00  0.00     0.046 A 
HETATM   22  F1  UNL     1      -5.638  -0.435   1.345  1.00  0.00    -0.238 F 
BRANCH  19  23
HETATM   23  O1  UNL     1      -7.094   1.085  -0.968  1.00  0.00    -0.357 OA
HETATM   24  C1  UNL     1      -8.133   0.531  -0.187  1.00  0.00     0.209 C 
ENDBRANCH  19  23
ENDBRANCH   1  17
TORSDOF 6
