REMARK  5 active torsions:
REMARK  status: ('A' for Active; 'I' for Inactive)
REMARK    1  A    between atoms: N1_2  and  C3_4 
REMARK    2  A    between atoms: C3_4  and  C4_5 
REMARK    3  A    between atoms: C5_6  and  C6_7 
REMARK       I    between atoms: C6_7  and  N2_9 
REMARK    4  A    between atoms: C9_12  and  N3_13 
REMARK    5  A    between atoms: N3_13  and  C10_14 
ROOT
HETATM    1  C6  UNL     1      -1.717  -0.594   0.153  1.00  0.00     0.247 C 
HETATM    2  O1  UNL     1      -1.466   0.370   0.898  1.00  0.00    -0.268 OA
HETATM    3  N2  UNL     1      -0.589  -1.447  -0.136  1.00  0.00    -0.320 N 
HETATM    4  C7  UNL     1       0.684  -1.137   0.430  1.00  0.00     0.110 A 
HETATM    5  C8  UNL     1       1.745  -1.901   0.229  1.00  0.00     0.036 A 
HETATM    6  C9  UNL     1       2.992  -1.645   0.755  1.00  0.00     0.069 A 
HETATM    7  C16 UNL     1       4.051  -2.515   0.474  1.00  0.00     0.089 A 
HETATM    8  C17 UNL     1       5.360  -2.269   1.010  1.00  0.00     0.103 C 
HETATM    9  N4  UNL     1       6.424  -2.082   1.430  1.00  0.00    -0.191 NA
HETATM   10  C18 UNL     1       3.893  -3.627  -0.316  1.00  0.00     0.142 A 
HETATM   11  N5  UNL     1       2.669  -3.897  -0.845  1.00  0.00    -0.259 NA
HETATM   12  C19 UNL     1       1.677  -3.037  -0.551  1.00  0.00     0.068 A 
HETATM   13  C20 UNL     1       0.502  -3.320  -1.088  1.00  0.00     0.026 A 
HETATM   14  C21 UNL     1      -0.800  -2.610  -1.000  1.00  0.00     0.161 A 
ENDROOT
BRANCH   6  15
HETATM   15  N3  UNL     1       3.183  -0.496   1.568  1.00  0.00    -0.354 N 
HETATM   16  H12 UNL     1       3.072  -0.373   2.599  1.00  0.00     0.166 HD
BRANCH  15  17
HETATM   17  C10 UNL     1       3.594   0.669   0.827  1.00  0.00     0.033 A 
HETATM   18  C11 UNL     1       3.761   0.636  -0.544  1.00  0.00     0.029 A 
HETATM   19  C12 UNL     1       4.154   1.705  -1.324  1.00  0.00     0.004 A 
HETATM   20  C13 UNL     1       4.392   2.889  -0.660  1.00  0.00     0.019 A 
HETATM   21  C14 UNL     1       4.246   3.000   0.713  1.00  0.00     0.013 A 
HETATM   22 BR1  UNL     1       4.585   4.657   1.584  1.00  0.00    -0.051 Br
HETATM   23  C15 UNL     1       3.846   1.875   1.428  1.00  0.00     0.048 A 
ENDBRANCH  15  17
ENDBRANCH   6  15
BRANCH   1  24
HETATM   24  C5  UNL     1      -3.022  -0.899  -0.418  1.00  0.00     0.072 C 
HETATM   25  C4  UNL     1      -4.099  -0.188  -0.210  1.00  0.00     0.008 C 
BRANCH  25  26
HETATM   26  C3  UNL     1      -4.470   1.013   0.538  1.00  0.00     0.299 C 
BRANCH  26  27
HETATM   27  N1  UNL     1      -4.989   2.053  -0.311  1.00  0.00     0.083 N 
HETATM   28  C1  UNL     1      -6.258   1.698  -0.858  1.00  0.00     0.309 C 
HETATM   29  C2  UNL     1      -5.007   3.285   0.449  1.00  0.00     0.309 C 
ENDBRANCH  26  27
ENDBRANCH  25  26
ENDBRANCH   1  24
TORSDOF 5
