REMARK  7 active torsions:
REMARK  status: ('A' for Active; 'I' for Inactive)
REMARK    1  A    between atoms: N1_2  and  C3_4 
REMARK    2  A    between atoms: C3_4  and  C4_5 
REMARK    3  A    between atoms: C4_5  and  C5_6 
REMARK    4  A    between atoms: C5_6  and  C6_7 
REMARK       I    between atoms: C6_7  and  N2_9 
REMARK    5  A    between atoms: N2_9  and  C7_10 
REMARK    6  A    between atoms: C14_19  and  C15_20 
REMARK    7  A    between atoms: C18_23  and  N5_24 
ROOT
HETATM    1  C7  UNL     1      -0.573  -0.199  -1.800  1.00  0.00     0.035 A 
HETATM    2  C8  UNL     1      -1.044  -0.559  -3.063  1.00  0.00     0.032 A 
HETATM    3  C9  UNL     1      -2.312  -0.114  -3.433  1.00  0.00     0.035 A 
HETATM    4  C10 UNL     1      -3.060   0.655  -2.568  1.00  0.00     0.067 A 
HETATM    5  N3  UNL     1      -4.286   1.095  -2.889  1.00  0.00    -0.259 NA
HETATM    6  C11 UNL     1      -4.982   1.837  -2.010  1.00  0.00     0.140 A 
HETATM    7  C12 UNL     1      -4.467   2.162  -0.777  1.00  0.00     0.070 A 
HETATM    8  C13 UNL     1      -5.393   3.016  -0.044  1.00  0.00     0.101 C 
HETATM    9  N4  UNL     1      -6.130   3.722   0.543  1.00  0.00    -0.191 NA
HETATM   10  C14 UNL     1      -3.187   1.744  -0.350  1.00  0.00    -0.012 A 
HETATM   11  C20 UNL     1      -2.601   1.011  -1.328  1.00  0.00     0.004 A 
HETATM   12  C21 UNL     1      -1.353   0.556  -0.998  1.00  0.00     0.044 A 
ENDROOT
BRANCH  10  13
HETATM   13  C15 UNL     1      -2.923   2.175   0.990  1.00  0.00     0.068 A 
HETATM   14  C16 UNL     1      -4.099   1.619   1.816  1.00  0.00    -0.011 A 
HETATM   15  C17 UNL     1      -3.632   0.973   2.911  1.00  0.00     0.025 A 
HETATM   16  C18 UNL     1      -2.148   1.050   2.899  1.00  0.00     0.022 A 
HETATM   17  C19 UNL     1      -1.807   1.742   1.791  1.00  0.00     0.015 A 
BRANCH  16  18
HETATM   18  N5  UNL     1      -1.332   0.452   3.942  1.00  0.00    -0.399 N 
HETATM   19  H18 UNL     1      -0.525  -0.210   3.762  1.00  0.00     0.156 HD
HETATM   20  H19 UNL     1      -1.522   0.668   4.944  1.00  0.00     0.156 HD
ENDBRANCH  16  18
ENDBRANCH  10  13
BRANCH   1  21
HETATM   21  N2  UNL     1       0.723  -0.707  -1.527  1.00  0.00    -0.324 N 
HETATM   22  C6  UNL     1       1.985  -0.096  -1.868  1.00  0.00     0.245 C 
HETATM   23  O1  UNL     1       1.838   1.007  -2.472  1.00  0.00    -0.268 OA
HETATM   24  H11 UNL     1       0.447  -1.595  -1.041  1.00  0.00     0.169 HD
BRANCH  22  25
HETATM   25  C5  UNL     1       3.039  -0.969  -1.399  1.00  0.00     0.072 C 
BRANCH  25  26
HETATM   26  C4  UNL     1       3.904  -1.799  -0.948  1.00  0.00     0.008 C 
BRANCH  26  27
HETATM   27  C3  UNL     1       5.299  -2.196  -0.767  1.00  0.00     0.299 C 
BRANCH  27  28
HETATM   28  N1  UNL     1       5.561  -2.296   0.649  1.00  0.00     0.083 N 
HETATM   29  C1  UNL     1       5.504  -0.978   1.211  1.00  0.00     0.309 C 
HETATM   30  C2  UNL     1       4.558  -3.139   1.266  1.00  0.00     0.309 C 
ENDBRANCH  27  28
ENDBRANCH  26  27
ENDBRANCH  25  26
ENDBRANCH  22  25
ENDBRANCH   1  21
TORSDOF 7
