REMARK  5 active torsions:
REMARK  status: ('A' for Active; 'I' for Inactive)
REMARK    1  A    between atoms: C7_9  and  N3_10 
REMARK    2  A    between atoms: N3_10  and  C8_11 
REMARK    3  A    between atoms: C8_11  and  C9_12 
REMARK    4  A    between atoms: C12_16  and  N4_17 
REMARK    5  A    between atoms: N4_17  and  C13_18 
ROOT
HETATM    1  N1  UNL     1      -3.111   3.921   1.254  1.00  0.00    -0.191 NA
HETATM    2  C1  UNL     1      -2.090   3.377   1.263  1.00  0.00     0.103 C 
HETATM    3  C2  UNL     1      -0.839   2.701   1.256  1.00  0.00     0.089 A 
HETATM    4  C3  UNL     1       0.171   3.130   2.096  1.00  0.00     0.142 A 
HETATM    5  N2  UNL     1       1.391   2.560   2.167  1.00  0.00    -0.259 NA
HETATM    6  C4  UNL     1       1.622   1.499   1.355  1.00  0.00     0.069 A 
HETATM    7  C5  UNL     1       2.859   0.874   1.387  1.00  0.00     0.035 A 
HETATM    8  C6  UNL     1       3.077  -0.202   0.556  1.00  0.00     0.031 A 
HETATM    9  C7  UNL     1       2.141  -0.708  -0.316  1.00  0.00     0.029 A 
HETATM   10  C10 UNL     1       0.933  -0.045  -0.301  1.00  0.00     0.045 A 
HETATM   11  C11 UNL     1       0.631   1.034   0.493  1.00  0.00     0.023 A 
HETATM   12  C12 UNL     1      -0.616   1.622   0.424  1.00  0.00     0.067 A 
ENDROOT
BRANCH  12  13
HETATM   13  N4  UNL     1      -1.630   1.173  -0.434  1.00  0.00    -0.354 N 
HETATM   14  H9  UNL     1      -1.564   1.664  -1.352  1.00  0.00     0.166 HD
BRANCH  13  15
HETATM   15  C13 UNL     1      -2.608   0.209  -0.145  1.00  0.00     0.033 A 
HETATM   16  C14 UNL     1      -2.606  -0.385   1.108  1.00  0.00     0.029 A 
HETATM   17  C15 UNL     1      -3.594  -1.334   1.350  1.00  0.00     0.004 A 
HETATM   18  C16 UNL     1      -4.527  -1.659   0.372  1.00  0.00     0.019 A 
HETATM   19  C17 UNL     1      -4.503  -1.048  -0.873  1.00  0.00     0.013 A 
HETATM   20 BR1  UNL     1      -5.788  -1.498  -2.212  1.00  0.00    -0.051 Br
HETATM   21  C18 UNL     1      -3.527  -0.102  -1.128  1.00  0.00     0.048 A 
ENDBRANCH  13  15
ENDBRANCH  12  13
BRANCH   9  22
HETATM   22  N3  UNL     1       2.381  -1.814  -1.164  1.00  0.00    -0.384 N 
HETATM   23  H4  UNL     1       1.607  -2.126  -1.788  1.00  0.00     0.160 HD
BRANCH  22  24
HETATM   24  C8  UNL     1       3.632  -2.503  -1.189  1.00  0.00     0.189 C 
BRANCH  24  25
HETATM   25  C9  UNL     1       4.789  -1.633  -1.588  1.00  0.00     0.250 C 
HETATM   26  O1  UNL     1       5.072  -0.495  -1.918  1.00  0.00    -0.305 OA
ENDBRANCH  24  25
ENDBRANCH  22  24
ENDBRANCH   9  22
TORSDOF 5
