REMARK  6 active torsions:
REMARK  status: ('A' for Active; 'I' for Inactive)
REMARK    1  A    between atoms: C7_8  and  N1_9 
REMARK    2  A    between atoms: N1_9  and  C8_10 
REMARK    3  A    between atoms: C15_19  and  N4_20 
REMARK       I    between atoms: N4_20  and  C16_21 
REMARK    4  A    between atoms: C16_21  and  C17_23 
REMARK    5  A    between atoms: C18_24  and  C19_25 
REMARK    6  A    between atoms: C19_25  and  N5_26 
ROOT
HETATM    1  C8  UNL     1      -3.330  -1.076   1.188  1.00  0.00     0.067 A 
HETATM    2  C9  UNL     1      -4.288  -1.137   2.180  1.00  0.00     0.089 A 
HETATM    3  C10 UNL     1      -5.667  -1.253   1.757  1.00  0.00     0.103 C 
HETATM    4  N2  UNL     1      -6.761  -1.344   1.427  1.00  0.00    -0.191 NA
HETATM    5  C11 UNL     1      -3.938  -1.088   3.517  1.00  0.00     0.142 A 
HETATM    6  N3  UNL     1      -2.628  -0.979   3.837  1.00  0.00    -0.259 NA
HETATM    7  C12 UNL     1      -1.675  -0.918   2.891  1.00  0.00     0.069 A 
HETATM    8  C13 UNL     1      -0.354  -0.808   3.219  1.00  0.00     0.035 A 
HETATM    9  C14 UNL     1       0.576  -0.750   2.205  1.00  0.00     0.032 A 
HETATM   10  C15 UNL     1       0.306  -0.793   0.864  1.00  0.00     0.035 A 
HETATM   11  C22 UNL     1      -1.038  -0.904   0.581  1.00  0.00     0.045 A 
HETATM   12  C23 UNL     1      -2.007  -0.966   1.557  1.00  0.00     0.023 A 
ENDROOT
BRANCH   1  13
HETATM   13  N1  UNL     1      -3.687  -1.126  -0.194  1.00  0.00    -0.354 N 
HETATM   14  H7  UNL     1      -3.736  -2.057  -0.652  1.00  0.00     0.166 HD
BRANCH  13  15
HETATM   15  C7  UNL     1      -3.954   0.109  -0.859  1.00  0.00     0.040 A 
HETATM   16  C2  UNL     1      -4.304   0.126  -2.196  1.00  0.00    -0.018 A 
HETATM   17  C1  UNL     1      -4.412  -1.140  -2.978  1.00  0.00     0.052 C 
HETATM   18  C3  UNL     1      -4.564   1.338  -2.843  1.00  0.00     0.019 A 
HETATM   19 BR1  UNL     1      -5.051   1.424  -4.684  1.00  0.00    -0.051 Br
HETATM   20  C4  UNL     1      -4.453   2.498  -2.079  1.00  0.00     0.020 A 
HETATM   21  C5  UNL     1      -4.104   2.482  -0.744  1.00  0.00     0.004 A 
HETATM   22  C6  UNL     1      -3.846   1.264  -0.109  1.00  0.00     0.030 A 
ENDBRANCH  13  15
ENDBRANCH   1  13
BRANCH  10  23
HETATM   23  N4  UNL     1       1.201  -0.738  -0.203  1.00  0.00    -0.324 N 
HETATM   24  C16 UNL     1       2.613  -0.626  -0.180  1.00  0.00     0.245 C 
HETATM   25  O1  UNL     1       3.197  -0.562   0.925  1.00  0.00    -0.268 OA
HETATM   26  H11 UNL     1       0.848  -0.782  -1.184  1.00  0.00     0.169 HD
BRANCH  24  27
HETATM   27  C17 UNL     1       3.453  -0.578  -1.363  1.00  0.00     0.072 C 
HETATM   28  C18 UNL     1       4.766  -0.474  -1.352  1.00  0.00     0.008 C 
BRANCH  28  29
HETATM   29  C19 UNL     1       5.881  -0.370  -0.406  1.00  0.00     0.299 C 
BRANCH  29  30
HETATM   30  N5  UNL     1       6.635   0.870  -0.597  1.00  0.00     0.083 N 
HETATM   31  C20 UNL     1       7.703   0.904   0.355  1.00  0.00     0.309 C 
HETATM   32  C21 UNL     1       5.787   2.021  -0.573  1.00  0.00     0.309 C 
ENDBRANCH  29  30
ENDBRANCH  28  29
ENDBRANCH  24  27
ENDBRANCH  10  23
TORSDOF 6
