REMARK  6 active torsions:
REMARK  status: ('A' for Active; 'I' for Inactive)
REMARK    1  A    between atoms: N1_2  and  C3_4 
REMARK    2  A    between atoms: C3_4  and  C4_5 
REMARK    3  A    between atoms: C5_6  and  C6_7 
REMARK       I    between atoms: C6_7  and  N2_9 
REMARK    4  A    between atoms: N2_9  and  C7_10 
REMARK    5  A    between atoms: C14_19  and  N5_20 
REMARK    6  A    between atoms: N5_20  and  C15_21 
ROOT
HETATM    1  C7  UNL     1       0.356   1.700  -0.483  1.00  0.00     0.035 A 
HETATM    2  C8  UNL     1       0.230   2.869   0.268  1.00  0.00     0.032 A 
HETATM    3  C9  UNL     1       1.380   3.362   0.847  1.00  0.00     0.035 A 
HETATM    4  C10 UNL     1       2.616   2.760   0.717  1.00  0.00     0.069 A 
HETATM    5  N3  UNL     1       3.737   3.215   1.261  1.00  0.00    -0.259 NA
HETATM    6  C11 UNL     1       4.901   2.577   1.084  1.00  0.00     0.142 A 
HETATM    7  C12 UNL     1       4.989   1.428   0.339  1.00  0.00     0.089 A 
HETATM    8  C13 UNL     1       6.269   0.802   0.196  1.00  0.00     0.103 C 
HETATM    9  N4  UNL     1       7.312   0.289   0.099  1.00  0.00    -0.191 NA
HETATM   10  C14 UNL     1       3.877   0.909  -0.244  1.00  0.00     0.067 A 
HETATM   11  C19 UNL     1       2.678   1.594  -0.046  1.00  0.00     0.023 A 
HETATM   12  C20 UNL     1       1.552   1.042  -0.660  1.00  0.00     0.045 A 
ENDROOT
BRANCH  10  13
HETATM   13  N5  UNL     1       3.989  -0.260  -1.006  1.00  0.00    -0.354 N 
HETATM   14  H15 UNL     1       4.032   0.133  -1.960  1.00  0.00     0.166 HD
BRANCH  13  15
HETATM   15  C15 UNL     1       4.027  -1.591  -0.576  1.00  0.00     0.035 A 
HETATM   16  C16 UNL     1       3.518  -2.660   0.013  1.00  0.00     0.048 A 
HETATM   17  C17 UNL     1       4.734  -3.404  -0.286  1.00  0.00     0.015 A 
HETATM   18 BR1  UNL     1       4.935  -5.234   0.238  1.00  0.00    -0.051 Br
HETATM   19  C18 UNL     1       5.272  -2.330  -0.890  1.00  0.00     0.048 A 
ENDBRANCH  13  15
ENDBRANCH  10  13
BRANCH   1  20
HETATM   20  N2  UNL     1      -0.838   1.214  -1.070  1.00  0.00    -0.324 N 
HETATM   21  C6  UNL     1      -1.753   0.279  -0.530  1.00  0.00     0.245 C 
HETATM   22  O1  UNL     1      -1.773  -0.356   0.556  1.00  0.00    -0.268 OA
HETATM   23  H11 UNL     1      -1.043   1.610  -2.013  1.00  0.00     0.169 HD
BRANCH  21  24
HETATM   24  C5  UNL     1      -2.937  -0.106  -1.282  1.00  0.00     0.072 C 
HETATM   25  C4  UNL     1      -3.851  -0.964  -0.892  1.00  0.00     0.008 C 
BRANCH  25  26
HETATM   26  C3  UNL     1      -4.283  -1.872   0.166  1.00  0.00     0.299 C 
BRANCH  26  27
HETATM   27  N1  UNL     1      -5.591  -1.561   0.727  1.00  0.00     0.083 N 
HETATM   28  C1  UNL     1      -5.567  -0.330   1.475  1.00  0.00     0.309 C 
HETATM   29  C2  UNL     1      -6.583  -1.413  -0.327  1.00  0.00     0.309 C 
ENDBRANCH  26  27
ENDBRANCH  25  26
ENDBRANCH  21  24
ENDBRANCH   1  20
TORSDOF 6
