REMARK  6 active torsions:
REMARK  status: ('A' for Active; 'I' for Inactive)
REMARK    1  A    between atoms: C2_2  and  N1_3 
REMARK    2  A    between atoms: N1_3  and  C4_5 
REMARK    3  A    between atoms: C5_6  and  C6_7 
REMARK       I    between atoms: C6_7  and  N2_9 
REMARK    4  A    between atoms: N2_9  and  C7_10 
REMARK    5  A    between atoms: C12_16  and  N5_19 
REMARK    6  A    between atoms: N5_19  and  C14_20 
ROOT
HETATM    1  C7  UNL     1       0.551  -1.402   0.169  1.00  0.00     0.096 C 
HETATM    2  C8  UNL     1       0.208  -1.978   1.648  1.00  0.00     0.058 C 
HETATM    3  C9  UNL     1      -0.498  -3.113   1.026  1.00  0.00     0.092 A 
HETATM    4  N3  UNL     1      -1.321  -3.742   0.271  1.00  0.00    -0.263 NA
HETATM    5  C10 UNL     1      -0.667  -3.202  -1.082  1.00  0.00     0.105 C 
HETATM    6  C11 UNL     1      -0.713  -1.725  -0.578  1.00  0.00     0.077 C 
HETATM    7  C12 UNL     1      -1.616  -2.114   0.558  1.00  0.00     0.162 A 
HETATM    8  C13 UNL     1      -2.797  -2.860   0.040  1.00  0.00     0.105 C 
HETATM    9  N4  UNL     1      -3.688  -3.446  -0.353  1.00  0.00    -0.193 NA
ENDROOT
BRANCH   7  10
HETATM   10  N5  UNL     1      -2.015  -1.204   1.533  1.00  0.00    -0.358 N 
HETATM   11  H16 UNL     1      -1.859  -1.104   2.585  1.00  0.00     0.162 HD
BRANCH  10  12
HETATM   12  C14 UNL     1      -2.902  -0.134   1.180  1.00  0.00     0.030 A 
HETATM   13  C15 UNL     1      -3.329   0.864   2.031  1.00  0.00     0.029 A 
HETATM   14  C16 UNL     1      -4.189   1.881   1.706  1.00  0.00     0.003 A 
HETATM   15  C17 UNL     1      -4.691   1.942   0.427  1.00  0.00     0.007 A 
HETATM   16  C18 UNL     1      -4.312   0.985  -0.476  1.00  0.00    -0.060 A 
HETATM   17  C19 UNL     1      -4.895   1.122  -1.830  1.00  0.00     0.048 C 
HETATM   18  C20 UNL     1      -3.444  -0.007  -0.078  1.00  0.00     0.036 A 
ENDBRANCH  10  12
ENDBRANCH   7  10
BRANCH   1  19
HETATM   19  N2  UNL     1       0.889  -0.035   0.269  1.00  0.00    -0.352 N 
HETATM   20  C6  UNL     1       2.162   0.543   0.002  1.00  0.00     0.242 C 
HETATM   21  O1  UNL     1       3.137  -0.161  -0.364  1.00  0.00    -0.269 OA
HETATM   22  H9  UNL     1       0.087   0.563   0.574  1.00  0.00     0.163 HD
BRANCH  20  23
HETATM   23  C5  UNL     1       2.337   1.979   0.157  1.00  0.00     0.091 C 
HETATM   24  C4  UNL     1       3.505   2.528  -0.086  1.00  0.00     0.095 C 
BRANCH  24  25
HETATM   25  N1  UNL     1       4.636   1.796  -0.499  1.00  0.00    -0.371 N 
HETATM   26  C3  UNL     1       5.022   1.267  -1.792  1.00  0.00     0.154 C 
BRANCH  25  27
HETATM   27  C2  UNL     1       5.558   1.542   0.568  1.00  0.00     0.079 C 
HETATM   28  C1  UNL     1       6.138   0.831   1.521  1.00  0.00     0.030 C 
ENDBRANCH  25  27
ENDBRANCH  24  25
ENDBRANCH  20  23
ENDBRANCH   1  19
TORSDOF 6
