REMARK  5 active torsions:
REMARK  status: ('A' for Active; 'I' for Inactive)
REMARK    1  A    between atoms: C2_2  and  C3_3 
REMARK    2  A    between atoms: C3_3  and  N1_4 
REMARK    3  A    between atoms: N1_4  and  C4_5 
REMARK    4  A    between atoms: C12_15  and  C18_22 
REMARK    5  A    between atoms: C15_18  and  C16_19 
ROOT
HETATM    1  C3  UNL     1       0.399  -1.548   0.232  1.00  0.00     0.101 A 
HETATM    2  C10 UNL     1      -0.048  -1.418   1.594  1.00  0.00     0.126 A 
HETATM    3  N2  UNL     1      -1.106  -0.920   2.104  1.00  0.00    -0.274 NA
HETATM    4  C11 UNL     1      -2.155  -0.340   1.368  1.00  0.00     0.121 A 
HETATM    5  C12 UNL     1      -1.999  -0.325   0.001  1.00  0.00    -0.028 A 
HETATM    6  C13 UNL     1      -0.674  -0.953  -0.658  1.00  0.00     0.065 A 
HETATM    7  C14 UNL     1      -0.241  -1.080  -2.056  1.00  0.00     0.005 A 
HETATM    8  C15 UNL     1      -1.361  -0.523  -2.049  1.00  0.00    -0.029 A 
ENDROOT
BRANCH   1   9
HETATM    9  C2  UNL     1       0.444  -3.040  -0.061  1.00  0.00     0.001 C 
HETATM   10  C1  UNL     1       1.406  -3.489   0.768  1.00  0.00     0.010 C 
ENDBRANCH   1   9
BRANCH   1  11
HETATM   11  N1  UNL     1       1.648  -0.968  -0.091  1.00  0.00    -0.371 N 
HETATM   12  H4  UNL     1       2.396  -1.611  -0.499  1.00  0.00     0.161 HD
BRANCH  11  13
HETATM   13  C4  UNL     1       2.071   0.378   0.050  1.00  0.00     0.030 A 
HETATM   14  C5  UNL     1       1.287   1.388   0.561  1.00  0.00     0.029 A 
HETATM   15  C6  UNL     1       1.657   2.707   0.712  1.00  0.00     0.004 A 
HETATM   16  C7  UNL     1       2.932   3.043   0.314  1.00  0.00     0.019 A 
HETATM   17  C8  UNL     1       3.776   2.087  -0.208  1.00  0.00     0.013 A 
HETATM   18 BR1  UNL     1       5.543   2.547  -0.761  1.00  0.00    -0.051 Br
HETATM   19  C9  UNL     1       3.328   0.796  -0.324  1.00  0.00     0.048 A 
ENDBRANCH  11  13
ENDBRANCH   1  11
BRANCH   5  20
HETATM   20  C18 UNL     1      -3.196   0.339  -0.505  1.00  0.00     0.108 A 
HETATM   21  C17 UNL     1      -3.470   0.519  -1.961  1.00  0.00     0.168 A 
HETATM   22  C16 UNL     1      -2.333  -0.042  -2.021  1.00  0.00     0.010 A 
HETATM   23  O1  UNL     1      -4.366   0.982  -2.626  1.00  0.00    -0.292 OA
HETATM   24  C19 UNL     1      -3.230   1.770   0.078  1.00  0.00     0.027 C 
ENDBRANCH   5  20
TORSDOF 5
