REMARK  2 active torsions:
REMARK  status: ('A' for Active; 'I' for Inactive)
REMARK    1  A    between atoms: C3_3  and  C4_4 
REMARK       I    between atoms: C4_4  and  N1_6 
REMARK    2  A    between atoms: N1_6  and  C5_7 
ROOT
HETATM    1  C1  UNL     1       7.439  -1.286   1.078  1.00  0.00     0.112 C 
HETATM    2  C2  UNL     1       6.151  -1.120   0.396  1.00  0.00    -0.101 C 
HETATM    3  C3  UNL     1       5.074  -0.995  -0.156  1.00  0.00    -0.006 C 
ENDROOT
BRANCH   3   4
HETATM    4  C4  UNL     1       3.792  -0.828  -0.812  1.00  0.00     0.300 C 
HETATM    5  O1  UNL     1       3.754  -0.651  -2.057  1.00  0.00    -0.258 OA
HETATM    6  N1  UNL     1       2.661  -0.883   0.049  1.00  0.00    -0.316 N 
HETATM    7  H4  UNL     1       2.752  -1.032   1.078  1.00  0.00     0.170 HD
BRANCH   6   8
HETATM    8  C5  UNL     1       1.290  -0.753  -0.306  1.00  0.00     0.036 A 
HETATM    9  C6  UNL     1       0.532  -1.853  -0.648  1.00  0.00     0.032 A 
HETATM   10  C7  UNL     1      -0.813  -1.595  -0.980  1.00  0.00     0.034 A 
HETATM   11  C8  UNL     1      -1.466  -0.351  -1.002  1.00  0.00     0.065 A 
HETATM   12  C9  UNL     1      -0.637   0.740  -0.641  1.00  0.00    -0.023 A 
HETATM   13  N4  UNL     1      -2.723  -0.687  -1.409  1.00  0.00    -0.242 NA
HETATM   14  C10 UNL     1       0.674   0.480  -0.319  1.00  0.00     0.039 A 
HETATM   15  C11 UNL     1      -1.002   2.203  -0.523  1.00  0.00     0.075 C 
HETATM   16  C12 UNL     1      -2.283   2.301   0.253  1.00  0.00    -0.070 C 
HETATM   17  C13 UNL     1      -2.928   1.559  -0.617  1.00  0.00     0.034 C 
HETATM   18  C16 UNL     1      -3.122   2.677   1.435  1.00  0.00     0.064 C 
HETATM   19  C14 UNL     1      -3.435   0.927   0.589  1.00  0.00     0.047 C 
HETATM   20  C15 UNL     1      -3.245   1.171   1.875  1.00  0.00     0.008 C 
HETATM   21  N2  UNL     1      -4.026  -0.298   0.058  1.00  0.00    -0.243 N 
HETATM   22  C17 UNL     1      -4.753  -1.267   0.698  1.00  0.00     0.190 C 
HETATM   23  C18 UNL     1      -3.898  -0.795  -1.265  1.00  0.00     0.226 C 
HETATM   24  N3  UNL     1      -5.340  -2.076   1.241  1.00  0.00    -0.171 NA
ENDBRANCH   6   8
ENDBRANCH   3   4
TORSDOF 2
