REMARK  7 active torsions:
REMARK  status: ('A' for Active; 'I' for Inactive)
REMARK    1  A    between atoms: C2_2  and  C3_3 
REMARK    2  A    between atoms: C4_4  and  C5_5 
REMARK    3  A    between atoms: C5_5  and  C6_7 
REMARK    4  A    between atoms: C7_8  and  C8_9 
REMARK    5  A    between atoms: C8_9  and  C9_10 
REMARK    6  A    between atoms: N2_13  and  C11_14 
REMARK    7  A    between atoms: C11_14  and  C12_15 
ROOT
HETATM    1  C9  UNL     1      -1.777  -2.202  -1.514  1.00  0.00     0.130 C 
HETATM    2  C10 UNL     1      -2.291  -3.579  -1.573  1.00  0.00     0.059 C 
HETATM    3  N1  UNL     1      -2.707  -4.665  -1.629  1.00  0.00    -0.197 NA
ENDROOT
BRANCH   1   4
HETATM    4  C8  UNL     1      -1.307  -1.949  -0.108  1.00  0.00     0.072 C 
BRANCH   4   5
HETATM    5  C7  UNL     1      -0.761  -0.593   0.118  1.00  0.00     0.023 C 
HETATM    6  C6  UNL     1       0.524  -0.354   0.316  1.00  0.00     0.045 C 
HETATM    7  C16 UNL     1       0.973   1.026   0.431  1.00  0.00     0.015 C 
HETATM    8  C15 UNL     1       0.194   2.084   0.347  1.00  0.00    -0.006 C 
HETATM    9  C14 UNL     1      -1.261   1.931   0.113  1.00  0.00     0.150 C 
HETATM   10  N2  UNL     1      -1.623   0.568   0.236  1.00  0.00    -0.376 N 
BRANCH   6  11
HETATM   11  C5  UNL     1       1.548  -1.377   0.343  1.00  0.00     0.237 C 
HETATM   12  O1  UNL     1       1.515  -2.620   0.199  1.00  0.00    -0.278 OA
BRANCH  11  13
HETATM   13  C4  UNL     1       2.914  -1.006   0.574  1.00  0.00    -0.024 C 
HETATM   14  C3  UNL     1       4.065  -0.672   0.774  1.00  0.00    -0.098 C 
BRANCH  14  15
HETATM   15  C2  UNL     1       5.424  -0.259   1.000  1.00  0.00     0.090 C 
HETATM   16  C1  UNL     1       5.837   0.920   0.141  1.00  0.00     0.018 C 
ENDBRANCH  14  15
ENDBRANCH  11  13
ENDBRANCH   6  11
BRANCH  10  17
HETATM   17  C11 UNL     1      -3.003   0.404   0.536  1.00  0.00     0.151 C 
BRANCH  17  18
HETATM   18  C12 UNL     1      -3.814   1.631   0.655  1.00  0.00     0.000 C 
HETATM   19  C13 UNL     1      -4.878   1.890  -0.133  1.00  0.00     0.162 C 
HETATM   20 BR1  UNL     1      -5.880   1.162  -1.554  1.00  0.00    -0.172 Br
ENDBRANCH  17  18
ENDBRANCH  10  17
ENDBRANCH   4   5
ENDBRANCH   1   4
TORSDOF 7
