REMARK  2 active torsions:
REMARK  status: ('A' for Active; 'I' for Inactive)
REMARK    1  A    between atoms: C3_3  and  C4_4 
REMARK       I    between atoms: C4_4  and  N1_6 
REMARK    2  A    between atoms: N1_6  and  C5_7 
ROOT
HETATM    1  C1  UNL     1       7.110   1.148  -0.291  1.00  0.00     0.112 C 
HETATM    2  C2  UNL     1       5.732   1.246  -0.755  1.00  0.00    -0.101 C 
HETATM    3  C3  UNL     1       4.563   1.312  -1.133  1.00  0.00    -0.006 C 
ENDROOT
BRANCH   3   4
HETATM    4  C4  UNL     1       3.188   1.367  -1.582  1.00  0.00     0.297 C 
HETATM    5  O1  UNL     1       3.006   1.787  -2.761  1.00  0.00    -0.258 OA
HETATM    6  N1  UNL     1       2.199   0.943  -0.654  1.00  0.00    -0.339 N 
HETATM    7  H4  UNL     1       2.486   0.612   0.297  1.00  0.00     0.164 HD
BRANCH   6   8
HETATM    8  C5  UNL     1       0.732   0.889  -0.836  1.00  0.00     0.133 C 
HETATM    9  C6  UNL     1       0.277  -0.501  -0.575  1.00  0.00     0.021 C 
HETATM   10  C7  UNL     1       0.271  -1.463  -1.537  1.00  0.00     0.115 C 
HETATM   11  N2  UNL     1      -0.247  -2.563  -0.733  1.00  0.00    -0.260 NA
HETATM   12  C8  UNL     1      -1.545  -2.482  -0.502  1.00  0.00     0.078 C 
HETATM   13  C9  UNL     1      -1.893  -1.221  -1.235  1.00  0.00     0.033 C 
HETATM   14  C18 UNL     1      -2.567  -3.202   0.246  1.00  0.00     0.088 C 
HETATM   15  C10 UNL     1      -2.517  -0.069  -0.878  1.00  0.00     0.005 C 
HETATM   16  C11 UNL     1      -3.310   0.152   0.356  1.00  0.00     0.029 C 
HETATM   17  C12 UNL     1      -3.028  -0.213   1.643  1.00  0.00     0.033 C 
HETATM   18  C13 UNL     1      -2.759   1.157   2.098  1.00  0.00     0.048 C 
HETATM   19  N3  UNL     1      -3.062  -1.573   2.143  1.00  0.00    -0.364 N 
HETATM   20  C14 UNL     1      -1.864   2.014   1.740  1.00  0.00     0.013 C 
HETATM   21 BR1  UNL     1      -2.488   3.365   2.966  1.00  0.00    -0.051 Br
HETATM   22  C15 UNL     1      -0.714   2.414   0.976  1.00  0.00     0.017 C 
HETATM   23  C16 UNL     1       0.134   1.883   0.066  1.00  0.00     0.004 C 
HETATM   24  C17 UNL     1      -2.672  -2.845   1.553  1.00  0.00     0.113 C 
HETATM   25  H14 UNL     1      -3.444  -1.659   3.105  1.00  0.00     0.165 HD
HETATM   26  C19 UNL     1      -3.376  -4.180  -0.369  1.00  0.00     0.103 C 
HETATM   27  N4  UNL     1      -4.039  -4.960  -0.873  1.00  0.00    -0.191 NA
ENDBRANCH   6   8
ENDBRANCH   3   4
TORSDOF 2
