REMARK  3 active torsions:
REMARK  status: ('A' for Active; 'I' for Inactive)
REMARK    1  A    between atoms: C2_2  and  C3_3 
REMARK    2  A    between atoms: C4_4  and  N1_5 
REMARK    3  A    between atoms: N1_5  and  C5_6 
ROOT
HETATM    1  C5  UNL     1      -0.109   1.118  -0.552  1.00  0.00     0.169 C 
HETATM    2  C6  UNL     1       0.008   2.158  -1.599  1.00  0.00     0.030 C 
HETATM    3  C7  UNL     1      -0.945   2.696  -2.342  1.00  0.00     0.001 C 
HETATM    4  C8  UNL     1      -2.326   2.273  -2.521  1.00  0.00     0.008 C 
HETATM    5  C9  UNL     1      -3.065   1.422  -1.810  1.00  0.00     0.066 C 
HETATM    6  S1  UNL     1      -2.820   1.173  -0.084  1.00  0.00     0.003 SA
HETATM    7  N2  UNL     1      -1.291   1.147   0.190  1.00  0.00    -0.218 NA
HETATM    8  C10 UNL     1      -3.683  -0.284   0.438  1.00  0.00     0.277 C 
HETATM    9  O1  UNL     1      -4.361  -1.240   0.801  1.00  0.00    -0.269 OA
HETATM   10  C11 UNL     1      -2.694  -1.269   0.506  1.00  0.00    -0.014 C 
HETATM   11  C12 UNL     1      -1.854  -2.075   0.559  1.00  0.00    -0.069 C 
HETATM   12  C13 UNL     1      -0.813  -3.041   0.618  1.00  0.00     0.344 C 
HETATM   13  N3  UNL     1       0.473  -2.414   0.261  1.00  0.00     0.032 NA
HETATM   14  C14 UNL     1       0.426  -1.339  -0.480  1.00  0.00     0.685 C 
HETATM   15  C15 UNL     1       0.004  -0.197  -1.288  1.00  0.00     0.185 C 
HETATM   16  C16 UNL     1       0.854  -0.018  -2.477  1.00  0.00     0.071 C 
HETATM   17  N4  UNL     1       1.519   0.118  -3.424  1.00  0.00    -0.197 NA
ENDROOT
BRANCH   1  18
HETATM   18  N1  UNL     1       1.008   1.350   0.359  1.00  0.00    -0.367 N 
HETATM   19  H6  UNL     1       1.775   2.058   0.367  1.00  0.00     0.161 HD
BRANCH  18  20
HETATM   20  C4  UNL     1       1.445   0.704   1.545  1.00  0.00     0.085 C 
HETATM   21  C3  UNL     1       2.539   0.000   1.784  1.00  0.00     0.016 C 
BRANCH  21  22
HETATM   22  C2  UNL     1       2.826  -0.598   3.082  1.00  0.00    -0.009 C 
HETATM   23  C1  UNL     1       3.945  -1.281   3.216  1.00  0.00     0.011 C 
ENDBRANCH  21  22
ENDBRANCH  18  20
ENDBRANCH   1  18
TORSDOF 3
