REMARK  2 active torsions:
REMARK  status: ('A' for Active; 'I' for Inactive)
REMARK    1  A    between atoms: C3_3  and  C4_4 
REMARK       I    between atoms: C4_4  and  N1_6 
REMARK    2  A    between atoms: C10_12  and  C11_13 
ROOT
HETATM    1  C1  UNL     1       5.299  -0.691   2.488  1.00  0.00     0.112 C 
HETATM    2  C2  UNL     1       3.992  -0.197   2.012  1.00  0.00    -0.101 C 
HETATM    3  C3  UNL     1       2.923   0.197   1.618  1.00  0.00    -0.005 C 
ENDROOT
BRANCH   3   4
HETATM    4  C4  UNL     1       1.658   0.659   1.126  1.00  0.00     0.303 C 
HETATM    5  O1  UNL     1       0.880   0.990   2.055  1.00  0.00    -0.258 OA
HETATM    6  N1  UNL     1       1.300   0.742  -0.283  1.00  0.00    -0.304 N 
HETATM    7  C5  UNL     1       2.458   0.301  -1.127  1.00  0.00     0.098 C 
HETATM    8  C9  UNL     1       0.061   1.234  -0.821  1.00  0.00     0.153 C 
HETATM    9  C6  UNL     1       1.922  -0.180  -2.272  1.00  0.00     0.048 C 
HETATM   10  C7  UNL     1       0.833   0.766  -2.756  1.00  0.00     0.056 C 
HETATM   11  C8  UNL     1       0.519   1.927  -2.099  1.00  0.00     0.035 C 
HETATM   12  N3  UNL     1      -0.072   0.339  -3.856  1.00  0.00    -0.260 NA
HETATM   13  C19 UNL     1      -1.381   0.011  -3.528  1.00  0.00     0.140 C 
HETATM   14  C17 UNL     1      -1.878  -0.103  -2.092  1.00  0.00     0.071 C 
HETATM   15  C10 UNL     1      -1.101   0.370  -1.043  1.00  0.00     0.001 C 
HETATM   16  C18 UNL     1      -3.120  -0.737  -1.873  1.00  0.00     0.101 C 
HETATM   17  N2  UNL     1      -4.119  -1.271  -1.697  1.00  0.00    -0.191 NA
BRANCH  15  18
HETATM   18  C11 UNL     1      -1.765  -0.191   0.153  1.00  0.00    -0.025 A 
HETATM   19  C12 UNL     1      -1.345  -1.062   1.132  1.00  0.00     0.012 A 
HETATM   20  C13 UNL     1      -2.141  -1.397   2.192  1.00  0.00     0.002 A 
HETATM   21  C14 UNL     1      -3.408  -0.885   2.348  1.00  0.00     0.019 A 
HETATM   22  C15 UNL     1      -3.867  -0.011   1.392  1.00  0.00     0.011 A 
HETATM   23 BR1  UNL     1      -5.632   0.643   1.695  1.00  0.00    -0.051 Br
HETATM   24  C16 UNL     1      -3.057   0.337   0.304  1.00  0.00     0.031 A 
ENDBRANCH  15  18
ENDBRANCH   3   4
TORSDOF 2
