REMARK  4 active torsions:
REMARK  status: ('A' for Active; 'I' for Inactive)
REMARK    1  A    between atoms: C3_3  and  C4_4 
REMARK       I    between atoms: C4_4  and  N1_6 
REMARK    2  A    between atoms: N1_6  and  C5_7 
REMARK    3  A    between atoms: C9_12  and  N3_13 
REMARK    4  A    between atoms: N4_16  and  C11_17 
ROOT
HETATM    1  C1  UNL     1       7.350  -0.884  -0.961  1.00  0.00     0.112 C 
HETATM    2  C2  UNL     1       5.907  -0.630  -0.768  1.00  0.00    -0.101 C 
HETATM    3  C3  UNL     1       4.739  -0.416  -0.594  1.00  0.00    -0.006 C 
ENDROOT
BRANCH   3   4
HETATM    4  C4  UNL     1       3.335  -0.145  -0.399  1.00  0.00     0.300 C 
HETATM    5  O1  UNL     1       2.600  -1.045   0.119  1.00  0.00    -0.258 OA
HETATM    6  N1  UNL     1       2.646   1.087  -0.744  1.00  0.00    -0.316 N 
HETATM    7  H4  UNL     1       3.395   1.728  -1.163  1.00  0.00     0.170 HD
BRANCH   6   8
HETATM    8  C5  UNL     1       1.202   1.154  -0.465  1.00  0.00     0.034 C 
HETATM    9  C6  UNL     1       1.407   2.113   0.354  1.00  0.00     0.024 C 
HETATM   10  C7  UNL     1       0.106   2.578   0.947  1.00  0.00     0.178 C 
HETATM   11  N2  UNL     1      -0.994   1.878   0.295  1.00  0.00    -0.296 NA
HETATM   12  C8  UNL     1      -2.134   2.502   0.114  1.00  0.00     0.142 C 
HETATM   13  C9  UNL     1      -3.206   1.746  -0.554  1.00  0.00     0.071 C 
HETATM   14  C10 UNL     1      -2.984   0.477  -0.880  1.00  0.00     0.128 C 
HETATM   15  N4  UNL     1      -1.843  -0.324  -0.690  1.00  0.00    -0.330 N 
HETATM   16  C17 UNL     1      -0.517  -0.387  -1.255  1.00  0.00     0.099 C 
HETATM   17  C18 UNL     1       0.698   0.067  -1.293  1.00  0.00     0.047 C 
BRANCH  13  18
HETATM   18  N3  UNL     1      -4.506   2.254  -0.857  1.00  0.00    -0.320 N 
HETATM   19 BR1  UNL     1      -4.501   3.544  -2.276  1.00  0.00     0.047 Br
HETATM   20  H9  UNL     1      -5.461   2.065  -0.451  1.00  0.00     0.174 HD
ENDBRANCH  13  18
BRANCH  15  21
HETATM   21  C11 UNL     1      -2.146  -1.307   0.339  1.00  0.00     0.038 A 
HETATM   22  C12 UNL     1      -3.202  -1.222   1.214  1.00  0.00     0.030 A 
HETATM   23  C13 UNL     1      -3.459  -2.216   2.177  1.00  0.00     0.002 A 
HETATM   24  C14 UNL     1      -2.612  -3.300   2.232  1.00  0.00     0.000 A 
HETATM   25  C15 UNL     1      -1.548  -3.388   1.358  1.00  0.00     0.002 A 
HETATM   26  C16 UNL     1      -1.290  -2.417   0.406  1.00  0.00     0.030 A 
ENDBRANCH  15  21
ENDBRANCH   6   8
ENDBRANCH   3   4
TORSDOF 4
