REMARK  5 active torsions:
REMARK  status: ('A' for Active; 'I' for Inactive)
REMARK    1  A    between atoms: C3_3  and  C4_4 
REMARK       I    between atoms: C4_4  and  N1_6 
REMARK    2  A    between atoms: N1_6  and  C5_7 
REMARK    3  A    between atoms: C10_13  and  N3_14 
REMARK    4  A    between atoms: C11_15  and  N4_16 
REMARK    5  A    between atoms: N4_16  and  C12_17 
ROOT
HETATM    1  C1  UNL     1       6.171   3.643   0.191  1.00  0.00     0.112 C 
HETATM    2  C2  UNL     1       5.320   2.491   0.524  1.00  0.00    -0.101 C 
HETATM    3  C3  UNL     1       4.626   1.519   0.806  1.00  0.00    -0.006 C 
ENDROOT
BRANCH   3   4
HETATM    4  C4  UNL     1       3.818   0.378   1.134  1.00  0.00     0.300 C 
HETATM    5  O1  UNL     1       3.914  -0.232   2.225  1.00  0.00    -0.258 OA
HETATM    6  N1  UNL     1       2.890  -0.020   0.133  1.00  0.00    -0.316 N 
HETATM    7  H4  UNL     1       2.809   0.499  -0.792  1.00  0.00     0.170 HD
BRANCH   6   8
HETATM    8  C5  UNL     1       1.885  -0.991  -0.136  1.00  0.00     0.036 A 
HETATM    9  C6  UNL     1       2.311  -2.158  -0.747  1.00  0.00     0.032 A 
HETATM   10  C7  UNL     1       1.402  -3.175  -1.053  1.00  0.00     0.035 A 
HETATM   11  C8  UNL     1       0.087  -2.936  -0.711  1.00  0.00     0.069 A 
HETATM   12  N2  UNL     1      -0.783  -3.909  -1.005  1.00  0.00    -0.258 NA
HETATM   13  C18 UNL     1      -0.345  -1.767  -0.098  1.00  0.00     0.024 A 
HETATM   14  C9  UNL     1      -2.097  -3.778  -0.712  1.00  0.00     0.148 A 
HETATM   15  C10 UNL     1      -2.532  -2.613  -0.100  1.00  0.00     0.071 A 
HETATM   16  C11 UNL     1      -1.671  -1.586   0.219  1.00  0.00     0.073 A 
HETATM   17  C19 UNL     1       0.574  -0.775   0.195  1.00  0.00     0.045 A 
BRANCH  15  18
HETATM   18  N3  UNL     1      -3.922  -2.500   0.197  1.00  0.00    -0.396 N 
HETATM   19  H8  UNL     1      -3.924  -2.861   1.185  1.00  0.00     0.156 HD
HETATM   20  H9  UNL     1      -4.668  -2.147  -0.444  1.00  0.00     0.156 HD
ENDBRANCH  15  18
BRANCH  16  21
HETATM   21  N4  UNL     1      -2.114  -0.390   0.847  1.00  0.00    -0.354 N 
HETATM   22  H10 UNL     1      -2.120  -0.357   1.890  1.00  0.00     0.166 HD
BRANCH  21  23
HETATM   23  C12 UNL     1      -2.535   0.729   0.076  1.00  0.00     0.033 A 
HETATM   24  C13 UNL     1      -2.512   0.646  -1.301  1.00  0.00     0.029 A 
HETATM   25  C14 UNL     1      -2.935   1.771  -2.009  1.00  0.00     0.004 A 
HETATM   26  C15 UNL     1      -3.356   2.912  -1.351  1.00  0.00     0.019 A 
HETATM   27  C16 UNL     1      -3.377   2.987   0.037  1.00  0.00     0.013 A 
HETATM   28 BR1  UNL     1      -3.946   4.527   1.000  1.00  0.00    -0.051 Br
HETATM   29  C17 UNL     1      -2.957   1.870   0.724  1.00  0.00     0.048 A 
ENDBRANCH  21  23
ENDBRANCH  16  21
ENDBRANCH   6   8
ENDBRANCH   3   4
TORSDOF 5
