REMARK  7 active torsions:
REMARK  status: ('A' for Active; 'I' for Inactive)
REMARK    1  A    between atoms: O1_2  and  C2_3 
REMARK    2  A    between atoms: C6_10  and  C7_11 
REMARK    3  A    between atoms: C7_11  and  N3_12 
REMARK    4  A    between atoms: N3_12  and  C8_13 
REMARK    5  A    between atoms: C15_22  and  C16_23 
REMARK    6  A    between atoms: C16_23  and  N4_24 
REMARK    7  A    between atoms: C20_28  and  C21_29 
REMARK       I    between atoms: C21_29  and  N5_31 
ROOT
HETATM    1  C2  UNL     1       0.025  -3.404   0.313  1.00  0.00     0.000 A 
HETATM    2  B1  UNL     1       1.146  -4.731   0.577  1.00  0.00     0.222 B 
HETATM    3  C3  UNL     1       2.685  -3.898   1.214  1.00  0.00     0.010 A 
HETATM    4  C4  UNL     1       2.417  -2.438   1.214  1.00  0.00     0.040 A 
HETATM    5  N1  UNL     1       3.574  -1.948   1.685  1.00  0.00    -0.246 NA
HETATM    6  C5  UNL     1       3.857  -0.662   1.897  1.00  0.00     0.234 A 
HETATM    7  N2  UNL     1       2.838   0.180   1.587  1.00  0.00    -0.240 NA
HETATM    8  C6  UNL     1       1.676  -0.287   1.114  1.00  0.00     0.086 A 
HETATM    9  C14 UNL     1       1.397  -1.617   0.903  1.00  0.00     0.027 A 
HETATM   10  C15 UNL     1       0.171  -1.926   0.513  1.00  0.00     0.001 A 
ENDROOT
BRANCH   8  11
HETATM   11  C7  UNL     1       0.774   0.648   0.816  1.00  0.00     0.121 C 
BRANCH  11  12
HETATM   12  N3  UNL     1       1.316   1.971   1.102  1.00  0.00    -0.361 N 
HETATM   13  H8  UNL     1       1.159   2.786   1.784  1.00  0.00     0.165 HD
BRANCH  12  14
HETATM   14  C8  UNL     1       2.424   2.398   0.274  1.00  0.00     0.072 A 
HETATM   15  C9  UNL     1       2.446   2.292  -1.098  1.00  0.00     0.033 A 
HETATM   16  C10 UNL     1       3.545   2.692  -1.834  1.00  0.00     0.004 A 
HETATM   17  C11 UNL     1       4.664   3.214  -1.223  1.00  0.00     0.027 A 
HETATM   18  C12 UNL     1       4.701   3.346   0.154  1.00  0.00     0.074 A 
HETATM   19 CL1  UNL     1       6.117   4.002   0.938  1.00  0.00    -0.081 Cl
HETATM   20  C13 UNL     1       3.584   2.934   0.845  1.00  0.00     0.164 A 
HETATM   21  F1  UNL     1       3.663   3.085   2.189  1.00  0.00    -0.202 F 
ENDBRANCH  12  14
ENDBRANCH  11  12
ENDBRANCH   8  11
BRANCH  10  22
HETATM   22  C16 UNL     1      -1.005  -1.076   0.322  1.00  0.00     0.314 C 
BRANCH  22  23
HETATM   23  N4  UNL     1      -1.304  -0.528  -0.931  1.00  0.00     0.106 NA
HETATM   24  C17 UNL     1      -1.624  -1.413  -2.012  1.00  0.00     0.274 C 
HETATM   25  C18 UNL     1      -3.060  -1.825  -1.915  1.00  0.00     0.033 C 
HETATM   26  C19 UNL     1      -3.651  -0.845  -0.960  1.00  0.00     0.047 C 
HETATM   27  C20 UNL     1      -2.531   0.237  -0.880  1.00  0.00     0.314 C 
BRANCH  27  28
HETATM   28  C21 UNL     1      -2.780   1.083   0.276  1.00  0.00     0.252 C 
HETATM   29  O2  UNL     1      -2.994   0.721   1.468  1.00  0.00    -0.271 OA
HETATM   30  N5  UNL     1      -2.823   2.534   0.254  1.00  0.00    -0.359 N 
HETATM   31  C22 UNL     1      -2.643   3.289  -0.974  1.00  0.00     0.152 C 
HETATM   32  C23 UNL     1      -3.029   3.380   1.433  1.00  0.00     0.152 C 
ENDBRANCH  27  28
ENDBRANCH  22  23
ENDBRANCH  10  22
BRANCH   1  33
HETATM   33  O1  UNL     1      -1.191  -3.847  -0.167  1.00  0.00    -0.373 OA
HETATM   34  C1  UNL     1      -1.602  -5.170  -0.080  1.00  0.00     0.208 C 
ENDBRANCH   1  33
TORSDOF 7
