REMARK  6 active torsions:
REMARK  status: ('A' for Active; 'I' for Inactive)
REMARK    1  A    between atoms: O1_2  and  C2_3 
REMARK    2  A    between atoms: C4_5  and  N1_6 
REMARK    3  A    between atoms: C7_9  and  N2_10 
REMARK       I    between atoms: N2_10  and  C8_11 
REMARK    4  A    between atoms: C8_11  and  C9_13 
REMARK    5  A    between atoms: C10_14  and  C11_15 
REMARK    6  A    between atoms: C11_15  and  N3_16 
ROOT
HETATM    1  N1  UNL     1      -3.878  -0.660  -0.642  1.00  0.00    -0.372 N 
HETATM    2  C5  UNL     1      -2.690  -0.804   0.132  1.00  0.00     0.153 C 
HETATM    3  C6  UNL     1      -1.506  -0.156  -0.401  1.00  0.00     0.023 C 
HETATM    4  C7  UNL     1      -0.469  -0.933  -0.627  1.00  0.00     0.041 C 
HETATM    5  C16 UNL     1       0.251  -2.181  -0.672  1.00  0.00    -0.004 C 
HETATM    6  C17 UNL     1       1.691  -2.372  -0.930  1.00  0.00     0.053 C 
HETATM    7  C18 UNL     1      -0.245  -3.432  -0.531  1.00  0.00     0.094 C 
HETATM    8  N4  UNL     1      -0.907  -3.664  -1.672  1.00  0.00    -0.257 NA
HETATM    9  C19 UNL     1      -1.851  -2.583  -1.881  1.00  0.00     0.137 C 
HETATM   10  C20 UNL     1      -3.100  -2.696  -1.390  1.00  0.00     0.057 C 
HETATM   11  C21 UNL     1      -2.772  -3.969  -0.902  1.00  0.00     0.098 C 
HETATM   12  N5  UNL     1      -2.523  -5.015  -0.503  1.00  0.00    -0.192 NA
HETATM   13  C22 UNL     1      -3.461  -1.388  -1.882  1.00  0.00     0.174 C 
ENDROOT
BRANCH   1  14
HETATM   14  C4  UNL     1      -5.117  -0.033  -0.389  1.00  0.00     0.033 A 
HETATM   15  C3  UNL     1      -5.253   0.585   0.829  1.00  0.00     0.069 A 
HETATM   16  C2  UNL     1      -6.432   1.206   1.126  1.00  0.00     0.108 A 
HETATM   17  C25 UNL     1      -7.485   1.214   0.204  1.00  0.00     0.149 A 
HETATM   18  C24 UNL     1      -7.323   0.582  -1.021  1.00  0.00     0.047 A 
HETATM   19  F1  UNL     1      -8.688   1.826   0.458  1.00  0.00    -0.203 F 
HETATM   20  C23 UNL     1      -6.142  -0.029  -1.292  1.00  0.00     0.032 A 
BRANCH  16  21
HETATM   21  O1  UNL     1      -6.720   1.862   2.290  1.00  0.00    -0.353 OA
HETATM   22  C1  UNL     1      -5.753   1.932   3.304  1.00  0.00     0.210 C 
ENDBRANCH  16  21
ENDBRANCH   1  14
BRANCH   4  23
HETATM   23  N2  UNL     1       0.395   0.129  -1.117  1.00  0.00    -0.323 N 
HETATM   24  C8  UNL     1       1.536   0.508  -0.317  1.00  0.00     0.245 C 
HETATM   25  O2  UNL     1       1.755  -0.082   0.796  1.00  0.00    -0.268 OA
HETATM   26  H8  UNL     1       0.323   0.693  -2.009  1.00  0.00     0.169 HD
BRANCH  24  27
HETATM   27  C9  UNL     1       2.483   1.538  -0.685  1.00  0.00     0.072 C 
HETATM   28  C10 UNL     1       3.548   1.938  -0.013  1.00  0.00     0.008 C 
BRANCH  28  29
HETATM   29  C11 UNL     1       4.232   1.623   1.238  1.00  0.00     0.300 C 
BRANCH  29  30
HETATM   30  N3  UNL     1       5.578   1.175   1.135  1.00  0.00     0.096 N 
HETATM   31  C12 UNL     1       6.460   2.207   0.690  1.00  0.00     0.299 C 
HETATM   32  C13 UNL     1       7.912   1.762   0.695  1.00  0.00     0.198 C 
HETATM   33  O3  UNL     1       8.069   0.512   0.118  1.00  0.00    -0.388 OA
HETATM   34  C14 UNL     1       7.227  -0.461   0.629  1.00  0.00     0.198 C 
HETATM   35  C15 UNL     1       5.796   0.004   0.343  1.00  0.00     0.299 C 
ENDBRANCH  29  30
ENDBRANCH  28  29
ENDBRANCH  24  27
ENDBRANCH   4  23
TORSDOF 6
