REMARK  7 active torsions:
REMARK  status: ('A' for Active; 'I' for Inactive)
REMARK    1  A    between atoms: O1_2  and  C2_3 
REMARK    2  A    between atoms: C6_7  and  N1_8 
REMARK    3  A    between atoms: N1_8  and  C7_9 
REMARK    4  A    between atoms: C10_12  and  N2_13 
REMARK       I    between atoms: N2_13  and  C11_14 
REMARK    5  A    between atoms: C11_14  and  C12_16 
REMARK    6  A    between atoms: C13_17  and  C14_18 
REMARK    7  A    between atoms: C14_18  and  N3_19 
ROOT
HETATM    1  C2  UNL     1      -6.481   1.716  -0.961  1.00  0.00     0.070 A 
HETATM    2  C3  UNL     1      -5.344   2.358  -0.456  1.00  0.00     0.038 A 
HETATM    3  C4  UNL     1      -4.372   1.638   0.164  1.00  0.00     0.019 A 
HETATM    4  C5  UNL     1      -4.508   0.276   0.295  1.00  0.00     0.021 A 
HETATM    5  C6  UNL     1      -3.478  -0.369   0.943  1.00  0.00     0.067 A 
HETATM    6  C19 UNL     1      -3.614  -1.738   1.087  1.00  0.00     0.089 A 
HETATM    7  C20 UNL     1      -2.651  -2.585   1.734  1.00  0.00     0.103 C 
HETATM    8  N4  UNL     1      -1.869  -3.257   2.246  1.00  0.00    -0.191 NA
HETATM    9  C21 UNL     1      -4.741  -2.388   0.591  1.00  0.00     0.142 A 
HETATM   10  N5  UNL     1      -5.709  -1.708  -0.031  1.00  0.00    -0.259 NA
HETATM   11  C22 UNL     1      -5.611  -0.377  -0.189  1.00  0.00     0.071 A 
HETATM   12  C23 UNL     1      -6.600   0.347  -0.818  1.00  0.00     0.069 A 
ENDROOT
BRANCH   5  13
HETATM   13  N1  UNL     1      -2.285   0.147   1.465  1.00  0.00    -0.353 N 
HETATM   14  H6  UNL     1      -2.724   0.595   2.316  1.00  0.00     0.166 HD
BRANCH  13  15
HETATM   15  C7  UNL     1      -0.907   0.213   1.199  1.00  0.00     0.050 A 
HETATM   16  C8  UNL     1      -0.258  -0.373   2.298  1.00  0.00     0.033 A 
HETATM   17  C9  UNL     1       1.131  -0.474   2.346  1.00  0.00     0.032 A 
HETATM   18  C10 UNL     1       1.868   0.013   1.293  1.00  0.00     0.036 A 
HETATM   19  C17 UNL     1       1.229   0.588   0.216  1.00  0.00     0.051 A 
HETATM   20  C18 UNL     1      -0.130   0.686   0.168  1.00  0.00     0.039 A 
HETATM   21 BR1  UNL     1      -1.115   1.436  -1.247  1.00  0.00    -0.049 Br
BRANCH  18  22
HETATM   22  N2  UNL     1       3.283   0.021   1.121  1.00  0.00    -0.316 N 
HETATM   23  C11 UNL     1       3.806  -1.122   0.471  1.00  0.00     0.301 C 
HETATM   24  O2  UNL     1       3.110  -2.108   0.053  1.00  0.00    -0.258 OA
HETATM   25  H9  UNL     1       3.915   0.788   1.438  1.00  0.00     0.170 HD
BRANCH  23  26
HETATM   26  C12 UNL     1       5.233  -1.264   0.219  1.00  0.00    -0.004 C 
HETATM   27  C13 UNL     1       6.419  -1.395  -0.005  1.00  0.00    -0.066 C 
BRANCH  27  28
HETATM   28  C14 UNL     1       7.846  -1.568  -0.292  1.00  0.00     0.365 C 
BRANCH  28  29
HETATM   29  N3  UNL     1       8.207  -0.472  -1.174  1.00  0.00     0.090 N 
HETATM   30  C15 UNL     1       8.121   0.757  -0.399  1.00  0.00     0.310 C 
HETATM   31  C16 UNL     1       7.267  -0.454  -2.281  1.00  0.00     0.310 C 
ENDBRANCH  28  29
ENDBRANCH  27  28
ENDBRANCH  23  26
ENDBRANCH  18  22
ENDBRANCH  13  15
ENDBRANCH   5  13
BRANCH   1  32
HETATM   32  O1  UNL     1      -7.407   2.548  -1.573  1.00  0.00    -0.356 OA
HETATM   33  C1  UNL     1      -8.619   2.117  -2.147  1.00  0.00     0.210 C 
ENDBRANCH   1  32
TORSDOF 7
