REMARK  5 active torsions:
REMARK  status: ('A' for Active; 'I' for Inactive)
REMARK    1  A    between atoms: C2_2  and  C3_3 
REMARK    2  A    between atoms: C4_4  and  N1_5 
REMARK       I    between atoms: N1_5  and  C5_6 
REMARK    3  A    between atoms: C5_6  and  C6_8 
REMARK    4  A    between atoms: C14_19  and  N4_20 
REMARK    5  A    between atoms: N4_20  and  C15_21 
ROOT
HETATM    1  C6  UNL     1      -4.625   2.874  -1.663  1.00  0.00     0.012 C 
HETATM    2  C7  UNL     1      -5.180   3.936  -1.752  1.00  0.00     0.015 C 
HETATM    3 CL1  UNL     1      -5.999   5.469  -1.868  1.00  0.00    -0.022 Cl
ENDROOT
BRANCH   1   4
HETATM    4  C5  UNL     1      -3.978   1.581  -1.555  1.00  0.00     0.301 C 
HETATM    5  N1  UNL     1      -2.732   1.582  -0.869  1.00  0.00    -0.319 N 
HETATM    6  H5  UNL     1      -2.315   2.472  -0.468  1.00  0.00     0.169 HD
HETATM    7  O1  UNL     1      -4.485   0.529  -2.037  1.00  0.00    -0.258 OA
BRANCH   5   8
HETATM    8  C4  UNL     1      -1.804   0.531  -0.560  1.00  0.00     0.027 A 
HETATM    9  C3  UNL     1      -2.381  -0.556   0.278  1.00  0.00     0.110 A 
HETATM   10  C10 UNL     1      -1.228  -1.470   0.430  1.00  0.00     0.060 A 
HETATM   11  C9  UNL     1      -0.151  -0.935  -0.250  1.00  0.00     0.020 A 
HETATM   12  N2  UNL     1      -1.075  -2.635   1.069  1.00  0.00    -0.262 NA
HETATM   13  C8  UNL     1      -0.533   0.340  -0.876  1.00  0.00     0.042 A 
HETATM   14  C14 UNL     1       1.092  -1.559  -0.300  1.00  0.00     0.067 A 
HETATM   15  C12 UNL     1       1.186  -2.774   0.388  1.00  0.00     0.089 A 
HETATM   16  C11 UNL     1       0.112  -3.310   1.068  1.00  0.00     0.142 A 
HETATM   17  C13 UNL     1       2.459  -3.440   0.353  1.00  0.00     0.103 C 
HETATM   18  N3  UNL     1       3.496  -3.971   0.321  1.00  0.00    -0.191 NA
BRANCH   9  19
HETATM   19  C2  UNL     1      -2.958  -0.069   1.530  1.00  0.00    -0.020 C 
HETATM   20  C1  UNL     1      -4.068  -0.654   1.963  1.00  0.00     0.008 C 
ENDBRANCH   9  19
BRANCH  14  21
HETATM   21  N4  UNL     1       2.172  -0.982  -1.006  1.00  0.00    -0.354 N 
HETATM   22  H8  UNL     1       2.197  -1.299  -2.008  1.00  0.00     0.166 HD
BRANCH  21  23
HETATM   23  C15 UNL     1       3.112  -0.088  -0.450  1.00  0.00     0.033 A 
HETATM   24  C16 UNL     1       2.976   0.248   0.881  1.00  0.00     0.029 A 
HETATM   25  C17 UNL     1       3.889   1.121   1.435  1.00  0.00     0.004 A 
HETATM   26  C18 UNL     1       4.899   1.617   0.622  1.00  0.00     0.019 A 
HETATM   27  C19 UNL     1       5.029   1.275  -0.713  1.00  0.00     0.013 A 
HETATM   28 BR1  UNL     1       6.464   2.025  -1.731  1.00  0.00    -0.051 Br
HETATM   29  C20 UNL     1       4.108   0.391  -1.280  1.00  0.00     0.048 A 
ENDBRANCH  21  23
ENDBRANCH  14  21
ENDBRANCH   5   8
ENDBRANCH   1   4
TORSDOF 5
