REMARK  6 active torsions:
REMARK  status: ('A' for Active; 'I' for Inactive)
REMARK    1  A    between atoms: O1_2  and  C2_3 
REMARK    2  A    between atoms: C8_11  and  N3_12 
REMARK    3  A    between atoms: N3_12  and  C9_13 
REMARK    4  A    between atoms: C10_14  and  C11_15 
REMARK    5  A    between atoms: C16_21  and  N4_22 
REMARK       I    between atoms: N4_22  and  C17_23 
REMARK    6  A    between atoms: C17_23  and  C18_25 
ROOT
HETATM    1  C2  UNL     1       3.107  -0.694  -1.035  1.00  0.00     0.097 A 
HETATM    2  C3  UNL     1       2.338  -1.386  -1.946  1.00  0.00     0.071 A 
HETATM    3  C4  UNL     1       0.972  -1.544  -1.740  1.00  0.00     0.071 A 
HETATM    4  N1  UNL     1       0.259  -2.226  -2.654  1.00  0.00    -0.259 NA
HETATM    5  C5  UNL     1      -1.080  -2.411  -2.501  1.00  0.00     0.142 A 
HETATM    6  C6  UNL     1      -1.768  -1.902  -1.395  1.00  0.00     0.089 A 
HETATM    7  C7  UNL     1      -3.174  -2.108  -1.256  1.00  0.00     0.103 C 
HETATM    8  N2  UNL     1      -4.313  -2.285  -1.160  1.00  0.00    -0.191 NA
HETATM    9  C8  UNL     1      -0.983  -1.217  -0.499  1.00  0.00     0.067 A 
HETATM   10  C14 UNL     1       0.371  -1.004  -0.610  1.00  0.00     0.023 A 
HETATM   11  C15 UNL     1       1.121  -0.311   0.310  1.00  0.00     0.048 A 
HETATM   12  C16 UNL     1       2.483  -0.166   0.084  1.00  0.00     0.069 A 
ENDROOT
BRANCH   9  13
HETATM   13  N3  UNL     1      -1.639  -0.683   0.641  1.00  0.00    -0.364 N 
HETATM   14  H6  UNL     1      -1.340  -0.133   1.472  1.00  0.00     0.165 HD
BRANCH  13  15
HETATM   15  C9  UNL     1      -3.010  -0.755   0.998  1.00  0.00     0.088 C 
HETATM   16  C10 UNL     1      -3.883   0.255   0.898  1.00  0.00     0.020 C 
BRANCH  16  17
HETATM   17  C11 UNL     1      -5.282   0.106   1.286  1.00  0.00     0.038 C 
HETATM   18  C12 UNL     1      -6.134   1.114   1.182  1.00  0.00     0.090 C 
HETATM   19  C13 UNL     1      -5.656   2.420   0.660  1.00  0.00     0.082 C 
HETATM   20  F1  UNL     1      -7.421   0.927   1.554  1.00  0.00    -0.211 F 
ENDBRANCH  16  17
ENDBRANCH  13  15
ENDBRANCH   9  13
BRANCH  12  21
HETATM   21  N4  UNL     1       3.268   0.562   1.052  1.00  0.00    -0.321 N 
HETATM   22  C17 UNL     1       3.347   1.956   0.778  1.00  0.00     0.246 C 
HETATM   23  O2  UNL     1       2.821   2.568  -0.181  1.00  0.00    -0.268 OA
HETATM   24  H14 UNL     1       3.741   0.134   1.878  1.00  0.00     0.169 HD
BRANCH  22  25
HETATM   25  C18 UNL     1       4.117   2.780   1.697  1.00  0.00     0.086 C 
HETATM   26  C19 UNL     1       4.697   2.201   2.726  1.00  0.00     0.223 C 
HETATM   27 CL1  UNL     1       5.411   1.317   4.042  1.00  0.00    -0.230 Cl
ENDBRANCH  22  25
ENDBRANCH  12  21
BRANCH   1  28
HETATM   28  O1  UNL     1       4.474  -0.507  -1.192  1.00  0.00    -0.354 OA
HETATM   29  C1  UNL     1       5.078  -1.056  -2.338  1.00  0.00     0.210 C 
ENDBRANCH   1  28
TORSDOF 6
