REMARK  9 active torsions:
REMARK  status: ('A' for Active; 'I' for Inactive)
REMARK    1  A    between atoms: O1_2  and  C2_3 
REMARK    2  A    between atoms: C7_9  and  N2_10 
REMARK    3  A    between atoms: N2_10  and  C8_11 
REMARK    4  A    between atoms: C9_12  and  C10_13 
REMARK    5  A    between atoms: C12_15  and  C13_16 
REMARK    6  A    between atoms: C16_19  and  N3_20 
REMARK       I    between atoms: N3_20  and  C17_21 
REMARK    7  A    between atoms: C17_21  and  C18_23 
REMARK    8  A    between atoms: C19_24  and  C20_25 
REMARK    9  A    between atoms: C20_25  and  N4_26 
ROOT
HETATM    1  C2  UNL     1       0.567  -0.050  -2.554  1.00  0.00     0.097 A 
HETATM    2  C3  UNL     1      -0.408  -0.594  -3.363  1.00  0.00     0.071 A 
HETATM    3  C4  UNL     1      -1.729  -0.716  -2.965  1.00  0.00     0.071 A 
HETATM    4  N1  UNL     1      -2.640  -1.248  -3.781  1.00  0.00    -0.260 NA
HETATM    5  C5  UNL     1      -3.915  -1.377  -3.422  1.00  0.00     0.119 A 
HETATM    6  C6  UNL     1      -4.386  -0.978  -2.203  1.00  0.00     0.049 A 
HETATM    7  C7  UNL     1      -3.455  -0.430  -1.359  1.00  0.00     0.043 A 
HETATM    8  C14 UNL     1      -2.108  -0.284  -1.715  1.00  0.00     0.021 A 
HETATM    9  C15 UNL     1      -1.150   0.268  -0.878  1.00  0.00     0.048 A 
HETATM   10  C16 UNL     1       0.161   0.375  -1.306  1.00  0.00     0.070 A 
ENDROOT
BRANCH  10  11
HETATM   11  N3  UNL     1       1.111   0.948  -0.415  1.00  0.00    -0.314 N 
HETATM   12  C17 UNL     1       1.712  -0.040   0.407  1.00  0.00     0.301 C 
HETATM   13  O2  UNL     1       1.403  -1.262   0.313  1.00  0.00    -0.258 OA
HETATM   14  H12 UNL     1       1.390   1.961  -0.314  1.00  0.00     0.170 HD
BRANCH  12  15
HETATM   15  C18 UNL     1       2.712   0.277   1.399  1.00  0.00    -0.004 C 
HETATM   16  C19 UNL     1       3.562   0.540   2.213  1.00  0.00    -0.066 C 
BRANCH  16  17
HETATM   17  C20 UNL     1       4.619   0.856   3.202  1.00  0.00     0.365 C 
BRANCH  17  18
HETATM   18  N4  UNL     1       5.934   0.658   2.627  1.00  0.00     0.090 N 
HETATM   19  C21 UNL     1       6.080  -0.782   2.415  1.00  0.00     0.310 C 
HETATM   20  C22 UNL     1       6.004   1.279   1.314  1.00  0.00     0.310 C 
ENDBRANCH  17  18
ENDBRANCH  16  17
ENDBRANCH  12  15
ENDBRANCH  10  11
BRANCH   1  21
HETATM   21  O1  UNL     1       1.869   0.055  -2.985  1.00  0.00    -0.354 OA
HETATM   22  C1  UNL     1       2.221  -0.397  -4.268  1.00  0.00     0.210 C 
ENDBRANCH   1  21
BRANCH   7  23
HETATM   23  N2  UNL     1      -3.712   0.002  -0.070  1.00  0.00    -0.372 N 
HETATM   24  H7  UNL     1      -3.513   1.058  -0.069  1.00  0.00     0.161 HD
BRANCH  23  25
HETATM   25  C8  UNL     1      -3.965   0.427   1.198  1.00  0.00     0.093 A 
HETATM   26  C9  UNL     1      -4.702   0.529   2.080  1.00  0.00    -0.038 A 
HETATM   27  C13 UNL     1      -5.461  -0.101   1.117  1.00  0.00     0.062 A 
BRANCH  26  28
HETATM   28  C10 UNL     1      -5.385   0.612   2.866  1.00  0.00    -0.063 A 
HETATM   29  C11 UNL     1      -6.137   0.691   3.701  1.00  0.00     0.033 A 
HETATM   30  C12 UNL     1      -6.510   0.020   2.309  1.00  0.00     0.035 A 
ENDBRANCH  26  28
ENDBRANCH  23  25
ENDBRANCH   7  23
TORSDOF 9
