REMARK  0 active torsions:
REMARK  status: ('A' for Active; 'I' for Inactive)
ROOT
HETATM    1  N1  UNL     1       4.343   0.895   1.640  1.00  0.00    -0.190 NA
HETATM    2  C1  UNL     1       3.428   0.297   1.183  1.00  0.00     0.118 C 
HETATM    3  C2  UNL     1       2.287  -0.452   0.640  1.00  0.00     0.119 A 
HETATM    4  C3  UNL     1       1.671  -1.233   1.559  1.00  0.00     0.073 A 
HETATM    5  C4  UNL     1       0.505  -1.903   1.021  1.00  0.00     0.065 A 
HETATM    6  N2  UNL     1      -0.181  -2.757   1.761  1.00  0.00    -0.285 NA
HETATM    7  C5  UNL     1      -1.303  -3.448   0.979  1.00  0.00     0.185 C 
HETATM    8  C6  UNL     1      -1.707  -2.397  -0.003  1.00  0.00    -0.035 C 
HETATM    9  C7  UNL     1      -1.128  -1.951  -1.088  1.00  0.00     0.021 C 
HETATM   10  C8  UNL     1       0.149  -1.680  -0.368  1.00  0.00     0.008 A 
HETATM   11  C9  UNL     1       0.807  -0.919  -1.224  1.00  0.00     0.107 A 
HETATM   12  N3  UNL     1       1.989  -0.195  -0.765  1.00  0.00    -0.332 N 
HETATM   13  C10 UNL     1       2.862   0.725  -1.412  1.00  0.00     0.101 A 
HETATM   14  O1  UNL     1       2.049   1.575  -0.922  1.00  0.00     0.000 OA
HETATM   15  C11 UNL     1       2.954   2.208  -1.566  1.00  0.00     0.052 A 
HETATM   16  C12 UNL     1       1.977   2.961  -1.009  1.00  0.00     0.096 A 
HETATM   17  N4  UNL     1       0.792   3.252  -0.293  1.00  0.00    -0.435 NA
HETATM   18  C13 UNL     1      -0.362   2.699  -0.446  1.00  0.00     0.293 C 
HETATM   19  C14 UNL     1      -1.773   2.193  -0.459  1.00  0.00     0.059 C 
HETATM   20  C15 UNL     1      -1.989   1.076   0.464  1.00  0.00     0.015 C 
HETATM   21  C16 UNL     1      -2.354  -0.189   0.795  1.00  0.00     0.113 C 
HETATM   22  F1  UNL     1      -2.285  -0.656   2.101  1.00  0.00    -0.209 F 
HETATM   23  C17 UNL     1      -2.870  -1.464   0.122  1.00  0.00     0.174 C 
HETATM   24 CL1  UNL     1      -4.240  -2.157   0.976  1.00  0.00    -0.113 Cl
ENDROOT
TORSDOF 0
