REMARK  6 active torsions:
REMARK  status: ('A' for Active; 'I' for Inactive)
REMARK    1  A    between atoms: C2_2  and  S1_3 
REMARK    2  A    between atoms: S1_3  and  N1_4 
REMARK    3  A    between atoms: N1_4  and  C3_5 
REMARK    4  A    between atoms: C3_5  and  C4_6 
REMARK       I    between atoms: C4_6  and  N2_8 
REMARK    5  A    between atoms: C10_15  and  N4_16 
REMARK    6  A    between atoms: N4_16  and  C11_17 
ROOT
HETATM    1  C4  UNL     1       2.314   0.708  -0.620  1.00  0.00     0.266 C 
HETATM    2  O1  UNL     1       2.205   0.333  -1.814  1.00  0.00    -0.266 OA
HETATM    3  N2  UNL     1       1.356   0.838   0.453  1.00  0.00    -0.301 N 
HETATM    4  C5  UNL     1       1.690   1.288   1.776  1.00  0.00     0.098 A 
HETATM    5  C6  UNL     1       0.684   1.276   2.630  1.00  0.00     0.049 A 
HETATM    6  C7  UNL     1      -0.680   0.857   2.339  1.00  0.00     0.069 A 
HETATM    7  N3  UNL     1      -1.615   0.854   3.275  1.00  0.00    -0.260 NA
HETATM    8  C8  UNL     1      -2.868   0.422   2.943  1.00  0.00     0.119 A 
HETATM    9  C9  UNL     1      -3.204  -0.012   1.679  1.00  0.00     0.049 A 
HETATM   10  C10 UNL     1      -2.215  -0.000   0.721  1.00  0.00     0.044 A 
HETATM   11  C16 UNL     1      -0.947   0.433   1.037  1.00  0.00     0.034 A 
HETATM   12  C17 UNL     1       0.053   0.449  -0.072  1.00  0.00     0.237 A 
HETATM   13  C18 UNL     1      -0.365   1.458  -1.054  1.00  0.00     0.090 C 
HETATM   14  N5  UNL     1      -0.692   2.261  -1.849  1.00  0.00    -0.195 NA
ENDROOT
BRANCH   1  15
HETATM   15  C3  UNL     1       3.683   1.078  -0.280  1.00  0.00     0.372 C 
BRANCH  15  16
HETATM   16  N1  UNL     1       4.923   1.372  -0.115  1.00  0.00    -0.356 NA
BRANCH  16  17
HETATM   17  S1  UNL     1       6.007   1.191  -1.477  1.00  0.00    -0.067 SA
BRANCH  17  18
HETATM   18  C2  UNL     1       6.816  -0.425  -1.492  1.00  0.00     0.092 C 
HETATM   19  C1  UNL     1       7.753  -0.591  -0.316  1.00  0.00     0.017 C 
ENDBRANCH  17  18
ENDBRANCH  16  17
ENDBRANCH  15  16
ENDBRANCH   1  15
BRANCH  10  20
HETATM   20  N4  UNL     1      -2.500  -0.450  -0.598  1.00  0.00    -0.370 N 
HETATM   21  H11 UNL     1      -1.825  -0.492  -1.376  1.00  0.00     0.165 HD
BRANCH  20  22
HETATM   22  C11 UNL     1      -3.751  -0.915  -1.052  1.00  0.00    -0.037 C 
HETATM   23  C12 UNL     1      -4.595  -0.054  -1.711  1.00  0.00     0.012 C 
HETATM   24  C13 UNL     1      -5.959  -0.033  -1.848  1.00  0.00     0.001 C 
HETATM   25  C14 UNL     1      -6.734  -1.002  -1.264  1.00  0.00     0.002 C 
HETATM   26  C15 UNL     1      -6.389  -2.113  -0.482  1.00  0.00    -0.053 C 
HETATM   27 BR1  UNL     1      -7.674  -2.753   0.759  1.00  0.00    -0.069 Br
HETATM   28  B1  UNL     1      -4.680  -2.584  -0.967  1.00  0.00     0.256 B 
ENDBRANCH  20  22
ENDBRANCH  10  20
TORSDOF 6
