REMARK  8 active torsions:
REMARK  status: ('A' for Active; 'I' for Inactive)
REMARK    1  A    between atoms: N1_2  and  C3_4 
REMARK    2  A    between atoms: C3_4  and  C4_5 
REMARK    3  A    between atoms: C5_6  and  C6_7 
REMARK       I    between atoms: C6_7  and  N2_9 
REMARK    4  A    between atoms: N2_9  and  C7_10 
REMARK    5  A    between atoms: C12_16  and  N4_17 
REMARK    6  A    between atoms: C13_18  and  O2_19 
REMARK    7  A    between atoms: O2_19  and  C14_20 
REMARK    8  A    between atoms: C14_20  and  C15_21 
ROOT
HETATM    1  C7  UNL     1      -0.833  -1.920  -0.919  1.00  0.00     0.036 A 
HETATM    2  C8  UNL     1      -1.065  -3.206  -1.418  1.00  0.00     0.032 A 
HETATM    3  C9  UNL     1      -0.034  -4.133  -1.545  1.00  0.00     0.035 A 
HETATM    4  C10 UNL     1       1.265  -3.779  -1.169  1.00  0.00     0.069 A 
HETATM    5  N3  UNL     1       2.303  -4.616  -1.264  1.00  0.00    -0.258 NA
HETATM    6  C11 UNL     1       3.558  -4.238  -0.888  1.00  0.00     0.149 A 
HETATM    7  C12 UNL     1       3.756  -2.957  -0.397  1.00  0.00     0.078 A 
HETATM    8  C13 UNL     1       2.685  -2.065  -0.290  1.00  0.00     0.109 A 
HETATM    9  C21 UNL     1       1.436  -2.500  -0.685  1.00  0.00     0.030 A 
HETATM   10  C22 UNL     1       0.429  -1.570  -0.552  1.00  0.00     0.046 A 
ENDROOT
BRANCH   1  11
HETATM   11  N2  UNL     1      -2.045  -1.175  -0.893  1.00  0.00    -0.316 N 
HETATM   12  C6  UNL     1      -2.961  -1.117   0.175  1.00  0.00     0.301 C 
HETATM   13  O1  UNL     1      -2.715  -1.777   1.227  1.00  0.00    -0.258 OA
HETATM   14  H9  UNL     1      -2.244  -0.635  -1.753  1.00  0.00     0.170 HD
BRANCH  12  15
HETATM   15  C5  UNL     1      -4.162  -0.321   0.079  1.00  0.00    -0.004 C 
HETATM   16  C4  UNL     1      -5.178   0.327  -0.006  1.00  0.00    -0.066 C 
BRANCH  16  17
HETATM   17  C3  UNL     1      -6.427   1.095  -0.111  1.00  0.00     0.365 C 
BRANCH  17  18
HETATM   18  N1  UNL     1      -6.338   2.241   0.774  1.00  0.00     0.090 N 
HETATM   19  C1  UNL     1      -5.335   3.135   0.236  1.00  0.00     0.310 C 
HETATM   20  C2  UNL     1      -5.842   1.750   2.046  1.00  0.00     0.310 C 
ENDBRANCH  17  18
ENDBRANCH  16  17
ENDBRANCH  12  15
ENDBRANCH   1  11
BRANCH   8  21
HETATM   21  O2  UNL     1       2.980  -0.785   0.219  1.00  0.00    -0.343 OA
BRANCH  21  22
HETATM   22  C14 UNL     1       3.346   0.230  -0.698  1.00  0.00     0.214 C 
BRANCH  22  23
HETATM   23  C15 UNL     1       3.638   1.532  -0.048  1.00  0.00    -0.033 A 
HETATM   24  C16 UNL     1       4.962   1.758   0.347  1.00  0.00     0.009 A 
HETATM   25  C17 UNL     1       5.342   2.926   0.954  1.00  0.00     0.002 A 
HETATM   26  C18 UNL     1       4.406   3.917   1.189  1.00  0.00     0.019 A 
HETATM   27  C19 UNL     1       3.120   3.668   0.792  1.00  0.00     0.011 A 
HETATM   28 BR1  UNL     1       1.850   5.055   1.130  1.00  0.00    -0.051 Br
HETATM   29  C20 UNL     1       2.672   2.518   0.179  1.00  0.00     0.028 A 
ENDBRANCH  22  23
ENDBRANCH  21  22
ENDBRANCH   8  21
BRANCH   7  30
HETATM   30  N4  UNL     1       5.087  -2.570  -0.002  1.00  0.00    -0.396 N 
HETATM   31  H13 UNL     1       4.980  -2.707   1.028  1.00  0.00     0.156 HD
HETATM   32  H14 UNL     1       5.696  -2.294  -0.808  1.00  0.00     0.156 HD
ENDBRANCH   7  30
TORSDOF 8
