REMARK  5 active torsions:
REMARK  status: ('A' for Active; 'I' for Inactive)
REMARK    1  A    between atoms: C7_9  and  C8_10 
REMARK    2  A    between atoms: C9_11  and  C10_12 
REMARK    3  A    between atoms: C10_12  and  N3_13 
REMARK    4  A    between atoms: C17_21  and  N4_22 
REMARK    5  A    between atoms: N4_22  and  C18_23 
ROOT
HETATM    1  N1  UNL     1      -5.487  -1.626  -2.944  1.00  0.00    -0.191 NA
HETATM    2  C1  UNL     1      -4.731  -1.954  -2.133  1.00  0.00     0.103 C 
HETATM    3  C2  UNL     1      -3.783  -2.371  -1.136  1.00  0.00     0.089 A 
HETATM    4  C3  UNL     1      -3.973  -3.565  -0.448  1.00  0.00     0.142 A 
HETATM    5  N2  UNL     1      -3.093  -3.964   0.486  1.00  0.00    -0.259 NA
HETATM    6  C4  UNL     1      -2.005  -3.233   0.789  1.00  0.00     0.069 A 
HETATM    7  C5  UNL     1      -1.108  -3.651   1.748  1.00  0.00     0.033 A 
HETATM    8  C6  UNL     1       0.021  -2.936   2.093  1.00  0.00     0.014 A 
HETATM    9  C7  UNL     1       0.279  -1.724   1.443  1.00  0.00    -0.035 A 
HETATM   10  C15 UNL     1      -0.631  -1.321   0.484  1.00  0.00     0.027 A 
HETATM   11  C16 UNL     1      -1.758  -2.037   0.142  1.00  0.00     0.022 A 
HETATM   12  C17 UNL     1      -2.661  -1.628  -0.816  1.00  0.00     0.067 A 
ENDROOT
BRANCH  12  13
HETATM   13  N4  UNL     1      -2.421  -0.415  -1.479  1.00  0.00    -0.354 N 
HETATM   14  H17 UNL     1      -1.861  -0.440  -2.361  1.00  0.00     0.166 HD
BRANCH  13  15
HETATM   15  C18 UNL     1      -2.887   0.864  -1.038  1.00  0.00     0.034 A 
HETATM   16  C19 UNL     1      -2.624   2.043  -1.725  1.00  0.00     0.032 A 
HETATM   17  C20 UNL     1      -3.103   3.246  -1.246  1.00  0.00     0.046 A 
HETATM   18  C21 UNL     1      -3.847   3.290  -0.080  1.00  0.00     0.138 A 
HETATM   19  F1  UNL     1      -4.314   4.491   0.380  1.00  0.00    -0.204 F 
HETATM   20  C22 UNL     1      -4.134   2.137   0.639  1.00  0.00     0.074 A 
HETATM   21 CL1  UNL     1      -5.078   2.208   2.113  1.00  0.00    -0.081 Cl
HETATM   22  C23 UNL     1      -3.637   0.934   0.130  1.00  0.00     0.056 A 
ENDBRANCH  13  15
ENDBRANCH  12  13
BRANCH   9  23
HETATM   23  C8  UNL     1       1.448  -0.916   1.753  1.00  0.00     0.009 C 
HETATM   24  C9  UNL     1       1.775   0.252   1.187  1.00  0.00     0.004 C 
BRANCH  24  25
HETATM   25  C10 UNL     1       3.018   0.979   1.607  1.00  0.00     0.300 C 
BRANCH  25  26
HETATM   26  N3  UNL     1       3.948   1.182   0.541  1.00  0.00     0.096 N 
HETATM   27  C11 UNL     1       4.556  -0.039   0.062  1.00  0.00     0.299 C 
HETATM   28  C12 UNL     1       5.211   0.210  -1.281  1.00  0.00     0.198 C 
HETATM   29  O1  UNL     1       5.616   1.512  -1.445  1.00  0.00    -0.388 OA
HETATM   30  C13 UNL     1       4.593   2.440  -1.399  1.00  0.00     0.198 C 
HETATM   31  C14 UNL     1       3.447   1.999  -0.518  1.00  0.00     0.299 C 
ENDBRANCH  25  26
ENDBRANCH  24  25
ENDBRANCH   9  23
TORSDOF 5
