REMARK  2 active torsions:
REMARK  status: ('A' for Active; 'I' for Inactive)
REMARK    1  A    between atoms: O1_2  and  C2_3 
REMARK    2  A    between atoms: N1_9  and  C7_10 
ROOT
HETATM    1  C7  UNL     1       0.115  -0.683   0.613  1.00  0.00     0.141 A 
HETATM    2  N2  UNL     1       0.172  -1.852   1.289  1.00  0.00    -0.224 NA
HETATM    3  C8  UNL     1       1.361  -2.507   1.445  1.00  0.00     0.236 A 
HETATM    4  N3  UNL     1       2.547  -2.050   0.948  1.00  0.00    -0.241 NA
HETATM    5  C9  UNL     1       2.513  -0.886   0.271  1.00  0.00     0.071 A 
HETATM    6  C10 UNL     1       1.313  -0.221   0.111  1.00  0.00     0.038 A 
HETATM    7  C11 UNL     1       1.075   1.037  -0.593  1.00  0.00     0.014 C 
HETATM    8  C12 UNL     1       2.005   1.988  -0.793  1.00  0.00    -0.022 C 
HETATM    9  C13 UNL     1       3.413   2.063  -0.411  1.00  0.00     0.054 C 
HETATM   10  C14 UNL     1       4.157   0.784  -0.490  1.00  0.00    -0.021 C 
HETATM   11  C15 UNL     1       3.842  -0.480  -0.220  1.00  0.00     0.029 C 
ENDROOT
BRANCH   1  12
HETATM   12  N1  UNL     1      -1.149  -0.055   0.501  1.00  0.00    -0.334 N 
HETATM   13  C2  UNL     1      -2.146  -0.821  -0.236  1.00  0.00     0.247 C 
HETATM   14  C3  UNL     1      -2.584   0.014  -1.376  1.00  0.00     0.023 C 
HETATM   15  C4  UNL     1      -2.817   1.286  -1.035  1.00  0.00    -0.009 C 
HETATM   16  C5  UNL     1      -2.678   1.880   0.310  1.00  0.00     0.098 C 
HETATM   17 BR1  UNL     1      -2.373   3.776   0.179  1.00  0.00    -0.085 Br
HETATM   18  C6  UNL     1      -1.544   1.235   1.032  1.00  0.00     0.147 C 
BRANCH  13  19
HETATM   19  O1  UNL     1      -1.759  -2.090  -0.565  1.00  0.00    -0.368 OA
HETATM   20  C1  UNL     1      -2.546  -3.079   0.019  1.00  0.00     0.204 C 
ENDBRANCH  13  19
ENDBRANCH   1  12
TORSDOF 2
