REMARK  4 active torsions:
REMARK  status: ('A' for Active; 'I' for Inactive)
REMARK    1  A    between atoms: O1_2  and  C2_3 
REMARK    2  A    between atoms: C7_8  and  O2_9 
REMARK    3  A    between atoms: C9_11  and  N1_12 
REMARK    4  A    between atoms: N1_12  and  C10_13 
ROOT
HETATM    1  C2  UNL     1      -3.263   0.208   0.373  1.00  0.00     0.103 A 
HETATM    2  C3  UNL     1      -2.909   1.412  -0.222  1.00  0.00     0.074 A 
HETATM    3  C4  UNL     1      -1.629   1.623  -0.689  1.00  0.00     0.103 A 
HETATM    4  C5  UNL     1      -0.715   0.589  -0.541  1.00  0.00     0.044 A 
HETATM    5  C6  UNL     1      -1.040  -0.607   0.042  1.00  0.00     0.057 A 
HETATM    6  C7  UNL     1      -2.339  -0.821   0.516  1.00  0.00     0.102 A 
HETATM    7  C9  UNL     1       0.544   0.751  -0.982  1.00  0.00     0.141 A 
HETATM    8  N2  UNL     1       0.894   1.990  -1.590  1.00  0.00    -0.223 N 
HETATM    9  O3  UNL     1      -0.046   3.012  -1.726  1.00  0.00    -0.130 OA
HETATM   10  N3  UNL     1      -1.323   2.744  -1.236  1.00  0.00    -0.106 NA
HETATM   11  H14 UNL     1       1.846   2.230  -1.972  1.00  0.00     0.198 HD
ENDROOT
BRANCH   7  12
HETATM   12  N1  UNL     1       1.531  -0.240  -0.873  1.00  0.00    -0.340 N 
HETATM   13  H9  UNL     1       1.147  -1.098  -1.297  1.00  0.00     0.167 HD
BRANCH  12  14
HETATM   14  C10 UNL     1       2.822  -0.127  -0.298  1.00  0.00     0.035 A 
HETATM   15  C11 UNL     1       3.239   1.049   0.237  1.00  0.00     0.029 A 
HETATM   16  C12 UNL     1       4.525   1.056   0.777  1.00  0.00     0.004 A 
HETATM   17  C13 UNL     1       5.323  -0.075   0.765  1.00  0.00     0.019 A 
HETATM   18  C14 UNL     1       4.857  -1.268   0.204  1.00  0.00     0.013 A 
HETATM   19 BR1  UNL     1       5.917  -2.855   0.161  1.00  0.00    -0.051 Br
HETATM   20  C15 UNL     1       3.604  -1.261  -0.319  1.00  0.00     0.048 A 
ENDBRANCH  12  14
ENDBRANCH   7  12
BRANCH   6  21
HETATM   21  O2  UNL     1      -2.672  -2.033   1.109  1.00  0.00    -0.353 OA
HETATM   22  C8  UNL     1      -1.634  -2.998   1.191  1.00  0.00     0.210 C 
ENDBRANCH   6  21
BRANCH   1  23
HETATM   23  O1  UNL     1      -4.524  -0.042   0.851  1.00  0.00    -0.353 OA
HETATM   24  C1  UNL     1      -5.605   0.854   0.809  1.00  0.00     0.210 C 
ENDBRANCH   1  23
TORSDOF 4
