REMARK  1 active torsions:
REMARK  status: ('A' for Active; 'I' for Inactive)
REMARK    1  A    between atoms: C12_16  and  N4_17 
ROOT
HETATM    1  N1  UNL     1      -4.068   0.764   3.770  1.00  0.00    -0.192 NA
HETATM    2  C1  UNL     1      -3.885   0.469   2.667  1.00  0.00     0.097 C 
HETATM    3  C2  UNL     1      -3.653   0.084   1.305  1.00  0.00     0.046 C 
HETATM    4  C3  UNL     1      -3.416   1.038   0.363  1.00  0.00     0.007 C 
HETATM    5  C4  UNL     1      -3.679   1.067  -1.099  1.00  0.00     0.083 C 
HETATM    6  C5  UNL     1      -4.445  -0.299  -1.321  1.00  0.00     0.054 C 
HETATM    7  C6  UNL     1      -3.386  -1.196  -0.696  1.00  0.00    -0.035 C 
HETATM    8  C7  UNL     1      -2.340  -1.719  -1.287  1.00  0.00     0.107 C 
HETATM    9  N2  UNL     1      -1.762  -0.521  -1.890  1.00  0.00    -0.277 N 
HETATM   10  C8  UNL     1      -2.336   0.810  -1.773  1.00  0.00     0.113 C 
HETATM   11  N3  UNL     1      -1.528   1.634  -2.347  1.00  0.00    -0.286 NA
HETATM   12  C9  UNL     1      -0.496  -0.641  -2.612  1.00  0.00     0.252 C 
HETATM   13  O1  UNL     1      -1.165  -0.699  -3.666  1.00  0.00    -0.268 OA
HETATM   14  C10 UNL     1       0.987  -0.703  -2.550  1.00  0.00     0.073 C 
HETATM   15  C11 UNL     1       1.923  -0.656  -1.631  1.00  0.00     0.007 C 
HETATM   16  C12 UNL     1       2.348  -0.536  -0.228  1.00  0.00     0.140 C 
HETATM   17  C17 UNL     1       1.421   0.293   0.635  1.00  0.00     0.219 C 
HETATM   18  F1  UNL     1       1.138   1.530   0.145  1.00  0.00    -0.243 F 
HETATM   19  C18 UNL     1       0.293  -0.433   1.212  1.00  0.00     0.010 C 
HETATM   20  C19 UNL     1      -0.684  -1.072   1.778  1.00  0.00    -0.009 C 
HETATM   21  C20 UNL     1      -1.823  -1.803   2.342  1.00  0.00     0.142 C 
HETATM   22  N5  UNL     1      -2.809  -2.232   1.440  1.00  0.00    -0.406 N 
HETATM   23  C21 UNL     1      -3.652  -1.330   0.790  1.00  0.00     0.151 C 
HETATM   24  H6  UNL     1      -1.806   2.631  -2.370  1.00  0.00     0.188 HD
HETATM   25  H23 UNL     1      -3.131  -3.183   1.624  1.00  0.00     0.154 HD
ENDROOT
BRANCH  16  26
HETATM   26  N4  UNL     1       3.694  -0.078  -0.136  1.00  0.00    -0.398 N 
HETATM   27  C13 UNL     1       4.296  -0.034   1.123  1.00  0.00     0.144 C 
HETATM   28  C14 UNL     1       4.767   1.318   1.581  1.00  0.00     0.187 C 
HETATM   29  O2  UNL     1       5.394   2.025   0.549  1.00  0.00    -0.388 OA
HETATM   30  C15 UNL     1       4.406   2.281  -0.399  1.00  0.00     0.187 C 
HETATM   31  C16 UNL     1       4.015   0.993  -1.035  1.00  0.00     0.144 C 
ENDBRANCH  16  26
TORSDOF 1
