REMARK  4 active torsions:
REMARK  status: ('A' for Active; 'I' for Inactive)
REMARK    1  A    between atoms: O1_2  and  C2_3 
REMARK    2  A    between atoms: C2_3  and  C3_4 
REMARK    3  A    between atoms: C8_9  and  N1_10 
REMARK    4  A    between atoms: N1_10  and  C9_11 
ROOT
HETATM    1  C3  UNL     1      -3.017   0.339   0.527  1.00  0.00    -0.037 C 
HETATM    2  C4  UNL     1      -3.274   1.810   0.565  1.00  0.00     0.048 C 
HETATM    3  C5  UNL     1      -1.797  -0.124   0.333  1.00  0.00     0.017 C 
HETATM    4  C6  UNL     1      -0.782   0.949   0.185  1.00  0.00     0.088 C 
HETATM    5  C7  UNL     1       0.590   0.492  -0.028  1.00  0.00     0.030 C 
HETATM    6  C8  UNL     1       1.299  -0.622  -0.226  1.00  0.00     0.125 C 
HETATM    7  N2  UNL     1       0.725  -1.894  -0.255  1.00  0.00    -0.227 NA
HETATM    8  C15 UNL     1      -0.440  -2.354  -0.046  1.00  0.00     0.209 C 
HETATM    9  N3  UNL     1      -1.501  -1.484   0.310  1.00  0.00    -0.354 N 
HETATM   10  H18 UNL     1      -2.290  -2.091   0.686  1.00  0.00     0.166 HD
ENDROOT
BRANCH   6  11
HETATM   11  N1  UNL     1       2.652  -0.378  -0.371  1.00  0.00    -0.341 N 
HETATM   12  H12 UNL     1       2.766  -0.945  -1.261  1.00  0.00     0.167 HD
BRANCH  11  13
HETATM   13  C9  UNL     1       3.990  -0.021  -0.353  1.00  0.00     0.034 A 
HETATM   14  C10 UNL     1       4.527   0.908  -1.259  1.00  0.00     0.029 A 
HETATM   15  C11 UNL     1       5.890   1.283  -1.286  1.00  0.00     0.004 A 
HETATM   16  C12 UNL     1       6.549   0.609  -0.308  1.00  0.00     0.019 A 
HETATM   17  C13 UNL     1       6.200  -0.305   0.640  1.00  0.00     0.013 A 
HETATM   18 BR1  UNL     1       7.389  -1.081   1.893  1.00  0.00    -0.051 Br
HETATM   19  C14 UNL     1       4.867  -0.585   0.557  1.00  0.00     0.048 A 
ENDBRANCH  11  13
ENDBRANCH   6  11
BRANCH   1  20
HETATM   20  C2  UNL     1      -4.299  -0.433   0.716  1.00  0.00     0.203 C 
BRANCH  20  21
HETATM   21  O1  UNL     1      -5.178  -0.055  -0.308  1.00  0.00    -0.392 OA
HETATM   22  C1  UNL     1      -6.383  -0.700  -0.301  1.00  0.00     0.201 C 
ENDBRANCH  20  21
ENDBRANCH   1  20
TORSDOF 4
