REMARK  3 active torsions:
REMARK  status: ('A' for Active; 'I' for Inactive)
REMARK    1  A    between atoms: C3_3  and  N1_4 
REMARK    2  A    between atoms: N1_4  and  C4_5 
REMARK    3  A    between atoms: C22_29  and  O2_30 
ROOT
HETATM    1  C1  UNL     1       6.765   0.648  -0.008  1.00  0.00     0.014 C 
HETATM    2  C2  UNL     1       5.872   0.944  -0.736  1.00  0.00    -0.098 C 
HETATM    3  C3  UNL     1       4.796   1.316  -1.620  1.00  0.00     0.215 C 
ENDROOT
BRANCH   3   4
HETATM    4  N1  UNL     1       3.617   1.793  -0.860  1.00  0.00    -0.364 N 
HETATM    5  H4  UNL     1       3.101   2.735  -0.707  1.00  0.00     0.162 HD
BRANCH   4   6
HETATM    6  C4  UNL     1       3.033   0.693  -0.119  1.00  0.00     0.132 C 
HETATM    7  N2  UNL     1       3.623  -0.426   0.263  1.00  0.00    -0.242 NA
HETATM    8  C5  UNL     1       2.981  -1.723   0.433  1.00  0.00     0.140 C 
HETATM    9  C6  UNL     1       1.640  -1.903   0.585  1.00  0.00     0.073 C 
HETATM   10  C7  UNL     1       1.222  -3.243   0.244  1.00  0.00     0.099 C 
HETATM   11  C8  UNL     1       0.557  -1.071   1.009  1.00  0.00     0.123 C 
HETATM   12  N3  UNL     1       0.871  -4.330  -0.036  1.00  0.00    -0.192 NA
HETATM   13  N4  UNL     1      -0.285  -1.730   2.037  1.00  0.00    -0.397 N 
HETATM   14  C17 UNL     1      -0.518  -0.711  -0.036  1.00  0.00     0.186 C 
HETATM   15  C22 UNL     1       0.977   0.344   1.471  1.00  0.00     0.190 C 
HETATM   16  C9  UNL     1      -1.623  -1.688   2.565  1.00  0.00     0.135 C 
HETATM   17  H6  UNL     1       0.193  -2.476   2.592  1.00  0.00     0.155 HD
HETATM   18  C10 UNL     1      -2.871  -1.330   2.183  1.00  0.00     0.021 C 
HETATM   19  C11 UNL     1      -3.940  -0.818   1.296  1.00  0.00    -0.019 C 
HETATM   20  C12 UNL     1      -3.997  -0.348   0.032  1.00  0.00    -0.052 C 
HETATM   21  C13 UNL     1      -5.431   0.033  -0.287  1.00  0.00     0.046 C 
HETATM   22  C14 UNL     1      -3.105  -0.099  -1.142  1.00  0.00     0.234 C 
HETATM   23  F1  UNL     1      -2.752  -1.266  -1.796  1.00  0.00    -0.242 F 
HETATM   24  C15 UNL     1      -2.158   1.014  -1.108  1.00  0.00     0.284 C 
HETATM   25  C16 UNL     1      -1.855   1.251   0.358  1.00  0.00     0.207 C 
HETATM   26  N5  UNL     1      -0.870   0.915  -1.686  1.00  0.00     0.104 N 
HETATM   27  O1  UNL     1      -1.180   0.211   0.708  1.00  0.00    -0.379 OA
HETATM   28  C18 UNL     1      -0.163  -0.346  -1.396  1.00  0.00     0.308 C 
HETATM   29  C19 UNL     1      -0.012   2.038  -1.422  1.00  0.00     0.301 C 
HETATM   30  C20 UNL     1       1.356   1.562  -0.955  1.00  0.00     0.016 C 
HETATM   31  C21 UNL     1       1.588   0.903   0.213  1.00  0.00     0.017 C 
BRANCH  15  32
HETATM   32  O2  UNL     1       1.922   0.145   2.453  1.00  0.00    -0.388 OA
HETATM   33  H24 UNL     1       2.294   0.952   2.843  1.00  0.00     0.210 HD
ENDBRANCH  15  32
ENDBRANCH   4   6
ENDBRANCH   3   4
TORSDOF 3
