REMARK  4 active torsions:
REMARK  status: ('A' for Active; 'I' for Inactive)
REMARK    1  A    between atoms: C2_2  and  N1_3 
REMARK    2  A    between atoms: N2_5  and  C4_6 
REMARK    3  A    between atoms: C4_6  and  C5_7 
REMARK    4  A    between atoms: C5_7  and  O1_8 
ROOT
HETATM    1  N1  UNL     1       0.689   2.066   0.296  1.00  0.00    -0.341 N 
HETATM    2  C3  UNL     1       1.052   0.705   0.734  1.00  0.00     0.246 C 
HETATM    3  N2  UNL     1       1.585  -0.267  -0.013  1.00  0.00    -0.392 N 
HETATM    4  C7  UNL     1       0.942  -1.373  -0.510  1.00  0.00     0.145 C 
HETATM    5  C8  UNL     1       0.434  -2.398   0.412  1.00  0.00    -0.010 C 
HETATM    6  C9  UNL     1      -0.833  -2.942   0.399  1.00  0.00     0.000 C 
HETATM    7  C10 UNL     1      -2.099  -2.818  -0.397  1.00  0.00     0.297 C 
HETATM    8  N3  UNL     1      -3.177  -2.689   0.508  1.00  0.00     0.090 N 
HETATM    9  C11 UNL     1      -4.384  -2.034  -0.120  1.00  0.00     0.297 C 
HETATM   10  C12 UNL     1      -4.528  -0.999   0.942  1.00  0.00     0.004 C 
HETATM   11  C13 UNL     1      -4.033  -0.040   0.225  1.00  0.00     0.017 C 
HETATM   12  C14 UNL     1      -3.433   1.005  -0.725  1.00  0.00     0.116 C 
HETATM   13  N4  UNL     1      -2.917   2.020  -0.853  1.00  0.00    -0.272 NA
HETATM   14  C15 UNL     1      -2.404   3.154  -0.302  1.00  0.00     0.138 C 
HETATM   15  C16 UNL     1      -1.359   3.573   0.390  1.00  0.00     0.079 C 
HETATM   16  C17 UNL     1      -1.289   4.612   0.631  1.00  0.00     0.021 C 
HETATM   17  N5  UNL     1      -1.190   5.964   0.971  1.00  0.00    -0.096 N 
HETATM   18  C18 UNL     1      -0.198   2.883   1.013  1.00  0.00     0.317 C 
HETATM   19  F1  UNL     1       0.649   3.825   1.634  1.00  0.00    -0.221 F 
HETATM   20  H19 UNL     1      -3.492  -3.631   0.791  1.00  0.00     0.316 HD
ENDROOT
BRANCH   1  21
HETATM   21  C2  UNL     1       1.494   2.495  -0.890  1.00  0.00     0.080 C 
HETATM   22  C1  UNL     1       1.826   3.043  -1.978  1.00  0.00     0.029 C 
ENDBRANCH   1  21
BRANCH   3  23
HETATM   23  C4  UNL     1       2.995  -0.271  -0.211  1.00  0.00     0.145 C 
BRANCH  23  24
HETATM   24  C5  UNL     1       3.664  -1.553  -0.658  1.00  0.00     0.186 C 
BRANCH  24  25
HETATM   25  O1  UNL     1       5.082  -1.332  -0.566  1.00  0.00    -0.394 OA
HETATM   26  C6  UNL     1       5.310  -1.361   0.809  1.00  0.00     0.201 C 
ENDBRANCH  24  25
ENDBRANCH  23  24
ENDBRANCH   3  23
TORSDOF 4
