REMARK  6 active torsions:
REMARK  status: ('A' for Active; 'I' for Inactive)
REMARK    1  A    between atoms: N1_2  and  C2_3 
REMARK    2  A    between atoms: C2_3  and  C3_4 
REMARK    3  A    between atoms: C7_9  and  N3_10 
REMARK    4  A    between atoms: N3_10  and  C8_11 
REMARK    5  A    between atoms: C9_12  and  C10_13 
REMARK    6  A    between atoms: C10_13  and  N4_14 
ROOT
HETATM    1  N3  UNL     1      -1.028  -0.362   0.182  1.00  0.00    -0.365 N 
HETATM    2  H10 UNL     1      -0.697  -0.031   1.127  1.00  0.00     0.165 HD
ENDROOT
BRANCH   1   3
HETATM    3  C7  UNL     1      -2.361  -0.721   0.509  1.00  0.00     0.057 A 
HETATM    4  C3  UNL     1      -3.377   0.081   0.960  1.00  0.00    -0.001 A 
HETATM    5  C4  UNL     1      -4.607  -0.528   1.202  1.00  0.00     0.030 A 
HETATM    6  C5  UNL     1      -4.779  -1.879   0.995  1.00  0.00     0.117 A 
HETATM    7  N2  UNL     1      -3.759  -2.665   0.546  1.00  0.00    -0.271 NA
HETATM    8  C6  UNL     1      -2.542  -2.091   0.300  1.00  0.00     0.146 A 
BRANCH   4   9
HETATM    9  C2  UNL     1      -3.025   1.505   1.136  1.00  0.00     0.310 C 
BRANCH   9  10
HETATM   10  N1  UNL     1      -2.987   2.131  -0.173  1.00  0.00     0.083 N 
HETATM   11  C1  UNL     1      -4.283   2.051  -0.831  1.00  0.00     0.307 C 
HETATM   12  H4  UNL     1      -2.222   1.743  -0.742  1.00  0.00     0.315 HD
ENDBRANCH   9  10
ENDBRANCH   4   9
ENDBRANCH   1   3
BRANCH   1  13
HETATM   13  C8  UNL     1      -0.121  -0.319  -0.912  1.00  0.00     0.086 C 
HETATM   14  C9  UNL     1       1.051  -0.894  -0.576  1.00  0.00     0.010 C 
BRANCH  14  15
HETATM   15  C10 UNL     1       2.304  -1.122  -1.286  1.00  0.00     0.154 C 
BRANCH  15  16
HETATM   16  N4  UNL     1       3.394  -0.459  -0.607  1.00  0.00    -0.345 N 
HETATM   17  C11 UNL     1       4.125  -1.187   0.442  1.00  0.00     0.152 C 
HETATM   18  C12 UNL     1       4.884  -0.083   1.189  1.00  0.00     0.188 C 
HETATM   19  O1  UNL     1       5.798   0.443   0.308  1.00  0.00    -0.380 OA
HETATM   20  C13 UNL     1       5.266   1.224  -0.688  1.00  0.00     0.270 C 
HETATM   21  C14 UNL     1       3.813   0.889  -0.889  1.00  0.00     0.243 C 
HETATM   22  O2  UNL     1       2.893   1.670  -1.286  1.00  0.00    -0.271 OA
ENDBRANCH  15  16
ENDBRANCH  14  15
ENDBRANCH   1  13
TORSDOF 6
