REMARK  4 active torsions:
REMARK  status: ('A' for Active; 'I' for Inactive)
REMARK    1  A    between atoms: N1_2  and  C2_3 
REMARK    2  A    between atoms: C3_5  and  N2_6 
REMARK    3  A    between atoms: N2_6  and  C4_7 
REMARK    4  A    between atoms: C11_18  and  O1_19 
ROOT
HETATM    1  C2  UNL     1      -2.505  -1.424  -0.130  1.00  0.00    -0.013 C 
HETATM    2  B1  UNL     1      -0.727  -1.812  -0.315  1.00  0.00     0.298 B 
HETATM    3  C3  UNL     1       0.269  -0.573  -1.107  1.00  0.00     0.051 C 
HETATM    4  N3  UNL     1       0.058   0.701  -1.664  1.00  0.00    -0.276 NA
HETATM    5  C10 UNL     1      -0.750   1.672  -1.399  1.00  0.00     0.038 C 
HETATM    6  B2  UNL     1      -1.889   1.935  -0.344  1.00  0.00     0.270 B 
HETATM    7  C11 UNL     1      -3.054   1.034   0.148  1.00  0.00     0.004 C 
HETATM    8  C13 UNL     1      -3.285  -0.259   0.227  1.00  0.00     0.033 C 
HETATM    9  H9  UNL     1      -2.101   3.114  -0.252  1.00  0.00    -0.013 HD
ENDROOT
BRANCH   3  10
HETATM   10  N2  UNL     1       1.636  -1.016  -1.180  1.00  0.00    -0.363 N 
HETATM   11  H4  UNL     1       1.953  -0.891  -2.175  1.00  0.00     0.165 HD
BRANCH  10  12
HETATM   12  C4  UNL     1       2.706  -1.555  -0.419  1.00  0.00     0.101 C 
HETATM   13  C5  UNL     1       3.680  -0.733  -0.059  1.00  0.00    -0.006 C 
HETATM   14  C6  UNL     1       3.670   0.674  -0.421  1.00  0.00     0.015 C 
HETATM   15  P1  UNL     1       5.111  -1.337   0.929  1.00  0.00    -0.008 P 
HETATM   16  C7  UNL     1       4.668   1.453  -0.035  1.00  0.00     0.021 C 
HETATM   17  C8  UNL     1       5.810   1.011   0.744  1.00  0.00     0.023 C 
HETATM   18 BR1  UNL     1       7.115   2.199   1.468  1.00  0.00    -0.050 Br
HETATM   19  C9  UNL     1       6.262  -0.161   1.148  1.00  0.00     0.009 C 
ENDBRANCH  10  12
ENDBRANCH   3  10
BRANCH   1  20
HETATM   20  N1  UNL     1      -3.257  -2.457  -0.383  1.00  0.00    -0.311 NA
HETATM   21  C1  UNL     1      -2.698  -3.734  -0.762  1.00  0.00     0.176 C 
ENDBRANCH   1  20
BRANCH   7  22
HETATM   22  O1  UNL     1      -4.143   1.768   0.633  1.00  0.00    -0.372 OA
HETATM   23  C12 UNL     1      -4.096   2.274   1.939  1.00  0.00     0.208 C 
ENDBRANCH   7  22
TORSDOF 4
