REMARK  5 active torsions:
REMARK  status: ('A' for Active; 'I' for Inactive)
REMARK    1  A    between atoms: C4_5  and  C5_6 
REMARK    2  A    between atoms: C6_7  and  C7_8 
REMARK    3  A    between atoms: C7_8  and  N2_9 
REMARK    4  A    between atoms: C13_17  and  O2_18 
REMARK    5  A    between atoms: O2_18  and  C14_19 
ROOT
HETATM    1  C1  UNL     1      -3.035  -1.521  -2.504  1.00  0.00     0.038 C 
HETATM    2  C2  UNL     1      -3.209  -0.494  -1.451  1.00  0.00     0.001 C 
HETATM    3  C3  UNL     1      -2.382  -0.259  -0.462  1.00  0.00     0.058 C 
HETATM    4  N1  UNL     1      -1.178  -0.954  -0.238  1.00  0.00    -0.378 N 
HETATM    5  C4  UNL     1      -0.045  -0.424   0.467  1.00  0.00     0.127 C 
HETATM    6  C11 UNL     1      -0.536   0.231   1.723  1.00  0.00     0.134 C 
HETATM    7 CL1  UNL     1       0.672   1.301   2.446  1.00  0.00    -0.118 Cl
HETATM    8  C12 UNL     1      -1.809   0.924   1.436  1.00  0.00     0.034 C 
HETATM    9  C13 UNL     1      -2.734   0.792   0.475  1.00  0.00     0.092 C 
HETATM   10  H5  UNL     1      -1.088  -1.923  -0.606  1.00  0.00     0.160 HD
ENDROOT
BRANCH   5  11
HETATM   11  C5  UNL     1       0.995  -1.446   0.721  1.00  0.00    -0.003 C 
HETATM   12  C6  UNL     1       2.258  -1.537   0.348  1.00  0.00     0.001 C 
BRANCH  12  13
HETATM   13  C7  UNL     1       3.017  -0.587  -0.471  1.00  0.00     0.302 C 
BRANCH  13  14
HETATM   14  N2  UNL     1       4.169  -0.055   0.231  1.00  0.00     0.116 N 
HETATM   15  C8  UNL     1       5.196  -1.061   0.470  1.00  0.00     0.301 C 
HETATM   16  C9  UNL     1       6.422  -0.140   0.533  1.00  0.00     0.200 C 
HETATM   17  O1  UNL     1       6.183   0.624  -0.627  1.00  0.00    -0.361 OA
HETATM   18  C10 UNL     1       4.844   0.950  -0.582  1.00  0.00     0.440 C 
ENDBRANCH  13  14
ENDBRANCH  12  13
ENDBRANCH   5  11
BRANCH   9  19
HETATM   19  O2  UNL     1      -3.797   1.624   0.538  1.00  0.00    -0.349 OA
BRANCH  19  20
HETATM   20  C14 UNL     1      -5.118   1.482   0.185  1.00  0.00     0.171 C 
HETATM   21  C15 UNL     1      -6.043   2.425   0.964  1.00  0.00     0.034 C 
ENDBRANCH  19  20
ENDBRANCH   9  19
TORSDOF 5
