REMARK  5 active torsions:
REMARK  status: ('A' for Active; 'I' for Inactive)
REMARK    1  A    between atoms: C4_5  and  C5_6 
REMARK    2  A    between atoms: C5_6  and  C6_7 
REMARK    3  A    between atoms: C7_8  and  N2_9 
REMARK    4  A    between atoms: N2_9  and  C8_10 
REMARK    5  A    between atoms: C8_10  and  C9_11 
ROOT
HETATM    1  N1  UNL     1       1.458   1.339   1.970  1.00  0.00    -0.197 NA
HETATM    2  C1  UNL     1       0.763   1.409   1.023  1.00  0.00     0.069 C 
HETATM    3  C2  UNL     1      -0.087   1.516  -0.161  1.00  0.00     0.133 C 
HETATM    4  C3  UNL     1      -0.078   0.246  -0.939  1.00  0.00     0.058 C 
HETATM    5  C4  UNL     1       0.068  -0.873   0.036  1.00  0.00    -0.077 C 
HETATM    6  C10 UNL     1      -0.898  -1.096   1.168  1.00  0.00     0.053 C 
HETATM    7  C11 UNL     1      -2.276  -1.354   0.610  1.00  0.00     0.124 C 
HETATM    8  N3  UNL     1      -3.071  -0.174   0.486  1.00  0.00    -0.389 N 
HETATM    9  C12 UNL     1      -2.663   1.208   0.437  1.00  0.00     0.037 A 
HETATM   10  C13 UNL     1      -3.849   1.883   0.740  1.00  0.00     0.030 A 
HETATM   11  C14 UNL     1      -3.864   3.260   0.793  1.00  0.00     0.004 A 
HETATM   12  C15 UNL     1      -2.711   3.970   0.548  1.00  0.00     0.020 A 
HETATM   13  C16 UNL     1      -1.572   3.267   0.255  1.00  0.00     0.020 A 
HETATM   14 BR1  UNL     1      -0.001   4.287  -0.075  1.00  0.00    -0.050 Br
HETATM   15  C17 UNL     1      -1.475   1.895   0.182  1.00  0.00     0.004 A 
HETATM   16  H15 UNL     1      -4.097  -0.357   0.425  1.00  0.00     0.159 HD
ENDROOT
BRANCH   5  17
HETATM   17  C5  UNL     1       1.067  -1.776  -0.015  1.00  0.00     0.004 C 
BRANCH  17  18
HETATM   18  C6  UNL     1       1.931  -2.936   0.319  1.00  0.00     0.017 C 
HETATM   19  C7  UNL     1       3.055  -3.464  -0.224  1.00  0.00     0.083 C 
BRANCH  19  20
HETATM   20  N2  UNL     1       3.158  -2.496  -1.283  1.00  0.00    -0.393 N 
HETATM   21  H7  UNL     1       2.576  -2.653  -2.150  1.00  0.00     0.159 HD
BRANCH  20  22
HETATM   22  C8  UNL     1       4.111  -1.466  -0.883  1.00  0.00     0.188 C 
BRANCH  22  23
HETATM   23  C9  UNL     1       4.180  -0.487  -1.997  1.00  0.00     0.250 C 
HETATM   24  O1  UNL     1       3.510  -0.640  -3.002  1.00  0.00    -0.305 OA
ENDBRANCH  22  23
ENDBRANCH  20  22
ENDBRANCH  19  20
ENDBRANCH  17  18
ENDBRANCH   5  17
TORSDOF 5
