REMARK  3 active torsions:
REMARK  status: ('A' for Active; 'I' for Inactive)
REMARK    1  A    between atoms: C4_5  and  N2_6 
REMARK    2  A    between atoms: C4_5  and  C11_14 
REMARK    3  A    between atoms: N2_6  and  C5_7 
ROOT
HETATM    1  C1  UNL     1      -0.757  -2.753  -0.999  1.00  0.00     0.062 C 
HETATM    2  C2  UNL     1       0.103  -1.547  -1.243  1.00  0.00     0.045 C 
HETATM    3  C3  UNL     1       0.953  -1.524  -2.424  1.00  0.00     0.097 C 
HETATM    4  N1  UNL     1       1.630  -1.521  -3.379  1.00  0.00    -0.192 NA
HETATM    5  C4  UNL     1       0.204  -0.435  -0.495  1.00  0.00     0.079 C 
ENDROOT
BRANCH   5   6
HETATM    6  N2  UNL     1       1.063   0.657  -0.829  1.00  0.00    -0.355 N 
HETATM    7  H4  UNL     1       0.698   1.403  -1.446  1.00  0.00     0.166 HD
BRANCH   6   8
HETATM    8  C5  UNL     1       2.386   0.687  -0.308  1.00  0.00     0.033 A 
HETATM    9  C6  UNL     1       2.815  -0.337   0.509  1.00  0.00     0.029 A 
HETATM   10  C7  UNL     1       4.106  -0.274   0.996  1.00  0.00     0.004 A 
HETATM   11  C8  UNL     1       4.943   0.786   0.672  1.00  0.00     0.019 A 
HETATM   12  C9  UNL     1       4.501   1.806  -0.147  1.00  0.00     0.013 A 
HETATM   13 BR1  UNL     1       5.613   3.279  -0.617  1.00  0.00    -0.051 Br
HETATM   14  C10 UNL     1       3.199   1.763  -0.651  1.00  0.00     0.048 A 
ENDBRANCH   6   8
ENDBRANCH   5   6
BRANCH   5  15
HETATM   15  C11 UNL     1      -0.453  -0.014   0.764  1.00  0.00     0.373 C 
HETATM   16  N3  UNL     1      -1.151   1.244   0.620  1.00  0.00     0.112 N 
HETATM   17  C12 UNL     1      -1.877   1.398  -0.599  1.00  0.00     0.276 C 
HETATM   18  H10 UNL     1      -1.649   1.483   1.483  1.00  0.00     0.319 HD
HETATM   19  C13 UNL     1      -3.329   1.726  -0.248  1.00  0.00     0.057 C 
HETATM   20  C14 UNL     1      -4.116   0.518   0.009  1.00  0.00    -0.019 C 
HETATM   21  C15 UNL     1      -3.883  -0.677   0.515  1.00  0.00     0.070 C 
HETATM   22  C16 UNL     1      -2.694  -1.306   1.044  1.00  0.00     0.242 C 
HETATM   23  O1  UNL     1      -2.985  -2.486   1.408  1.00  0.00    -0.269 OA
HETATM   24  N4  UNL     1      -1.313  -1.052   1.296  1.00  0.00    -0.323 N 
HETATM   25  H17 UNL     1      -0.823  -1.708   1.973  1.00  0.00     0.165 HD
ENDBRANCH   5  15
TORSDOF 3
