REMARK  6 active torsions:
REMARK  status: ('A' for Active; 'I' for Inactive)
REMARK    1  A    between atoms: C4_6  and  C5_7 
REMARK    2  A    between atoms: C5_7  and  C6_8 
REMARK    3  A    between atoms: C7_9  and  C8_10 
REMARK    4  A    between atoms: C8_10  and  C9_11 
REMARK    5  A    between atoms: C9_11  and  C10_12 
REMARK    6  A    between atoms: C10_12  and  C11_13 
ROOT
HETATM    1  N1  UNL     1      -2.972   2.637  -3.486  1.00  0.00    -0.191 NA
HETATM    2  C1  UNL     1      -2.317   2.064  -2.697  1.00  0.00     0.103 C 
HETATM    3  C2  UNL     1      -1.515   1.366  -1.742  1.00  0.00     0.089 A 
HETATM    4  C3  UNL     1      -0.140   1.420  -1.766  1.00  0.00     0.142 A 
HETATM    5  N2  UNL     1       0.561   0.761  -0.865  1.00  0.00    -0.259 NA
HETATM    6  C4  UNL     1       0.110  -0.003   0.134  1.00  0.00     0.069 A 
HETATM    7  C12 UNL     1      -1.261  -0.055   0.155  1.00  0.00     0.022 A 
HETATM    8  C13 UNL     1      -2.060   0.596  -0.737  1.00  0.00     0.067 A 
HETATM    9  N3  UNL     1      -3.489   0.552  -0.728  1.00  0.00    -0.353 N 
HETATM   10  C14 UNL     1      -4.164  -0.209   0.259  1.00  0.00     0.044 A 
HETATM   11  C15 UNL     1      -5.534  -0.252   0.271  1.00  0.00     0.030 A 
HETATM   12  C16 UNL     1      -6.150  -1.001   1.248  1.00  0.00     0.004 A 
HETATM   13  C17 UNL     1      -5.389  -1.689   2.189  1.00  0.00     0.020 A 
HETATM   14  C18 UNL     1      -4.015  -1.610   2.130  1.00  0.00     0.023 A 
HETATM   15 BR1  UNL     1      -2.940  -2.547   3.411  1.00  0.00    -0.050 Br
HETATM   16  C19 UNL     1      -3.346  -0.864   1.158  1.00  0.00     0.009 A 
HETATM   17  C20 UNL     1      -1.906  -0.752   1.060  1.00  0.00     0.031 A 
HETATM   18  H10 UNL     1      -4.060   1.065  -1.431  1.00  0.00     0.166 HD
ENDROOT
BRANCH   6  19
HETATM   19  C5  UNL     1       0.829  -0.651   1.027  1.00  0.00     0.032 C 
BRANCH  19  20
HETATM   20  C6  UNL     1       2.277  -0.700   1.151  1.00  0.00    -0.001 C 
HETATM   21  C7  UNL     1       3.281  -0.141   0.450  1.00  0.00    -0.023 C 
BRANCH  21  22
HETATM   22  C8  UNL     1       3.952   0.661  -0.586  1.00  0.00     0.054 C 
BRANCH  22  23
HETATM   23  C9  UNL     1       4.840  -0.154  -1.451  1.00  0.00    -0.024 C 
BRANCH  23  24
HETATM   24  C10 UNL     1       6.160   0.110  -1.504  1.00  0.00     0.006 C 
BRANCH  24  25
HETATM   25  C11 UNL     1       7.530   0.564  -1.408  1.00  0.00     0.418 C 
HETATM   26  O1  UNL     1       8.076   1.499  -0.760  1.00  0.00    -0.426 OA
ENDBRANCH  24  25
ENDBRANCH  23  24
ENDBRANCH  22  23
ENDBRANCH  21  22
ENDBRANCH  19  20
ENDBRANCH   6  19
TORSDOF 6
