REMARK  4 active torsions:
REMARK  status: ('A' for Active; 'I' for Inactive)
REMARK    1  A    between atoms: C3_3  and  C4_4 
REMARK       I    between atoms: C4_4  and  N1_6 
REMARK    2  A    between atoms: N1_6  and  C5_7 
REMARK    3  A    between atoms: C10_13  and  N3_14 
REMARK    4  A    between atoms: C11_15  and  C12_16 
ROOT
HETATM    1  C5  UNL     1       1.195  -1.036  -0.589  1.00  0.00     0.035 A 
HETATM    2  C6  UNL     1       1.379  -2.411  -0.762  1.00  0.00     0.032 A 
HETATM    3  C7  UNL     1       0.296  -3.285  -0.655  1.00  0.00     0.035 A 
HETATM    4  C8  UNL     1      -0.967  -2.789  -0.376  1.00  0.00     0.068 A 
HETATM    5  N2  UNL     1      -2.068  -3.554  -0.255  1.00  0.00    -0.258 NA
HETATM    6  C9  UNL     1      -3.284  -3.054   0.015  1.00  0.00     0.147 A 
HETATM    7  C10 UNL     1      -3.434  -1.674   0.183  1.00  0.00     0.055 A 
HETATM    8  C11 UNL     1      -2.336  -0.839   0.070  1.00  0.00     0.014 A 
HETATM    9  C18 UNL     1      -1.110  -1.426  -0.212  1.00  0.00     0.008 A 
HETATM   10  C19 UNL     1      -0.059  -0.539  -0.311  1.00  0.00     0.044 A 
ENDROOT
BRANCH   1  11
HETATM   11  N1  UNL     1       2.435  -0.345  -0.742  1.00  0.00    -0.324 N 
HETATM   12  C4  UNL     1       3.236  -0.147   0.409  1.00  0.00     0.245 C 
HETATM   13  O1  UNL     1       2.727  -0.626   1.462  1.00  0.00    -0.268 OA
HETATM   14  H6  UNL     1       2.775   0.021  -1.672  1.00  0.00     0.169 HD
BRANCH  12  15
HETATM   15  C3  UNL     1       4.522   0.542   0.391  1.00  0.00     0.070 C 
HETATM   16  C2  UNL     1       5.124   1.071  -0.657  1.00  0.00    -0.026 C 
HETATM   17  C1  UNL     1       6.439   1.759  -0.595  1.00  0.00     0.036 C 
ENDBRANCH  12  15
ENDBRANCH   1  11
BRANCH   8  18
HETATM   18  C12 UNL     1      -2.527   0.581   0.249  1.00  0.00    -0.021 A 
HETATM   19  C13 UNL     1      -2.831   1.336  -0.883  1.00  0.00     0.012 A 
HETATM   20  C14 UNL     1      -3.026   2.700  -0.777  1.00  0.00     0.002 A 
HETATM   21  C15 UNL     1      -2.926   3.355   0.444  1.00  0.00     0.019 A 
HETATM   22  C16 UNL     1      -2.621   2.591   1.573  1.00  0.00     0.011 A 
HETATM   23 BR1  UNL     1      -2.478   3.460   3.258  1.00  0.00    -0.051 Br
HETATM   24  C17 UNL     1      -2.425   1.218   1.468  1.00  0.00     0.031 A 
ENDBRANCH   8  18
BRANCH   7  25
HETATM   25  N3  UNL     1      -4.721  -1.112   0.473  1.00  0.00    -0.397 N 
HETATM   26  H10 UNL     1      -5.212  -0.304   0.058  1.00  0.00     0.156 HD
HETATM   27  H11 UNL     1      -5.193  -1.651   1.240  1.00  0.00     0.156 HD
ENDBRANCH   7  25
TORSDOF 4
