REMARK  7 active torsions:
REMARK  status: ('A' for Active; 'I' for Inactive)
REMARK    1  A    between atoms: C3_3  and  C4_4 
REMARK    2  A    between atoms: C5_5  and  C6_6 
REMARK    3  A    between atoms: C7_7  and  N1_8 
REMARK    4  A    between atoms: N1_8  and  C8_9 
REMARK    5  A    between atoms: C9_10  and  N2_11 
REMARK    6  A    between atoms: C14_17  and  N4_18 
REMARK       I    between atoms: N4_18  and  C15_19 
REMARK    7  A    between atoms: C15_19  and  C16_21 
ROOT
HETATM    1  C8  UNL     1      -0.079  -1.613   0.598  1.00  0.00     0.072 A 
HETATM    2  C9  UNL     1       0.779  -2.296   1.431  1.00  0.00     0.071 A 
HETATM    3  C10 UNL     1       0.509  -2.470   2.794  1.00  0.00     0.148 A 
HETATM    4  N3  UNL     1      -0.640  -1.942   3.291  1.00  0.00    -0.258 NA
HETATM    5  C11 UNL     1      -1.480  -1.274   2.480  1.00  0.00     0.069 A 
HETATM    6  C12 UNL     1      -2.648  -0.736   2.972  1.00  0.00     0.035 A 
HETATM    7  C13 UNL     1      -3.533  -0.047   2.174  1.00  0.00     0.032 A 
HETATM    8  C14 UNL     1      -3.292   0.140   0.827  1.00  0.00     0.035 A 
HETATM    9  C18 UNL     1      -2.126  -0.401   0.350  1.00  0.00     0.045 A 
HETATM   10  C19 UNL     1      -1.234  -1.091   1.137  1.00  0.00     0.024 A 
ENDROOT
BRANCH   1  11
HETATM   11  N1  UNL     1       0.282  -1.487  -0.744  1.00  0.00    -0.363 N 
HETATM   12  H10 UNL     1      -0.216  -1.027  -1.528  1.00  0.00     0.165 HD
BRANCH  11  13
HETATM   13  C7  UNL     1       1.498  -2.030  -1.240  1.00  0.00     0.088 C 
HETATM   14  C6  UNL     1       2.588  -1.274  -1.136  1.00  0.00     0.017 C 
BRANCH  14  15
HETATM   15  C5  UNL     1       2.868   0.051  -0.612  1.00  0.00     0.001 C 
HETATM   16  C4  UNL     1       3.942   0.812  -0.500  1.00  0.00    -0.000 C 
BRANCH  16  17
HETATM   17  C3  UNL     1       5.245   0.370  -0.966  1.00  0.00    -0.004 C 
HETATM   18  C2  UNL     1       6.280   1.193  -0.817  1.00  0.00    -0.031 C 
HETATM   19  C1  UNL     1       5.904   2.465  -0.177  1.00  0.00     0.036 C 
ENDBRANCH  16  17
ENDBRANCH  14  15
ENDBRANCH  11  13
ENDBRANCH   1  11
BRANCH   2  20
HETATM   20  N2  UNL     1       2.004  -2.910   1.076  1.00  0.00    -0.396 N 
HETATM   21  H11 UNL     1       2.484  -3.632   0.499  1.00  0.00     0.156 HD
HETATM   22  H12 UNL     1       2.850  -2.513   1.572  1.00  0.00     0.156 HD
ENDBRANCH   2  20
BRANCH   8  23
HETATM   23  N4  UNL     1      -4.278   0.863   0.116  1.00  0.00    -0.327 N 
HETATM   24  C15 UNL     1      -4.311   1.194  -1.258  1.00  0.00     0.221 C 
HETATM   25  O1  UNL     1      -3.373   0.831  -2.013  1.00  0.00    -0.273 OA
HETATM   26  H16 UNL     1      -5.116   1.233   0.594  1.00  0.00     0.169 HD
BRANCH  24  27
HETATM   27  C16 UNL     1      -5.380   1.952  -1.920  1.00  0.00     0.098 C 
HETATM   28  C17 UNL     1      -5.171   2.142  -3.380  1.00  0.00     0.014 C 
ENDBRANCH  24  27
ENDBRANCH   8  23
TORSDOF 7
