REMARK  5 active torsions:
REMARK  status: ('A' for Active; 'I' for Inactive)
REMARK    1  A    between atoms: C3_3  and  C4_4 
REMARK       I    between atoms: C4_4  and  N1_6 
REMARK    2  A    between atoms: N1_6  and  C5_7 
REMARK    3  A    between atoms: N4_16  and  C12_17 
REMARK    4  A    between atoms: C19_26  and  O2_27 
REMARK    5  A    between atoms: O2_27  and  C20_28 
ROOT
HETATM    1  C5  UNL     1      -0.652  -0.799   0.862  1.00  0.00     0.167 A 
HETATM    2  C6  UNL     1       0.711  -0.326   0.462  1.00  0.00     0.037 A 
HETATM    3  C7  UNL     1       1.508  -0.889  -0.414  1.00  0.00     0.068 A 
HETATM    4  C8  UNL     1       1.023  -2.098  -1.068  1.00  0.00     0.086 A 
HETATM    5  N2  UNL     1       1.803  -2.655  -1.931  1.00  0.00    -0.256 NA
HETATM    6  C9  UNL     1       3.095  -2.085  -2.216  1.00  0.00     0.159 A 
HETATM    7  C10 UNL     1       3.578  -0.979  -1.638  1.00  0.00     0.139 A 
HETATM    8  C11 UNL     1       4.869  -0.441  -1.948  1.00  0.00     0.119 C 
HETATM    9  N3  UNL     1       5.921  -0.024  -2.199  1.00  0.00    -0.190 NA
HETATM   10  N4  UNL     1       2.771  -0.290  -0.661  1.00  0.00    -0.300 N 
HETATM   11  C18 UNL     1      -0.285  -2.658  -0.766  1.00  0.00     0.068 A 
HETATM   12  C19 UNL     1      -1.034  -2.033   0.131  1.00  0.00     0.075 A 
ENDROOT
BRANCH  10  13
HETATM   13  C12 UNL     1       3.230   0.882  -0.020  1.00  0.00     0.042 A 
HETATM   14  C13 UNL     1       3.080   2.195  -0.399  1.00  0.00     0.033 A 
HETATM   15  C14 UNL     1       3.609   3.206   0.376  1.00  0.00     0.046 A 
HETATM   16  C15 UNL     1       4.290   2.882   1.535  1.00  0.00     0.138 A 
HETATM   17  F1  UNL     1       4.811   3.876   2.296  1.00  0.00    -0.204 F 
HETATM   18  C16 UNL     1       4.468   1.579   1.959  1.00  0.00     0.074 A 
HETATM   19 CL1  UNL     1       5.339   1.226   3.435  1.00  0.00    -0.081 Cl
HETATM   20  C17 UNL     1       3.922   0.577   1.156  1.00  0.00     0.057 A 
ENDBRANCH  10  13
BRANCH   1  21
HETATM   21  N1  UNL     1      -1.634   0.238   0.702  1.00  0.00    -0.344 N 
HETATM   22  C4  UNL     1      -2.421   0.883   1.707  1.00  0.00     0.241 C 
HETATM   23  O1  UNL     1      -2.040   0.314   2.786  1.00  0.00    -0.269 OA
HETATM   24  H6  UNL     1      -1.639   0.413  -0.333  1.00  0.00     0.163 HD
BRANCH  22  25
HETATM   25  C3  UNL     1      -3.356   1.913   1.300  1.00  0.00     0.070 C 
HETATM   26  C2  UNL     1      -3.852   2.586   0.302  1.00  0.00    -0.026 C 
HETATM   27  C1  UNL     1      -3.723   2.694  -1.166  1.00  0.00     0.036 C 
ENDBRANCH  22  25
ENDBRANCH   1  21
BRANCH  12  28
HETATM   28  O2  UNL     1      -2.263  -2.581   0.397  1.00  0.00    -0.353 OA
BRANCH  28  29
HETATM   29  C20 UNL     1      -3.372  -2.582  -0.469  1.00  0.00     0.171 C 
HETATM   30  C21 UNL     1      -4.593  -3.260   0.096  1.00  0.00     0.034 C 
ENDBRANCH  28  29
ENDBRANCH  12  28
TORSDOF 5
