REMARK  6 active torsions:
REMARK  status: ('A' for Active; 'I' for Inactive)
REMARK    1  A    between atoms: C3_3  and  C4_4 
REMARK       I    between atoms: C4_4  and  N1_6 
REMARK    2  A    between atoms: N1_6  and  C5_7 
REMARK    3  A    between atoms: C8_10  and  N2_11 
REMARK    4  A    between atoms: N2_11  and  C9_12 
REMARK    5  A    between atoms: C19_26  and  O2_27 
REMARK    6  A    between atoms: O2_27  and  C20_28 
ROOT
HETATM    1  C5  UNL     1      -1.270  -0.341   0.017  1.00  0.00     0.069 A 
HETATM    2  C6  UNL     1       0.049  -0.007  -0.043  1.00  0.00     0.048 A 
HETATM    3  C7  UNL     1       1.082  -0.917   0.007  1.00  0.00     0.023 A 
HETATM    4  C8  UNL     1       2.421  -0.619  -0.050  1.00  0.00     0.067 A 
HETATM    5  C14 UNL     1       3.331  -1.641   0.013  1.00  0.00     0.089 A 
HETATM    6  C15 UNL     1       4.736  -1.421  -0.036  1.00  0.00     0.103 C 
HETATM    7  N3  UNL     1       5.886  -1.247  -0.061  1.00  0.00    -0.191 NA
HETATM    8  C16 UNL     1       2.938  -2.960   0.132  1.00  0.00     0.142 A 
HETATM    9  N4  UNL     1       1.629  -3.269   0.189  1.00  0.00    -0.259 NA
HETATM   10  C17 UNL     1       0.750  -2.249   0.126  1.00  0.00     0.071 A 
HETATM   11  C18 UNL     1      -0.579  -2.604   0.188  1.00  0.00     0.071 A 
HETATM   12  C19 UNL     1      -1.619  -1.688   0.138  1.00  0.00     0.097 A 
ENDROOT
BRANCH   4  13
HETATM   13  N2  UNL     1       2.817   0.714  -0.169  1.00  0.00    -0.356 N 
HETATM   14  H8  UNL     1       2.220   1.565  -0.209  1.00  0.00     0.166 HD
BRANCH  13  15
HETATM   15  C9  UNL     1       4.049   1.429  -0.273  1.00  0.00     0.035 A 
HETATM   16  C10 UNL     1       4.752   1.508  -1.417  1.00  0.00     0.030 A 
HETATM   17  C11 UNL     1       5.995   2.296  -1.301  1.00  0.00     0.042 A 
HETATM   18  C12 UNL     1       5.981   2.670  -0.039  1.00  0.00     0.118 A 
HETATM   19  F1  UNL     1       6.984   3.436   0.485  1.00  0.00    -0.209 F 
HETATM   20  C13 UNL     1       4.810   2.202   0.744  1.00  0.00     0.193 A 
HETATM   21 CL1  UNL     1       5.269   1.250   2.156  1.00  0.00    -0.111 Cl
ENDBRANCH  13  15
ENDBRANCH   4  13
BRANCH   1  22
HETATM   22  N1  UNL     1      -2.266   0.678  -0.043  1.00  0.00    -0.321 N 
HETATM   23  C4  UNL     1      -2.933   1.242  -1.167  1.00  0.00     0.245 C 
HETATM   24  O1  UNL     1      -2.631   0.807  -2.300  1.00  0.00    -0.268 OA
HETATM   25  H6  UNL     1      -2.422   0.947   0.953  1.00  0.00     0.169 HD
BRANCH  23  26
HETATM   26  C3  UNL     1      -3.923   2.286  -0.934  1.00  0.00     0.070 C 
HETATM   27  C2  UNL     1      -4.261   2.764   0.252  1.00  0.00    -0.026 C 
HETATM   28  C1  UNL     1      -5.296   3.842   0.370  1.00  0.00     0.036 C 
ENDBRANCH  23  26
ENDBRANCH   1  22
BRANCH  12  29
HETATM   29  O2  UNL     1      -2.943  -2.053   0.200  1.00  0.00    -0.349 OA
BRANCH  29  30
HETATM   30  C20 UNL     1      -3.253  -3.429   0.322  1.00  0.00     0.171 C 
HETATM   31  C21 UNL     1      -4.723  -3.688   0.380  1.00  0.00     0.034 C 
ENDBRANCH  29  30
ENDBRANCH  12  29
TORSDOF 6
