REMARK  3 active torsions:
REMARK  status: ('A' for Active; 'I' for Inactive)
REMARK    1  A    between atoms: C5_6  and  C6_7 
REMARK    2  A    between atoms: C10_12  and  N2_13 
REMARK    3  A    between atoms: N2_13  and  C11_14 
ROOT
HETATM    1  C1  UNL     1      -0.431  -2.814  -2.285  1.00  0.00     0.038 C 
HETATM    2  C2  UNL     1      -0.752  -1.755  -1.563  1.00  0.00     0.003 C 
HETATM    3  N1  UNL     1      -2.096  -1.309  -1.604  1.00  0.00    -0.389 N 
HETATM    4  C3  UNL     1      -3.169  -0.479  -1.287  1.00  0.00     0.156 C 
HETATM    5  C4  UNL     1      -3.042   0.345  -0.023  1.00  0.00    -0.035 C 
HETATM    6  C5  UNL     1      -4.031   0.497   1.019  1.00  0.00     0.101 C 
HETATM    7  C7  UNL     1      -1.873   1.010   0.166  1.00  0.00     0.014 C 
HETATM    8  C8  UNL     1      -0.560   1.287  -0.585  1.00  0.00     0.094 C 
HETATM    9  C9  UNL     1       0.195   0.033  -0.181  1.00  0.00    -0.037 C 
HETATM   10  C10 UNL     1       0.799  -0.277   0.947  1.00  0.00     0.053 C 
HETATM   11  C17 UNL     1       0.487   0.057   2.356  1.00  0.00     0.142 C 
HETATM   12  N3  UNL     1      -0.506   0.619   2.960  1.00  0.00    -0.280 NA
HETATM   13  C18 UNL     1      -1.486   1.624   2.663  1.00  0.00     0.270 C 
HETATM   14  N4  UNL     1      -2.287   1.384   1.490  1.00  0.00    -0.373 N 
HETATM   15  C19 UNL     1       0.472  -1.238  -0.820  1.00  0.00     0.062 C 
HETATM   16  C20 UNL     1       1.535  -1.131  -1.883  1.00  0.00     0.021 C 
HETATM   17  H3  UNL     1      -2.539  -2.023  -2.262  1.00  0.00     0.159 HD
HETATM   18  H18 UNL     1      -3.323   1.434   1.377  1.00  0.00     0.169 HD
ENDROOT
BRANCH  10  19
HETATM   19  N2  UNL     1       1.952  -1.081   0.719  1.00  0.00    -0.355 N 
HETATM   20  H11 UNL     1       2.308  -2.084   0.655  1.00  0.00     0.166 HD
BRANCH  19  21
HETATM   21  C11 UNL     1       3.100  -0.206   0.519  1.00  0.00     0.034 A 
HETATM   22  C12 UNL     1       3.035   1.183   0.566  1.00  0.00     0.032 A 
HETATM   23  C13 UNL     1       4.107   2.024   0.378  1.00  0.00     0.046 A 
HETATM   24  C14 UNL     1       5.325   1.484   0.127  1.00  0.00     0.138 A 
HETATM   25  F1  UNL     1       6.389   2.286  -0.061  1.00  0.00    -0.204 F 
HETATM   26  C15 UNL     1       5.505   0.138   0.059  1.00  0.00     0.074 A 
HETATM   27 CL1  UNL     1       7.055  -0.568  -0.260  1.00  0.00    -0.081 Cl
HETATM   28  C16 UNL     1       4.402  -0.656   0.255  1.00  0.00     0.056 A 
ENDBRANCH  19  21
ENDBRANCH  10  19
BRANCH   6  29
HETATM   29  C6  UNL     1      -5.416   1.063   0.665  1.00  0.00     0.233 C 
HETATM   30  O1  UNL     1      -6.162   1.102   1.621  1.00  0.00    -0.307 OA
ENDBRANCH   6  29
TORSDOF 3
