REMARK  6 active torsions:
REMARK  status: ('A' for Active; 'I' for Inactive)
REMARK    1  A    between atoms: C2_3  and  C3_4 
REMARK    2  A    between atoms: C3_4  and  C4_5 
REMARK    3  A    between atoms: C4_5  and  N1_6 
REMARK       I    between atoms: N1_6  and  C5_7 
REMARK       I    between atoms: C5_7  and  N2_9 
REMARK    4  A    between atoms: N2_9  and  C6_10 
REMARK    5  A    between atoms: C11_17  and  N5_18 
REMARK    6  A    between atoms: N5_18  and  C12_19 
ROOT
HETATM    1  C1  UNL     1       4.880  -2.693   2.855  1.00  0.00     0.018 C 
HETATM    2  S1  UNL     1       3.503  -1.763   2.122  1.00  0.00    -0.024 SA
HETATM    3  C2  UNL     1       2.137  -0.845   1.429  1.00  0.00    -0.094 C 
ENDROOT
BRANCH   3   4
HETATM    4  C3  UNL     1       1.032  -0.119   0.850  1.00  0.00     0.151 C 
BRANCH   4   5
HETATM    5  C4  UNL     1       0.683  -0.543  -0.527  1.00  0.00     0.036 C 
HETATM    6  C8  UNL     1      -0.317  -1.177  -1.151  1.00  0.00     0.031 A 
HETATM    7  C9  UNL     1      -0.378  -1.446  -2.611  1.00  0.00     0.194 A 
HETATM    8  C11 UNL     1      -1.391  -1.662  -0.303  1.00  0.00     0.138 A 
HETATM    9  N3  UNL     1      -1.566  -2.074  -3.024  1.00  0.00    -0.278 NA
HETATM   10  C10 UNL     1      -2.497  -2.453  -2.283  1.00  0.00     0.229 A 
HETATM   11  N4  UNL     1      -2.398  -2.249  -0.906  1.00  0.00    -0.224 NA
BRANCH   5  12
HETATM   12  N1  UNL     1       1.686  -0.240  -1.492  1.00  0.00    -0.311 N 
HETATM   13  C5  UNL     1       2.925   0.419  -1.333  1.00  0.00     0.324 C 
HETATM   14  O1  UNL     1       3.309   0.848  -0.228  1.00  0.00    -0.247 OA
HETATM   15  N2  UNL     1       3.899   0.703  -2.306  1.00  0.00    -0.320 N 
HETATM   16  H5  UNL     1       3.683   0.383  -3.296  1.00  0.00     0.169 HD
HETATM   17  H4  UNL     1       1.649  -0.485  -2.525  1.00  0.00     0.170 HD
BRANCH  15  18
HETATM   18  C6  UNL     1       5.113   1.373  -2.035  1.00  0.00     0.082 C 
HETATM   19  C7  UNL     1       5.391   1.773  -0.813  1.00  0.00     0.030 C 
ENDBRANCH  15  18
ENDBRANCH   5  12
BRANCH   8  20
HETATM   20  N5  UNL     1      -1.441  -1.635   1.119  1.00  0.00    -0.349 N 
HETATM   21  H12 UNL     1      -0.492  -2.005   1.477  1.00  0.00     0.166 HD
BRANCH  20  22
HETATM   22  C12 UNL     1      -2.645  -1.177   1.769  1.00  0.00     0.101 C 
HETATM   23  C13 UNL     1      -3.135   0.042   1.690  1.00  0.00    -0.020 A 
HETATM   24  C14 UNL     1      -4.364   0.387   2.395  1.00  0.00     0.009 A 
HETATM   25  C18 UNL     1      -2.520   1.115   0.922  1.00  0.00     0.027 A 
HETATM   26  C15 UNL     1      -4.873   1.606   2.328  1.00  0.00    -0.021 A 
HETATM   27  C16 UNL     1      -4.256   2.685   1.557  1.00  0.00     0.073 A 
HETATM   28  C17 UNL     1      -3.024   2.337   0.851  1.00  0.00    -0.007 A 
HETATM   29 BR1  UNL     1      -2.192   3.719  -0.165  1.00  0.00    -0.055 Br
ENDBRANCH  20  22
ENDBRANCH   8  20
ENDBRANCH   4   5
ENDBRANCH   3   4
TORSDOF 6
