REMARK  1 active torsions:
REMARK  status: ('A' for Active; 'I' for Inactive)
REMARK    1  A    between atoms: C7_9  and  C8_10 
ROOT
HETATM    1  O1  UNL     1      -2.258   3.606   0.330  1.00  0.00    -0.268 OA
HETATM    2  C1  UNL     1      -1.239   3.043  -0.013  1.00  0.00     0.244 C 
HETATM    3  C2  UNL     1      -0.052   3.397  -0.793  1.00  0.00     0.058 C 
HETATM    4  C3  UNL     1       1.049   2.812  -1.196  1.00  0.00    -0.082 C 
HETATM    5  B1  UNL     1       2.543   2.777  -2.008  1.00  0.00     0.174 B 
HETATM    6  C4  UNL     1       3.854   1.570  -1.059  1.00  0.00    -0.074 C 
HETATM    7  C5  UNL     1       3.170   0.451  -0.818  1.00  0.00     0.033 C 
HETATM    8  C6  UNL     1       1.966  -0.098  -1.410  1.00  0.00     0.009 C 
HETATM    9  C7  UNL     1       1.148  -0.889  -0.772  1.00  0.00     0.046 C 
HETATM   10  N1  UNL     1       0.461  -1.692   0.155  1.00  0.00    -0.278 N 
HETATM   11  N2  UNL     1       0.617  -3.053   0.265  1.00  0.00    -0.291 N 
HETATM   12  C10 UNL     1       0.042  -3.720   1.396  1.00  0.00     0.223 C 
HETATM   13  N3  UNL     1      -0.623  -3.088   2.302  1.00  0.00    -0.245 NA
HETATM   14  C11 UNL     1      -0.845  -1.692   2.250  1.00  0.00     0.061 C 
HETATM   15  C12 UNL     1      -1.461  -0.897   3.139  1.00  0.00     0.009 C 
HETATM   16  C13 UNL     1      -2.173   0.329   2.637  1.00  0.00     0.086 C 
HETATM   17  C14 UNL     1      -1.809   0.579   1.225  1.00  0.00     0.014 C 
HETATM   18  C15 UNL     1      -1.693  -0.528   0.429  1.00  0.00     0.032 C 
HETATM   19  C16 UNL     1      -0.397  -0.959   1.030  1.00  0.00     0.184 C 
HETATM   20  N4  UNL     1      -1.513   1.816   0.599  1.00  0.00    -0.327 N 
HETATM   21  H7  UNL     1       1.153  -3.387  -0.554  1.00  0.00     0.188 HD
HETATM   22  H14 UNL     1      -0.596   1.393   0.474  1.00  0.00     0.169 HD
ENDROOT
BRANCH   9  23
HETATM   23  C8  UNL     1       0.117  -1.172  -1.770  1.00  0.00     0.021 C 
HETATM   24  C9  UNL     1      -0.031  -0.769  -3.037  1.00  0.00     0.208 C 
HETATM   25 BR1  UNL     1       0.582   0.215  -4.516  1.00  0.00    -0.193 Br
ENDBRANCH   9  23
TORSDOF 1
