REMARK  1 active torsions:
REMARK  status: ('A' for Active; 'I' for Inactive)
REMARK    1  A    between atoms: C7_9  and  N2_10 
ROOT
HETATM    1  O1  UNL     1      -5.333   2.553  -0.055  1.00  0.00    -0.269 OA
HETATM    2  C1  UNL     1      -4.639   1.494   0.042  1.00  0.00     0.242 C 
HETATM    3  C2  UNL     1      -5.300   0.192  -0.009  1.00  0.00     0.074 C 
HETATM    4  C3  UNL     1      -4.689  -0.980  -0.241  1.00  0.00     0.007 C 
HETATM    5  C4  UNL     1      -3.312  -1.318  -0.495  1.00  0.00     0.030 C 
HETATM    6  C5  UNL     1      -2.323  -0.469  -0.418  1.00  0.00     0.060 C 
HETATM    7  N1  UNL     1      -1.223  -1.320  -0.758  1.00  0.00    -0.265 NA
HETATM    8  C6  UNL     1       0.043  -1.191  -0.775  1.00  0.00     0.118 C 
HETATM    9  C7  UNL     1       0.818  -0.007  -0.410  1.00  0.00     0.143 C 
HETATM   10  C13 UNL     1       0.213   0.574   0.837  1.00  0.00     0.001 C 
HETATM   11  C14 UNL     1      -1.062   0.989   0.977  1.00  0.00     0.003 C 
HETATM   12  C15 UNL     1      -2.107   0.937  -0.112  1.00  0.00     0.160 C 
HETATM   13  N3  UNL     1      -3.231   1.733   0.195  1.00  0.00    -0.344 N 
HETATM   14  H16 UNL     1      -2.942   2.659   0.609  1.00  0.00     0.163 HD
ENDROOT
BRANCH   9  15
HETATM   15  N2  UNL     1       2.203  -0.217  -0.174  1.00  0.00    -0.396 N 
HETATM   16  C8  UNL     1       2.535  -1.117   0.868  1.00  0.00     0.145 C 
HETATM   17  C9  UNL     1       3.943  -0.760   1.280  1.00  0.00    -0.010 C 
HETATM   18  C10 UNL     1       4.729   0.017   0.510  1.00  0.00    -0.012 C 
HETATM   19  C11 UNL     1       4.317   0.603  -0.807  1.00  0.00     0.098 C 
HETATM   20 BR1  UNL     1       5.724   0.628  -2.098  1.00  0.00    -0.085 Br
HETATM   21  C12 UNL     1       3.076  -0.161  -1.291  1.00  0.00     0.138 C 
ENDBRANCH   9  15
TORSDOF 1
