REMARK  5 active torsions:
REMARK  status: ('A' for Active; 'I' for Inactive)
REMARK    1  A    between atoms: C2_2  and  C3_3 
REMARK       I    between atoms: C3_3  and  N1_5 
REMARK    2  A    between atoms: N1_5  and  C4_6 
REMARK    3  A    between atoms: C6_8  and  C7_9 
REMARK    4  A    between atoms: C11_15  and  N4_16 
REMARK    5  A    between atoms: N4_16  and  C12_17 
ROOT
HETATM    1  C7  UNL     1       0.439  -0.142  -1.140  1.00  0.00     0.022 C 
HETATM    2  C8  UNL     1       0.106  -0.200   0.138  1.00  0.00     0.008 A 
HETATM    3  C9  UNL     1       1.087  -0.638   1.163  1.00  0.00     0.192 A 
HETATM    4  N2  UNL     1       0.482  -0.632   2.464  1.00  0.00    -0.278 NA
HETATM    5  C10 UNL     1      -0.721  -0.296   2.743  1.00  0.00     0.229 A 
HETATM    6  N3  UNL     1      -1.646   0.129   1.753  1.00  0.00    -0.224 NA
HETATM    7  C11 UNL     1      -1.246   0.172   0.527  1.00  0.00     0.137 A 
ENDROOT
BRANCH   1   8
HETATM    8  C6  UNL     1       1.786  -0.510  -1.558  1.00  0.00    -0.033 A 
HETATM    9  C4  UNL     1       3.212  -0.972  -1.399  1.00  0.00     0.141 A 
HETATM   10  C5  UNL     1       2.628  -0.635  -2.650  1.00  0.00     0.012 A 
BRANCH   9  11
HETATM   11  N1  UNL     1       4.082  -0.094  -0.640  1.00  0.00    -0.346 N 
HETATM   12  C3  UNL     1       4.948  -0.699   0.281  1.00  0.00     0.238 C 
HETATM   13  O1  UNL     1       5.069  -1.903   0.536  1.00  0.00    -0.269 OA
HETATM   14  H4  UNL     1       4.060   0.938  -0.779  1.00  0.00     0.163 HD
BRANCH  12  15
HETATM   15  C2  UNL     1       5.818   0.186   1.041  1.00  0.00     0.047 C 
HETATM   16  C1  UNL     1       5.847   1.503   0.923  1.00  0.00     0.037 C 
ENDBRANCH  12  15
ENDBRANCH   9  11
ENDBRANCH   1   8
BRANCH   7  17
HETATM   17  N4  UNL     1      -2.205   0.611  -0.405  1.00  0.00    -0.340 N 
HETATM   18  H11 UNL     1      -1.846   1.177  -1.228  1.00  0.00     0.167 HD
BRANCH  17  19
HETATM   19  C12 UNL     1      -3.602   0.371  -0.360  1.00  0.00     0.035 A 
HETATM   20  C13 UNL     1      -4.445   0.911  -1.341  1.00  0.00     0.029 A 
HETATM   21  C14 UNL     1      -5.791   0.734  -1.386  1.00  0.00     0.004 A 
HETATM   22  C15 UNL     1      -6.412  -0.012  -0.437  1.00  0.00     0.019 A 
HETATM   23  C16 UNL     1      -5.643  -0.571   0.555  1.00  0.00     0.013 A 
HETATM   24 BR1  UNL     1      -6.466  -1.622   1.906  1.00  0.00    -0.051 Br
HETATM   25  C17 UNL     1      -4.286  -0.369   0.568  1.00  0.00     0.048 A 
ENDBRANCH  17  19
ENDBRANCH   7  17
TORSDOF 5
