REMARK  6 active torsions:
REMARK  status: ('A' for Active; 'I' for Inactive)
REMARK    1  A    between atoms: N1_2  and  C3_4 
REMARK    2  A    between atoms: C3_4  and  C4_5 
REMARK    3  A    between atoms: C5_6  and  C6_7 
REMARK       I    between atoms: C6_7  and  N2_9 
REMARK    4  A    between atoms: N2_9  and  C7_10 
REMARK    5  A    between atoms: C10_13  and  N3_14 
REMARK    6  A    between atoms: N3_14  and  C11_15 
ROOT
HETATM    1  C7  UNL     1       0.539  -1.015  -1.677  1.00  0.00     0.038 A 
HETATM    2  C8  UNL     1       1.634  -0.552  -1.141  1.00  0.00     0.046 A 
HETATM    3  C9  UNL     1       2.296  -1.584  -0.349  1.00  0.00     0.028 A 
HETATM    4  C10 UNL     1       3.430  -1.413   0.326  1.00  0.00     0.068 C 
HETATM    5  C17 UNL     1       4.216  -2.322   1.151  1.00  0.00     0.089 C 
HETATM    6  C18 UNL     1       5.285  -1.581   1.753  1.00  0.00     0.103 C 
HETATM    7  N4  UNL     1       6.172  -0.987   2.255  1.00  0.00    -0.191 NA
HETATM    8  C19 UNL     1       4.277  -3.569   1.520  1.00  0.00     0.143 C 
HETATM    9  N5  UNL     1       3.453  -4.689   1.195  1.00  0.00    -0.247 NA
HETATM   10  C20 UNL     1       2.313  -4.858   0.569  1.00  0.00     0.258 C 
HETATM   11  O2  UNL     1       1.363  -4.053  -0.072  1.00  0.00    -0.303 OA
HETATM   12  C21 UNL     1       1.387  -2.725  -0.527  1.00  0.00     0.091 A 
HETATM   13  C22 UNL     1       0.352  -2.423  -1.297  1.00  0.00     0.067 A 
ENDROOT
BRANCH   4  14
HETATM   14  N3  UNL     1       3.888  -0.075   0.156  1.00  0.00    -0.354 N 
HETATM   15  H13 UNL     1       4.679   0.139  -0.489  1.00  0.00     0.166 HD
BRANCH  14  16
HETATM   16  C11 UNL     1       3.219   0.969   0.911  1.00  0.00     0.033 A 
HETATM   17  C12 UNL     1       2.196   0.570   1.747  1.00  0.00     0.029 A 
HETATM   18  C13 UNL     1       1.575   1.575   2.450  1.00  0.00     0.004 A 
HETATM   19  C14 UNL     1       1.991   2.874   2.287  1.00  0.00     0.019 A 
HETATM   20  C15 UNL     1       3.009   3.265   1.453  1.00  0.00     0.013 A 
HETATM   21 BR1  UNL     1       3.534   5.086   1.276  1.00  0.00    -0.051 Br
HETATM   22  C16 UNL     1       3.664   2.259   0.722  1.00  0.00     0.048 A 
ENDBRANCH  14  16
ENDBRANCH   4  14
BRANCH   1  23
HETATM   23  N2  UNL     1      -0.259  -0.144  -2.498  1.00  0.00    -0.324 N 
HETATM   24  C6  UNL     1      -1.552   0.024  -1.945  1.00  0.00     0.245 C 
HETATM   25  O1  UNL     1      -1.629  -0.650  -0.879  1.00  0.00    -0.268 OA
HETATM   26  H11 UNL     1       0.004   0.346  -3.405  1.00  0.00     0.169 HD
BRANCH  24  27
HETATM   27  C5  UNL     1      -2.581   0.847  -2.550  1.00  0.00     0.072 C 
HETATM   28  C4  UNL     1      -3.794   1.048  -2.091  1.00  0.00     0.008 C 
BRANCH  28  29
HETATM   29  C3  UNL     1      -4.461   0.534  -0.888  1.00  0.00     0.299 C 
BRANCH  29  30
HETATM   30  N1  UNL     1      -4.893   1.575   0.024  1.00  0.00     0.083 N 
HETATM   31  C1  UNL     1      -5.523   0.928   1.162  1.00  0.00     0.309 C 
HETATM   32  C2  UNL     1      -5.825   2.500  -0.543  1.00  0.00     0.309 C 
ENDBRANCH  29  30
ENDBRANCH  28  29
ENDBRANCH  24  27
ENDBRANCH   1  23
TORSDOF 6
