REMARK  7 active torsions:
REMARK  status: ('A' for Active; 'I' for Inactive)
REMARK    1  A    between atoms: C2_2  and  O1_4 
REMARK    2  A    between atoms: C4_7  and  C5_8 
REMARK    3  A    between atoms: N1_9  and  C6_10 
REMARK    4  A    between atoms: C7_11  and  C8_12 
REMARK    5  A    between atoms: C7_11  and  C10_15 
REMARK    6  A    between atoms: C10_15  and  N3_16 
REMARK    7  A    between atoms: N3_16  and  C11_17 
ROOT
HETATM    1  C8  UNL     1      -1.229   0.706  -2.402  1.00  0.00     0.161 C 
HETATM    2  C9  UNL     1      -1.658   0.744  -3.820  1.00  0.00     0.063 C 
HETATM    3  N2  UNL     1      -2.003   0.778  -4.906  1.00  0.00    -0.197 NA
ENDROOT
BRANCH   1   4
HETATM    4  C7  UNL     1      -1.250  -0.710  -1.924  1.00  0.00    -0.032 C 
HETATM    5  C6  UNL     1      -0.116  -1.278  -1.475  1.00  0.00     0.121 C 
BRANCH   5   6
HETATM    6  N1  UNL     1       0.931  -0.322  -1.565  1.00  0.00    -0.273 NA
HETATM    7  C5  UNL     1       1.951  -0.301  -0.812  1.00  0.00     0.119 C 
BRANCH   7   8
HETATM    8  C4  UNL     1       2.942   0.735  -1.019  1.00  0.00     0.064 C 
HETATM    9  C3  UNL     1       4.015   0.795  -0.262  1.00  0.00     0.156 A 
HETATM   10  O1  UNL     1       5.024   0.611   0.672  1.00  0.00     0.000 OA
HETATM   11  F2  UNL     1       5.007   1.690  -0.338  1.00  0.00    -0.203 F 
BRANCH  10  12
HETATM   12  C2  UNL     1       4.858  -0.520   1.539  1.00  0.00     0.199 C 
HETATM   13  C1  UNL     1       6.067  -0.507   2.442  1.00  0.00     0.048 C 
HETATM   14  F1  UNL     1       3.702  -0.354   2.282  1.00  0.00    -0.247 F 
ENDBRANCH  10  12
ENDBRANCH   7   8
ENDBRANCH   5   6
BRANCH   4  15
HETATM   15  C10 UNL     1      -2.674  -1.169  -2.085  1.00  0.00     0.156 C 
BRANCH  15  16
HETATM   16  N3  UNL     1      -3.497  -0.295  -1.294  1.00  0.00    -0.386 N 
HETATM   17  H12 UNL     1      -4.183   0.295  -1.834  1.00  0.00     0.160 HD
BRANCH  16  18
HETATM   18  C11 UNL     1      -3.512  -0.120   0.101  1.00  0.00     0.029 A 
HETATM   19  C12 UNL     1      -4.365   0.795   0.718  1.00  0.00     0.032 A 
HETATM   20  C13 UNL     1      -4.402   0.978   2.081  1.00  0.00     0.046 A 
HETATM   21  C14 UNL     1      -3.578   0.245   2.907  1.00  0.00     0.138 A 
HETATM   22  F3  UNL     1      -3.650   0.458   4.228  1.00  0.00    -0.204 F 
HETATM   23  C15 UNL     1      -2.705  -0.682   2.355  1.00  0.00     0.074 A 
HETATM   24 CL1  UNL     1      -1.663  -1.607   3.399  1.00  0.00    -0.081 Cl
HETATM   25  C16 UNL     1      -2.725  -0.808   0.996  1.00  0.00     0.056 A 
ENDBRANCH  16  18
ENDBRANCH  15  16
ENDBRANCH   4  15
ENDBRANCH   1   4
TORSDOF 7
