REMARK  7 active torsions:
REMARK  status: ('A' for Active; 'I' for Inactive)
REMARK    1  A    between atoms: N1_2  and  C3_4 
REMARK    2  A    between atoms: C3_4  and  C4_5 
REMARK    3  A    between atoms: C5_6  and  C6_7 
REMARK       I    between atoms: C6_7  and  N2_9 
REMARK    4  A    between atoms: N2_9  and  C7_10 
REMARK    5  A    between atoms: C10_13  and  C11_14 
REMARK    6  A    between atoms: C17_23  and  O2_24 
REMARK    7  A    between atoms: O2_24  and  C18_25 
ROOT
HETATM    1  C7  UNL     1      -1.269   1.244   0.649  1.00  0.00     0.069 A 
HETATM    2  C8  UNL     1      -1.949   0.047   0.915  1.00  0.00     0.047 A 
HETATM    3  C9  UNL     1      -3.044  -0.288   0.146  1.00  0.00     0.005 A 
HETATM    4  C10 UNL     1      -3.758  -1.445   0.311  1.00  0.00     0.005 A 
HETATM    5  C12 UNL     1      -4.825  -1.669  -0.555  1.00  0.00     0.071 A 
HETATM    6  C13 UNL     1      -5.588  -2.876  -0.409  1.00  0.00     0.101 C 
HETATM    7  N3  UNL     1      -6.221  -3.850  -0.293  1.00  0.00    -0.191 NA
HETATM    8  C14 UNL     1      -5.137  -0.749  -1.533  1.00  0.00     0.140 A 
HETATM    9  N4  UNL     1      -4.414   0.401  -1.684  1.00  0.00    -0.259 NA
HETATM   10  C15 UNL     1      -3.365   0.622  -0.837  1.00  0.00     0.070 A 
HETATM   11  C16 UNL     1      -2.716   1.805  -1.119  1.00  0.00     0.071 A 
HETATM   12  C17 UNL     1      -1.624   2.129  -0.346  1.00  0.00     0.101 A 
ENDROOT
BRANCH   4  13
HETATM   13  C11 UNL     1      -3.381  -2.399   1.375  1.00  0.00     0.263 C 
HETATM   14  F1  UNL     1      -3.774  -2.015   2.632  1.00  0.00    -0.251 F 
ENDBRANCH   4  13
BRANCH   1  15
HETATM   15  N2  UNL     1      -0.141   1.450   1.529  1.00  0.00    -0.321 N 
HETATM   16  C6  UNL     1       0.856   0.648   0.909  1.00  0.00     0.245 C 
HETATM   17  O1  UNL     1       0.418   0.062  -0.152  1.00  0.00    -0.268 OA
HETATM   18  H11 UNL     1       0.346   1.854   2.354  1.00  0.00     0.169 HD
BRANCH  16  19
HETATM   19  C5  UNL     1       2.235   0.229   1.041  1.00  0.00     0.072 C 
HETATM   20  C4  UNL     1       2.483  -0.609   0.037  1.00  0.00     0.008 C 
BRANCH  20  21
HETATM   21  C3  UNL     1       3.768  -1.256  -0.174  1.00  0.00     0.299 C 
BRANCH  21  22
HETATM   22  N1  UNL     1       4.754  -0.841   0.826  1.00  0.00     0.083 N 
HETATM   23  C1  UNL     1       5.950  -1.687   0.708  1.00  0.00     0.309 C 
HETATM   24  C2  UNL     1       5.233   0.501   0.416  1.00  0.00     0.309 C 
ENDBRANCH  21  22
ENDBRANCH  20  21
ENDBRANCH  16  19
ENDBRANCH   1  15
BRANCH  12  25
HETATM   25  O2  UNL     1      -0.831   3.250  -0.453  1.00  0.00    -0.319 OA
BRANCH  25  26
HETATM   26  C18 UNL     1      -1.154   4.188  -1.448  1.00  0.00     0.398 C 
HETATM   27  F2  UNL     1      -0.277   5.271  -1.423  1.00  0.00    -0.227 F 
ENDBRANCH  25  26
ENDBRANCH  12  25
TORSDOF 7
