REMARK  6 active torsions:
REMARK  status: ('A' for Active; 'I' for Inactive)
REMARK    1  A    between atoms: C2_2  and  N1_3 
REMARK    2  A    between atoms: N1_3  and  C4_5 
REMARK    3  A    between atoms: N2_7  and  C6_8 
REMARK    4  A    between atoms: C13_17  and  N3_18 
REMARK    5  A    between atoms: C17_23  and  O1_24 
REMARK    6  A    between atoms: O1_24  and  C18_25 
ROOT
HETATM    1  C4  UNL     1      -0.602  -1.091   0.044  1.00  0.00     0.296 C 
HETATM    2  C5  UNL     1       0.159  -0.345  -1.037  1.00  0.00     0.166 C 
HETATM    3  N2  UNL     1       1.385   0.230  -0.532  1.00  0.00    -0.373 N 
HETATM    4  C12 UNL     1       1.876   1.294  -1.395  1.00  0.00     0.180 C 
HETATM    5  C13 UNL     1       1.150   2.584  -1.225  1.00  0.00     0.030 C 
HETATM    6  C14 UNL     1       0.204   3.158  -0.482  1.00  0.00     0.079 C 
HETATM    7  N4  UNL     1      -0.826   3.582   0.422  1.00  0.00    -0.291 NA
HETATM    8  C15 UNL     1      -1.518   2.617   1.002  1.00  0.00     0.217 C 
HETATM    9  C16 UNL     1      -1.301   1.261   0.772  1.00  0.00     0.048 C 
HETATM   10  C17 UNL     1      -1.375  -0.018   0.828  1.00  0.00     0.091 C 
ENDROOT
BRANCH   3  11
HETATM   11  C6  UNL     1       2.123  -0.108   0.632  1.00  0.00     0.032 A 
HETATM   12  C7  UNL     1       1.959   0.080   1.988  1.00  0.00     0.032 A 
HETATM   13  C8  UNL     1       2.898  -0.431   2.856  1.00  0.00     0.046 A 
HETATM   14  C9  UNL     1       4.017  -1.135   2.463  1.00  0.00     0.138 A 
HETATM   15  F1  UNL     1       4.899  -1.612   3.386  1.00  0.00    -0.204 F 
HETATM   16  C10 UNL     1       4.205  -1.339   1.095  1.00  0.00     0.074 A 
HETATM   17 CL1  UNL     1       5.633  -2.236   0.662  1.00  0.00    -0.081 Cl
HETATM   18  C11 UNL     1       3.262  -0.824   0.233  1.00  0.00     0.056 A 
ENDBRANCH   3  11
BRANCH   1  19
HETATM   19  N1  UNL     1      -1.608  -1.966  -0.526  1.00  0.00     0.096 N 
HETATM   20  C3  UNL     1      -0.953  -2.963  -1.332  1.00  0.00     0.310 C 
BRANCH  19  21
HETATM   21  C2  UNL     1      -2.621  -1.328  -1.288  1.00  0.00     0.268 C 
HETATM   22  C1  UNL     1      -3.712  -2.383  -1.515  1.00  0.00     0.037 C 
ENDBRANCH  19  21
ENDBRANCH   1  19
BRANCH   5  23
HETATM   23  N3  UNL     1       1.722   3.462  -2.234  1.00  0.00    -0.400 N 
HETATM   24  H17 UNL     1       2.148   4.045  -2.989  1.00  0.00     0.156 HD
HETATM   25  H18 UNL     1       1.755   4.514  -2.252  1.00  0.00     0.156 HD
ENDBRANCH   5  23
BRANCH  10  26
HETATM   26  O1  UNL     1      -2.281  -0.481   1.722  1.00  0.00    -0.257 OA
BRANCH  26  27
HETATM   27  C18 UNL     1      -3.019   0.325   2.602  1.00  0.00     0.529 C 
HETATM   28  F2  UNL     1      -3.935  -0.405   3.336  1.00  0.00    -0.144 F 
HETATM   29  F3  UNL     1      -3.699   1.333   1.968  1.00  0.00    -0.144 F 
HETATM   30  F4  UNL     1      -2.116   0.932   3.466  1.00  0.00    -0.144 F 
ENDBRANCH  26  27
ENDBRANCH  10  26
TORSDOF 6
