REMARK  8 active torsions:
REMARK  status: ('A' for Active; 'I' for Inactive)
REMARK       I    between atoms: N1_1  and  C1_2 
REMARK    1  A    between atoms: C1_2  and  C2_4 
REMARK    2  A    between atoms: C2_4  and  C3_5 
REMARK    3  A    between atoms: N2_9  and  C7_10 
REMARK    4  A    between atoms: C7_10  and  C8_11 
REMARK    5  A    between atoms: C8_11  and  C20_28 
REMARK    6  A    between atoms: C9_12  and  C10_13 
REMARK    7  A    between atoms: C13_18  and  N5_19 
REMARK    8  A    between atoms: N5_19  and  C14_20 
ROOT
HETATM    1  C8  UNL     1      -0.386  -1.647   0.506  1.00  0.00     0.004 C 
HETATM    2  C9  UNL     1       0.832  -1.246   0.850  1.00  0.00     0.028 C 
ENDROOT
BRANCH   1   3
HETATM    3  C7  UNL     1      -1.564  -0.807   0.724  1.00  0.00     0.314 C 
BRANCH   3   4
HETATM    4  N2  UNL     1      -2.283  -0.476  -0.455  1.00  0.00     0.097 N 
HETATM    5  C3  UNL     1      -3.094   0.691  -0.412  1.00  0.00     0.232 C 
HETATM    6  C4  UNL     1      -4.023   0.573  -1.600  1.00  0.00     0.038 C 
HETATM    7  C5  UNL     1      -4.232  -0.902  -1.724  1.00  0.00     0.032 C 
HETATM    8  C6  UNL     1      -2.994  -1.515  -1.109  1.00  0.00     0.273 C 
BRANCH   5   9
HETATM    9  C2  UNL     1      -3.933   0.809   0.830  1.00  0.00     0.138 C 
BRANCH   9  10
HETATM   10  C1  UNL     1      -4.802   2.012   0.748  1.00  0.00     0.217 C 
HETATM   11  N1  UNL     1      -5.104   3.097  -0.147  1.00  0.00    -0.370 N 
HETATM   12  H1  UNL     1      -4.187   3.624  -0.238  1.00  0.00     0.159 HD
HETATM   13  H2  UNL     1      -6.091   3.175  -0.521  1.00  0.00     0.159 HD
HETATM   14  O1  UNL     1      -5.517   2.154   1.784  1.00  0.00    -0.274 OA
ENDBRANCH   9  10
ENDBRANCH   5   9
ENDBRANCH   3   4
ENDBRANCH   1   3
BRANCH   1  15
HETATM   15  C20 UNL     1      -0.447  -2.997  -0.087  1.00  0.00     0.075 A 
HETATM   16  C21 UNL     1       0.632  -3.775  -0.278  1.00  0.00     0.037 A 
HETATM   17  C22 UNL     1      -0.216  -4.857  -0.863  1.00  0.00     0.206 A 
HETATM   18  O2  UNL     1      -1.256  -3.971  -0.617  1.00  0.00    -0.347 OA
ENDBRANCH   1  15
BRANCH   2  19
HETATM   19  C10 UNL     1       1.466  -0.115   1.448  1.00  0.00     0.028 A 
HETATM   20  C11 UNL     1       0.846   0.350   2.608  1.00  0.00     0.133 A 
HETATM   21  N3  UNL     1       1.324   1.430   3.294  1.00  0.00    -0.253 NA
HETATM   22  C12 UNL     1       2.438   2.075   2.842  1.00  0.00     0.234 A 
HETATM   23  N4  UNL     1       3.042   1.629   1.720  1.00  0.00    -0.224 NA
HETATM   24  C13 UNL     1       2.566   0.569   1.051  1.00  0.00     0.141 A 
BRANCH  24  25
HETATM   25  N5  UNL     1       3.201   0.121  -0.135  1.00  0.00    -0.338 N 
HETATM   26  H17 UNL     1       2.881  -0.666  -0.725  1.00  0.00     0.167 HD
BRANCH  25  27
HETATM   27  C14 UNL     1       4.381   0.757  -0.612  1.00  0.00     0.074 A 
HETATM   28  C15 UNL     1       5.576   0.093  -0.799  1.00  0.00     0.033 A 
HETATM   29  C16 UNL     1       6.728   0.710  -1.257  1.00  0.00     0.004 A 
HETATM   30  C17 UNL     1       6.684   2.069  -1.545  1.00  0.00     0.027 A 
HETATM   31  C18 UNL     1       5.486   2.741  -1.359  1.00  0.00     0.074 A 
HETATM   32 CL1  UNL     1       5.491   4.470  -1.741  1.00  0.00    -0.081 Cl
HETATM   33  C19 UNL     1       4.340   2.121  -0.902  1.00  0.00     0.164 A 
HETATM   34  F1  UNL     1       3.210   2.883  -0.752  1.00  0.00    -0.202 F 
ENDBRANCH  25  27
ENDBRANCH  24  25
ENDBRANCH   2  19
TORSDOF 8
