REMARK  4 active torsions:
REMARK  status: ('A' for Active; 'I' for Inactive)
REMARK    1  A    between atoms: C3_4  and  N1_5 
REMARK       I    between atoms: N1_5  and  C4_6 
REMARK    2  A    between atoms: C4_6  and  C5_8 
REMARK    3  A    between atoms: C9_12  and  N2_13 
REMARK    4  A    between atoms: N2_13  and  C10_14 
ROOT
HETATM    1  C1  UNL     1       4.086  -1.774  -1.178  1.00  0.00     0.010 A 
HETATM    2  S1  UNL     1       2.877  -1.874  -0.404  1.00  0.00    -0.214 SA
HETATM    3  C2  UNL     1       2.587  -1.892  -0.224  1.00  0.00     0.167 A 
HETATM    4  C3  UNL     1       2.272  -0.306  -0.162  1.00  0.00     0.052 A 
HETATM    5  C7  UNL     1       0.716  -0.079  -0.015  1.00  0.00     0.018 C 
HETATM    6  C8  UNL     1       0.251  -1.286   0.027  1.00  0.00    -0.003 C 
HETATM    7  C9  UNL     1      -1.056  -1.984   0.105  1.00  0.00     0.063 C 
HETATM    8  C16 UNL     1      -1.257  -3.253   0.332  1.00  0.00     0.089 C 
HETATM    9  C17 UNL     1      -2.564  -3.758   0.358  1.00  0.00     0.103 C 
HETATM   10  N3  UNL     1      -3.641  -4.159   0.385  1.00  0.00    -0.191 NA
HETATM   11  C18 UNL     1      -0.045  -3.951   0.648  1.00  0.00     0.136 C 
HETATM   12  N4  UNL     1       1.112  -3.477   0.736  1.00  0.00    -0.286 NA
HETATM   13  C19 UNL     1       1.413  -2.045   0.525  1.00  0.00     0.150 A 
HETATM   14  H2  UNL     1       0.517  -2.021   1.156  1.00  0.00     0.127 HD
ENDROOT
BRANCH   7  15
HETATM   15  N2  UNL     1      -2.084  -1.063  -0.124  1.00  0.00    -0.354 N 
HETATM   16  H9  UNL     1      -3.039  -1.445   0.031  1.00  0.00     0.166 HD
BRANCH  15  17
HETATM   17  C10 UNL     1      -2.569   0.207  -0.474  1.00  0.00     0.033 A 
HETATM   18  C11 UNL     1      -2.688   0.381  -1.863  1.00  0.00     0.029 A 
HETATM   19  C12 UNL     1      -3.153   1.586  -2.405  1.00  0.00     0.004 A 
HETATM   20  C13 UNL     1      -3.469   2.545  -1.469  1.00  0.00     0.019 A 
HETATM   21  C14 UNL     1      -3.376   2.437  -0.096  1.00  0.00     0.013 A 
HETATM   22 BR1  UNL     1      -3.847   3.847   1.097  1.00  0.00    -0.051 Br
HETATM   23  C15 UNL     1      -2.915   1.237   0.390  1.00  0.00     0.048 A 
ENDBRANCH  15  17
ENDBRANCH   7  15
BRANCH   4  24
HETATM   24  N1  UNL     1       2.340   1.290  -0.328  1.00  0.00    -0.344 N 
HETATM   25  C4  UNL     1       2.474   2.031   0.900  1.00  0.00     0.241 C 
HETATM   26  O1  UNL     1       2.487   1.190   1.826  1.00  0.00    -0.269 OA
HETATM   27  H4  UNL     1       2.287   1.770  -1.278  1.00  0.00     0.164 HD
BRANCH  25  28
HETATM   28  C5  UNL     1       2.552   3.442   0.699  1.00  0.00     0.064 C 
HETATM   29  C6  UNL     1       2.672   3.871   1.934  1.00  0.00     0.017 C 
ENDBRANCH  25  28
ENDBRANCH   4  24
TORSDOF 4
