REMARK  3 active torsions:
REMARK  status: ('A' for Active; 'I' for Inactive)
REMARK       I    between atoms: C2_2  and  N1_4 
REMARK    1  A    between atoms: N1_4  and  C3_5 
REMARK    2  A    between atoms: C10_14  and  N4_15 
REMARK    3  A    between atoms: N4_15  and  C11_16 
ROOT
HETATM    1  C3  UNL     1       2.355  -0.539   0.279  1.00  0.00     0.035 A 
HETATM    2  C4  UNL     1       2.866  -1.779   0.669  1.00  0.00     0.032 A 
HETATM    3  C5  UNL     1       2.044  -2.906   0.639  1.00  0.00     0.035 A 
HETATM    4  C6  UNL     1       0.730  -2.813   0.230  1.00  0.00     0.069 A 
HETATM    5  N2  UNL     1      -0.076  -3.893   0.196  1.00  0.00    -0.259 NA
HETATM    6  C7  UNL     1      -1.361  -3.817  -0.202  1.00  0.00     0.142 A 
HETATM    7  C8  UNL     1      -1.901  -2.607  -0.595  1.00  0.00     0.089 A 
HETATM    8  C9  UNL     1      -3.276  -2.484  -1.028  1.00  0.00     0.103 C 
HETATM    9  N3  UNL     1      -4.382  -2.378  -1.375  1.00  0.00    -0.191 NA
HETATM   10  C10 UNL     1      -1.121  -1.473  -0.579  1.00  0.00     0.067 A 
HETATM   11  C17 UNL     1       0.182  -1.600  -0.166  1.00  0.00     0.023 A 
HETATM   12  C18 UNL     1       1.032  -0.513  -0.121  1.00  0.00     0.045 A 
ENDROOT
BRANCH  10  13
HETATM   13  N4  UNL     1      -1.575  -0.204  -0.957  1.00  0.00    -0.354 N 
HETATM   14  H8  UNL     1      -1.355  -0.200  -1.977  1.00  0.00     0.166 HD
BRANCH  13  15
HETATM   15  C11 UNL     1      -2.185   0.920  -0.335  1.00  0.00     0.033 A 
HETATM   16  C12 UNL     1      -2.488   2.029  -1.100  1.00  0.00     0.029 A 
HETATM   17  C13 UNL     1      -3.074   3.053  -0.395  1.00  0.00     0.004 A 
HETATM   18  C14 UNL     1      -3.368   3.054   0.954  1.00  0.00     0.019 A 
HETATM   19  C15 UNL     1      -3.051   1.934   1.673  1.00  0.00     0.013 A 
HETATM   20 BR1  UNL     1      -3.375   1.748   3.526  1.00  0.00    -0.051 Br
HETATM   21  C16 UNL     1      -2.457   0.867   1.017  1.00  0.00     0.048 A 
ENDBRANCH  13  15
ENDBRANCH  10  13
BRANCH   1  22
HETATM   22  N1  UNL     1       3.088   0.676   0.265  1.00  0.00    -0.327 N 
HETATM   23  C2  UNL     1       3.806   1.075  -0.895  1.00  0.00     0.218 C 
HETATM   24  C1  UNL     1       4.561   2.357  -0.866  1.00  0.00     0.117 C 
HETATM   25  O1  UNL     1       3.782   0.328  -1.921  1.00  0.00    -0.274 OA
HETATM   26  H4  UNL     1       3.067   1.244   1.140  1.00  0.00     0.169 HD
ENDBRANCH   1  22
TORSDOF 3
