REMARK  6 active torsions:
REMARK  status: ('A' for Active; 'I' for Inactive)
REMARK    1  A    between atoms: N1_1  and  C1_2 
REMARK    2  A    between atoms: C6_8  and  N3_9 
REMARK    3  A    between atoms: N3_9  and  C7_10 
REMARK    4  A    between atoms: C7_10  and  C8_11 
REMARK    5  A    between atoms: C11_15  and  N4_16 
REMARK    6  A    between atoms: N4_16  and  C12_17 
ROOT
HETATM    1  C1  UNL     1      -1.777  -2.398  -0.224  1.00  0.00     0.071 A 
HETATM    2  C2  UNL     1      -1.224  -3.495   0.434  1.00  0.00     0.148 A 
HETATM    3  N2  UNL     1       0.082  -3.429   0.779  1.00  0.00    -0.258 NA
HETATM    4  C3  UNL     1       0.845  -2.352   0.509  1.00  0.00     0.069 A 
HETATM    5  C4  UNL     1       2.186  -2.312   0.875  1.00  0.00     0.035 A 
HETATM    6  C5  UNL     1       2.938  -1.179   0.576  1.00  0.00     0.031 A 
HETATM    7  C6  UNL     1       2.397  -0.090  -0.074  1.00  0.00     0.029 A 
HETATM    8  C9  UNL     1       1.053  -0.104  -0.454  1.00  0.00     0.045 A 
HETATM    9  C10 UNL     1       0.335  -1.246  -0.141  1.00  0.00     0.024 A 
HETATM   10  C11 UNL     1      -0.996  -1.292  -0.502  1.00  0.00     0.073 A 
ENDROOT
BRANCH  10  11
HETATM   11  N4  UNL     1      -1.680  -0.249  -1.173  1.00  0.00    -0.354 N 
HETATM   12  H11 UNL     1      -1.708  -0.219  -2.200  1.00  0.00     0.166 HD
BRANCH  11  13
HETATM   13  C12 UNL     1      -2.332   0.763  -0.444  1.00  0.00     0.033 A 
HETATM   14  C13 UNL     1      -2.310   0.748   0.938  1.00  0.00     0.029 A 
HETATM   15  C14 UNL     1      -2.952   1.745   1.659  1.00  0.00     0.004 A 
HETATM   16  C15 UNL     1      -3.626   2.773   1.041  1.00  0.00     0.019 A 
HETATM   17  C16 UNL     1      -3.649   2.790  -0.340  1.00  0.00     0.013 A 
HETATM   18 BR1  UNL     1      -4.579   4.210  -1.212  1.00  0.00    -0.051 Br
HETATM   19  C17 UNL     1      -3.006   1.792  -1.050  1.00  0.00     0.048 A 
ENDBRANCH  11  13
ENDBRANCH  10  11
BRANCH   1  20
HETATM   20  N1  UNL     1      -3.145  -2.530  -0.556  1.00  0.00    -0.396 N 
HETATM   21  H1  UNL     1      -3.787  -2.450  -1.367  1.00  0.00     0.156 HD
HETATM   22  H2  UNL     1      -3.912  -2.791   0.112  1.00  0.00     0.156 HD
ENDBRANCH   1  20
BRANCH   7  23
HETATM   23  N3  UNL     1       3.222   1.036  -0.349  1.00  0.00    -0.384 N 
HETATM   24  H6  UNL     1       2.861   1.877  -0.835  1.00  0.00     0.160 HD
BRANCH  23  25
HETATM   25  C7  UNL     1       4.607   0.958   0.084  1.00  0.00     0.189 C 
BRANCH  25  26
HETATM   26  C8  UNL     1       5.372   2.193  -0.258  1.00  0.00     0.250 C 
HETATM   27  O1  UNL     1       5.084   3.231  -0.812  1.00  0.00    -0.305 OA
ENDBRANCH  25  26
ENDBRANCH  23  25
ENDBRANCH   7  23
TORSDOF 6
