REMARK  5 active torsions:
REMARK  status: ('A' for Active; 'I' for Inactive)
REMARK    1  A    between atoms: C2_2  and  C3_3 
REMARK    2  A    between atoms: C3_3  and  N1_4 
REMARK    3  A    between atoms: N1_4  and  C4_5 
REMARK    4  A    between atoms: C11_14  and  N4_15 
REMARK    5  A    between atoms: C14_18  and  O1_19 
ROOT
HETATM    1  C4  UNL     1       2.072   0.472  -0.733  1.00  0.00     0.029 A 
HETATM    2  C5  UNL     1       2.534   1.013  -1.918  1.00  0.00     0.031 A 
HETATM    3  C6  UNL     1       1.661   1.387  -2.935  1.00  0.00     0.035 A 
HETATM    4  C7  UNL     1       0.296   1.219  -2.768  1.00  0.00     0.069 A 
HETATM    5  N2  UNL     1      -0.540   1.579  -3.744  1.00  0.00    -0.259 NA
HETATM    6  C8  UNL     1      -1.874   1.413  -3.576  1.00  0.00     0.142 A 
HETATM    7  C9  UNL     1      -2.371   0.876  -2.404  1.00  0.00     0.089 A 
HETATM    8  C10 UNL     1      -3.793   0.679  -2.178  1.00  0.00     0.103 C 
HETATM    9  N3  UNL     1      -4.934   0.523  -2.015  1.00  0.00    -0.191 NA
HETATM   10  C11 UNL     1      -1.551   0.492  -1.375  1.00  0.00     0.069 A 
HETATM   11  C17 UNL     1      -0.190   0.674  -1.576  1.00  0.00     0.023 A 
HETATM   12  C18 UNL     1       0.707   0.315  -0.591  1.00  0.00     0.045 A 
ENDROOT
BRANCH  10  13
HETATM   13  N4  UNL     1      -1.970  -0.068  -0.136  1.00  0.00    -0.351 N 
HETATM   14  C12 UNL     1      -2.238   0.854   0.917  1.00  0.00     0.094 A 
HETATM   15  C13 UNL     1      -2.629   0.306   2.070  1.00  0.00     0.053 A 
HETATM   16  C14 UNL     1      -2.781  -1.132   2.270  1.00  0.00     0.064 A 
HETATM   17  C15 UNL     1      -2.522  -1.973   1.265  1.00  0.00     0.029 A 
HETATM   18  C16 UNL     1      -2.079  -1.522  -0.073  1.00  0.00     0.158 A 
BRANCH  16  19
HETATM   19  O1  UNL     1      -3.193  -1.586   3.511  1.00  0.00    -0.361 OA
HETATM   20  H12 UNL     1      -2.822  -1.174   4.347  1.00  0.00     0.217 HD
ENDBRANCH  16  19
ENDBRANCH  10  13
BRANCH   1  21
HETATM   21  N1  UNL     1       2.967   0.082   0.325  1.00  0.00    -0.390 N 
HETATM   22  H6  UNL     1       3.986   0.226   0.156  1.00  0.00     0.159 HD
BRANCH  21  23
HETATM   23  C3  UNL     1       2.402  -0.480   1.542  1.00  0.00     0.124 C 
BRANCH  23  24
HETATM   24  C2  UNL     1       3.553  -0.780   2.432  1.00  0.00     0.009 C 
HETATM   25  C1  UNL     1       4.878  -0.712   2.491  1.00  0.00     0.007 C 
ENDBRANCH  23  24
ENDBRANCH  21  23
ENDBRANCH   1  21
TORSDOF 5
