REMARK  4 active torsions:
REMARK  status: ('A' for Active; 'I' for Inactive)
REMARK    1  A    between atoms: C2_2  and  N1_3 
REMARK    2  A    between atoms: N1_3  and  C3_4 
REMARK    3  A    between atoms: C6_7  and  N2_8 
REMARK    4  A    between atoms: N2_8  and  C7_9 
ROOT
HETATM    1  C3  UNL     1       1.790  -0.034  -0.467  1.00  0.00     0.021 A 
HETATM    2  C4  UNL     1       0.614  -0.333   0.156  1.00  0.00     0.042 A 
HETATM    3  C5  UNL     1       0.499  -0.097   1.504  1.00  0.00     0.022 A 
HETATM    4  C6  UNL     1      -0.726  -0.432   2.032  1.00  0.00     0.067 A 
HETATM    5  C13 UNL     1      -0.887  -0.211   3.381  1.00  0.00     0.089 A 
HETATM    6  C14 UNL     1      -2.149  -0.541   4.005  1.00  0.00     0.103 C 
HETATM    7  N3  UNL     1      -3.173  -0.788   4.509  1.00  0.00    -0.191 NA
HETATM    8  C15 UNL     1       0.182   0.321   4.073  1.00  0.00     0.142 A 
HETATM    9  N4  UNL     1       1.343   0.619   3.476  1.00  0.00    -0.259 NA
HETATM   10  C16 UNL     1       1.574   0.432   2.170  1.00  0.00     0.066 A 
HETATM   11  C17 UNL     1       2.789   0.759   1.612  1.00  0.00     0.025 A 
HETATM   12  C18 UNL     1       2.887   0.510   0.233  1.00  0.00     0.058 A 
HETATM   13  O1  UNL     1       4.156   0.879  -0.219  1.00  0.00     0.000 OA
HETATM   14  C19 UNL     1       4.361   2.158  -0.731  1.00  0.00     0.000 A 
HETATM   15  O2  UNL     1       3.159   1.949  -0.353  1.00  0.00     0.000 OA
ENDROOT
BRANCH   4  16
HETATM   16  N2  UNL     1      -1.775  -0.977   1.269  1.00  0.00    -0.354 N 
HETATM   17  H8  UNL     1      -1.585  -1.999   1.412  1.00  0.00     0.166 HD
BRANCH  16  18
HETATM   18  C7  UNL     1      -2.828  -0.462   0.498  1.00  0.00     0.033 A 
HETATM   19  C8  UNL     1      -3.686  -1.378  -0.076  1.00  0.00     0.029 A 
HETATM   20  C9  UNL     1      -4.722  -0.898  -0.840  1.00  0.00     0.004 A 
HETATM   21  C10 UNL     1      -4.898   0.474  -1.028  1.00  0.00     0.019 A 
HETATM   22  C11 UNL     1      -4.004   1.324  -0.424  1.00  0.00     0.013 A 
HETATM   23 BR1  UNL     1      -4.320   3.185  -0.735  1.00  0.00    -0.051 Br
HETATM   24  C12 UNL     1      -2.945   0.894   0.354  1.00  0.00     0.048 A 
ENDBRANCH  16  18
ENDBRANCH   4  16
BRANCH   1  25
HETATM   25  N1  UNL     1       2.279  -0.127  -1.792  1.00  0.00    -0.393 N 
HETATM   26  H6  UNL     1       1.367  -0.545  -2.178  1.00  0.00     0.159 HD
BRANCH  25  27
HETATM   27  C2  UNL     1       2.726  -0.234  -3.107  1.00  0.00     0.115 C 
HETATM   28  C1  UNL     1       2.718  -1.615  -3.738  1.00  0.00     0.026 C 
ENDBRANCH  25  27
ENDBRANCH   1  25
TORSDOF 4
