REMARK  5 active torsions:
REMARK  status: ('A' for Active; 'I' for Inactive)
REMARK    1  A    between atoms: C2_2  and  N1_3 
REMARK    2  A    between atoms: N1_3  and  O1_4 
REMARK    3  A    between atoms: N1_3  and  C4_6 
REMARK    4  A    between atoms: C6_8  and  N2_9 
REMARK    5  A    between atoms: N2_9  and  C7_10 
ROOT
HETATM    1  C4  UNL     1      -1.325   0.529  -0.894  1.00  0.00     0.058 A 
HETATM    2  C5  UNL     1      -0.756   1.475  -0.164  1.00  0.00     0.046 A 
HETATM    3  C6  UNL     1      -0.030   1.257   0.987  1.00  0.00     0.069 A 
HETATM    4  C13 UNL     1       0.488   2.398   1.609  1.00  0.00     0.089 A 
HETATM    5  C14 UNL     1       1.255   2.208   2.819  1.00  0.00     0.103 C 
HETATM    6  N3  UNL     1       1.882   2.059   3.774  1.00  0.00    -0.191 NA
HETATM    7  C15 UNL     1       0.286   3.668   1.103  1.00  0.00     0.142 A 
HETATM    8  N4  UNL     1      -0.438   3.796  -0.032  1.00  0.00    -0.259 NA
HETATM    9  C16 UNL     1      -0.964   2.720  -0.675  1.00  0.00     0.067 A 
HETATM   10  C17 UNL     1      -1.679   2.698  -1.772  1.00  0.00     0.012 A 
HETATM   11  C18 UNL     1      -1.988   1.250  -2.026  1.00  0.00     0.090 A 
ENDROOT
BRANCH   3  12
HETATM   12  N2  UNL     1       0.200  -0.037   1.539  1.00  0.00    -0.354 N 
HETATM   13  H7  UNL     1      -0.427  -0.504   2.238  1.00  0.00     0.166 HD
BRANCH  12  14
HETATM   14  C7  UNL     1       1.356  -0.772   1.129  1.00  0.00     0.033 A 
HETATM   15  C8  UNL     1       1.656  -2.023   1.607  1.00  0.00     0.029 A 
HETATM   16  C9  UNL     1       2.789  -2.673   1.167  1.00  0.00     0.004 A 
HETATM   17  C10 UNL     1       3.664  -2.138   0.256  1.00  0.00     0.019 A 
HETATM   18  C11 UNL     1       3.381  -0.875  -0.241  1.00  0.00     0.013 A 
HETATM   19 BR1  UNL     1       4.518  -0.025  -1.511  1.00  0.00    -0.051 Br
HETATM   20  C12 UNL     1       2.241  -0.233   0.209  1.00  0.00     0.048 A 
ENDBRANCH  12  14
ENDBRANCH   3  12
BRANCH   1  21
HETATM   21  N1  UNL     1      -1.426  -0.857  -0.837  1.00  0.00    -0.238 N 
BRANCH  21  22
HETATM   22  C2  UNL     1      -0.693  -1.927  -1.325  1.00  0.00     0.113 C 
HETATM   23  C1  UNL     1      -0.835  -2.205  -2.632  1.00  0.00     0.032 C 
ENDBRANCH  21  22
BRANCH  21  24
HETATM   24  O1  UNL     1      -2.380  -1.633  -0.218  1.00  0.00    -0.279 OA
HETATM   25  C3  UNL     1      -3.173  -0.865   0.645  1.00  0.00     0.238 C 
ENDBRANCH  21  24
ENDBRANCH   1  21
TORSDOF 5
