REMARK  1 active torsions:
REMARK  status: ('A' for Active; 'I' for Inactive)
REMARK    1  A    between atoms: C3_4  and  N2_5 
ROOT
HETATM    1  N1  UNL     1      -2.677  -0.362  -3.293  1.00  0.00    -0.191 NA
HETATM    2  C1  UNL     1      -1.850  -0.091  -2.533  1.00  0.00     0.104 C 
HETATM    3  C2  UNL     1      -0.818   0.263  -1.608  1.00  0.00     0.098 C 
HETATM    4  C3  UNL     1      -0.842  -0.467  -0.513  1.00  0.00     0.115 C 
HETATM    5  C9  UNL     1       0.020  -0.357   0.548  1.00  0.00    -0.046 C 
HETATM    6  C10 UNL     1       0.751  -0.254   1.420  1.00  0.00    -0.090 C 
HETATM    7  C11 UNL     1       1.649  -0.112   2.467  1.00  0.00     0.118 C 
HETATM    8  C12 UNL     1       2.633   0.761   2.514  1.00  0.00     0.202 A 
HETATM    9  C13 UNL     1       3.295   1.835   1.799  1.00  0.00     0.216 A 
HETATM   10  O1  UNL     1       2.305   1.353   1.143  1.00  0.00    -0.342 OA
HETATM   11  N3  UNL     1       3.323   2.627   0.621  1.00  0.00    -0.360 N 
HETATM   12  C14 UNL     1       2.943   3.110  -0.658  1.00  0.00     0.105 C 
HETATM   13  C15 UNL     1       1.962   2.714  -1.435  1.00  0.00     0.133 C 
HETATM   14  N4  UNL     1       1.051   1.682  -1.137  1.00  0.00    -0.270 NA
HETATM   15  C16 UNL     1       0.112   1.329  -1.932  1.00  0.00     0.142 C 
HETATM   16  H6  UNL     1       4.131   3.026   1.150  1.00  0.00     0.162 HD
ENDROOT
BRANCH   4  17
HETATM   17  N2  UNL     1      -1.764  -1.493  -0.239  1.00  0.00    -0.322 N 
HETATM   18  C4  UNL     1      -1.563  -2.695  -0.994  1.00  0.00     0.109 C 
HETATM   19  C5  UNL     1      -2.239  -3.782  -0.747  1.00  0.00    -0.007 C 
HETATM   20  C6  UNL     1      -3.316  -3.707  -0.014  1.00  0.00     0.034 C 
HETATM   21  C7  UNL     1      -3.603  -2.538   0.798  1.00  0.00     0.027 C 
HETATM   22 BR1  UNL     1      -5.036  -2.446   2.048  1.00  0.00    -0.050 Br
HETATM   23  C8  UNL     1      -2.848  -1.454   0.692  1.00  0.00     0.116 C 
ENDBRANCH   4  17
TORSDOF 1
