REMARK  6 active torsions:
REMARK  status: ('A' for Active; 'I' for Inactive)
REMARK    1  A    between atoms: C2_2  and  C3_3 
REMARK    2  A    between atoms: C3_3  and  N1_4 
REMARK    3  A    between atoms: N1_4  and  C4_5 
REMARK    4  A    between atoms: C10_13  and  N4_14 
REMARK    5  A    between atoms: N4_14  and  C11_15 
REMARK    6  A    between atoms: C15_19  and  O1_20 
ROOT
HETATM    1  C4  UNL     1       1.570  -0.007   0.486  1.00  0.00     0.092 C 
HETATM    2  C5  UNL     1       1.070  -0.549  -0.638  1.00  0.00    -0.013 A 
HETATM    3  C6  UNL     1       1.957  -0.599  -1.788  1.00  0.00     0.030 A 
HETATM    4  C7  UNL     1       1.391  -1.143  -2.851  1.00  0.00     0.118 A 
HETATM    5  N2  UNL     1       0.059  -1.621  -2.846  1.00  0.00    -0.252 NA
HETATM    6  C8  UNL     1      -0.717  -1.568  -1.808  1.00  0.00     0.141 A 
HETATM    7  C9  UNL     1      -2.007  -2.128  -2.111  1.00  0.00     0.117 C 
HETATM    8  N3  UNL     1      -3.055  -2.578  -2.336  1.00  0.00    -0.190 NA
HETATM    9  C10 UNL     1      -0.342  -0.999  -0.452  1.00  0.00     0.179 A 
ENDROOT
BRANCH   9  10
HETATM   10  N4  UNL     1      -1.149   0.198  -0.327  1.00  0.00    -0.375 N 
HETATM   11  H11 UNL     1      -0.717   1.140  -0.556  1.00  0.00     0.160 HD
BRANCH  10  12
HETATM   12  C11 UNL     1      -2.506   0.384   0.070  1.00  0.00     0.031 A 
HETATM   13  C12 UNL     1      -3.184   1.610   0.092  1.00  0.00     0.029 A 
HETATM   14  C13 UNL     1      -4.489   1.640   0.521  1.00  0.00     0.005 A 
HETATM   15  C14 UNL     1      -5.205   0.544   0.941  1.00  0.00     0.036 A 
HETATM   16  C15 UNL     1      -4.553  -0.672   0.925  1.00  0.00     0.067 A 
HETATM   17  C16 UNL     1      -3.235  -0.726   0.496  1.00  0.00     0.065 A 
BRANCH  16  18
HETATM   18  O1  UNL     1      -5.290  -1.755   1.349  1.00  0.00    -0.361 OA
HETATM   19  H15 UNL     1      -6.121  -2.078   0.836  1.00  0.00     0.217 HD
ENDBRANCH  16  18
ENDBRANCH  10  12
ENDBRANCH   9  10
BRANCH   1  20
HETATM   20  N1  UNL     1       2.902   0.492   0.539  1.00  0.00    -0.395 N 
HETATM   21  H6  UNL     1       2.753   1.485   0.197  1.00  0.00     0.159 HD
BRANCH  20  22
HETATM   22  C3  UNL     1       4.279   0.122   0.878  1.00  0.00     0.145 C 
BRANCH  22  23
HETATM   23  C2  UNL     1       5.219   1.264   0.662  1.00  0.00    -0.018 C 
HETATM   24  C1  UNL     1       6.007   1.874   1.566  1.00  0.00     0.008 C 
ENDBRANCH  22  23
ENDBRANCH  20  22
ENDBRANCH   1  20
TORSDOF 6
