REMARK  6 active torsions:
REMARK  status: ('A' for Active; 'I' for Inactive)
REMARK    1  A    between atoms: O1_2  and  C2_3 
REMARK    2  A    between atoms: C2_3  and  C3_4 
REMARK    3  A    between atoms: C4_5  and  C5_6 
REMARK       I    between atoms: C5_6  and  N1_8 
REMARK    4  A    between atoms: N1_8  and  C6_9 
REMARK    5  A    between atoms: N4_19  and  C14_20 
REMARK    6  A    between atoms: C20_27  and  O3_28 
ROOT
HETATM    1  C6  UNL     1       0.739   0.208   0.409  1.00  0.00     0.048 A 
HETATM    2  C7  UNL     1      -0.308   0.844   0.962  1.00  0.00     0.030 A 
HETATM    3  C8  UNL     1      -1.676   0.548   0.586  1.00  0.00     0.034 A 
HETATM    4  C9  UNL     1      -1.959  -0.371  -0.326  1.00  0.00     0.068 A 
HETATM    5  C10 UNL     1      -0.835  -1.072  -0.936  1.00  0.00     0.096 A 
HETATM    6  N2  UNL     1      -1.065  -1.988  -1.841  1.00  0.00    -0.257 NA
HETATM    7  C11 UNL     1      -2.395  -2.319  -2.249  1.00  0.00     0.158 A 
HETATM    8  C12 UNL     1      -3.475  -1.736  -1.750  1.00  0.00     0.139 A 
HETATM    9  C13 UNL     1      -4.814  -2.073  -2.164  1.00  0.00     0.119 C 
HETATM   10  N3  UNL     1      -5.881  -2.357  -2.507  1.00  0.00    -0.190 NA
HETATM   11  N4  UNL     1      -3.274  -0.719  -0.748  1.00  0.00    -0.300 N 
HETATM   12  C20 UNL     1       0.613  -0.830  -0.608  1.00  0.00     0.224 A 
ENDROOT
BRANCH  11  13
HETATM   13  C14 UNL     1      -4.371  -0.040  -0.158  1.00  0.00     0.042 A 
HETATM   14  C15 UNL     1      -4.884   1.127  -0.692  1.00  0.00     0.030 A 
HETATM   15  C16 UNL     1      -5.952   1.707  -0.039  1.00  0.00     0.004 A 
HETATM   16  C17 UNL     1      -6.530   1.188   1.108  1.00  0.00     0.019 A 
HETATM   17  C18 UNL     1      -5.961   0.021   1.578  1.00  0.00     0.013 A 
HETATM   18 BR1  UNL     1      -6.705  -0.763   3.166  1.00  0.00    -0.051 Br
HETATM   19  C19 UNL     1      -4.888  -0.633   0.992  1.00  0.00     0.049 A 
ENDBRANCH  11  13
BRANCH  12  20
HETATM   20  O3  UNL     1       1.277  -0.620  -1.786  1.00  0.00    -0.378 OA
HETATM   21  C21 UNL     1       2.180  -1.621  -2.113  1.00  0.00     0.203 C 
ENDBRANCH  12  20
BRANCH   1  22
HETATM   22  N1  UNL     1       2.073   0.519   0.797  1.00  0.00    -0.317 N 
HETATM   23  C5  UNL     1       3.227   1.003   0.117  1.00  0.00     0.300 C 
HETATM   24  O2  UNL     1       3.265   1.274  -1.111  1.00  0.00    -0.258 OA
HETATM   25  H6  UNL     1       2.105   0.308   1.839  1.00  0.00     0.169 HD
BRANCH  23  26
HETATM   26  C4  UNL     1       4.411   1.184   0.911  1.00  0.00    -0.003 C 
HETATM   27  C3  UNL     1       5.409   1.319   1.583  1.00  0.00    -0.070 C 
BRANCH  27  28
HETATM   28  C2  UNL     1       6.636   1.464   2.389  1.00  0.00     0.261 C 
BRANCH  28  29
HETATM   29  O1  UNL     1       7.614   1.954   1.557  1.00  0.00    -0.384 OA
HETATM   30  C1  UNL     1       7.840   1.074   0.492  1.00  0.00     0.202 C 
ENDBRANCH  28  29
ENDBRANCH  27  28
ENDBRANCH  23  26
ENDBRANCH   1  22
TORSDOF 6
