REMARK  4 active torsions:
REMARK  status: ('A' for Active; 'I' for Inactive)
REMARK    1  A    between atoms: C2_2  and  C3_3 
REMARK       I    between atoms: C3_3  and  N1_5 
REMARK    2  A    between atoms: N1_5  and  C4_6 
REMARK    3  A    between atoms: C10_12  and  N2_13 
REMARK    4  A    between atoms: N2_13  and  C11_14 
ROOT
HETATM    1  C4  UNL     1       2.864  -0.263  -0.849  1.00  0.00     0.035 A 
HETATM    2  C5  UNL     1       3.379  -1.043  -1.857  1.00  0.00     0.032 A 
HETATM    3  C6  UNL     1       2.524  -1.943  -2.457  1.00  0.00     0.034 A 
HETATM    4  C7  UNL     1       1.210  -2.093  -2.101  1.00  0.00     0.068 A 
HETATM    5  C8  UNL     1       0.683  -1.321  -1.097  1.00  0.00     0.016 A 
HETATM    6  C9  UNL     1       1.523  -0.396  -0.465  1.00  0.00     0.043 A 
HETATM    7  C10 UNL     1      -0.669  -1.223  -0.462  1.00  0.00     0.237 A 
HETATM    8  N3  UNL     1      -1.481  -2.211  -1.190  1.00  0.00    -0.252 N 
HETATM    9  C18 UNL     1      -2.833  -2.474  -0.964  1.00  0.00     0.187 C 
HETATM   10  N4  UNL     1      -3.966  -2.681  -0.760  1.00  0.00    -0.172 NA
HETATM   11  C19 UNL     1      -0.940  -3.016  -2.232  1.00  0.00     0.223 A 
HETATM   12  N5  UNL     1       0.269  -2.986  -2.666  1.00  0.00    -0.243 NA
ENDROOT
BRANCH   7  13
HETATM   13  N2  UNL     1      -1.169   0.122  -0.618  1.00  0.00    -0.364 N 
HETATM   14  H9  UNL     1      -0.621   0.741  -1.292  1.00  0.00     0.162 HD
BRANCH  13  15
HETATM   15  C11 UNL     1      -2.259   0.857  -0.076  1.00  0.00     0.030 A 
HETATM   16  C12 UNL     1      -2.590   2.172  -0.425  1.00  0.00     0.029 A 
HETATM   17  C13 UNL     1      -3.660   2.753   0.207  1.00  0.00     0.003 A 
HETATM   18  C14 UNL     1      -4.438   2.138   1.163  1.00  0.00     0.007 A 
HETATM   19  C15 UNL     1      -4.120   0.839   1.516  1.00  0.00    -0.060 A 
HETATM   20  C16 UNL     1      -4.981   0.231   2.540  1.00  0.00     0.048 C 
HETATM   21  C17 UNL     1      -3.044   0.252   0.883  1.00  0.00     0.036 A 
ENDBRANCH  13  15
ENDBRANCH   7  13
BRANCH   1  22
HETATM   22  N1  UNL     1       3.776   0.651  -0.257  1.00  0.00    -0.324 N 
HETATM   23  C3  UNL     1       4.664   0.544   0.843  1.00  0.00     0.244 C 
HETATM   24  O1  UNL     1       4.863  -0.441   1.593  1.00  0.00    -0.268 OA
HETATM   25  H4  UNL     1       3.679   1.503  -0.817  1.00  0.00     0.169 HD
BRANCH  23  26
HETATM   26  C2  UNL     1       5.443   1.744   1.129  1.00  0.00     0.064 C 
HETATM   27  C1  UNL     1       6.283   1.679   2.150  1.00  0.00     0.017 C 
ENDBRANCH  23  26
ENDBRANCH   1  22
TORSDOF 4
