REMARK  6 active torsions:
REMARK  status: ('A' for Active; 'I' for Inactive)
REMARK    1  A    between atoms: C1_2  and  C2_4 
REMARK    2  A    between atoms: C2_4  and  C3_5 
REMARK    3  A    between atoms: N2_9  and  C7_10 
REMARK    4  A    between atoms: C9_12  and  C10_13 
REMARK    5  A    between atoms: C13_18  and  N5_19 
REMARK    6  A    between atoms: C19_27  and  C20_28 
ROOT
HETATM    1  C7  UNL     1      -1.499   1.391   0.751  1.00  0.00     0.308 C 
HETATM    2  C8  UNL     1      -0.844   0.183   1.079  1.00  0.00    -0.034 A 
HETATM    3  C9  UNL     1      -0.323  -0.780   1.342  1.00  0.00    -0.036 A 
HETATM    4  C20 UNL     1       0.566  -0.097   0.495  1.00  0.00     0.075 A 
ENDROOT
BRANCH   1   5
HETATM    5  N2  UNL     1      -2.653   1.184  -0.054  1.00  0.00     0.097 NA
HETATM    6  C3  UNL     1      -3.739   0.517   0.566  1.00  0.00     0.228 C 
HETATM    7  C4  UNL     1      -3.550  -0.924   0.050  1.00  0.00     0.037 C 
HETATM    8  C5  UNL     1      -2.700  -0.848  -1.183  1.00  0.00     0.032 C 
HETATM    9  C6  UNL     1      -2.403   0.615  -1.338  1.00  0.00     0.273 C 
BRANCH   6  10
HETATM   10  C2  UNL     1      -3.737   0.457   2.025  1.00  0.00     0.115 C 
BRANCH  10  11
HETATM   11  C1  UNL     1      -3.930   1.789   2.675  1.00  0.00     0.350 A 
HETATM   12  N1  UNL     1      -4.780   2.464   1.663  1.00  0.00     0.082 N 
HETATM   13  H1  UNL     1      -5.643   2.278   1.056  1.00  0.00     0.319 HD
HETATM   14  H2  UNL     1      -5.316   3.083   0.935  1.00  0.00     0.319 HD
HETATM   15  O1  UNL     1      -4.241   2.969   2.992  1.00  0.00    -0.153 OA
ENDBRANCH  10  11
ENDBRANCH   6  10
ENDBRANCH   1   5
BRANCH   3  16
HETATM   16  C10 UNL     1       0.180  -1.664   1.574  1.00  0.00    -0.004 A 
HETATM   17  C11 UNL     1       0.755  -2.631   1.817  1.00  0.00     0.182 A 
HETATM   18  N3  UNL     1       1.857  -2.987   1.465  1.00  0.00    -0.419 NA
HETATM   19  C19 UNL     1       1.289  -1.448   0.872  1.00  0.00     0.105 A 
HETATM   20  C12 UNL     1       2.952  -3.501   1.207  1.00  0.00     0.295 A 
HETATM   21  N4  UNL     1       3.416  -2.484   0.393  1.00  0.00    -0.216 NA
HETATM   22  C13 UNL     1       2.625  -1.391   0.168  1.00  0.00     0.124 A 
BRANCH  22  23
HETATM   23  N5  UNL     1       3.212  -0.359  -0.685  1.00  0.00    -0.346 N 
HETATM   24  C14 UNL     1       4.457   0.079  -0.048  1.00  0.00     0.155 C 
HETATM   25  C15 UNL     1       5.338   0.717  -1.051  1.00  0.00     0.030 C 
HETATM   26  C16 UNL     1       5.155   0.626  -2.393  1.00  0.00     0.094 C 
HETATM   27  F1  UNL     1       5.905   1.169  -3.372  1.00  0.00    -0.211 F 
HETATM   28  C17 UNL     1       3.971  -0.156  -2.919  1.00  0.00     0.111 C 
HETATM   29  C18 UNL     1       2.840   0.251  -1.936  1.00  0.00     0.189 C 
HETATM   30 CL1  UNL     1       3.066   2.032  -1.771  1.00  0.00    -0.102 Cl
ENDBRANCH  22  23
ENDBRANCH   3  16
TORSDOF 6
