REMARK  8 active torsions:
REMARK  status: ('A' for Active; 'I' for Inactive)
REMARK    1  A    between atoms: C2_2  and  N1_3 
REMARK    2  A    between atoms: C9_11  and  N3_12 
REMARK       I    between atoms: N3_12  and  C10_13 
REMARK    3  A    between atoms: C10_13  and  C11_15 
REMARK    4  A    between atoms: C11_15  and  C12_16 
REMARK    5  A    between atoms: C12_16  and  C13_17 
REMARK    6  A    between atoms: C13_17  and  O2_18 
REMARK    7  A    between atoms: C17_22  and  N4_23 
REMARK    8  A    between atoms: N4_23  and  C18_24 
ROOT
HETATM    1  N1  UNL     1      -3.215  -0.172  -0.990  1.00  0.00    -0.261 NA
HETATM    2  C3  UNL     1      -2.103   0.108  -1.624  1.00  0.00     0.067 C 
HETATM    3  C4  UNL     1      -2.082  -0.118  -3.087  1.00  0.00     0.028 C 
HETATM    4  C5  UNL     1      -1.075   0.035  -3.960  1.00  0.00    -0.023 C 
HETATM    5  C6  UNL     1       0.325   0.474  -3.744  1.00  0.00     0.052 C 
HETATM    6  C7  UNL     1       1.113  -0.417  -2.826  1.00  0.00     0.146 C 
HETATM    7  C8  UNL     1       2.396  -0.747  -3.442  1.00  0.00     0.070 C 
HETATM    8  N2  UNL     1       3.422  -1.016  -3.956  1.00  0.00    -0.197 NA
HETATM    9  C9  UNL     1       1.363   0.213  -1.507  1.00  0.00     0.030 C 
HETATM   10  C15 UNL     1       0.357   0.577  -0.731  1.00  0.00     0.041 C 
HETATM   11  C16 UNL     1      -1.098   0.605  -0.658  1.00  0.00     0.010 C 
HETATM   12  C17 UNL     1      -1.584   1.160   0.440  1.00  0.00     0.102 C 
ENDROOT
BRANCH   9  13
HETATM   13  N3  UNL     1       2.685   0.389  -1.131  1.00  0.00    -0.329 N 
HETATM   14  C10 UNL     1       3.403   0.880  -0.050  1.00  0.00     0.222 C 
HETATM   15  O1  UNL     1       2.745   1.312   0.923  1.00  0.00    -0.273 OA
HETATM   16  H9  UNL     1       3.346   0.062  -1.870  1.00  0.00     0.168 HD
BRANCH  14  17
HETATM   17  C11 UNL     1       4.858   0.928   0.037  1.00  0.00     0.105 C 
BRANCH  17  18
HETATM   18  C12 UNL     1       5.434   1.425   1.284  1.00  0.00     0.035 C 
BRANCH  18  19
HETATM   19  C13 UNL     1       5.131   0.789   2.588  1.00  0.00     0.167 C 
BRANCH  19  20
HETATM   20  O2  UNL     1       5.427  -0.478   2.836  1.00  0.00    -0.396 OA
HETATM   21  C14 UNL     1       4.871  -1.521   2.210  1.00  0.00     0.201 C 
ENDBRANCH  19  20
ENDBRANCH  18  19
ENDBRANCH  17  18
ENDBRANCH  14  17
ENDBRANCH   9  13
BRANCH  12  22
HETATM   22  N4  UNL     1      -2.976   1.267   0.667  1.00  0.00    -0.365 N 
HETATM   23  H21 UNL     1      -3.663   1.873   0.125  1.00  0.00     0.165 HD
BRANCH  22  24
HETATM   24  C18 UNL     1      -3.635   0.531   1.709  1.00  0.00     0.033 A 
HETATM   25  C19 UNL     1      -4.998   0.573   2.006  1.00  0.00     0.029 A 
HETATM   26  C20 UNL     1      -5.490  -0.191   3.042  1.00  0.00     0.004 A 
HETATM   27  C21 UNL     1      -4.694  -1.013   3.819  1.00  0.00     0.019 A 
HETATM   28  C22 UNL     1      -3.337  -1.070   3.542  1.00  0.00     0.013 A 
HETATM   29 BR1  UNL     1      -2.225  -2.193   4.598  1.00  0.00    -0.051 Br
HETATM   30  C23 UNL     1      -2.854  -0.303   2.506  1.00  0.00     0.048 A 
ENDBRANCH  22  24
ENDBRANCH  12  22
BRANCH   1  31
HETATM   31  C2  UNL     1      -4.285  -0.664  -1.778  1.00  0.00     0.107 C 
HETATM   32  C1  UNL     1      -5.464  -0.147  -2.087  1.00  0.00     0.032 C 
ENDBRANCH   1  31
TORSDOF 8
