REMARK  3 active torsions:
REMARK  status: ('A' for Active; 'I' for Inactive)
REMARK    1  A    between atoms: C10_12  and  C11_13 
REMARK    2  A    between atoms: C15_17  and  C16_18 
REMARK    3  A    between atoms: C16_18  and  C17_19 
REMARK       I    between atoms: C17_19  and  N3_20 
ROOT
HETATM    1  C1  UNL     1      -2.870   4.118  -1.297  1.00  0.00     0.051 C 
HETATM    2  C2  UNL     1      -2.896   2.600  -1.287  1.00  0.00    -0.025 C 
HETATM    3  C3  UNL     1      -3.948   1.825  -1.458  1.00  0.00    -0.011 C 
HETATM    4  C4  UNL     1      -4.664   0.513  -1.567  1.00  0.00     0.087 C 
HETATM    5  C5  UNL     1      -3.738  -0.643  -1.393  1.00  0.00     0.041 A 
HETATM    6  C6  UNL     1      -2.924  -0.610  -0.271  1.00  0.00     0.055 A 
HETATM    7  C7  UNL     1      -1.981  -1.658  -0.026  1.00  0.00     0.043 A 
HETATM    8  N1  UNL     1      -1.939  -2.642  -0.922  1.00  0.00    -0.246 NA
HETATM    9  C8  UNL     1      -2.731  -2.680  -2.015  1.00  0.00     0.233 A 
HETATM   10  N2  UNL     1      -3.629  -1.680  -2.249  1.00  0.00    -0.246 NA
HETATM   11  C9  UNL     1      -1.151  -1.452   1.193  1.00  0.00     0.095 C 
HETATM   12  C10 UNL     1      -0.272  -0.454   0.585  1.00  0.00     0.008 C 
HETATM   13  C18 UNL     1      -0.176   0.161  -0.859  1.00  0.00     0.151 C 
HETATM   14  N5  UNL     1      -0.393   1.541  -0.877  1.00  0.00    -0.287 N 
HETATM   15  C19 UNL     1      -1.524   2.153  -1.061  1.00  0.00     0.127 A 
HETATM   16 CL1  UNL     1      -0.096   3.142  -0.833  1.00  0.00    -0.046 Cl
ENDROOT
BRANCH  12  17
HETATM   17  C11 UNL     1       0.893   0.211   1.402  1.00  0.00     0.228 C 
HETATM   18  C12 UNL     1       0.810  -0.375   2.747  1.00  0.00     0.036 C 
HETATM   19  C13 UNL     1       2.067  -1.070   3.209  1.00  0.00     0.004 C 
HETATM   20  C14 UNL     1       3.304  -0.392   2.727  1.00  0.00     0.036 C 
HETATM   21  C15 UNL     1       3.290  -0.214   1.251  1.00  0.00     0.229 C 
HETATM   22  N4  UNL     1       2.049   0.069   0.631  1.00  0.00     0.093 N 
HETATM   23  H22 UNL     1       2.157   0.851  -0.072  1.00  0.00     0.316 HD
BRANCH  21  24
HETATM   24  C16 UNL     1       3.955  -1.359   0.514  1.00  0.00     0.138 C 
BRANCH  24  25
HETATM   25  C17 UNL     1       3.869  -1.043  -0.956  1.00  0.00     0.217 C 
HETATM   26  N3  UNL     1       4.504  -2.111  -1.697  1.00  0.00    -0.370 N 
HETATM   27  H20 UNL     1       5.517  -1.847  -1.878  1.00  0.00     0.159 HD
HETATM   28  H21 UNL     1       3.950  -2.975  -1.966  1.00  0.00     0.159 HD
HETATM   29  O1  UNL     1       3.493  -0.263  -1.866  1.00  0.00    -0.274 OA
ENDBRANCH  24  25
ENDBRANCH  21  24
ENDBRANCH  12  17
TORSDOF 3
