REMARK  2 active torsions:
REMARK  status: ('A' for Active; 'I' for Inactive)
REMARK    1  A    between atoms: C8_10  and  N3_11 
REMARK    2  A    between atoms: N3_11  and  C9_12 
ROOT
HETATM    1  C1  UNL     1      -5.370   1.201   0.299  1.00  0.00     0.045 C 
HETATM    2  C2  UNL     1      -3.943   0.754   0.106  1.00  0.00    -0.064 C 
HETATM    3  C3  UNL     1      -2.946   1.668   0.019  1.00  0.00     0.036 C 
HETATM    4  C4  UNL     1      -1.461   1.659  -0.178  1.00  0.00     0.065 A 
HETATM    5  N1  UNL     1      -1.357   2.403  -1.294  1.00  0.00    -0.259 NA
HETATM    6  C5  UNL     1      -0.218   2.701  -1.944  1.00  0.00     0.142 A 
HETATM    7  C6  UNL     1       0.941   2.191  -1.407  1.00  0.00     0.089 A 
HETATM    8  C7  UNL     1       2.188   2.479  -2.063  1.00  0.00     0.103 C 
HETATM    9  N2  UNL     1       3.197   2.707  -2.583  1.00  0.00    -0.191 NA
HETATM   10  C8  UNL     1       0.822   1.431  -0.264  1.00  0.00     0.064 A 
HETATM   11  C15 UNL     1      -0.339   1.123   0.405  1.00  0.00     0.003 A 
HETATM   12  C16 UNL     1      -0.089   0.300   1.587  1.00  0.00     0.088 C 
HETATM   13  C17 UNL     1      -0.040  -1.146   1.282  1.00  0.00     0.025 C 
HETATM   14  C18 UNL     1       0.530  -2.309   1.215  1.00  0.00     0.097 C 
HETATM   15 CL2  UNL     1       0.441  -3.995   0.810  1.00  0.00    -0.096 Cl
HETATM   16  C19 UNL     1      -1.342  -1.667   0.833  1.00  0.00     0.248 C 
HETATM   17  O1  UNL     1      -1.758  -2.822   0.549  1.00  0.00    -0.268 OA
HETATM   18  N4  UNL     1      -2.650  -1.196   0.526  1.00  0.00    -0.353 N 
HETATM   19  C20 UNL     1      -3.983  -0.730   0.211  1.00  0.00     0.156 C 
HETATM   20  H13 UNL     1      -2.197  -0.328   0.830  1.00  0.00     0.163 HD
ENDROOT
BRANCH  10  21
HETATM   21  N3  UNL     1       2.092   0.967   0.199  1.00  0.00    -0.354 N 
HETATM   22  H6  UNL     1       2.326   1.713   0.912  1.00  0.00     0.166 HD
BRANCH  21  23
HETATM   23  C9  UNL     1       2.973  -0.090  -0.034  1.00  0.00     0.034 A 
HETATM   24  C10 UNL     1       4.122  -0.221   0.721  1.00  0.00     0.032 A 
HETATM   25  C11 UNL     1       4.903  -1.298   0.385  1.00  0.00     0.046 A 
HETATM   26  C12 UNL     1       4.667  -2.235  -0.600  1.00  0.00     0.138 A 
HETATM   27  F1  UNL     1       5.543  -3.253  -0.814  1.00  0.00    -0.204 F 
HETATM   28  C13 UNL     1       3.509  -2.065  -1.330  1.00  0.00     0.074 A 
HETATM   29 CL1  UNL     1       3.183  -3.240  -2.588  1.00  0.00    -0.081 Cl
HETATM   30  C14 UNL     1       2.676  -1.006  -1.048  1.00  0.00     0.056 A 
ENDBRANCH  21  23
ENDBRANCH  10  21
TORSDOF 2
