REMARK  5 active torsions:
REMARK  status: ('A' for Active; 'I' for Inactive)
REMARK    1  A    between atoms: O1_2  and  C2_3 
REMARK    2  A    between atoms: C11_14  and  N3_15 
REMARK       I    between atoms: N3_15  and  C12_16 
REMARK    3  A    between atoms: C12_16  and  C13_18 
REMARK    4  A    between atoms: C14_19  and  C15_20 
REMARK    5  A    between atoms: C15_20  and  N4_21 
ROOT
HETATM    1  C2  UNL     1      -1.200  -0.846   1.983  1.00  0.00     0.097 A 
HETATM    2  C3  UNL     1      -2.463  -0.303   2.051  1.00  0.00     0.071 A 
HETATM    3  C4  UNL     1      -2.938   0.322   0.945  1.00  0.00     0.072 A 
HETATM    4  N1  UNL     1      -4.211   0.881   0.980  1.00  0.00    -0.248 NA
HETATM    5  C5  UNL     1      -4.608   1.491  -0.145  1.00  0.00     0.092 A 
HETATM    6  C6  UNL     1      -4.130   1.758  -1.364  1.00  0.00     0.099 A 
HETATM    7  C7  UNL     1      -4.638   2.544  -2.394  1.00  0.00     0.104 C 
HETATM    8  N2  UNL     1      -5.057   3.211  -3.235  1.00  0.00    -0.191 NA
HETATM    9  C8  UNL     1      -2.901   1.163  -1.313  1.00  0.00     0.064 A 
HETATM   10  C9  UNL     1      -2.291   0.491  -0.291  1.00  0.00     0.023 A 
HETATM   11  C10 UNL     1      -1.009  -0.072  -0.329  1.00  0.00     0.048 A 
HETATM   12  C11 UNL     1      -0.490  -0.720   0.783  1.00  0.00     0.069 A 
HETATM   13  N5  UNL     1      -2.150   0.932  -2.527  1.00  0.00    -0.384 N 
HETATM   14  C20 UNL     1      -3.322   0.201  -3.096  1.00  0.00     0.148 C 
HETATM   15  C21 UNL     1      -4.077  -0.488  -1.966  1.00  0.00     0.012 C 
HETATM   16  C22 UNL     1      -5.241  -0.560  -1.208  1.00  0.00     0.012 C 
HETATM   17 CL1  UNL     1      -5.674  -1.660   0.126  1.00  0.00    -0.089 Cl
HETATM   18  C23 UNL     1      -6.344   0.470  -1.448  1.00  0.00     0.095 C 
HETATM   19  C24 UNL     1      -6.131   1.516  -0.266  1.00  0.00     0.228 C 
HETATM   20  F1  UNL     1      -6.782   1.164   0.833  1.00  0.00    -0.242 F 
HETATM   21  H19 UNL     1      -1.227   1.337  -2.469  1.00  0.00     0.160 HD
ENDROOT
BRANCH  12  22
HETATM   22  N3  UNL     1       0.820  -1.240   0.586  1.00  0.00    -0.321 N 
HETATM   23  C12 UNL     1       1.451  -2.422   0.169  1.00  0.00     0.245 C 
HETATM   24  O2  UNL     1       0.614  -3.283  -0.109  1.00  0.00    -0.268 OA
HETATM   25  H6  UNL     1       1.328  -0.380   0.885  1.00  0.00     0.169 HD
BRANCH  23  26
HETATM   26  C13 UNL     1       2.900  -2.550   0.094  1.00  0.00     0.072 C 
HETATM   27  C14 UNL     1       3.893  -1.717   0.343  1.00  0.00     0.008 C 
BRANCH  27  28
HETATM   28  C15 UNL     1       4.413  -0.416   0.754  1.00  0.00     0.300 C 
BRANCH  28  29
HETATM   29  N4  UNL     1       5.221   0.264  -0.210  1.00  0.00     0.091 N 
HETATM   30  C16 UNL     1       6.489  -0.307  -0.437  1.00  0.00     0.273 C 
HETATM   31  C17 UNL     1       7.371   0.450   0.554  1.00  0.00     0.032 C 
HETATM   32  C18 UNL     1       6.766   1.835   0.689  1.00  0.00     0.032 C 
HETATM   33  C19 UNL     1       5.381   1.651   0.095  1.00  0.00     0.273 C 
ENDBRANCH  28  29
ENDBRANCH  27  28
ENDBRANCH  23  26
ENDBRANCH  12  22
BRANCH   1  34
HETATM   34  O1  UNL     1      -0.518  -1.523   2.978  1.00  0.00    -0.354 OA
HETATM   35  C1  UNL     1      -1.145  -1.705   4.228  1.00  0.00     0.210 C 
ENDBRANCH   1  34
TORSDOF 5
