REMARK  8 active torsions:
REMARK  status: ('A' for Active; 'I' for Inactive)
REMARK    1  A    between atoms: O1_2  and  C2_3 
REMARK    2  A    between atoms: C2_3  and  C3_4 
REMARK    3  A    between atoms: C4_5  and  C5_6 
REMARK       I    between atoms: C5_6  and  N1_8 
REMARK    4  A    between atoms: N1_8  and  C6_9 
REMARK    5  A    between atoms: C11_15  and  N3_16 
REMARK    6  A    between atoms: N4_18  and  C13_19 
REMARK    7  A    between atoms: C20_26  and  O3_27 
REMARK    8  A    between atoms: O3_27  and  C21_28 
ROOT
HETATM    1  C6  UNL     1       0.744  -0.096   0.690  1.00  0.00     0.067 C 
HETATM    2  C7  UNL     1      -0.515   0.314   0.558  1.00  0.00     0.037 C 
HETATM    3  C8  UNL     1      -1.709  -0.544   0.792  1.00  0.00     0.162 C 
HETATM    4  C9  UNL     1      -1.291  -1.940   1.013  1.00  0.00     0.063 C 
HETATM    5  N2  UNL     1      -1.982  -3.054   1.092  1.00  0.00    -0.261 NA
HETATM    6  C10 UNL     1      -3.423  -3.127   0.961  1.00  0.00     0.143 C 
HETATM    7  C11 UNL     1      -4.096  -2.371   0.068  1.00  0.00     0.038 C 
HETATM    8  C12 UNL     1      -3.476  -1.372  -0.884  1.00  0.00     0.182 C 
HETATM    9  N4  UNL     1      -2.775  -0.348  -0.131  1.00  0.00    -0.361 N 
HETATM   10  C19 UNL     1       0.107  -2.356   1.169  1.00  0.00     0.068 C 
HETATM   11  C20 UNL     1       1.078  -1.502   1.018  1.00  0.00     0.098 C 
ENDROOT
BRANCH   1  12
HETATM   12  N1  UNL     1       1.894   0.752   0.466  1.00  0.00    -0.314 N 
HETATM   13  C5  UNL     1       2.808   0.341  -0.557  1.00  0.00     0.301 C 
HETATM   14  O2  UNL     1       2.621  -0.714  -1.233  1.00  0.00    -0.258 OA
HETATM   15  H6  UNL     1       2.069   1.630   1.016  1.00  0.00     0.170 HD
BRANCH  13  16
HETATM   16  C4  UNL     1       3.969   1.165  -0.808  1.00  0.00    -0.003 C 
HETATM   17  C3  UNL     1       4.933   1.861  -1.032  1.00  0.00    -0.070 C 
BRANCH  17  18
HETATM   18  C2  UNL     1       6.094   2.711  -1.308  1.00  0.00     0.261 C 
BRANCH  18  19
HETATM   19  O1  UNL     1       7.109   2.512  -0.365  1.00  0.00    -0.384 OA
HETATM   20  C1  UNL     1       7.517   1.180  -0.398  1.00  0.00     0.202 C 
ENDBRANCH  18  19
ENDBRANCH  17  18
ENDBRANCH  13  16
ENDBRANCH   1  12
BRANCH  11  21
HETATM   21  O3  UNL     1       2.403  -1.888   1.157  1.00  0.00    -0.338 OA
BRANCH  21  22
HETATM   22  C21 UNL     1       2.675  -3.224   1.526  1.00  0.00     0.260 C 
HETATM   23 BR1  UNL     1       4.608  -3.453   1.649  1.00  0.00    -0.067 Br
ENDBRANCH  21  22
ENDBRANCH  11  21
BRANCH   9  24
HETATM   24  C13 UNL     1      -3.151   1.007  -0.304  1.00  0.00     0.031 A 
HETATM   25  C14 UNL     1      -3.801   1.496  -1.415  1.00  0.00     0.029 A 
HETATM   26  C15 UNL     1      -4.194   2.804  -1.601  1.00  0.00     0.002 A 
HETATM   27  C16 UNL     1      -3.927   3.721  -0.607  1.00  0.00     0.000 A 
HETATM   28  C17 UNL     1      -3.277   3.298   0.538  1.00  0.00     0.002 A 
HETATM   29  C18 UNL     1      -2.918   1.974   0.644  1.00  0.00     0.029 A 
ENDBRANCH   9  24
BRANCH   7  30
HETATM   30  N3  UNL     1      -5.523  -2.566   0.067  1.00  0.00    -0.400 N 
HETATM   31  H10 UNL     1      -5.964  -2.265   0.985  1.00  0.00     0.156 HD
HETATM   32  H11 UNL     1      -6.194  -2.944  -0.659  1.00  0.00     0.156 HD
ENDBRANCH   7  30
TORSDOF 8
