REMARK  7 active torsions:
REMARK  status: ('A' for Active; 'I' for Inactive)
REMARK    1  A    between atoms: O1_2  and  C2_3 
REMARK    2  A    between atoms: C2_3  and  C3_4 
REMARK    3  A    between atoms: C4_5  and  C5_6 
REMARK       I    between atoms: C5_6  and  N1_8 
REMARK    4  A    between atoms: N1_8  and  B1_9 
REMARK    5  A    between atoms: C12_18  and  N4_19 
REMARK    6  A    between atoms: N4_19  and  C13_20 
REMARK    7  A    between atoms: C20_28  and  O3_29 
ROOT
HETATM    1  B1  UNL     1       0.823  -1.239   0.196  1.00  0.00     0.359 B 
HETATM    2  C6  UNL     1      -0.714  -0.980   0.475  1.00  0.00     0.027 A 
HETATM    3  C7  UNL     1      -1.493  -1.916  -0.369  1.00  0.00    -0.007 A 
HETATM    4  C8  UNL     1      -1.076  -2.877  -1.266  1.00  0.00     0.065 A 
HETATM    5  N2  UNL     1      -2.000  -3.608  -1.916  1.00  0.00    -0.259 NA
HETATM    6  C9  UNL     1      -3.328  -3.471  -1.756  1.00  0.00     0.142 A 
HETATM    7  C10 UNL     1      -3.786  -2.521  -0.867  1.00  0.00     0.089 A 
HETATM    8  C11 UNL     1      -5.209  -2.398  -0.717  1.00  0.00     0.103 C 
HETATM    9  N3  UNL     1      -6.346  -2.299  -0.587  1.00  0.00    -0.191 NA
HETATM   10  C12 UNL     1      -2.861  -1.745  -0.175  1.00  0.00     0.062 A 
HETATM   11  C19 UNL     1       0.348  -3.081  -1.491  1.00  0.00     0.054 A 
HETATM   12  C20 UNL     1       1.225  -2.340  -0.830  1.00  0.00     0.033 A 
ENDROOT
BRANCH  10  13
HETATM   13  N4  UNL     1      -3.478  -0.807   0.706  1.00  0.00    -0.354 N 
HETATM   14  H10 UNL     1      -3.656  -1.152   1.687  1.00  0.00     0.166 HD
BRANCH  13  15
HETATM   15  C13 UNL     1      -3.857   0.522   0.354  1.00  0.00     0.033 A 
HETATM   16  C14 UNL     1      -4.451   1.347   1.301  1.00  0.00     0.029 A 
HETATM   17  C15 UNL     1      -4.770   2.608   0.840  1.00  0.00     0.004 A 
HETATM   18  C16 UNL     1      -4.569   3.118  -0.420  1.00  0.00     0.019 A 
HETATM   19  C17 UNL     1      -3.973   2.241  -1.311  1.00  0.00     0.013 A 
HETATM   20 BR1  UNL     1      -3.648   2.848  -3.086  1.00  0.00    -0.051 Br
HETATM   21  C18 UNL     1      -3.614   0.952  -0.941  1.00  0.00     0.048 A 
ENDBRANCH  13  15
ENDBRANCH  10  13
BRANCH   1  22
HETATM   22  N1  UNL     1       1.890  -0.204   0.562  1.00  0.00    -0.392 N 
HETATM   23  C5  UNL     1       2.411   0.855  -0.212  1.00  0.00     0.283 C 
HETATM   24  O2  UNL     1       2.100   1.173  -1.384  1.00  0.00    -0.260 OA
HETATM   25  H6  UNL     1       2.213  -0.390   1.531  1.00  0.00     0.142 HD
BRANCH  23  26
HETATM   26  C4  UNL     1       3.424   1.666   0.431  1.00  0.00    -0.005 C 
HETATM   27  C3  UNL     1       4.277   2.342   0.987  1.00  0.00    -0.070 C 
BRANCH  27  28
HETATM   28  C2  UNL     1       5.316   3.133   1.647  1.00  0.00     0.261 C 
BRANCH  28  29
HETATM   29  O1  UNL     1       6.312   3.465   0.745  1.00  0.00    -0.384 OA
HETATM   30  C1  UNL     1       7.267   4.223   1.460  1.00  0.00     0.202 C 
ENDBRANCH  28  29
ENDBRANCH  27  28
ENDBRANCH  23  26
ENDBRANCH   1  22
BRANCH  12  31
HETATM   31  O3  UNL     1       2.575  -2.564  -1.072  1.00  0.00    -0.370 OA
HETATM   32  C21 UNL     1       3.037  -3.890  -1.255  1.00  0.00     0.208 C 
ENDBRANCH  12  31
TORSDOF 7
