REMARK  8 active torsions:
REMARK  status: ('A' for Active; 'I' for Inactive)
REMARK    1  A    between atoms: O1_2  and  C2_3 
REMARK    2  A    between atoms: C2_3  and  C3_4 
REMARK    3  A    between atoms: C4_5  and  C5_6 
REMARK       I    between atoms: C5_6  and  N1_8 
REMARK    4  A    between atoms: N1_8  and  C6_9 
REMARK    5  A    between atoms: N2_12  and  C9_13 
REMARK    6  A    between atoms: C10_14  and  N4_17 
REMARK    7  A    between atoms: N4_17  and  C12_18 
REMARK    8  A    between atoms: C20_26  and  O3_27 
ROOT
HETATM    1  C9  UNL     1      -1.666   1.328   0.574  1.00  0.00     0.132 C 
HETATM    2  C10 UNL     1      -2.587   0.349   0.565  1.00  0.00     0.130 C 
HETATM    3  C11 UNL     1      -2.274  -1.041   0.681  1.00  0.00     0.119 C 
HETATM    4  N3  UNL     1      -2.026  -2.165   0.769  1.00  0.00    -0.190 NA
ENDROOT
BRANCH   2   5
HETATM    5  N4  UNL     1      -3.959   0.659   0.472  1.00  0.00    -0.346 N 
HETATM    6  H11 UNL     1      -4.113   1.298   1.305  1.00  0.00     0.167 HD
BRANCH   5   7
HETATM    7  C12 UNL     1      -5.197   0.518  -0.165  1.00  0.00     0.033 A 
HETATM    8  C13 UNL     1      -5.596   1.054  -1.366  1.00  0.00     0.029 A 
HETATM    9  C14 UNL     1      -6.855   0.852  -1.838  1.00  0.00     0.003 A 
HETATM   10  C15 UNL     1      -7.699   0.102  -1.075  1.00  0.00     0.007 A 
HETATM   11  C16 UNL     1      -7.421  -0.488   0.139  1.00  0.00    -0.060 A 
HETATM   12  C17 UNL     1      -8.333  -1.294   0.976  1.00  0.00     0.048 C 
HETATM   13  C18 UNL     1      -6.120  -0.251   0.573  1.00  0.00     0.036 A 
ENDBRANCH   5   7
ENDBRANCH   2   5
BRANCH   1  14
HETATM   14  N2  UNL     1      -0.282   1.065   0.703  1.00  0.00    -0.357 N 
HETATM   15  C8  UNL     1       0.269   0.339   1.810  1.00  0.00     0.157 C 
HETATM   16  C7  UNL     1       1.512  -0.385   1.460  1.00  0.00     0.026 C 
HETATM   17  C6  UNL     1       2.095   0.121   0.405  1.00  0.00     0.068 C 
HETATM   18  C20 UNL     1       1.691   1.106  -0.587  1.00  0.00     0.110 C 
HETATM   19  C19 UNL     1       0.467   1.591  -0.417  1.00  0.00     0.130 C 
BRANCH  17  20
HETATM   20  N1  UNL     1       3.322  -0.541   0.042  1.00  0.00    -0.314 N 
HETATM   21  C5  UNL     1       4.477   0.281   0.032  1.00  0.00     0.301 C 
HETATM   22  O2  UNL     1       4.524   1.499   0.320  1.00  0.00    -0.258 OA
HETATM   23  H6  UNL     1       3.331  -1.544  -0.186  1.00  0.00     0.170 HD
BRANCH  21  24
HETATM   24  C4  UNL     1       5.707  -0.342  -0.348  1.00  0.00    -0.003 C 
HETATM   25  C3  UNL     1       6.749  -0.868  -0.692  1.00  0.00    -0.070 C 
BRANCH  25  26
HETATM   26  C2  UNL     1       8.006  -1.482  -1.124  1.00  0.00     0.261 C 
BRANCH  26  27
HETATM   27  O1  UNL     1       8.723  -1.899   0.021  1.00  0.00    -0.384 OA
HETATM   28  C1  UNL     1       8.922  -0.726   0.788  1.00  0.00     0.202 C 
ENDBRANCH  26  27
ENDBRANCH  25  26
ENDBRANCH  21  24
ENDBRANCH  17  20
BRANCH  18  29
HETATM   29  O3  UNL     1       2.505   1.519  -1.630  1.00  0.00    -0.352 OA
HETATM   30  C21 UNL     1       2.659   0.674  -2.742  1.00  0.00     0.210 C 
ENDBRANCH  18  29
ENDBRANCH   1  14
TORSDOF 8
