REMARK  9 active torsions:
REMARK  status: ('A' for Active; 'I' for Inactive)
REMARK    1  A    between atoms: O1_2  and  C2_3 
REMARK    2  A    between atoms: C2_3  and  C3_4 
REMARK    3  A    between atoms: C4_5  and  C5_6 
REMARK       I    between atoms: C5_6  and  N1_8 
REMARK    4  A    between atoms: N1_8  and  C6_9 
REMARK    5  A    between atoms: C9_12  and  N2_13 
REMARK    6  A    between atoms: N2_13  and  C10_14 
REMARK    7  A    between atoms: C10_14  and  C11_15 
REMARK    8  A    between atoms: C11_15  and  C12_16 
REMARK    9  A    between atoms: C18_26  and  O3_27 
ROOT
HETATM    1  C6  UNL     1      -0.577   0.674   0.401  1.00  0.00     0.070 A 
HETATM    2  C7  UNL     1       0.564   0.160  -0.179  1.00  0.00     0.048 A 
HETATM    3  C8  UNL     1       1.716   0.914  -0.086  1.00  0.00     0.023 A 
HETATM    4  C9  UNL     1       2.907   0.484  -0.635  1.00  0.00     0.063 A 
HETATM    5  C13 UNL     1       4.035   1.273  -0.516  1.00  0.00     0.089 A 
HETATM    6  C14 UNL     1       5.312   0.871  -1.073  1.00  0.00     0.103 C 
HETATM    7  N3  UNL     1       6.340   0.562  -1.534  1.00  0.00    -0.191 NA
HETATM    8  C15 UNL     1       4.045   2.496   0.135  1.00  0.00     0.142 A 
HETATM    9  N4  UNL     1       2.865   2.886   0.660  1.00  0.00    -0.259 NA
HETATM   10  C16 UNL     1       1.751   2.132   0.556  1.00  0.00     0.071 A 
HETATM   11  C17 UNL     1       0.600   2.621   1.126  1.00  0.00     0.071 A 
HETATM   12  C18 UNL     1      -0.580   1.906   1.060  1.00  0.00     0.097 A 
ENDROOT
BRANCH   4  13
HETATM   13  N2  UNL     1       3.000  -0.744  -1.316  1.00  0.00    -0.387 N 
HETATM   14  H8  UNL     1       2.827  -0.785  -2.346  1.00  0.00     0.159 HD
BRANCH  13  15
HETATM   15  C10 UNL     1       3.345  -1.869  -0.466  1.00  0.00     0.129 C 
BRANCH  15  16
HETATM   16  C11 UNL     1       4.661  -1.683   0.207  1.00  0.00     0.158 C 
BRANCH  16  17
HETATM   17  C12 UNL     1       5.714  -2.498   0.066  1.00  0.00     0.136 A 
HETATM   18  F1  UNL     1       5.963  -3.651  -0.647  1.00  0.00    -0.323 F 
HETATM   19 BR1  UNL     1       7.067  -3.816  -0.309  1.00  0.00     0.040 Br
ENDBRANCH  16  17
ENDBRANCH  15  16
ENDBRANCH  13  15
ENDBRANCH   4  13
BRANCH   1  20
HETATM   20  N1  UNL     1      -1.750  -0.123   0.290  1.00  0.00    -0.314 N 
HETATM   21  C5  UNL     1      -2.373  -1.145   1.046  1.00  0.00     0.301 C 
HETATM   22  O2  UNL     1      -1.912  -1.592   2.123  1.00  0.00    -0.258 OA
HETATM   23  H6  UNL     1      -2.142   0.245  -0.610  1.00  0.00     0.170 HD
BRANCH  21  24
HETATM   24  C4  UNL     1      -3.598  -1.674   0.518  1.00  0.00    -0.003 C 
HETATM   25  C3  UNL     1      -4.651  -2.110   0.079  1.00  0.00    -0.070 C 
BRANCH  25  26
HETATM   26  C2  UNL     1      -5.917  -2.647  -0.454  1.00  0.00     0.261 C 
BRANCH  26  27
HETATM   27  O1  UNL     1      -6.589  -1.637  -1.139  1.00  0.00    -0.384 OA
HETATM   28  C1  UNL     1      -6.856  -0.585  -0.266  1.00  0.00     0.202 C 
ENDBRANCH  26  27
ENDBRANCH  25  26
ENDBRANCH  21  24
ENDBRANCH   1  20
BRANCH  12  29
HETATM   29  O3  UNL     1      -1.804   2.273   1.585  1.00  0.00    -0.354 OA
HETATM   30  C19 UNL     1      -2.054   3.469   2.291  1.00  0.00     0.210 C 
ENDBRANCH  12  29
TORSDOF 9
