REMARK  7 active torsions:
REMARK  status: ('A' for Active; 'I' for Inactive)
REMARK    1  A    between atoms: O1_2  and  C2_3 
REMARK    2  A    between atoms: C6_9  and  N3_10 
REMARK    3  A    between atoms: N3_10  and  C7_11 
REMARK    4  A    between atoms: C15_21  and  C16_22 
REMARK    5  A    between atoms: C16_22  and  N4_23 
REMARK    6  A    between atoms: C19_27  and  C20_28 
REMARK    7  A    between atoms: C20_28  and  C21_29 
REMARK       I    between atoms: C21_29  and  N5_30 
ROOT
HETATM    1  C2  UNL     1      -1.008   0.950   1.934  1.00  0.00     0.078 A 
HETATM    2  C3  UNL     1      -0.202   2.070   1.872  1.00  0.00     0.070 A 
HETATM    3  C4  UNL     1       1.022   2.058   1.247  1.00  0.00     0.074 A 
HETATM    4  N1  UNL     1       1.791   3.183   1.204  1.00  0.00    -0.241 NA
HETATM    5  C5  UNL     1       3.008   3.180   0.584  1.00  0.00     0.236 A 
HETATM    6  N2  UNL     1       3.439   2.022   0.006  1.00  0.00    -0.224 NA
HETATM    7  C6  UNL     1       2.699   0.904   0.036  1.00  0.00     0.142 A 
HETATM    8  C13 UNL     1       1.469   0.897   0.659  1.00  0.00     0.039 A 
HETATM    9  C14 UNL     1       0.694  -0.242   0.700  1.00  0.00     0.029 A 
HETATM   10  C15 UNL     1      -0.545  -0.229   1.333  1.00  0.00    -0.006 A 
ENDROOT
BRANCH  10  11
HETATM   11  C16 UNL     1      -1.397  -1.452   1.392  1.00  0.00     0.159 C 
BRANCH  11  12
HETATM   12  N4  UNL     1      -2.459  -1.348   0.469  1.00  0.00    -0.400 N 
HETATM   13  C17 UNL     1      -2.148  -1.215  -0.877  1.00  0.00     0.122 C 
HETATM   14  C18 UNL     1      -2.544  -2.435  -1.678  1.00  0.00     0.052 C 
HETATM   15  P1  UNL     1      -3.997  -3.027  -0.675  1.00  0.00    -0.103 P 
HETATM   16  C19 UNL     1      -3.707  -1.891   0.768  1.00  0.00     0.113 C 
HETATM   17  H19 UNL     1      -5.231  -2.753  -1.371  1.00  0.00     0.059 HD
BRANCH  16  18
HETATM   18  C20 UNL     1      -4.833  -0.899   0.926  1.00  0.00     0.132 C 
BRANCH  18  19
HETATM   19  C21 UNL     1      -5.053  -0.106  -0.308  1.00  0.00     0.217 C 
HETATM   20  N5  UNL     1      -4.698   1.268  -0.489  1.00  0.00    -0.370 N 
HETATM   21  H23 UNL     1      -4.199   1.725  -1.276  1.00  0.00     0.159 HD
HETATM   22  H24 UNL     1      -5.025   1.810   0.338  1.00  0.00     0.159 HD
HETATM   23  O2  UNL     1      -5.575  -0.447  -1.416  1.00  0.00    -0.274 OA
ENDBRANCH  18  19
ENDBRANCH  16  18
ENDBRANCH  11  12
ENDBRANCH  10  11
BRANCH   1  24
HETATM   24  O1  UNL     1      -2.255   0.881   2.544  1.00  0.00    -0.355 OA
HETATM   25  C1  UNL     1      -2.911   1.920   3.198  1.00  0.00     0.210 C 
ENDBRANCH   1  24
BRANCH   7  26
HETATM   26  N3  UNL     1       3.210  -0.261  -0.590  1.00  0.00    -0.339 N 
HETATM   27  H6  UNL     1       2.830  -1.203  -0.676  1.00  0.00     0.167 HD
BRANCH  26  28
HETATM   28  C7  UNL     1       4.472  -0.231  -1.249  1.00  0.00     0.046 C 
HETATM   29  C8  UNL     1       4.491   0.093  -2.587  1.00  0.00    -0.098 C 
HETATM   30  C9  UNL     1       3.246   0.007  -3.337  1.00  0.00     0.032 C 
HETATM   31  B1  UNL     1       6.062   0.568  -3.219  1.00  0.00     0.208 B 
HETATM   32  C10 UNL     1       7.340  -0.319  -2.088  1.00  0.00    -0.079 C 
HETATM   33  C11 UNL     1       6.827  -0.568  -0.858  1.00  0.00     0.010 C 
HETATM   34  C12 UNL     1       5.542  -0.530  -0.475  1.00  0.00     0.058 C 
HETATM   35 CL1  UNL     1       5.371  -0.934   1.246  1.00  0.00    -0.082 Cl
ENDBRANCH  26  28
ENDBRANCH   7  26
TORSDOF 7
