REMARK  7 active torsions:
REMARK  status: ('A' for Active; 'I' for Inactive)
REMARK    1  A    between atoms: C2_2  and  N1_3 
REMARK    2  A    between atoms: N1_3  and  C4_5 
REMARK    3  A    between atoms: C4_5  and  C5_6 
REMARK    4  A    between atoms: C6_7  and  C7_8 
REMARK    5  A    between atoms: C7_8  and  C8_10 
REMARK    6  A    between atoms: C10_12  and  N2_13 
REMARK    7  A    between atoms: N2_13  and  C11_14 
ROOT
HETATM    1  C8  UNL     1      -0.228  -0.354  -1.331  1.00  0.00     0.020 C 
HETATM    2  C9  UNL     1      -1.596  -0.423  -1.420  1.00  0.00     0.026 C 
HETATM    3  C10 UNL     1      -2.202  -1.184  -0.251  1.00  0.00     0.091 C 
HETATM    4  C17 UNL     1      -1.227  -0.545   0.801  1.00  0.00     0.081 C 
HETATM    5  C18 UNL     1      -0.106  -1.121  -0.095  1.00  0.00    -0.029 C 
HETATM    6  C19 UNL     1       0.481  -2.157   0.533  1.00  0.00    -0.005 C 
HETATM    7  C20 UNL     1      -0.537  -3.074   0.438  1.00  0.00     0.008 C 
HETATM    8  C21 UNL     1      -1.641  -2.611  -0.219  1.00  0.00     0.066 C 
HETATM    9  C22 UNL     1      -2.371  -3.597  -0.980  1.00  0.00     0.099 C 
HETATM   10  N3  UNL     1      -2.971  -4.401  -1.578  1.00  0.00    -0.192 NA
ENDROOT
BRANCH   3  11
HETATM   11  N2  UNL     1      -3.528  -1.042  -0.029  1.00  0.00    -0.372 N 
HETATM   12  H12 UNL     1      -3.975  -2.011  -0.029  1.00  0.00     0.161 HD
BRANCH  11  13
HETATM   13  C11 UNL     1      -4.469  -0.015   0.194  1.00  0.00     0.030 A 
HETATM   14  C12 UNL     1      -5.823  -0.287   0.426  1.00  0.00     0.029 A 
HETATM   15  C13 UNL     1      -6.772   0.681   0.638  1.00  0.00     0.004 A 
HETATM   16  C14 UNL     1      -6.315   1.979   0.611  1.00  0.00     0.019 A 
HETATM   17  C15 UNL     1      -5.008   2.362   0.393  1.00  0.00     0.013 A 
HETATM   18 BR1  UNL     1      -4.475   4.192   0.375  1.00  0.00    -0.051 Br
HETATM   19  C16 UNL     1      -4.130   1.319   0.190  1.00  0.00     0.048 A 
ENDBRANCH  11  13
ENDBRANCH   3  11
BRANCH   1  20
HETATM   20  C7  UNL     1       0.944   0.132  -2.008  1.00  0.00     0.182 C 
HETATM   21  O1  UNL     1       0.451   0.666  -3.061  1.00  0.00    -0.288 OA
BRANCH  20  22
HETATM   22  C6  UNL     1       2.324   0.058  -1.640  1.00  0.00     0.053 C 
HETATM   23  C5  UNL     1       3.138  -0.388  -0.682  1.00  0.00    -0.003 C 
BRANCH  23  24
HETATM   24  C4  UNL     1       4.614  -0.232  -0.721  1.00  0.00     0.149 C 
BRANCH  24  25
HETATM   25  N1  UNL     1       5.105   0.520   0.415  1.00  0.00    -0.392 N 
HETATM   26  C3  UNL     1       4.217   1.033   1.435  1.00  0.00     0.149 C 
BRANCH  25  27
HETATM   27  C2  UNL     1       6.511   0.722   0.465  1.00  0.00     0.075 C 
HETATM   28  C1  UNL     1       7.484   1.185  -0.276  1.00  0.00     0.029 C 
ENDBRANCH  25  27
ENDBRANCH  24  25
ENDBRANCH  23  24
ENDBRANCH  20  22
ENDBRANCH   1  20
TORSDOF 7
