REMARK  7 active torsions:
REMARK  status: ('A' for Active; 'I' for Inactive)
REMARK    1  A    between atoms: O1_2  and  C2_3 
REMARK    2  A    between atoms: C7_8  and  N1_9 
REMARK       I    between atoms: N1_9  and  C8_10 
REMARK    3  A    between atoms: C8_10  and  C9_12 
REMARK    4  A    between atoms: C10_13  and  C11_14 
REMARK    5  A    between atoms: C11_14  and  N2_15 
REMARK    6  A    between atoms: C16_21  and  N3_22 
REMARK    7  A    between atoms: N3_22  and  C17_23 
ROOT
HETATM    1  C2  UNL     1      -1.218  -2.579  -1.342  1.00  0.00     0.097 A 
HETATM    2  C3  UNL     1      -2.545  -2.902  -1.567  1.00  0.00     0.071 A 
HETATM    3  C4  UNL     1      -3.587  -2.226  -0.968  1.00  0.00     0.068 A 
HETATM    4  C5  UNL     1      -3.293  -1.190  -0.113  1.00  0.00     0.023 A 
HETATM    5  C6  UNL     1      -1.961  -0.898   0.086  1.00  0.00     0.048 A 
HETATM    6  C7  UNL     1      -0.893  -1.545  -0.490  1.00  0.00     0.069 A 
HETATM    7  C16 UNL     1      -4.069  -0.389   0.597  1.00  0.00     0.069 A 
HETATM    8  C22 UNL     1      -5.520  -0.494   0.586  1.00  0.00     0.054 A 
HETATM    9  C23 UNL     1      -6.258   0.458   1.456  1.00  0.00     0.072 C 
HETATM   10  N4  UNL     1      -6.331  -1.267  -0.041  1.00  0.00    -0.271 NA
HETATM   11  C24 UNL     1      -6.110  -2.336  -0.980  1.00  0.00     0.298 A 
HETATM   12  N5  UNL     1      -4.758  -2.639  -1.277  1.00  0.00    -0.268 NA
ENDROOT
BRANCH   6  13
HETATM   13  N1  UNL     1       0.482  -1.268  -0.301  1.00  0.00    -0.321 N 
HETATM   14  C8  UNL     1       1.077  -0.269   0.498  1.00  0.00     0.245 C 
HETATM   15  O2  UNL     1       0.372   0.521   1.160  1.00  0.00    -0.268 OA
HETATM   16  H6  UNL     1       1.214  -1.831  -0.782  1.00  0.00     0.169 HD
BRANCH  14  17
HETATM   17  C9  UNL     1       2.502  -0.053   0.641  1.00  0.00     0.072 C 
HETATM   18  C10 UNL     1       3.632  -0.566   0.200  1.00  0.00     0.008 C 
BRANCH  18  19
HETATM   19  C11 UNL     1       5.090  -0.517   0.207  1.00  0.00     0.300 C 
BRANCH  19  20
HETATM   20  N2  UNL     1       5.694   0.503   0.995  1.00  0.00     0.096 N 
HETATM   21  C12 UNL     1       5.531   1.842   0.530  1.00  0.00     0.299 C 
HETATM   22  C13 UNL     1       5.933   1.879  -0.931  1.00  0.00     0.198 C 
HETATM   23  O3  UNL     1       7.103   1.182  -1.103  1.00  0.00    -0.388 OA
HETATM   24  C14 UNL     1       7.862   0.988   0.022  1.00  0.00     0.198 C 
HETATM   25  C15 UNL     1       7.113   0.243   1.117  1.00  0.00     0.299 C 
ENDBRANCH  19  20
ENDBRANCH  18  19
ENDBRANCH  14  17
ENDBRANCH   6  13
BRANCH   1  26
HETATM   26  O1  UNL     1      -0.201  -3.288  -1.967  1.00  0.00    -0.354 OA
HETATM   27  C1  UNL     1      -0.547  -4.344  -2.837  1.00  0.00     0.210 C 
ENDBRANCH   1  26
BRANCH   7  28
HETATM   28  N3  UNL     1      -3.495   0.609   1.405  1.00  0.00    -0.357 N 
HETATM   29  H19 UNL     1      -3.072   0.147   2.246  1.00  0.00     0.166 HD
BRANCH  28  30
HETATM   30  C17 UNL     1      -3.450   1.996   1.219  1.00  0.00     0.014 A 
HETATM   31  C18 UNL     1      -4.175   2.796   0.460  1.00  0.00     0.026 A 
HETATM   32  C19 UNL     1      -3.800   4.198   0.558  1.00  0.00     0.021 A 
HETATM   33  C20 UNL     1      -2.802   4.216   1.423  1.00  0.00     0.017 A 
HETATM   34 CL1  UNL     1      -1.924   5.655   1.953  1.00  0.00    -0.089 Cl
HETATM   35  C21 UNL     1      -2.467   2.883   1.930  1.00  0.00     0.108 A 
ENDBRANCH  28  30
ENDBRANCH   7  28
TORSDOF 7
