REMARK  5 active torsions:
REMARK  status: ('A' for Active; 'I' for Inactive)
REMARK    1  A    between atoms: N1_2  and  C2_3 
REMARK    2  A    between atoms: C2_3  and  C3_4 
REMARK    3  A    between atoms: C3_4  and  C4_5 
REMARK       I    between atoms: C4_5  and  N2_7 
REMARK    4  A    between atoms: N2_7  and  C5_8 
REMARK    5  A    between atoms: N3_12  and  C9_13 
ROOT
HETATM    1  C5  UNL     1      -0.345  -0.458   0.093  1.00  0.00     0.112 A 
HETATM    2  C6  UNL     1      -0.315  -1.801   0.386  1.00  0.00     0.064 A 
HETATM    3  C7  UNL     1      -1.545  -2.153   0.899  1.00  0.00     0.015 A 
HETATM    4  C8  UNL     1      -2.234  -0.985   0.877  1.00  0.00     0.077 A 
HETATM    5  N3  UNL     1      -1.577   0.069   0.407  1.00  0.00    -0.319 N 
HETATM    6  C14 UNL     1      -3.600  -0.955   1.343  1.00  0.00     0.117 A 
HETATM    7  C15 UNL     1      -4.516   0.136   1.391  1.00  0.00     0.109 C 
HETATM    8  N4  UNL     1      -5.278   1.014   1.438  1.00  0.00    -0.191 NA
HETATM    9  S1  UNL     1      -4.280  -2.361   1.895  1.00  0.00    -0.065 SA
HETATM   10  N5  UNL     1      -3.141  -3.760   1.814  1.00  0.00    -0.236 NA
HETATM   11  C16 UNL     1      -1.984  -3.445   1.342  1.00  0.00     0.138 A 
HETATM   12  H15 UNL     1      -5.361  -2.353   2.829  1.00  0.00     0.121 HD
ENDROOT
BRANCH   5  13
HETATM   13  C9  UNL     1      -1.654   1.453   0.126  1.00  0.00     0.139 A 
HETATM   14  C10 UNL     1      -2.776   2.269   0.525  1.00  0.00     0.004 A 
HETATM   15  C11 UNL     1      -3.446   2.766  -0.532  1.00  0.00     0.017 A 
HETATM   16  C12 UNL     1      -2.813   2.316  -1.762  1.00  0.00     0.009 A 
HETATM   17 BR1  UNL     1      -3.417   2.771  -3.508  1.00  0.00    -0.051 Br
HETATM   18  C13 UNL     1      -1.793   1.569  -1.386  1.00  0.00     0.021 A 
ENDBRANCH   5  13
BRANCH   1  19
HETATM   19  N2  UNL     1       0.782   0.233  -0.469  1.00  0.00    -0.313 N 
HETATM   20  C4  UNL     1       2.019  -0.354  -0.764  1.00  0.00     0.224 C 
HETATM   21  O1  UNL     1       2.230  -1.565  -0.550  1.00  0.00    -0.273 OA
HETATM   22  H9  UNL     1       0.783   1.251  -0.717  1.00  0.00     0.170 HD
BRANCH  20  23
HETATM   23  C3  UNL     1       3.099   0.438  -1.332  1.00  0.00     0.133 C 
BRANCH  23  24
HETATM   24  C2  UNL     1       4.404  -0.257  -1.492  1.00  0.00     0.278 C 
BRANCH  24  25
HETATM   25  N1  UNL     1       4.962  -0.698  -0.264  1.00  0.00     0.079 N 
HETATM   26  C1  UNL     1       5.370   0.426   0.555  1.00  0.00     0.306 C 
HETATM   27  H4  UNL     1       4.302  -1.276   0.270  1.00  0.00     0.315 HD
ENDBRANCH  24  25
ENDBRANCH  23  24
ENDBRANCH  20  23
ENDBRANCH   1  19
TORSDOF 5
