REMARK  7 active torsions:
REMARK  status: ('A' for Active; 'I' for Inactive)
REMARK    1  A    between atoms: O1_2  and  C2_3 
REMARK    2  A    between atoms: C8_11  and  N3_12 
REMARK    3  A    between atoms: N3_12  and  C9_13 
REMARK    4  A    between atoms: C17_22  and  N4_23 
REMARK       I    between atoms: N4_23  and  C18_24 
REMARK    5  A    between atoms: C18_24  and  C19_26 
REMARK    6  A    between atoms: C20_27  and  C21_28 
REMARK    7  A    between atoms: C21_28  and  N5_29 
ROOT
HETATM    1  C2  UNL     1       0.134  -2.953   0.121  1.00  0.00     0.097 A 
HETATM    2  C3  UNL     1      -1.036  -3.691   0.035  1.00  0.00     0.071 A 
HETATM    3  C4  UNL     1      -2.242  -3.057  -0.271  1.00  0.00     0.071 A 
HETATM    4  N1  UNL     1      -3.370  -3.778  -0.350  1.00  0.00    -0.259 NA
HETATM    5  C5  UNL     1      -4.531  -3.152  -0.643  1.00  0.00     0.142 A 
HETATM    6  C6  UNL     1      -4.535  -1.783  -0.857  1.00  0.00     0.089 A 
HETATM    7  C7  UNL     1      -5.811  -1.195  -1.164  1.00  0.00     0.103 C 
HETATM    8  N2  UNL     1      -6.842  -0.708  -1.429  1.00  0.00    -0.191 NA
HETATM    9  C8  UNL     1      -3.381  -1.011  -0.782  1.00  0.00     0.067 A 
HETATM   10  C15 UNL     1      -2.201  -1.695  -0.476  1.00  0.00     0.023 A 
HETATM   11  C16 UNL     1      -1.074  -0.905  -0.405  1.00  0.00     0.048 A 
HETATM   12  C17 UNL     1       0.095  -1.570  -0.100  1.00  0.00     0.069 A 
ENDROOT
BRANCH   9  13
HETATM   13  N3  UNL     1      -3.512   0.360  -1.013  1.00  0.00    -0.354 N 
HETATM   14  H6  UNL     1      -3.443   0.519  -2.042  1.00  0.00     0.166 HD
BRANCH  13  15
HETATM   15  C9  UNL     1      -3.701   1.397  -0.096  1.00  0.00     0.034 A 
HETATM   16  C10 UNL     1      -3.706   1.170   1.265  1.00  0.00     0.029 A 
HETATM   17  C11 UNL     1      -3.901   2.257   2.115  1.00  0.00     0.004 A 
HETATM   18  C12 UNL     1      -4.087   3.539   1.591  1.00  0.00     0.024 A 
HETATM   19  C13 UNL     1      -4.083   3.771   0.232  1.00  0.00     0.036 A 
HETATM   20 CL1  UNL     1      -4.311   5.367  -0.445  1.00  0.00    -0.084 Cl
HETATM   21  C14 UNL     1      -3.887   2.675  -0.581  1.00  0.00     0.053 A 
ENDBRANCH  13  15
ENDBRANCH   9  13
BRANCH  12  22
HETATM   22  N4  UNL     1       1.349  -0.903   0.011  1.00  0.00    -0.321 N 
HETATM   23  C18 UNL     1       2.095  -0.817  -1.183  1.00  0.00     0.245 C 
HETATM   24  O2  UNL     1       1.657  -1.301  -2.245  1.00  0.00    -0.268 OA
HETATM   25  H12 UNL     1       1.660  -0.514   0.944  1.00  0.00     0.169 HD
BRANCH  23  26
HETATM   26  C19 UNL     1       3.390  -0.161  -1.192  1.00  0.00     0.072 C 
HETATM   27  C20 UNL     1       3.935   0.381  -0.114  1.00  0.00     0.008 C 
BRANCH  27  28
HETATM   28  C21 UNL     1       5.232   1.083   0.056  1.00  0.00     0.299 C 
BRANCH  28  29
HETATM   29  N5  UNL     1       4.985   2.417   0.515  1.00  0.00     0.083 N 
HETATM   30  C22 UNL     1       4.355   3.267  -0.444  1.00  0.00     0.309 C 
HETATM   31  C23 UNL     1       6.172   2.951   1.116  1.00  0.00     0.309 C 
ENDBRANCH  28  29
ENDBRANCH  27  28
ENDBRANCH  23  26
ENDBRANCH  12  22
BRANCH   1  32
HETATM   32  O1  UNL     1       1.332  -3.585   0.426  1.00  0.00    -0.354 OA
HETATM   33  C1  UNL     1       1.347  -4.987   0.647  1.00  0.00     0.210 C 
ENDBRANCH   1  32
TORSDOF 7
