REMARK  6 active torsions:
REMARK  status: ('A' for Active; 'I' for Inactive)
REMARK    1  A    between atoms: C2_2  and  C3_3 
REMARK    2  A    between atoms: C2_2  and  C8_10 
REMARK    3  A    between atoms: C3_3  and  N1_4 
REMARK       I    between atoms: C8_10  and  N2_12 
REMARK    4  A    between atoms: N2_12  and  C9_13 
REMARK    5  A    between atoms: C14_20  and  N4_21 
REMARK    6  A    between atoms: N4_21  and  C15_22 
ROOT
HETATM    1  C9  UNL     1       0.180  -1.799  -0.650  1.00  0.00     0.035 A 
HETATM    2  C10 UNL     1       0.195  -2.862  -1.516  1.00  0.00     0.032 A 
HETATM    3  C11 UNL     1       1.376  -3.307  -2.048  1.00  0.00     0.035 A 
HETATM    4  C12 UNL     1       2.615  -2.722  -1.754  1.00  0.00     0.066 A 
HETATM    5  N3  UNL     1       3.674  -3.258  -2.346  1.00  0.00    -0.276 NA
HETATM    6  C13 UNL     1       4.944  -2.909  -2.251  1.00  0.00     0.033 C 
HETATM    7  B1  UNL     1       5.156  -2.266  -0.524  1.00  0.00     0.259 B 
HETATM    8  C14 UNL     1       3.702  -0.928  -0.454  1.00  0.00    -0.024 C 
HETATM    9  C21 UNL     1       2.630  -1.658  -0.891  1.00  0.00     0.005 A 
HETATM   10  C22 UNL     1       1.403  -1.236  -0.370  1.00  0.00     0.044 A 
ENDROOT
BRANCH   1  11
HETATM   11  N2  UNL     1      -1.088  -1.435  -0.174  1.00  0.00    -0.323 N 
HETATM   12  C8  UNL     1      -1.409  -0.398   0.721  1.00  0.00     0.253 C 
HETATM   13  O2  UNL     1      -0.540   0.357   1.219  1.00  0.00    -0.268 OA
HETATM   14  H13 UNL     1      -1.971  -1.906  -0.436  1.00  0.00     0.169 HD
BRANCH  12  15
HETATM   15  C2  UNL     1      -2.607   0.133   1.323  1.00  0.00     0.029 C 
HETATM   16  C1  UNL     1      -2.356   1.153   2.123  1.00  0.00     0.026 C 
BRANCH  15  17
HETATM   17  C3  UNL     1      -3.999  -0.293   1.166  1.00  0.00     0.316 C 
BRANCH  17  18
HETATM   18  N1  UNL     1      -4.508  -0.234  -0.168  1.00  0.00     0.096 N 
HETATM   19  C4  UNL     1      -5.868  -0.670  -0.169  1.00  0.00     0.299 C 
HETATM   20  C5  UNL     1      -6.739   0.116  -1.124  1.00  0.00     0.198 C 
HETATM   21  O1  UNL     1      -6.690   1.474  -0.891  1.00  0.00    -0.388 OA
HETATM   22  C6  UNL     1      -5.454   1.960  -0.540  1.00  0.00     0.198 C 
HETATM   23  C7  UNL     1      -4.344   1.011  -0.845  1.00  0.00     0.299 C 
ENDBRANCH  17  18
ENDBRANCH  15  17
ENDBRANCH  12  15
ENDBRANCH   1  11
BRANCH   8  24
HETATM   24  N4  UNL     1       3.753   0.394  -0.069  1.00  0.00    -0.369 N 
HETATM   25  H17 UNL     1       2.849   0.832  -0.166  1.00  0.00     0.165 HD
BRANCH  24  26
HETATM   26  C15 UNL     1       4.843   1.151   0.403  1.00  0.00     0.033 A 
HETATM   27  C16 UNL     1       6.149   0.768   0.590  1.00  0.00     0.032 A 
HETATM   28  C17 UNL     1       7.187   1.512   1.047  1.00  0.00     0.046 A 
HETATM   29  C18 UNL     1       6.867   2.822   1.359  1.00  0.00     0.138 A 
HETATM   30  F1  UNL     1       7.841   3.644   1.824  1.00  0.00    -0.204 F 
HETATM   31  C19 UNL     1       5.600   3.327   1.217  1.00  0.00     0.074 A 
HETATM   32 CL1  UNL     1       5.207   4.988   1.615  1.00  0.00    -0.081 Cl
HETATM   33  C20 UNL     1       4.618   2.490   0.745  1.00  0.00     0.056 A 
ENDBRANCH  24  26
ENDBRANCH   8  24
TORSDOF 6
