REMARK  7 active torsions:
REMARK  status: ('A' for Active; 'I' for Inactive)
REMARK    1  A    between atoms: O1_2  and  C2_3 
REMARK    2  A    between atoms: C8_11  and  N3_12 
REMARK    3  A    between atoms: N3_12  and  C9_13 
REMARK    4  A    between atoms: C17_23  and  N4_24 
REMARK    5  A    between atoms: N4_24  and  C18_25 
REMARK    6  A    between atoms: C18_25  and  C20_27 
REMARK    7  A    between atoms: C20_27  and  N5_28 
ROOT
HETATM    1  C2  UNL     1      -1.055  -1.571  -2.559  1.00  0.00     0.096 A 
HETATM    2  C3  UNL     1       0.074  -2.121  -3.118  1.00  0.00     0.071 A 
HETATM    3  C4  UNL     1       1.290  -2.118  -2.474  1.00  0.00     0.071 A 
HETATM    4  N1  UNL     1       2.352  -2.682  -3.099  1.00  0.00    -0.259 NA
HETATM    5  C5  UNL     1       3.567  -2.723  -2.546  1.00  0.00     0.142 A 
HETATM    6  C6  UNL     1       3.662  -2.148  -1.289  1.00  0.00     0.089 A 
HETATM    7  C7  UNL     1       4.916  -2.124  -0.577  1.00  0.00     0.103 C 
HETATM    8  N2  UNL     1       5.939  -2.117  -0.005  1.00  0.00    -0.191 NA
HETATM    9  C8  UNL     1       2.600  -1.566  -0.628  1.00  0.00     0.067 A 
HETATM   10  C15 UNL     1       1.347  -1.541  -1.234  1.00  0.00     0.023 A 
HETATM   11  C16 UNL     1       0.218  -0.988  -0.669  1.00  0.00     0.048 A 
HETATM   12  C17 UNL     1      -1.014  -0.976  -1.292  1.00  0.00     0.063 A 
ENDROOT
BRANCH   9  13
HETATM   13  N3  UNL     1       2.736  -0.994   0.661  1.00  0.00    -0.356 N 
HETATM   14  H6  UNL     1       2.562  -1.587   1.505  1.00  0.00     0.166 HD
BRANCH  13  15
HETATM   15  C9  UNL     1       3.095   0.351   0.961  1.00  0.00     0.027 C 
HETATM   16  C10 UNL     1       2.668   0.945   2.038  1.00  0.00     0.042 C 
HETATM   17  C11 UNL     1       3.513   1.325   2.984  1.00  0.00     0.150 C 
HETATM   18  F1  UNL     1       3.228   1.392   4.307  1.00  0.00    -0.203 F 
HETATM   19  C12 UNL     1       4.853   1.690   2.483  1.00  0.00     0.070 C 
HETATM   20 CL1  UNL     1       6.130   2.117   3.590  1.00  0.00    -0.081 Cl
HETATM   21  C13 UNL     1       5.052   1.679   1.165  1.00  0.00     0.006 C 
HETATM   22  C14 UNL     1       3.958   1.309   0.195  1.00  0.00     0.087 C 
ENDBRANCH  13  15
ENDBRANCH   9  13
BRANCH  12  23
HETATM   23  N4  UNL     1      -2.158  -0.391  -0.678  1.00  0.00    -0.382 N 
HETATM   24  H11 UNL     1      -3.027  -0.463  -1.292  1.00  0.00     0.160 HD
BRANCH  23  25
HETATM   25  C18 UNL     1      -2.222   0.252   0.637  1.00  0.00     0.106 C 
HETATM   26  C19 UNL     1      -1.815  -0.815   1.637  1.00  0.00     0.034 C 
BRANCH  25  27
HETATM   27  C20 UNL     1      -3.667   0.655   0.825  1.00  0.00     0.295 C 
BRANCH  27  28
HETATM   28  N5  UNL     1      -3.962   1.310   2.046  1.00  0.00     0.081 N 
HETATM   29  C21 UNL     1      -3.445   2.623   2.228  1.00  0.00     0.309 C 
HETATM   30  C22 UNL     1      -5.379   1.255   2.327  1.00  0.00     0.309 C 
ENDBRANCH  27  28
ENDBRANCH  25  27
ENDBRANCH  23  25
ENDBRANCH  12  23
BRANCH   1  31
HETATM   31  O1  UNL     1      -2.263  -1.591  -3.234  1.00  0.00    -0.354 OA
HETATM   32  C1  UNL     1      -2.460  -2.150  -4.506  1.00  0.00     0.210 C 
ENDBRANCH   1  31
TORSDOF 7
