REMARK  7 active torsions:
REMARK  status: ('A' for Active; 'I' for Inactive)
REMARK    1  A    between atoms: O1_2  and  C2_3 
REMARK    2  A    between atoms: C6_9  and  N3_10 
REMARK    3  A    between atoms: N3_10  and  C7_11 
REMARK    4  A    between atoms: C14_21  and  C15_22 
REMARK    5  A    between atoms: C15_22  and  N4_23 
REMARK    6  A    between atoms: C19_27  and  C20_28 
REMARK    7  A    between atoms: C20_28  and  C21_29 
REMARK       I    between atoms: C21_29  and  N5_30 
ROOT
HETATM    1  C2  UNL     1      -0.593  -0.937   1.444  1.00  0.00     0.058 C 
HETATM    2  C3  UNL     1       0.439  -1.635   1.885  1.00  0.00     0.065 C 
HETATM    3  C4  UNL     1       1.853  -1.374   1.662  1.00  0.00     0.075 A 
HETATM    4  N1  UNL     1       2.817  -2.184   2.098  1.00  0.00    -0.241 NA
HETATM    5  C5  UNL     1       4.105  -1.944   1.821  1.00  0.00     0.236 A 
HETATM    6  N2  UNL     1       4.457  -0.860   1.084  1.00  0.00    -0.223 NA
HETATM    7  C6  UNL     1       3.505  -0.020   0.628  1.00  0.00     0.142 A 
HETATM    8  C13 UNL     1       2.185  -0.274   0.919  1.00  0.00     0.041 A 
HETATM    9  P1  UNL     1       1.009   0.982   0.313  1.00  0.00    -0.076 P 
HETATM   10  C14 UNL     1      -0.715   0.250   0.622  1.00  0.00     0.090 C 
HETATM   11  H10 UNL     1       1.213   2.172   1.117  1.00  0.00     0.063 HD
ENDROOT
BRANCH  10  12
HETATM   12  C15 UNL     1      -1.331   0.145  -0.721  1.00  0.00     0.133 C 
BRANCH  12  13
HETATM   13  N4  UNL     1      -2.606  -0.290  -0.972  1.00  0.00    -0.407 N 
HETATM   14  C16 UNL     1      -3.036  -1.621  -0.864  1.00  0.00     0.117 C 
HETATM   15  C17 UNL     1      -4.342  -1.621  -0.106  1.00  0.00     0.021 C 
HETATM   16  C18 UNL     1      -4.617  -0.186   0.262  1.00  0.00     0.027 C 
HETATM   17  C19 UNL     1      -3.727   0.575  -0.703  1.00  0.00     0.088 C 
BRANCH  17  18
HETATM   18  C20 UNL     1      -4.505   0.653  -2.000  1.00  0.00     0.127 C 
BRANCH  18  19
HETATM   19  C21 UNL     1      -5.698   1.526  -1.849  1.00  0.00     0.217 C 
HETATM   20  N5  UNL     1      -6.771   1.969  -2.654  1.00  0.00    -0.370 N 
HETATM   21  H23 UNL     1      -7.742   1.607  -2.770  1.00  0.00     0.159 HD
HETATM   22  H24 UNL     1      -6.875   2.764  -3.337  1.00  0.00     0.159 HD
HETATM   23  O2  UNL     1      -6.119   2.183  -0.836  1.00  0.00    -0.274 OA
ENDBRANCH  18  19
ENDBRANCH  17  18
ENDBRANCH  12  13
ENDBRANCH  10  12
BRANCH   1  24
HETATM   24  O1  UNL     1      -1.838  -1.406   1.816  1.00  0.00    -0.359 OA
HETATM   25  C1  UNL     1      -2.012  -2.363   2.819  1.00  0.00     0.209 C 
ENDBRANCH   1  24
BRANCH   7  26
HETATM   26  N3  UNL     1       3.925   1.100  -0.142  1.00  0.00    -0.338 N 
HETATM   27  H6  UNL     1       3.240   1.799  -0.523  1.00  0.00     0.167 HD
BRANCH  26  28
HETATM   28  C7  UNL     1       5.257   1.376  -0.462  1.00  0.00     0.074 A 
HETATM   29  C8  UNL     1       5.938   2.543  -0.096  1.00  0.00     0.033 A 
HETATM   30  C9  UNL     1       7.246   2.643  -0.503  1.00  0.00     0.004 A 
HETATM   31  C10 UNL     1       7.920   1.701  -1.228  1.00  0.00     0.027 A 
HETATM   32  C11 UNL     1       7.238   0.535  -1.593  1.00  0.00     0.074 A 
HETATM   33 CL1  UNL     1       8.114  -0.649  -2.517  1.00  0.00    -0.081 Cl
HETATM   34  C12 UNL     1       5.927   0.419  -1.194  1.00  0.00     0.164 A 
HETATM   35  F1  UNL     1       5.374  -0.752  -1.606  1.00  0.00    -0.202 F 
ENDBRANCH  26  28
ENDBRANCH   7  26
TORSDOF 7
