REMARK  7 active torsions:
REMARK  status: ('A' for Active; 'I' for Inactive)
REMARK    1  A    between atoms: C8_10  and  N3_11 
REMARK    2  A    between atoms: N3_11  and  C9_12 
REMARK    3  A    between atoms: C13_17  and  O1_18 
REMARK    4  A    between atoms: C17_22  and  N4_23 
REMARK       I    between atoms: N4_23  and  C18_24 
REMARK    5  A    between atoms: C18_24  and  C19_26 
REMARK    6  A    between atoms: C20_27  and  C21_28 
REMARK    7  A    between atoms: C21_28  and  N5_29 
ROOT
HETATM    1  C1  UNL     1       2.790   2.047   0.582  1.00  0.00     0.050 C 
HETATM    2  C2  UNL     1       1.549   1.555   1.273  1.00  0.00    -0.033 A 
HETATM    3  C3  UNL     1       1.201   2.418   2.323  1.00  0.00     0.041 A 
HETATM    4  C4  UNL     1       0.081   2.118   3.071  1.00  0.00     0.069 A 
HETATM    5  N1  UNL     1      -0.330   2.877   4.127  1.00  0.00    -0.259 NA
HETATM    6  C5  UNL     1      -1.411   2.539   4.849  1.00  0.00     0.142 A 
HETATM    7  C6  UNL     1      -2.184   1.403   4.579  1.00  0.00     0.089 A 
HETATM    8  C7  UNL     1      -3.289   1.171   5.430  1.00  0.00     0.103 C 
HETATM    9  N2  UNL     1      -4.177   0.989   6.116  1.00  0.00    -0.191 NA
HETATM   10  C8  UNL     1      -1.751   0.662   3.516  1.00  0.00     0.067 A 
HETATM   11  C15 UNL     1      -0.633   0.986   2.748  1.00  0.00     0.023 A 
HETATM   12  C16 UNL     1      -0.334   0.094   1.716  1.00  0.00     0.046 A 
HETATM   13  C17 UNL     1       0.789   0.443   1.005  1.00  0.00     0.042 A 
ENDROOT
BRANCH  10  14
HETATM   14  N3  UNL     1      -2.532  -0.512   3.244  1.00  0.00    -0.354 N 
HETATM   15  H6  UNL     1      -2.220  -1.459   3.508  1.00  0.00     0.166 HD
BRANCH  14  16
HETATM   16  C9  UNL     1      -3.800  -0.354   2.569  1.00  0.00     0.035 A 
HETATM   17  C10 UNL     1      -4.308   0.902   2.315  1.00  0.00     0.032 A 
HETATM   18  C11 UNL     1      -5.495   1.122   1.700  1.00  0.00     0.047 A 
HETATM   19  C12 UNL     1      -6.195   0.007   1.330  1.00  0.00     0.149 A 
HETATM   20  F1  UNL     1      -7.397   0.149   0.704  1.00  0.00    -0.203 F 
HETATM   21  C13 UNL     1      -5.743  -1.300   1.556  1.00  0.00     0.106 A 
HETATM   22  C14 UNL     1      -4.520  -1.496   2.189  1.00  0.00     0.069 A 
BRANCH  21  23
HETATM   23  O1  UNL     1      -6.559  -2.362   1.127  1.00  0.00    -0.358 OA
HETATM   24  H9  UNL     1      -6.863  -2.980   1.872  1.00  0.00     0.217 HD
ENDBRANCH  21  23
ENDBRANCH  14  16
ENDBRANCH  10  14
BRANCH  13  25
HETATM   25  N4  UNL     1       1.386  -0.209  -0.106  1.00  0.00    -0.323 N 
HETATM   26  C18 UNL     1       1.354  -0.030  -1.486  1.00  0.00     0.245 C 
HETATM   27  O2  UNL     1       0.699   0.869  -2.108  1.00  0.00    -0.268 OA
HETATM   28  H12 UNL     1       1.916  -0.933   0.388  1.00  0.00     0.169 HD
BRANCH  26  29
HETATM   29  C19 UNL     1       2.120  -0.918  -2.380  1.00  0.00     0.072 C 
HETATM   30  C20 UNL     1       2.225  -0.884  -3.677  1.00  0.00     0.008 C 
BRANCH  30  31
HETATM   31  C21 UNL     1       3.052  -1.878  -4.371  1.00  0.00     0.299 C 
BRANCH  31  32
HETATM   32  N5  UNL     1       4.161  -1.290  -5.130  1.00  0.00     0.083 N 
HETATM   33  C22 UNL     1       5.124  -0.686  -4.214  1.00  0.00     0.309 C 
HETATM   34  C23 UNL     1       4.904  -2.368  -5.808  1.00  0.00     0.309 C 
ENDBRANCH  31  32
ENDBRANCH  30  31
ENDBRANCH  26  29
ENDBRANCH  13  25
TORSDOF 7
