REMARK  2 active torsions:
REMARK  status: ('A' for Active; 'I' for Inactive)
REMARK    1  A    between atoms: C8_10  and  N2_11 
REMARK    2  A    between atoms: C15_21  and  N4_22 
ROOT
HETATM    1  C1  UNL     1      -0.798  -2.897  -1.248  1.00  0.00     0.026 C 
HETATM    2  C2  UNL     1      -1.274  -1.665  -1.275  1.00  0.00    -0.015 C 
HETATM    3  C3  UNL     1      -1.034  -0.840  -2.488  1.00  0.00     0.011 C 
HETATM    4  C4  UNL     1      -1.550   0.405  -2.416  1.00  0.00     0.005 C 
HETATM    5  C5  UNL     1      -1.467   1.016  -1.034  1.00  0.00     0.161 C 
HETATM    6  N1  UNL     1      -0.224   0.626  -0.388  1.00  0.00    -0.345 N 
HETATM    7  C6  UNL     1       1.003   0.251   0.220  1.00  0.00     0.235 C 
HETATM    8  O1  UNL     1       1.378   0.604  -0.952  1.00  0.00    -0.269 OA
HETATM    9  C7  UNL     1       1.561  -0.256   1.473  1.00  0.00    -0.027 C 
HETATM   10  C8  UNL     1       2.841   0.406   1.561  1.00  0.00     0.300 C 
HETATM   11  B1  UNL     1       0.528  -1.397   2.333  1.00  0.00     0.239 B 
HETATM   12  C13 UNL     1      -1.038  -1.898   1.758  1.00  0.00     0.031 C 
HETATM   13  N3  UNL     1      -2.086  -1.914   0.956  1.00  0.00    -0.274 NA
HETATM   14  C14 UNL     1      -2.046  -1.014  -0.189  1.00  0.00     0.089 C 
HETATM   15  C15 UNL     1      -2.529   0.246  -0.274  1.00  0.00     0.072 C 
HETATM   16  H6  UNL     1      -0.553   0.452   0.611  1.00  0.00     0.163 HD
ENDROOT
BRANCH  15  17
HETATM   17  N4  UNL     1      -3.771   0.678   0.255  1.00  0.00    -0.331 N 
HETATM   18  C16 UNL     1      -4.692  -0.330   0.590  1.00  0.00     0.096 A 
HETATM   19  C17 UNL     1      -5.857   0.099   1.084  1.00  0.00     0.033 A 
HETATM   20  C18 UNL     1      -6.214   1.526   1.290  1.00  0.00     0.240 A 
HETATM   21  F1  UNL     1      -6.518   1.803   2.622  1.00  0.00    -0.239 F 
HETATM   22  C19 UNL     1      -5.131   2.457   0.886  1.00  0.00     0.065 A 
HETATM   23 CL1  UNL     1      -5.425   4.160   1.076  1.00  0.00    -0.084 Cl
HETATM   24  C20 UNL     1      -3.969   2.063   0.393  1.00  0.00     0.119 A 
ENDBRANCH  15  17
BRANCH  10  25
HETATM   25  N2  UNL     1       3.758   0.122   0.491  1.00  0.00     0.095 NA
HETATM   26  C9  UNL     1       4.250  -1.226   0.466  1.00  0.00     0.299 C 
HETATM   27  C10 UNL     1       5.471  -1.189  -0.465  1.00  0.00     0.198 C 
HETATM   28  O2  UNL     1       5.373  -0.136  -1.387  1.00  0.00    -0.388 OA
HETATM   29  C11 UNL     1       5.498   1.113  -0.770  1.00  0.00     0.198 C 
HETATM   30  C12 UNL     1       4.945   0.969   0.621  1.00  0.00     0.299 C 
ENDBRANCH  10  25
TORSDOF 2
