REMARK  7 active torsions:
REMARK  status: ('A' for Active; 'I' for Inactive)
REMARK    1  A    between atoms: O1_2  and  C2_3 
REMARK    2  A    between atoms: C6_9  and  N3_10 
REMARK    3  A    between atoms: N3_10  and  C7_11 
REMARK    4  A    between atoms: C15_20  and  C16_21 
REMARK    5  A    between atoms: C16_21  and  N4_22 
REMARK    6  A    between atoms: C20_26  and  C21_27 
REMARK    7  A    between atoms: C21_27  and  C22_28 
REMARK       I    between atoms: C22_28  and  N5_29 
ROOT
HETATM    1  C2  UNL     1       0.623  -2.268   1.138  1.00  0.00     0.078 A 
HETATM    2  C3  UNL     1      -0.522  -2.965   1.393  1.00  0.00     0.070 A 
HETATM    3  C4  UNL     1      -1.758  -2.412   1.169  1.00  0.00     0.074 A 
HETATM    4  N1  UNL     1      -2.873  -3.112   1.431  1.00  0.00    -0.241 NA
HETATM    5  C5  UNL     1      -4.089  -2.578   1.218  1.00  0.00     0.236 A 
HETATM    6  N2  UNL     1      -4.158  -1.312   0.731  1.00  0.00    -0.224 NA
HETATM    7  C6  UNL     1      -3.050  -0.611   0.468  1.00  0.00     0.142 A 
HETATM    8  C13 UNL     1      -1.796  -1.128   0.676  1.00  0.00     0.039 A 
HETATM    9  C14 UNL     1      -0.621  -0.457   0.430  1.00  0.00     0.029 A 
HETATM   10  C15 UNL     1       0.670  -0.971   0.640  1.00  0.00     0.004 A 
ENDROOT
BRANCH  10  11
HETATM   11  C16 UNL     1       1.805  -0.117   0.296  1.00  0.00     0.314 C 
BRANCH  11  12
HETATM   12  N4  UNL     1       2.403  -0.210  -0.963  1.00  0.00     0.097 NA
HETATM   13  C17 UNL     1       2.977  -1.391  -1.449  1.00  0.00     0.273 C 
HETATM   14  C18 UNL     1       4.388  -1.025  -1.967  1.00  0.00     0.032 C 
HETATM   15  C19 UNL     1       4.670   0.151  -1.024  1.00  0.00     0.038 C 
HETATM   16  C20 UNL     1       3.329   0.881  -1.176  1.00  0.00     0.232 C 
BRANCH  16  17
HETATM   17  C21 UNL     1       3.252   1.999  -0.204  1.00  0.00     0.138 C 
BRANCH  17  18
HETATM   18  C22 UNL     1       4.307   2.999  -0.629  1.00  0.00     0.217 C 
HETATM   19  N5  UNL     1       4.410   4.149   0.199  1.00  0.00    -0.370 N 
HETATM   20  H23 UNL     1       5.283   4.087   0.759  1.00  0.00     0.159 HD
HETATM   21  H24 UNL     1       3.960   5.062   0.490  1.00  0.00     0.159 HD
HETATM   22  O2  UNL     1       5.122   3.001  -1.593  1.00  0.00    -0.274 OA
ENDBRANCH  17  18
ENDBRANCH  16  17
ENDBRANCH  11  12
ENDBRANCH  10  11
BRANCH   1  23
HETATM   23  O1  UNL     1       1.855  -2.848   1.378  1.00  0.00    -0.355 OA
HETATM   24  C1  UNL     1       1.897  -4.162   1.882  1.00  0.00     0.210 C 
ENDBRANCH   1  23
BRANCH   7  25
HETATM   25  N3  UNL     1      -3.186   0.691  -0.050  1.00  0.00    -0.338 N 
HETATM   26  H6  UNL     1      -2.510   1.404  -0.327  1.00  0.00     0.167 HD
BRANCH  25  27
HETATM   27  C7  UNL     1      -4.403   1.346  -0.319  1.00  0.00     0.072 A 
HETATM   28  C8  UNL     1      -4.842   1.810  -1.544  1.00  0.00     0.033 A 
HETATM   29  C9  UNL     1      -6.079   2.449  -1.630  1.00  0.00     0.002 A 
HETATM   30  C10 UNL     1      -6.896   2.643  -0.539  1.00  0.00     0.003 A 
HETATM   31  C11 UNL     1      -6.439   2.168   0.691  1.00  0.00     0.044 A 
HETATM   32  C12 UNL     1      -5.208   1.531   0.786  1.00  0.00     0.143 A 
HETATM   33  F1  UNL     1      -4.896   1.129   2.024  1.00  0.00    -0.204 F 
ENDBRANCH  25  27
ENDBRANCH   7  25
TORSDOF 7
