REMARK  7 active torsions:
REMARK  status: ('A' for Active; 'I' for Inactive)
REMARK    1  A    between atoms: C4_5  and  C5_6 
REMARK    2  A    between atoms: C7_9  and  N3_10 
REMARK    3  A    between atoms: N3_10  and  C8_11 
REMARK    4  A    between atoms: C14_19  and  N4_20 
REMARK       I    between atoms: N4_20  and  C15_21 
REMARK    5  A    between atoms: C15_21  and  C16_23 
REMARK    6  A    between atoms: C16_23  and  C17_24 
REMARK    7  A    between atoms: C17_24  and  N5_25 
ROOT
HETATM    1  C5  UNL     1      -1.355   1.240  -1.033  1.00  0.00     0.086 C 
HETATM    2  C6  UNL     1      -0.281   1.233  -1.978  1.00  0.00     0.103 C 
HETATM    3  N2  UNL     1       0.590   1.245  -2.736  1.00  0.00    -0.191 NA
HETATM    4  C7  UNL     1      -2.296   2.153  -0.913  1.00  0.00     0.113 C 
ENDROOT
BRANCH   1   5
HETATM    5  C4  UNL     1      -1.461   0.146  -0.080  1.00  0.00     0.073 C 
HETATM    6  N1  UNL     1      -2.302  -0.067   0.839  1.00  0.00    -0.290 NA
HETATM    7  C3  UNL     1      -2.419  -1.119   1.771  1.00  0.00     0.153 C 
HETATM    8  C2  UNL     1      -2.079  -2.455   1.193  1.00  0.00     0.004 C 
HETATM    9  C1  UNL     1      -1.339  -3.335   2.187  1.00  0.00     0.011 C 
HETATM   10  C22 UNL     1      -1.267  -2.293  -0.054  1.00  0.00     0.037 C 
HETATM   11  C14 UNL     1      -0.529  -1.004  -0.021  1.00  0.00     0.138 C 
BRANCH  11  12
HETATM   12  N4  UNL     1       0.528  -0.880   0.927  1.00  0.00    -0.351 N 
HETATM   13  C15 UNL     1       1.854  -0.766   0.482  1.00  0.00     0.219 C 
HETATM   14  O1  UNL     1       2.335  -0.753  -0.684  1.00  0.00    -0.274 OA
HETATM   15  H13 UNL     1       0.635  -0.841   1.967  1.00  0.00     0.163 HD
BRANCH  13  16
HETATM   16  C16 UNL     1       3.187  -0.620   1.168  1.00  0.00     0.133 C 
BRANCH  16  17
HETATM   17  C17 UNL     1       4.271  -0.562   0.121  1.00  0.00     0.282 C 
BRANCH  17  18
HETATM   18  N5  UNL     1       4.122   0.529  -0.799  1.00  0.00     0.093 N 
HETATM   19  C18 UNL     1       5.191   0.513  -1.772  1.00  0.00     0.298 C 
HETATM   20  C19 UNL     1       6.519   0.951  -1.237  1.00  0.00     0.198 C 
HETATM   21  O2  UNL     1       6.503   1.411   0.056  1.00  0.00    -0.388 OA
HETATM   22  C20 UNL     1       5.450   2.232   0.379  1.00  0.00     0.198 C 
HETATM   23  C21 UNL     1       4.126   1.827  -0.188  1.00  0.00     0.298 C 
ENDBRANCH  17  18
ENDBRANCH  16  17
ENDBRANCH  13  16
ENDBRANCH  11  12
ENDBRANCH   1   5
BRANCH   4  24
HETATM   24  N3  UNL     1      -3.258   1.924   0.124  1.00  0.00    -0.364 N 
HETATM   25  H8  UNL     1      -3.001   2.212   1.094  1.00  0.00     0.165 HD
BRANCH  24  26
HETATM   26  C8  UNL     1      -4.533   1.323  -0.149  1.00  0.00     0.033 A 
HETATM   27  C9  UNL     1      -5.448   1.111   0.888  1.00  0.00     0.032 A 
HETATM   28  C10 UNL     1      -6.605   0.526   0.434  1.00  0.00     0.046 A 
HETATM   29  C11 UNL     1      -6.924   0.159  -0.845  1.00  0.00     0.138 A 
HETATM   30  F1  UNL     1      -8.097  -0.411  -1.188  1.00  0.00    -0.204 F 
HETATM   31  C12 UNL     1      -5.974   0.394  -1.841  1.00  0.00     0.074 A 
HETATM   32 CL1  UNL     1      -6.233  -0.013  -3.502  1.00  0.00    -0.081 Cl
HETATM   33  C13 UNL     1      -4.794   0.975  -1.454  1.00  0.00     0.056 A 
ENDBRANCH  24  26
ENDBRANCH   4  24
TORSDOF 7
