REMARK  1 active torsions:
REMARK  status: ('A' for Active; 'I' for Inactive)
REMARK    1  A    between atoms: C9_11  and  N2_12 
ROOT
HETATM    1  C1  UNL     1       4.695   1.311  -0.164  1.00  0.00     0.011 A 
HETATM    2  C2  UNL     1       3.390   1.530  -0.163  1.00  0.00     0.028 A 
HETATM    3  C3  UNL     1       2.606   0.314  -0.147  1.00  0.00    -0.035 A 
HETATM    4  O1  UNL     1       3.814   0.057  -0.148  1.00  0.00     0.000 OA
HETATM    5  C4  UNL     1       1.178   0.202  -0.142  1.00  0.00    -0.015 C 
HETATM    6  C5  UNL     1       0.581   1.382  -0.149  1.00  0.00     0.028 C 
HETATM    7  C6  UNL     1      -0.851   1.645  -0.146  1.00  0.00     0.011 A 
HETATM    8  C7  UNL     1      -1.233   2.931  -0.464  1.00  0.00     0.130 A 
HETATM    9  N1  UNL     1      -2.537   3.270  -0.484  1.00  0.00    -0.270 NA
HETATM   10  C8  UNL     1      -3.519   2.377  -0.197  1.00  0.00     0.148 A 
HETATM   11  C9  UNL     1      -3.138   1.085   0.122  1.00  0.00     0.083 A 
HETATM   12  C10 UNL     1      -1.821   0.683   0.158  1.00  0.00     0.073 A 
HETATM   13  N3  UNL     1      -1.737  -0.712   0.518  1.00  0.00    -0.353 N 
HETATM   14  C11 UNL     1      -0.623  -1.541   0.167  1.00  0.00     0.043 A 
HETATM   15  C12 UNL     1      -1.029  -2.879   0.157  1.00  0.00     0.030 A 
HETATM   16  C13 UNL     1      -0.049  -3.808  -0.173  1.00  0.00     0.002 A 
HETATM   17  C14 UNL     1       1.258  -3.435  -0.476  1.00  0.00     0.001 A 
HETATM   18  C15 UNL     1       1.595  -2.099  -0.448  1.00  0.00     0.014 A 
HETATM   19  C16 UNL     1       0.664  -1.154  -0.129  1.00  0.00     0.001 A 
HETATM   20  H8  UNL     1      -2.528  -1.126   1.056  1.00  0.00     0.166 HD
ENDROOT
BRANCH  11  21
HETATM   21  N2  UNL     1      -4.154   0.152   0.421  1.00  0.00    -0.320 N 
HETATM   22 BR1  UNL     1      -4.610   0.092   2.258  1.00  0.00     0.047 Br
HETATM   23  H7  UNL     1      -4.690  -0.503  -0.198  1.00  0.00     0.174 HD
ENDBRANCH  11  21
TORSDOF 1
