REMARK  4 active torsions:
REMARK  status: ('A' for Active; 'I' for Inactive)
REMARK    1  A    between atoms: B1_2  and  C2_3 
REMARK       I    between atoms: C2_3  and  N1_5 
REMARK    2  A    between atoms: N1_5  and  C3_6 
REMARK    3  A    between atoms: C7_10  and  N2_11 
REMARK    4  A    between atoms: C15_21  and  O2_22 
ROOT
HETATM    1  C3  UNL     1      -2.078   0.438  -0.422  1.00  0.00     0.070 C 
HETATM    2  C4  UNL     1      -1.583   1.595   0.089  1.00  0.00     0.041 C 
HETATM    3  C5  UNL     1      -0.157   1.712  -0.155  1.00  0.00    -0.035 C 
HETATM    4  C6  UNL     1       1.060   1.847   0.371  1.00  0.00     0.029 C 
HETATM    5  C7  UNL     1       1.744   0.629   0.241  1.00  0.00     0.120 C 
HETATM    6  N3  UNL     1       1.281  -0.580  -0.535  1.00  0.00    -0.342 N 
HETATM    7  C14 UNL     1       0.017  -0.116  -1.107  1.00  0.00     0.051 C 
HETATM    8  C15 UNL     1      -1.230  -0.597  -1.115  1.00  0.00     0.117 C 
HETATM    9  C17 UNL     1       0.177   1.363  -1.641  1.00  0.00     0.099 C 
HETATM   10  H14 UNL     1       1.351  -1.555  -0.870  1.00  0.00     0.167 HD
ENDROOT
BRANCH   5  11
HETATM   11  N2  UNL     1       2.947   0.250   0.780  1.00  0.00    -0.333 N 
HETATM   12  C8  UNL     1       3.039  -0.401   2.044  1.00  0.00     0.112 A 
HETATM   13  C9  UNL     1       4.257  -0.718   2.458  1.00  0.00     0.026 A 
HETATM   14 BR1  UNL     1       4.376  -1.578   4.129  1.00  0.00    -0.050 Br
HETATM   15  C10 UNL     1       5.466  -0.433   1.692  1.00  0.00     0.018 A 
HETATM   16  C11 UNL     1       5.296   0.174   0.528  1.00  0.00    -0.000 A 
HETATM   17  C12 UNL     1       4.034   0.610  -0.114  1.00  0.00     0.109 A 
HETATM   18  C13 UNL     1       4.056   2.067  -0.482  1.00  0.00     0.037 C 
ENDBRANCH   5  11
BRANCH   8  19
HETATM   19  O2  UNL     1      -1.183  -1.792  -1.727  1.00  0.00    -0.352 OA
HETATM   20  C16 UNL     1      -1.903  -2.956  -1.474  1.00  0.00     0.210 C 
ENDBRANCH   8  19
BRANCH   1  21
HETATM   21  N1  UNL     1      -3.432   0.119  -0.331  1.00  0.00    -0.336 N 
HETATM   22  C2  UNL     1      -4.234  -0.896   0.260  1.00  0.00     0.161 C 
HETATM   23  O1  UNL     1      -3.783  -1.848   0.921  1.00  0.00    -0.289 OA
HETATM   24  H5  UNL     1      -3.981   0.862  -0.863  1.00  0.00     0.168 HD
BRANCH  22  25
HETATM   25  B1  UNL     1      -5.783  -0.880   0.112  1.00  0.00     0.266 B 
HETATM   26  C1  UNL     1      -6.590   0.248   0.880  1.00  0.00    -0.048 C 
HETATM   27  H4  UNL     1      -6.253  -1.318  -0.871  1.00  0.00    -0.016 HD
ENDBRANCH  22  25
ENDBRANCH   1  21
TORSDOF 4
