REMARK  1 active torsions:
REMARK  status: ('A' for Active; 'I' for Inactive)
REMARK    1  A    between atoms: C2_2  and  N1_4 
ROOT
HETATM    1  N1  UNL     1       3.081   1.070   1.267  1.00  0.00     0.102 N 
HETATM    2  C4  UNL     1       2.356   1.102   2.513  1.00  0.00     0.358 C 
HETATM    3  C5  UNL     1       0.996   1.404   2.428  1.00  0.00    -0.115 C 
HETATM    4  C6  UNL     1      -0.129   1.645   2.339  1.00  0.00     0.046 A 
HETATM    5  C7  UNL     1      -1.508   1.930   2.208  1.00  0.00     0.286 A 
HETATM    6  O1  UNL     1      -1.058   1.685   1.030  1.00  0.00     0.000 OA
HETATM    7  N2  UNL     1      -2.321   1.966   1.054  1.00  0.00     0.140 N 
HETATM    8  C8  UNL     1      -2.521   1.834  -0.340  1.00  0.00     0.170 A 
HETATM    9  C9  UNL     1      -2.899   2.693  -1.302  1.00  0.00     0.040 A 
HETATM   10  C10 UNL     1      -2.997   2.293  -2.611  1.00  0.00     0.005 A 
HETATM   11  C11 UNL     1      -2.728   1.014  -3.041  1.00  0.00     0.037 A 
HETATM   12  C12 UNL     1      -2.339   0.087  -2.103  1.00  0.00     0.078 A 
HETATM   13  C13 UNL     1      -2.246   0.517  -0.792  1.00  0.00     0.076 A 
HETATM   14  O2  UNL     1      -2.009  -1.268  -2.262  1.00  0.00    -0.308 OA
HETATM   15  C14 UNL     1      -2.314  -2.151  -1.198  1.00  0.00     0.102 A 
HETATM   16  C15 UNL     1      -3.621  -2.572  -1.238  1.00  0.00     0.041 A 
HETATM   17  C16 UNL     1      -4.187  -3.427  -0.325  1.00  0.00     0.022 A 
HETATM   18  C17 UNL     1      -3.408  -3.905   0.706  1.00  0.00     0.013 A 
HETATM   19 BR1  UNL     1      -4.160  -5.074   1.986  1.00  0.00    -0.051 Br
HETATM   20  C18 UNL     1      -2.101  -3.466   0.719  1.00  0.00     0.051 A 
HETATM   21  C19 UNL     1      -1.501  -2.604  -0.186  1.00  0.00     0.063 A 
HETATM   22  N3  UNL     1      -0.133  -2.393   0.142  1.00  0.00    -0.388 N 
HETATM   23  C20 UNL     1       1.025  -2.254  -0.708  1.00  0.00     0.120 C 
HETATM   24  C21 UNL     1       2.339  -2.360  -0.025  1.00  0.00     0.021 C 
HETATM   25  C22 UNL     1       2.619  -1.304   0.986  1.00  0.00     0.032 C 
HETATM   26  C23 UNL     1       2.694   0.050   0.347  1.00  0.00     0.274 C 
HETATM   27  H10 UNL     1      -3.322   2.232   1.312  1.00  0.00     0.325 HD
HETATM   28  H18 UNL     1       0.149  -2.319   1.145  1.00  0.00     0.159 HD
ENDROOT
BRANCH   1  29
HETATM   29  C2  UNL     1       3.217   2.374   0.659  1.00  0.00     0.216 C 
HETATM   30  C1  UNL     1       4.063   2.214  -0.588  1.00  0.00     0.042 C 
HETATM   31  C3  UNL     1       1.939   3.022   0.244  1.00  0.00     0.042 C 
ENDBRANCH   1  29
TORSDOF 1
