REMARK  5 active torsions:
REMARK  status: ('A' for Active; 'I' for Inactive)
REMARK    1  A    between atoms: C2_2  and  C3_3 
REMARK       I    between atoms: C3_3  and  N1_5 
REMARK    2  A    between atoms: N1_5  and  C4_6 
REMARK    3  A    between atoms: C7_9  and  N2_10 
REMARK    4  A    between atoms: N2_10  and  C8_11 
REMARK    5  A    between atoms: C19_26  and  O3_27 
ROOT
HETATM    1  C4  UNL     1      -1.449   1.077   0.889  1.00  0.00     0.069 A 
HETATM    2  C5  UNL     1      -0.678   0.112   0.278  1.00  0.00     0.048 A 
HETATM    3  C6  UNL     1       0.032  -0.706   1.104  1.00  0.00     0.023 A 
HETATM    4  C7  UNL     1       0.833  -1.705   0.560  1.00  0.00     0.067 A 
HETATM    5  C14 UNL     1       1.549  -2.530   1.405  1.00  0.00     0.089 A 
HETATM    6  C15 UNL     1       2.407  -3.596   0.915  1.00  0.00     0.103 C 
HETATM    7  N3  UNL     1       3.095  -4.421   0.533  1.00  0.00    -0.191 NA
HETATM    8  C16 UNL     1       1.496  -2.394   2.793  1.00  0.00     0.142 A 
HETATM    9  N4  UNL     1       0.716  -1.424   3.279  1.00  0.00    -0.259 NA
HETATM   10  C17 UNL     1       0.013  -0.612   2.479  1.00  0.00     0.071 A 
HETATM   11  C18 UNL     1      -0.769   0.365   3.041  1.00  0.00     0.071 A 
HETATM   12  C19 UNL     1      -1.530   1.247   2.278  1.00  0.00     0.097 A 
ENDROOT
BRANCH   4  13
HETATM   13  N2  UNL     1       0.917  -1.880  -0.837  1.00  0.00    -0.356 N 
HETATM   14  H6  UNL     1       0.216  -2.549  -1.261  1.00  0.00     0.166 HD
BRANCH  13  15
HETATM   15  C8  UNL     1       1.764  -1.345  -1.865  1.00  0.00     0.035 A 
HETATM   16  C9  UNL     1       1.232  -0.878  -2.999  1.00  0.00     0.049 A 
HETATM   17  C10 UNL     1       2.173  -0.357  -3.976  1.00  0.00     0.041 A 
HETATM   18 BR1  UNL     1       1.384   0.299  -5.591  1.00  0.00    -0.048 Br
HETATM   19  C11 UNL     1       3.494  -0.337  -3.770  1.00  0.00     0.060 A 
HETATM   20  C12 UNL     1       4.281   0.239  -4.902  1.00  0.00     0.077 C 
HETATM   21  O2  UNL     1       4.013  -0.829  -2.577  1.00  0.00    -0.349 OA
HETATM   22  C13 UNL     1       3.234  -1.372  -1.555  1.00  0.00     0.232 A 
ENDBRANCH  13  15
ENDBRANCH   4  13
BRANCH   1  23
HETATM   23  N1  UNL     1      -2.266   2.028   0.170  1.00  0.00    -0.321 N 
HETATM   24  C3  UNL     1      -3.578   1.520  -0.053  1.00  0.00     0.245 C 
HETATM   25  O1  UNL     1      -3.701   0.368   0.428  1.00  0.00    -0.268 OA
HETATM   26  H4  UNL     1      -2.038   2.986  -0.190  1.00  0.00     0.169 HD
BRANCH  24  27
HETATM   27  C2  UNL     1      -4.522   2.370  -0.766  1.00  0.00     0.064 C 
HETATM   28  C1  UNL     1      -5.728   1.895  -0.971  1.00  0.00     0.017 C 
ENDBRANCH  24  27
ENDBRANCH   1  23
BRANCH  12  29
HETATM   29  O3  UNL     1      -2.314   2.228   2.870  1.00  0.00    -0.354 OA
HETATM   30  C20 UNL     1      -2.319   2.309   4.280  1.00  0.00     0.210 C 
ENDBRANCH  12  29
TORSDOF 5
