REMARK  5 active torsions:
REMARK  status: ('A' for Active; 'I' for Inactive)
REMARK    1  A    between atoms: C2_2  and  C3_3 
REMARK       I    between atoms: C3_3  and  N1_5 
REMARK    2  A    between atoms: N1_5  and  C4_6 
REMARK    3  A    between atoms: C7_9  and  N2_10 
REMARK    4  A    between atoms: N2_10  and  C8_11 
REMARK    5  A    between atoms: C18_25  and  O3_26 
ROOT
HETATM    1  C4  UNL     1      -2.216   0.051  -0.331  1.00  0.00     0.069 A 
HETATM    2  C5  UNL     1      -0.845   0.213  -0.246  1.00  0.00     0.048 A 
HETATM    3  C6  UNL     1      -0.046  -0.887  -0.453  1.00  0.00     0.023 A 
HETATM    4  C7  UNL     1       1.332  -0.817  -0.388  1.00  0.00     0.067 A 
HETATM    5  C13 UNL     1       2.119  -1.922  -0.597  1.00  0.00     0.089 A 
HETATM    6  C14 UNL     1       3.552  -1.925  -0.546  1.00  0.00     0.103 C 
HETATM    7  N3  UNL     1       4.708  -1.927  -0.492  1.00  0.00    -0.191 NA
HETATM    8  C15 UNL     1       1.529  -3.157  -0.884  1.00  0.00     0.142 A 
HETATM    9  N4  UNL     1       0.177  -3.236  -0.950  1.00  0.00    -0.259 NA
HETATM   10  C16 UNL     1      -0.578  -2.127  -0.739  1.00  0.00     0.071 A 
HETATM   11  C17 UNL     1      -1.945  -2.255  -0.816  1.00  0.00     0.071 A 
HETATM   12  C18 UNL     1      -2.786  -1.178  -0.615  1.00  0.00     0.097 A 
ENDROOT
BRANCH   4  13
HETATM   13  N2  UNL     1       1.988   0.380  -0.108  1.00  0.00    -0.354 N 
HETATM   14  H6  UNL     1       1.640   1.345   0.086  1.00  0.00     0.166 HD
BRANCH  13  15
HETATM   15  C8  UNL     1       3.320   0.797   0.031  1.00  0.00     0.034 A 
HETATM   16  C9  UNL     1       4.079   1.277  -0.971  1.00  0.00     0.029 A 
HETATM   17  C10 UNL     1       5.503   1.750  -0.947  1.00  0.00     0.206 A 
HETATM   18  O2  UNL     1       6.056   1.647   0.343  1.00  0.00    -0.340 OA
HETATM   19  C11 UNL     1       5.335   1.165   1.415  1.00  0.00     0.117 A 
HETATM   20 BR1  UNL     1       6.212   1.079   3.114  1.00  0.00    -0.024 Br
HETATM   21  C12 UNL     1       4.068   0.763   1.308  1.00  0.00     0.074 A 
ENDBRANCH  13  15
ENDBRANCH   4  13
BRANCH   1  22
HETATM   22  N1  UNL     1      -3.038   1.216  -0.111  1.00  0.00    -0.321 N 
HETATM   23  C3  UNL     1      -3.475   1.514   1.201  1.00  0.00     0.245 C 
HETATM   24  O1  UNL     1      -3.258   0.903   2.277  1.00  0.00    -0.268 OA
HETATM   25  H4  UNL     1      -3.341   1.872  -0.867  1.00  0.00     0.169 HD
BRANCH  23  26
HETATM   26  C2  UNL     1      -4.308   2.689   1.452  1.00  0.00     0.064 C 
HETATM   27  C1  UNL     1      -4.670   2.896   2.691  1.00  0.00     0.017 C 
ENDBRANCH  23  26
ENDBRANCH   1  22
BRANCH  12  28
HETATM   28  O3  UNL     1      -4.173  -1.198  -0.670  1.00  0.00    -0.354 OA
HETATM   29  C19 UNL     1      -4.950  -2.336  -0.943  1.00  0.00     0.210 C 
ENDBRANCH  12  28
TORSDOF 5
