REMARK  8 active torsions:
REMARK  status: ('A' for Active; 'I' for Inactive)
REMARK    1  A    between atoms: N1_1  and  C1_2 
REMARK    2  A    between atoms: C2_4  and  C3_5 
REMARK    3  A    between atoms: N2_9  and  C7_10 
REMARK    4  A    between atoms: C7_10  and  C8_11 
REMARK    5  A    between atoms: C8_11  and  C9_12 
REMARK    6  A    between atoms: C9_12  and  C10_13 
REMARK    7  A    between atoms: N4_17  and  C13_18 
REMARK    8  A    between atoms: N5_19  and  C14_20 
ROOT
HETATM    1  C10 UNL     1       1.986  -1.400   1.263  1.00  0.00     0.085 A 
HETATM    2  C11 UNL     1       2.236  -0.344   0.715  1.00  0.00     0.242 A 
HETATM    3  N3  UNL     1       2.014   0.340  -0.268  1.00  0.00     0.082 N 
HETATM    4  C12 UNL     1       1.696   0.940  -1.329  1.00  0.00     0.370 A 
HETATM    5  N4  UNL     1       2.508   1.198  -0.241  1.00  0.00    -0.044 NA
HETATM    6  C13 UNL     1       2.345  -0.070   0.646  1.00  0.00     0.299 A 
HETATM    7  N5  UNL     1       3.031   1.118   1.461  1.00  0.00    -0.310 N 
HETATM    8  C20 UNL     1       3.233   0.701   2.899  1.00  0.00     0.077 A 
HETATM    9  C21 UNL     1       2.662  -0.351   2.274  1.00  0.00     0.087 A 
ENDROOT
BRANCH   1  10
HETATM   10  C9  UNL     1       0.988  -2.171   0.429  1.00  0.00     0.015 C 
BRANCH  10  11
HETATM   11  C8  UNL     1       0.177  -2.952  -0.015  1.00  0.00     0.025 C 
BRANCH  11  12
HETATM   12  C7  UNL     1      -0.414  -2.851  -1.397  1.00  0.00     0.277 C 
BRANCH  12  13
HETATM   13  N2  UNL     1      -1.821  -2.644  -1.326  1.00  0.00     0.089 N 
HETATM   14  C6  UNL     1      -2.515  -2.598  -2.585  1.00  0.00     0.272 C 
HETATM   15  C5  UNL     1      -3.955  -2.218  -2.530  1.00  0.00     0.031 C 
HETATM   16  C4  UNL     1      -4.251  -1.017  -1.619  1.00  0.00     0.010 C 
HETATM   17  C3  UNL     1      -3.664  -1.417  -0.301  1.00  0.00     0.041 C 
HETATM   18  C22 UNL     1      -2.178  -1.501  -0.487  1.00  0.00     0.279 C 
BRANCH  17  19
HETATM   19  C2  UNL     1      -4.091  -0.705   0.906  1.00  0.00     0.216 A 
HETATM   20  C1  UNL     1      -3.909   0.742   1.034  1.00  0.00     0.201 A 
HETATM   21  O1  UNL     1      -3.532   0.398  -0.075  1.00  0.00    -0.351 OA
BRANCH  20  22
HETATM   22  N1  UNL     1      -3.607   2.148   0.837  1.00  0.00    -0.395 N 
HETATM   23  H1  UNL     1      -4.659   2.268   0.797  1.00  0.00     0.153 HD
HETATM   24  H2  UNL     1      -2.662   2.563   0.810  1.00  0.00     0.153 HD
ENDBRANCH  20  22
ENDBRANCH  17  19
ENDBRANCH  12  13
ENDBRANCH  11  12
ENDBRANCH  10  11
ENDBRANCH   1  10
BRANCH   7  25
HETATM   25  C14 UNL     1       3.689   2.475   1.345  1.00  0.00     0.077 A 
HETATM   26  C15 UNL     1       2.891   3.483   1.772  1.00  0.00     0.033 A 
HETATM   27  C16 UNL     1       3.751   4.625   1.628  1.00  0.00     0.004 A 
HETATM   28  C17 UNL     1       5.048   4.542   1.168  1.00  0.00     0.027 A 
HETATM   29  C18 UNL     1       5.635   3.394   0.797  1.00  0.00     0.074 A 
HETATM   30 CL1  UNL     1       7.304   3.557   0.269  1.00  0.00    -0.081 Cl
HETATM   31  C19 UNL     1       4.963   2.205   0.852  1.00  0.00     0.164 A 
HETATM   32  F1  UNL     1       5.542   1.051   0.492  1.00  0.00    -0.202 F 
ENDBRANCH   7  25
TORSDOF 8
