REMARK  4 active torsions:
REMARK  status: ('A' for Active; 'I' for Inactive)
REMARK    1  A    between atoms: C2_2  and  C3_3 
REMARK       I    between atoms: C3_3  and  N1_5 
REMARK    2  A    between atoms: C7_9  and  N2_10 
REMARK    3  A    between atoms: N2_10  and  C8_11 
REMARK    4  A    between atoms: C19_24  and  O2_25 
ROOT
HETATM    1  C3  UNL     1       4.505  -0.393   0.908  1.00  0.00     0.252 C 
HETATM    2  O1  UNL     1       5.639  -0.940   0.900  1.00  0.00    -0.268 OA
HETATM    3  N1  UNL     1       3.324  -0.493   0.120  1.00  0.00    -0.268 N 
HETATM    4  C4  UNL     1       2.194   0.312   0.438  1.00  0.00     0.115 A 
HETATM    5  C5  UNL     1       1.166   0.121  -0.372  1.00  0.00    -0.006 A 
HETATM    6  C6  UNL     1      -0.040   0.902  -0.126  1.00  0.00     0.044 A 
HETATM    7  C7  UNL     1      -1.100   0.727  -0.935  1.00  0.00     0.055 A 
HETATM    8  C14 UNL     1      -0.974  -0.241  -2.014  1.00  0.00     0.083 A 
HETATM    9  C15 UNL     1      -2.105  -0.428  -2.878  1.00  0.00     0.102 C 
HETATM   10  N3  UNL     1      -3.028  -0.563  -3.585  1.00  0.00    -0.191 NA
HETATM   11  C16 UNL     1       0.098  -0.944  -2.243  1.00  0.00     0.011 A 
HETATM   12  C17 UNL     1       1.153  -0.814  -1.491  1.00  0.00    -0.008 A 
HETATM   13  C18 UNL     1       2.340  -1.606  -1.761  1.00  0.00     0.071 A 
HETATM   14  C19 UNL     1       3.374  -1.422  -0.956  1.00  0.00     0.173 A 
ENDROOT
BRANCH   7  15
HETATM   15  N2  UNL     1      -2.269   1.493  -0.686  1.00  0.00    -0.355 N 
HETATM   16  H6  UNL     1      -2.152   2.487  -0.962  1.00  0.00     0.166 HD
BRANCH  15  17
HETATM   17  C8  UNL     1      -3.505   1.048  -0.131  1.00  0.00     0.033 A 
HETATM   18  C9  UNL     1      -4.543   1.941   0.041  1.00  0.00     0.029 A 
HETATM   19  C10 UNL     1      -5.730   1.504   0.576  1.00  0.00     0.004 A 
HETATM   20  C11 UNL     1      -5.922   0.193   0.953  1.00  0.00     0.019 A 
HETATM   21  C12 UNL     1      -4.855  -0.668   0.764  1.00  0.00     0.013 A 
HETATM   22 BR1  UNL     1      -4.995  -2.524   1.248  1.00  0.00    -0.051 Br
HETATM   23  C13 UNL     1      -3.639  -0.277   0.228  1.00  0.00     0.048 A 
ENDBRANCH  15  17
ENDBRANCH   7  15
BRANCH  14  24
HETATM   24  O2  UNL     1       4.513  -2.176  -1.208  1.00  0.00    -0.222 OA
HETATM   25 CL1  UNL     1       4.399  -3.901  -1.042  1.00  0.00     0.069 Cl
ENDBRANCH  14  24
BRANCH   1  26
HETATM   26  C2  UNL     1       4.681   0.486   2.054  1.00  0.00     0.065 C 
HETATM   27  C1  UNL     1       5.892   0.334   2.559  1.00  0.00     0.017 C 
ENDBRANCH   1  26
TORSDOF 4
