REMARK  12 active torsions:
REMARK  status: ('A' for Active; 'I' for Inactive)
REMARK    1  A    between atoms: C2_2  and  O1_3 
REMARK    2  A    between atoms: C2_2  and  O2_5 
REMARK    3  A    between atoms: O2_5  and  C4_6 
REMARK    4  A    between atoms: C4_6  and  C12_17 
REMARK    5  A    between atoms: C5_7  and  C6_8 
REMARK    6  A    between atoms: C9_13  and  C10_14 
REMARK    7  A    between atoms: C10_14  and  C11_15 
REMARK    8  A    between atoms: C12_17  and  N3_18 
REMARK    9  A    between atoms: N3_18  and  C13_19 
REMARK   10  A    between atoms: N4_23  and  C17_24 
REMARK   11  A    between atoms: C17_24  and  C18_25 
REMARK   12  A    between atoms: C18_25  and  N5_26 
ROOT
HETATM    1  C4  UNL     1      -0.895   0.122  -0.631  1.00  0.00     0.085 C 
HETATM    2  C5  UNL     1      -1.169  -0.812   0.297  1.00  0.00     0.049 C 
ENDROOT
BRANCH   1   3
HETATM    3  O2  UNL     1      -1.896   1.000  -1.053  1.00  0.00    -0.291 OA
BRANCH   3   4
HETATM    4  C2  UNL     1      -2.338   2.092  -0.325  1.00  0.00     0.175 C 
HETATM    5  C1  UNL     1      -3.574   2.140   0.131  1.00  0.00     0.080 C 
BRANCH   4   6
HETATM    6  O1  UNL     1      -1.567   3.224   0.002  1.00  0.00    -0.336 OA
HETATM    7  C3  UNL     1      -2.164   4.498   0.055  1.00  0.00     0.212 C 
ENDBRANCH   4   6
ENDBRANCH   3   4
ENDBRANCH   1   3
BRANCH   1   8
HETATM    8  C12 UNL     1       0.385   0.425  -1.357  1.00  0.00     0.337 C 
BRANCH   8   9
HETATM    9  N3  UNL     1       1.442  -0.457  -0.907  1.00  0.00     0.123 N 
HETATM   10  H15 UNL     1       1.055  -1.436  -0.964  1.00  0.00     0.319 HD
BRANCH   9  11
HETATM   11  C13 UNL     1       1.921  -0.203   0.408  1.00  0.00     0.454 C 
HETATM   12  C14 UNL     1       2.646  -1.408   1.001  1.00  0.00     0.070 C 
HETATM   13  C15 UNL     1       3.516  -0.807   2.059  1.00  0.00     0.034 C 
HETATM   14  C16 UNL     1       3.750   0.613   1.596  1.00  0.00     0.275 C 
HETATM   15  N4  UNL     1       2.937   0.826   0.452  1.00  0.00     0.123 N 
BRANCH  15  16
HETATM   16  C17 UNL     1       3.627   1.092  -0.754  1.00  0.00     0.304 C 
BRANCH  16  17
HETATM   17  C18 UNL     1       4.424  -0.038  -1.344  1.00  0.00     0.296 C 
BRANCH  17  18
HETATM   18  N5  UNL     1       5.471  -0.511  -0.448  1.00  0.00     0.080 N 
HETATM   19  H27 UNL     1       6.266   0.145  -0.376  1.00  0.00     0.312 HD
HETATM   20  H28 UNL     1       5.856  -1.405  -0.870  1.00  0.00     0.312 HD
ENDBRANCH  17  18
ENDBRANCH  16  17
ENDBRANCH  15  16
ENDBRANCH   9  11
ENDBRANCH   8   9
ENDBRANCH   1   8
BRANCH   2  21
HETATM   21  C6  UNL     1      -2.499  -0.875   0.818  1.00  0.00     0.009 A 
HETATM   22  C7  UNL     1      -2.837  -0.518   2.117  1.00  0.00     0.131 A 
HETATM   23  N1  UNL     1      -4.117  -0.631   2.560  1.00  0.00    -0.253 NA
HETATM   24  C8  UNL     1      -5.037  -1.090   1.726  1.00  0.00     0.232 A 
HETATM   25  N2  UNL     1      -4.736  -1.439   0.477  1.00  0.00    -0.246 NA
HETATM   26  C9  UNL     1      -3.490  -1.359  -0.041  1.00  0.00     0.050 A 
BRANCH  26  27
HETATM   27  C10 UNL     1      -3.330  -1.859  -1.420  1.00  0.00     0.091 C 
BRANCH  27  28
HETATM   28  C11 UNL     1      -2.782  -3.298  -1.288  1.00  0.00     0.228 C 
HETATM   29  F1  UNL     1      -3.719  -4.020  -0.568  1.00  0.00    -0.255 F 
ENDBRANCH  27  28
ENDBRANCH  26  27
ENDBRANCH   2  21
TORSDOF 12
