REMARK  5 active torsions:
REMARK  status: ('A' for Active; 'I' for Inactive)
REMARK    1  A    between atoms: C2_2  and  C3_3 
REMARK       I    between atoms: C3_3  and  N1_5 
REMARK    2  A    between atoms: N1_5  and  C4_6 
REMARK    3  A    between atoms: C7_9  and  N2_10 
REMARK    4  A    between atoms: N2_10  and  C8_11 
REMARK    5  A    between atoms: C18_24  and  O2_25 
ROOT
HETATM    1  C4  UNL     1       1.671  -0.523   0.409  1.00  0.00     0.069 A 
HETATM    2  C5  UNL     1       0.300  -0.582   0.170  1.00  0.00     0.048 A 
HETATM    3  C6  UNL     1      -0.582  -0.477   1.251  1.00  0.00     0.023 A 
HETATM    4  C7  UNL     1      -1.965  -0.529   1.066  1.00  0.00     0.067 A 
HETATM    5  C13 UNL     1      -2.749  -0.415   2.195  1.00  0.00     0.089 A 
HETATM    6  C14 UNL     1      -4.166  -0.473   1.969  1.00  0.00     0.103 C 
HETATM    7  N3  UNL     1      -5.329  -0.515   1.799  1.00  0.00    -0.191 NA
HETATM    8  C15 UNL     1      -2.192  -0.258   3.447  1.00  0.00     0.142 A 
HETATM    9  N4  UNL     1      -0.853  -0.212   3.587  1.00  0.00    -0.259 NA
HETATM   10  C16 UNL     1      -0.050  -0.317   2.529  1.00  0.00     0.071 A 
HETATM   11  C17 UNL     1       1.328  -0.261   2.745  1.00  0.00     0.071 A 
HETATM   12  C18 UNL     1       2.193  -0.365   1.673  1.00  0.00     0.097 A 
ENDROOT
BRANCH   4  13
HETATM   13  N2  UNL     1      -2.388  -0.698  -0.279  1.00  0.00    -0.356 N 
HETATM   14  H6  UNL     1      -2.429  -1.740  -0.275  1.00  0.00     0.166 HD
BRANCH  13  15
HETATM   15  C8  UNL     1      -2.693   0.122  -1.368  1.00  0.00     0.028 A 
HETATM   16  C9  UNL     1      -2.253   1.343  -1.623  1.00  0.00     0.026 A 
HETATM   17  C10 UNL     1      -2.833   1.823  -2.875  1.00  0.00    -0.001 A 
HETATM   18  C11 UNL     1      -3.618   0.846  -3.336  1.00  0.00    -0.005 A 
HETATM   19  C12 UNL     1      -3.620  -0.346  -2.432  1.00  0.00     0.130 A 
HETATM   20 BR1  UNL     1      -5.345  -0.702  -1.693  1.00  0.00    -0.080 Br
ENDBRANCH  13  15
ENDBRANCH   4  13
BRANCH   1  21
HETATM   21  N1  UNL     1       2.467  -0.640  -0.778  1.00  0.00    -0.321 N 
HETATM   22  C3  UNL     1       2.689   0.666  -1.310  1.00  0.00     0.245 C 
HETATM   23  O1  UNL     1       2.124   1.531  -0.583  1.00  0.00    -0.268 OA
HETATM   24  H4  UNL     1       2.875  -1.488  -1.268  1.00  0.00     0.169 HD
BRANCH  22  25
HETATM   25  C2  UNL     1       3.473   0.894  -2.530  1.00  0.00     0.064 C 
HETATM   26  C1  UNL     1       4.038  -0.039  -3.246  1.00  0.00     0.017 C 
ENDBRANCH  22  25
ENDBRANCH   1  21
BRANCH  12  27
HETATM   27  O2  UNL     1       3.572  -0.316   1.823  1.00  0.00    -0.354 OA
HETATM   28  C19 UNL     1       4.202  -0.157   3.078  1.00  0.00     0.210 C 
ENDBRANCH  12  27
TORSDOF 5
