REMARK  5 active torsions:
REMARK  status: ('A' for Active; 'I' for Inactive)
REMARK    1  A    between atoms: C2_2  and  C3_3 
REMARK       I    between atoms: C3_3  and  N1_5 
REMARK    2  A    between atoms: N1_5  and  C4_6 
REMARK    3  A    between atoms: C7_9  and  N2_10 
REMARK    4  A    between atoms: N2_10  and  C8_11 
REMARK    5  A    between atoms: C19_25  and  O2_26 
ROOT
HETATM    1  C4  UNL     1      -1.773  -0.008   0.546  1.00  0.00     0.069 A 
HETATM    2  C5  UNL     1      -0.447  -0.308   0.620  1.00  0.00     0.048 A 
HETATM    3  C6  UNL     1       0.152  -1.424   0.076  1.00  0.00     0.023 A 
HETATM    4  C7  UNL     1       1.507  -1.661   0.192  1.00  0.00     0.067 A 
HETATM    5  C14 UNL     1       1.985  -2.815  -0.397  1.00  0.00     0.089 A 
HETATM    6  C15 UNL     1       3.399  -3.140  -0.322  1.00  0.00     0.103 C 
HETATM    7  N3  UNL     1       4.530  -3.383  -0.266  1.00  0.00    -0.191 NA
HETATM    8  C16 UNL     1       1.196  -3.713  -1.075  1.00  0.00     0.142 A 
HETATM    9  N4  UNL     1      -0.134  -3.443  -1.167  1.00  0.00    -0.259 NA
HETATM   10  C17 UNL     1      -0.626  -2.336  -0.608  1.00  0.00     0.071 A 
HETATM   11  C18 UNL     1      -1.975  -2.068  -0.705  1.00  0.00     0.071 A 
HETATM   12  C19 UNL     1      -2.520  -0.936  -0.141  1.00  0.00     0.097 A 
ENDROOT
BRANCH   4  13
HETATM   13  N2  UNL     1       2.338  -0.769   0.874  1.00  0.00    -0.354 N 
HETATM   14  H6  UNL     1       2.490  -0.906   1.897  1.00  0.00     0.166 HD
BRANCH  13  15
HETATM   15  C8  UNL     1       2.971   0.303   0.224  1.00  0.00     0.033 A 
HETATM   16  C9  UNL     1       2.812   0.539  -1.127  1.00  0.00     0.029 A 
HETATM   17  C10 UNL     1       3.456   1.608  -1.721  1.00  0.00     0.004 A 
HETATM   18  C11 UNL     1       4.269   2.468  -1.011  1.00  0.00     0.019 A 
HETATM   19  C12 UNL     1       4.456   2.261   0.358  1.00  0.00     0.013 A 
HETATM   20 BR1  UNL     1       5.559   3.388   1.439  1.00  0.00    -0.051 Br
HETATM   21  C13 UNL     1       3.793   1.182   0.913  1.00  0.00     0.048 A 
ENDBRANCH  13  15
ENDBRANCH   4  13
BRANCH   1  22
HETATM   22  N1  UNL     1      -2.416   1.126   1.093  1.00  0.00    -0.321 N 
HETATM   23  C3  UNL     1      -1.890   2.193   1.820  1.00  0.00     0.242 C 
HETATM   24  O1  UNL     1      -0.667   2.214   2.063  1.00  0.00    -0.269 OA
HETATM   25  H4  UNL     1      -3.460   1.220   0.951  1.00  0.00     0.169 HD
BRANCH  23  26
HETATM   26  C2  UNL     1      -2.686   3.300   2.322  1.00  0.00     0.048 C 
HETATM   27  C1  UNL     1      -3.992   3.414   2.143  1.00  0.00     0.037 C 
ENDBRANCH  23  26
ENDBRANCH   1  22
BRANCH  12  28
HETATM   28  O2  UNL     1      -3.900  -0.745  -0.288  1.00  0.00    -0.354 OA
HETATM   29  C20 UNL     1      -4.717  -1.669  -0.986  1.00  0.00     0.210 C 
ENDBRANCH  12  28
TORSDOF 5
