REMARK  5 active torsions:
REMARK  status: ('A' for Active; 'I' for Inactive)
REMARK    1  A    between atoms: C2_2  and  C3_3 
REMARK    2  A    between atoms: C3_3  and  N1_5 
REMARK    3  A    between atoms: N1_5  and  C5_6 
REMARK    4  A    between atoms: C8_9  and  C9_10 
REMARK    5  A    between atoms: C16_21  and  C17_22 
ROOT
HETATM    1  C5  UNL     1      -0.883  -0.177  -0.409  1.00  0.00     0.116 C 
HETATM    2  C6  UNL     1       0.087   0.962  -0.229  1.00  0.00     0.086 C 
HETATM    3  C7  UNL     1       1.496   0.494  -0.228  1.00  0.00     0.012 C 
HETATM    4  C8  UNL     1       2.383   0.620   0.761  1.00  0.00     0.025 C 
HETATM    5  N2  UNL     1       1.936  -0.181  -1.431  1.00  0.00    -0.350 N 
HETATM    6  C11 UNL     1       2.130  -1.258  -2.335  1.00  0.00     0.131 C 
HETATM    7  C12 UNL     1       2.493  -0.872  -3.690  1.00  0.00     0.119 C 
HETATM    8  N3  UNL     1       2.793  -0.578  -4.792  1.00  0.00    -0.190 NA
HETATM    9  C13 UNL     1       2.038  -2.594  -2.186  1.00  0.00     0.157 C 
HETATM   10  N4  UNL     1       1.691  -3.240  -0.964  1.00  0.00    -0.270 NA
HETATM   11  C14 UNL     1       0.829  -2.786  -0.145  1.00  0.00     0.116 C 
HETATM   12  C15 UNL     1      -0.197  -2.140   0.714  1.00  0.00     0.024 C 
HETATM   13  C16 UNL     1      -0.993  -1.073   0.761  1.00  0.00    -0.056 C 
HETATM   14  H13 UNL     1       2.310   0.749  -1.723  1.00  0.00     0.166 HD
ENDROOT
BRANCH   4  15
HETATM   15  C9  UNL     1       2.042   1.260   2.002  1.00  0.00     0.009 C 
HETATM   16  C10 UNL     1       2.937   1.378   2.976  1.00  0.00     0.056 C 
HETATM   17 BR1  UNL     1       2.655   2.191   4.669  1.00  0.00    -0.064 Br
ENDBRANCH   4  15
BRANCH   1  18
HETATM   18  N1  UNL     1      -2.219   0.506  -0.472  1.00  0.00    -0.382 N 
HETATM   19  H6  UNL     1      -3.184   0.604  -0.036  1.00  0.00     0.160 HD
BRANCH  18  20
HETATM   20  C3  UNL     1      -2.165   1.404  -1.598  1.00  0.00     0.018 C 
HETATM   21  C4  UNL     1      -2.043   0.920  -2.840  1.00  0.00     0.042 C 
BRANCH  20  22
HETATM   22  C2  UNL     1      -2.245   2.822  -1.359  1.00  0.00     0.018 C 
HETATM   23  C1  UNL     1      -2.366   3.332  -0.144  1.00  0.00     0.013 C 
ENDBRANCH  20  22
ENDBRANCH  18  20
ENDBRANCH   1  18
BRANCH  13  24
HETATM   24  C17 UNL     1      -1.702  -1.017   2.039  1.00  0.00     0.032 C 
HETATM   25  C18 UNL     1      -1.300  -2.182   2.905  1.00  0.00     0.010 C 
ENDBRANCH  13  24
TORSDOF 5
