REMARK  8 active torsions:
REMARK  status: ('A' for Active; 'I' for Inactive)
REMARK    1  A    between atoms: C2_2  and  C3_3 
REMARK    2  A    between atoms: C3_3  and  C4_4 
REMARK    3  A    between atoms: C4_4  and  C5_6 
REMARK    4  A    between atoms: C8_9  and  N1_10 
REMARK    5  A    between atoms: N1_10  and  C9_11 
REMARK    6  A    between atoms: C15_18  and  C16_19 
REMARK    7  A    between atoms: C16_19  and  N2_20 
REMARK    8  A    between atoms: C20_25  and  O2_26 
ROOT
HETATM    1  C5  UNL     1       2.021  -0.969  -0.115  1.00  0.00     0.044 A 
HETATM    2  C6  UNL     1       0.722  -0.560  -0.414  1.00  0.00     0.034 A 
HETATM    3  C7  UNL     1      -0.366  -1.380  -0.239  1.00  0.00     0.021 A 
HETATM    4  C8  UNL     1      -1.666  -1.013  -0.523  1.00  0.00     0.054 A 
HETATM    5  C15 UNL     1      -2.716  -1.887  -0.323  1.00  0.00     0.015 A 
HETATM    6  C17 UNL     1      -2.424  -3.153   0.175  1.00  0.00     0.128 A 
HETATM    7  N3  UNL     1      -1.162  -3.547   0.465  1.00  0.00    -0.260 NA
HETATM    8  C18 UNL     1      -0.168  -2.655   0.252  1.00  0.00     0.071 A 
HETATM    9  C19 UNL     1       1.112  -3.069   0.551  1.00  0.00     0.070 A 
HETATM   10  C20 UNL     1       2.202  -2.244   0.374  1.00  0.00     0.081 A 
ENDROOT
BRANCH   4  11
HETATM   11  N1  UNL     1      -1.917   0.278  -1.026  1.00  0.00    -0.355 N 
HETATM   12  H9  UNL     1      -1.842   0.109  -2.049  1.00  0.00     0.166 HD
BRANCH  11  13
HETATM   13  C9  UNL     1      -2.202   1.534  -0.457  1.00  0.00     0.033 A 
HETATM   14  C10 UNL     1      -2.395   2.609  -1.305  1.00  0.00     0.029 A 
HETATM   15  C11 UNL     1      -2.671   3.812  -0.679  1.00  0.00     0.004 A 
HETATM   16  C12 UNL     1      -2.763   4.010   0.666  1.00  0.00     0.019 A 
HETATM   17  C13 UNL     1      -2.561   2.895   1.482  1.00  0.00     0.013 A 
HETATM   18 BR1  UNL     1      -2.674   3.095   3.364  1.00  0.00    -0.051 Br
HETATM   19  C14 UNL     1      -2.278   1.652   0.907  1.00  0.00     0.048 A 
ENDBRANCH  11  13
ENDBRANCH   4  11
BRANCH   5  20
HETATM   20  C16 UNL     1      -4.109  -1.468  -0.637  1.00  0.00     0.309 C 
BRANCH  20  21
HETATM   21  N2  UNL     1      -5.053  -2.550  -0.349  1.00  0.00     0.082 N 
HETATM   22  H16 UNL     1      -5.035  -2.793   0.669  1.00  0.00     0.313 HD
HETATM   23  H17 UNL     1      -4.845  -3.383  -0.946  1.00  0.00     0.313 HD
ENDBRANCH  20  21
ENDBRANCH   5  20
BRANCH   1  24
HETATM   24  C4  UNL     1       2.998   0.077  -0.386  1.00  0.00     0.162 C 
HETATM   25  O1  UNL     1       2.804   1.231  -0.833  1.00  0.00    -0.292 OA
BRANCH  24  26
HETATM   26  C3  UNL     1       4.440  -0.183  -0.123  1.00  0.00     0.084 C 
BRANCH  26  27
HETATM   27  C2  UNL     1       5.289   1.023  -0.472  1.00  0.00     0.003 C 
HETATM   28  C1  UNL     1       4.889   2.224   0.337  1.00  0.00     0.005 C 
ENDBRANCH  26  27
ENDBRANCH  24  26
ENDBRANCH   1  24
BRANCH  10  29
HETATM   29  O2  UNL     1       3.530  -2.548   0.638  1.00  0.00    -0.360 OA
HETATM   30  H20 UNL     1       3.833  -2.816   1.565  1.00  0.00     0.217 HD
ENDBRANCH  10  29
TORSDOF 8
