REMARK  3 active torsions:
REMARK  status: ('A' for Active; 'I' for Inactive)
REMARK    1  A    between atoms: O1_2  and  C2_3 
REMARK    2  A    between atoms: C6_7  and  N1_8 
REMARK    3  A    between atoms: N1_8  and  C7_9 
ROOT
HETATM    1  C2  UNL     1       3.276  -0.100  -0.227  1.00  0.00     0.070 A 
HETATM    2  C3  UNL     1       2.332  -0.655  -1.053  1.00  0.00     0.038 A 
HETATM    3  C4  UNL     1       1.007  -0.865  -0.671  1.00  0.00     0.019 A 
HETATM    4  C5  UNL     1       0.682  -0.469   0.627  1.00  0.00     0.021 A 
HETATM    5  C6  UNL     1      -0.646  -0.683   0.997  1.00  0.00     0.067 A 
HETATM    6  C13 UNL     1      -0.945  -0.279   2.302  1.00  0.00     0.089 A 
HETATM    7  C14 UNL     1      -2.297  -0.479   2.727  1.00  0.00     0.103 C 
HETATM    8  N2  UNL     1      -3.376  -0.651   3.083  1.00  0.00    -0.191 NA
HETATM    9  C15 UNL     1       0.025   0.285   3.131  1.00  0.00     0.142 A 
HETATM   10  N3  UNL     1       1.262   0.445   2.681  1.00  0.00    -0.259 NA
HETATM   11  C16 UNL     1       1.637   0.089   1.452  1.00  0.00     0.071 A 
HETATM   12  C17 UNL     1       2.933   0.282   1.050  1.00  0.00     0.069 A 
ENDROOT
BRANCH   5  13
HETATM   13  N1  UNL     1      -1.601  -1.259   0.126  1.00  0.00    -0.354 N 
HETATM   14  H6  UNL     1      -1.677  -2.299   0.168  1.00  0.00     0.166 HD
BRANCH  13  15
HETATM   15  C7  UNL     1      -2.396  -0.483  -0.740  1.00  0.00     0.033 A 
HETATM   16  C8  UNL     1      -2.230   0.898  -0.731  1.00  0.00     0.029 A 
HETATM   17  C9  UNL     1      -3.008   1.680  -1.580  1.00  0.00     0.004 A 
HETATM   18  C10 UNL     1      -3.920   1.063  -2.405  1.00  0.00     0.019 A 
HETATM   19  C11 UNL     1      -4.078  -0.309  -2.407  1.00  0.00     0.013 A 
HETATM   20 BR1  UNL     1      -5.314  -1.252  -3.512  1.00  0.00    -0.051 Br
HETATM   21  C12 UNL     1      -3.311  -1.095  -1.568  1.00  0.00     0.048 A 
ENDBRANCH  13  15
ENDBRANCH   5  13
BRANCH   1  22
HETATM   22  O1  UNL     1       4.589   0.070  -0.705  1.00  0.00    -0.356 OA
HETATM   23  C1  UNL     1       5.595   0.637   0.108  1.00  0.00     0.210 C 
ENDBRANCH   1  22
TORSDOF 3
