REMARK  5 active torsions:
REMARK  status: ('A' for Active; 'I' for Inactive)
REMARK    1  A    between atoms: C2_2  and  N1_3 
REMARK    2  A    between atoms: N1_3  and  C3_4 
REMARK    3  A    between atoms: C6_7  and  N2_8 
REMARK    4  A    between atoms: N2_8  and  C7_9 
REMARK    5  A    between atoms: C18_23  and  O1_24 
ROOT
HETATM    1  C3  UNL     1      -1.901   0.357  -0.507  1.00  0.00     0.066 A 
HETATM    2  C4  UNL     1      -0.562   0.004  -0.667  1.00  0.00     0.048 A 
HETATM    3  C5  UNL     1      -0.165  -1.245  -0.235  1.00  0.00     0.023 A 
HETATM    4  C6  UNL     1       1.173  -1.609  -0.391  1.00  0.00     0.067 A 
HETATM    5  C13 UNL     1       1.573  -2.861   0.042  1.00  0.00     0.089 A 
HETATM    6  C14 UNL     1       2.954  -3.229  -0.123  1.00  0.00     0.103 C 
HETATM    7  N3  UNL     1       4.080  -3.545  -0.254  1.00  0.00    -0.191 NA
HETATM    8  C15 UNL     1       0.640  -3.706   0.611  1.00  0.00     0.142 A 
HETATM    9  N4  UNL     1      -0.664  -3.337   0.758  1.00  0.00    -0.259 NA
HETATM   10  C16 UNL     1      -1.081  -2.110   0.339  1.00  0.00     0.071 A 
HETATM   11  C17 UNL     1      -2.389  -1.698   0.468  1.00  0.00     0.071 A 
HETATM   12  C18 UNL     1      -2.855  -0.480   0.065  1.00  0.00     0.097 A 
ENDROOT
BRANCH   4  13
HETATM   13  N2  UNL     1       2.063  -0.696  -0.980  1.00  0.00    -0.354 N 
HETATM   14  H6  UNL     1       2.074  -0.847  -2.008  1.00  0.00     0.166 HD
BRANCH  13  15
HETATM   15  C7  UNL     1       2.833   0.277  -0.328  1.00  0.00     0.033 A 
HETATM   16  C8  UNL     1       2.766   0.418   1.034  1.00  0.00     0.029 A 
HETATM   17  C9  UNL     1       3.533   1.388   1.683  1.00  0.00     0.004 A 
HETATM   18  C10 UNL     1       4.357   2.194   0.895  1.00  0.00     0.019 A 
HETATM   19  C11 UNL     1       4.419   2.045  -0.484  1.00  0.00     0.013 A 
HETATM   20 BR1  UNL     1       5.551   3.155  -1.549  1.00  0.00    -0.051 Br
HETATM   21  C12 UNL     1       3.650   1.079  -1.098  1.00  0.00     0.048 A 
ENDBRANCH  13  15
ENDBRANCH   4  13
BRANCH   1  22
HETATM   22  N1  UNL     1      -2.292   1.665  -0.965  1.00  0.00    -0.364 N 
HETATM   23  H4  UNL     1      -2.577   1.536  -1.960  1.00  0.00     0.165 HD
BRANCH  22  24
HETATM   24  C2  UNL     1      -2.389   2.983  -0.468  1.00  0.00     0.078 C 
HETATM   25  C1  UNL     1      -3.155   3.415   0.537  1.00  0.00     0.029 C 
ENDBRANCH  22  24
ENDBRANCH   1  22
BRANCH  12  26
HETATM   26  O1  UNL     1      -4.175  -0.076   0.200  1.00  0.00    -0.354 OA
HETATM   27  C19 UNL     1      -5.091  -0.979   0.790  1.00  0.00     0.210 C 
ENDBRANCH  12  26
TORSDOF 5
