REMARK  2 active torsions:
REMARK  status: ('A' for Active; 'I' for Inactive)
REMARK    1  A    between atoms: C6_6  and  N2_14 
REMARK    2  A    between atoms: N2_14  and  C11_15 
ROOT
HETATM    1  C1  UNL     1      -1.812  -2.674  -1.467  1.00  0.00     0.045 C 
HETATM    2  C2  UNL     1      -0.908  -1.570  -0.943  1.00  0.00    -0.062 C 
HETATM    3  C3  UNL     1       0.484  -1.692  -1.211  1.00  0.00     0.028 C 
HETATM    4  C4  UNL     1       1.500  -0.646  -0.728  1.00  0.00     0.256 A 
HETATM    5  C5  UNL     1       0.833   0.483  -1.087  1.00  0.00     0.159 A 
HETATM    6  C6  UNL     1       1.098   1.679  -0.251  1.00  0.00     0.243 A 
HETATM    7  C7  UNL     1       1.808   0.638   0.192  1.00  0.00     0.232 A 
HETATM    8  N1  UNL     1       2.487  -0.428   0.586  1.00  0.00     0.036 N 
HETATM    9  C8  UNL     1       3.426  -0.553   1.672  1.00  0.00     0.287 C 
HETATM   10  C9  UNL     1       2.311  -1.564  -0.107  1.00  0.00     0.363 A 
HETATM   11  O1  UNL     1       2.639  -2.754  -0.201  1.00  0.00    -0.262 OA
HETATM   12  S1  UNL     1       1.272   1.194   1.664  1.00  0.00    -0.117 SA
HETATM   13  C10 UNL     1      -0.277   2.088   1.305  1.00  0.00     0.462 A 
HETATM   14  N2  UNL     1      -0.489   2.087   0.069  1.00  0.00     0.170 N 
HETATM   15  C11 UNL     1       0.202   1.876  -1.116  1.00  0.00     0.291 A 
HETATM   16  N3  UNL     1      -1.442   2.649   0.675  1.00  0.00     0.146 N 
HETATM   17  C12 UNL     1      -2.637   1.738   0.760  1.00  0.00     0.322 C 
HETATM   18  C13 UNL     1      -2.436   0.389   0.150  1.00  0.00     0.024 A 
HETATM   19 CL1  UNL     1      -3.984  -0.447   0.090  1.00  0.00    -0.174 Cl
HETATM   20  C14 UNL     1      -2.120  -0.807  -0.415  1.00  0.00     0.140 A 
HETATM   21  H9  UNL     1       2.209   1.938   2.410  1.00  0.00     0.090 HD
HETATM   22  H11 UNL     1      -1.635   3.619   0.201  1.00  0.00     0.321 HD
ENDROOT
TORSDOF 2
