REMARK  5 active torsions:
REMARK  status: ('A' for Active; 'I' for Inactive)
REMARK    1  A    between atoms: C3_3  and  C4_4 
REMARK    2  A    between atoms: C4_4  and  N1_5 
REMARK    3  A    between atoms: N1_5  and  N2_6 
REMARK    4  A    between atoms: C12_16  and  N5_17 
REMARK    5  A    between atoms: C14_20  and  O2_21 
ROOT
HETATM    1  C1  UNL     1       3.987  -2.830   0.611  1.00  0.00     0.112 C 
HETATM    2  C2  UNL     1       3.332  -2.070  -0.462  1.00  0.00    -0.109 C 
HETATM    3  C3  UNL     1       2.808  -1.432  -1.341  1.00  0.00    -0.086 C 
ENDROOT
BRANCH   3   4
HETATM    4  C4  UNL     1       2.174  -0.650  -2.426  1.00  0.00     0.233 C 
BRANCH   4   5
HETATM    5  N1  UNL     1       0.768  -0.532  -2.246  1.00  0.00    -0.317 N 
HETATM    6  H6  UNL     1       0.240  -1.394  -2.511  1.00  0.00     0.181 HD
BRANCH   5   7
HETATM    7  N2  UNL     1       0.324   0.057  -1.089  1.00  0.00    -0.248 N 
HETATM    8  C5  UNL     1      -1.063  -0.184  -0.804  1.00  0.00     0.133 A 
HETATM    9  C6  UNL     1      -1.668   0.301   0.267  1.00  0.00     0.024 A 
HETATM   10  C7  UNL     1      -0.932   1.069   1.143  1.00  0.00     0.073 A 
HETATM   11  C11 UNL     1      -2.995   0.088   0.571  1.00  0.00     0.020 A 
HETATM   12  N3  UNL     1      -1.535   1.564   2.231  1.00  0.00    -0.259 NA
HETATM   13  C13 UNL     1       0.481   1.371   0.942  1.00  0.00     0.090 A 
HETATM   14  C8  UNL     1      -2.830   1.354   2.523  1.00  0.00     0.141 A 
HETATM   15  C9  UNL     1      -3.620   0.595   1.689  1.00  0.00     0.074 A 
HETATM   16  C10 UNL     1      -5.013   0.341   1.960  1.00  0.00     0.102 C 
HETATM   17  N4  UNL     1      -6.142   0.118   2.171  1.00  0.00    -0.191 NA
HETATM   18  C14 UNL     1       1.024   0.855  -0.149  1.00  0.00     0.165 A 
HETATM   19  C12 UNL     1      -3.736  -0.626  -0.223  1.00  0.00     0.163 C 
BRANCH  18  20
HETATM   20  O2  UNL     1       2.347   1.104  -0.392  1.00  0.00    -0.339 OA
HETATM   21  C15 UNL     1       2.770   2.474  -0.393  1.00  0.00     0.211 C 
ENDBRANCH  18  20
BRANCH  19  22
HETATM   22  N5  UNL     1      -3.964  -1.402  -1.370  1.00  0.00    -0.110 NA
HETATM   23  O1  UNL     1      -4.193  -0.965  -2.514  1.00  0.00    -0.062 OA
ENDBRANCH  19  22
ENDBRANCH   5   7
ENDBRANCH   4   5
ENDBRANCH   3   4
TORSDOF 5
