REMARK  5 active torsions:
REMARK  status: ('A' for Active; 'I' for Inactive)
REMARK    1  A    between atoms: C3_3  and  C4_4 
REMARK    2  A    between atoms: C4_4  and  C5_6 
REMARK    3  A    between atoms: C7_8  and  N1_9 
REMARK    4  A    between atoms: N1_9  and  C8_10 
REMARK    5  A    between atoms: C18_23  and  O2_24 
ROOT
HETATM    1  C1  UNL     1      -4.829   2.995  -1.308  1.00  0.00     0.112 C 
HETATM    2  C2  UNL     1      -3.588   2.235  -1.302  1.00  0.00    -0.103 C 
HETATM    3  C3  UNL     1      -2.530   1.594  -1.277  1.00  0.00    -0.028 C 
ENDROOT
BRANCH   3   4
HETATM    4  C4  UNL     1      -1.273   0.833  -1.222  1.00  0.00     0.217 C 
HETATM    5  O1  UNL     1      -0.776   0.886  -2.410  1.00  0.00    -0.282 OA
BRANCH   4   6
HETATM    6  C5  UNL     1      -1.030   0.311   0.080  1.00  0.00     0.159 C 
HETATM    7  C6  UNL     1       0.147  -0.562   0.300  1.00  0.00    -0.027 C 
HETATM    8  C7  UNL     1       1.188  -0.796   1.066  1.00  0.00     0.059 C 
HETATM    9  C20 UNL     1      -0.411  -1.536  -0.770  1.00  0.00     0.097 C 
HETATM   10  C14 UNL     1       1.322  -2.168   1.695  1.00  0.00     0.086 C 
HETATM   11  C15 UNL     1       2.587  -2.357   2.310  1.00  0.00     0.103 C 
HETATM   12  C16 UNL     1       0.408  -3.195   1.772  1.00  0.00     0.113 C 
HETATM   13  N2  UNL     1       3.589  -2.495   2.815  1.00  0.00    -0.191 NA
HETATM   14  N3  UNL     1      -0.999  -3.041   1.318  1.00  0.00    -0.365 N 
HETATM   15  C17 UNL     1      -1.293  -1.919   0.477  1.00  0.00     0.043 C 
HETATM   16  H11 UNL     1      -1.828  -3.562   1.515  1.00  0.00     0.165 HD
HETATM   17  C18 UNL     1      -2.088  -0.812   0.488  1.00  0.00     0.085 C 
BRANCH   8  18
HETATM   18  N1  UNL     1       1.991   0.288   1.245  1.00  0.00    -0.355 N 
HETATM   19  H5  UNL     1       1.808   0.831   2.109  1.00  0.00     0.166 HD
BRANCH  18  20
HETATM   20  C8  UNL     1       3.036   0.715   0.356  1.00  0.00     0.033 A 
HETATM   21  C9  UNL     1       3.816   1.844   0.617  1.00  0.00     0.029 A 
HETATM   22  C10 UNL     1       4.811   2.210  -0.278  1.00  0.00     0.004 A 
HETATM   23  C11 UNL     1       5.048   1.477  -1.429  1.00  0.00     0.019 A 
HETATM   24  C12 UNL     1       4.260   0.357  -1.671  1.00  0.00     0.013 A 
HETATM   25 BR1  UNL     1       4.591  -0.649  -3.258  1.00  0.00    -0.051 Br
HETATM   26  C13 UNL     1       3.271  -0.011  -0.786  1.00  0.00     0.048 A 
ENDBRANCH  18  20
ENDBRANCH   8  18
BRANCH  17  27
HETATM   27  O2  UNL     1      -3.344  -1.384   0.860  1.00  0.00    -0.357 OA
HETATM   28  C19 UNL     1      -4.467  -0.591   0.530  1.00  0.00     0.209 C 
ENDBRANCH  17  27
ENDBRANCH   4   6
ENDBRANCH   3   4
TORSDOF 5
