REMARK  10 active torsions:
REMARK  status: ('A' for Active; 'I' for Inactive)
REMARK    1  A    between atoms: N1_2  and  C3_4 
REMARK    2  A    between atoms: C3_4  and  C4_5 
REMARK    3  A    between atoms: C4_5  and  C5_6 
REMARK    4  A    between atoms: C5_6  and  C6_7 
REMARK    5  A    between atoms: C10_12  and  N3_13 
REMARK    6  A    between atoms: N3_13  and  C11_14 
REMARK    7  A    between atoms: C11_14  and  C12_15 
REMARK    8  A    between atoms: C12_15  and  C13_16 
REMARK    9  A    between atoms: C13_16  and  B1_17 
REMARK   10  A    between atoms: B1_17  and  C14_18 
ROOT
HETATM    1  C6  UNL     1      -2.205  -2.297   0.709  1.00  0.00     0.036 C 
HETATM    2  N2  UNL     1      -1.973  -2.168   1.963  1.00  0.00    -0.292 NA
HETATM    3  C7  UNL     1      -0.710  -2.311   2.607  1.00  0.00     0.176 C 
HETATM    4  C8  UNL     1       0.362  -1.661   1.761  1.00  0.00     0.008 C 
HETATM    5  C9  UNL     1       0.221  -1.826   0.446  1.00  0.00     0.016 A 
HETATM    6  C10 UNL     1       1.208  -1.233  -0.449  1.00  0.00     0.133 A 
HETATM    7  N4  UNL     1       1.051  -1.375  -1.727  1.00  0.00    -0.225 NA
HETATM    8  C15 UNL     1      -0.089  -2.115  -2.146  1.00  0.00     0.230 A 
HETATM    9  N5  UNL     1      -0.979  -2.664  -1.402  1.00  0.00    -0.267 NA
HETATM   10  C16 UNL     1      -0.958  -2.620   0.023  1.00  0.00     0.193 A 
ENDROOT
BRANCH   6  11
HETATM   11  N3  UNL     1       2.318  -0.513   0.035  1.00  0.00    -0.373 N 
HETATM   12  H16 UNL     1       2.518  -0.383   1.047  1.00  0.00     0.161 HD
BRANCH  11  13
HETATM   13  C11 UNL     1       3.221   0.070  -0.941  1.00  0.00     0.137 C 
BRANCH  13  14
HETATM   14  C12 UNL     1       4.309   0.779  -0.230  1.00  0.00     0.069 C 
BRANCH  14  15
HETATM   15  C13 UNL     1       4.734   1.914  -0.746  1.00  0.00    -0.241 C 
BRANCH  15  16
HETATM   16  B1  UNL     1       5.161   3.657  -0.877  1.00  0.00     0.240 B 
BRANCH  16  17
HETATM   17  C14 UNL     1       5.681   5.303  -1.041  1.00  0.00     0.041 C 
HETATM   18 BR1  UNL     1       7.582   5.289  -1.417  1.00  0.00    -0.106 Br
ENDBRANCH  16  17
ENDBRANCH  15  16
ENDBRANCH  14  15
ENDBRANCH  13  14
ENDBRANCH  11  13
ENDBRANCH   6  11
BRANCH   1  19
HETATM   19  C5  UNL     1      -3.613  -2.090   0.326  1.00  0.00     0.058 C 
BRANCH  19  20
HETATM   20  C4  UNL     1      -3.919  -0.860  -0.464  1.00  0.00     0.036 C 
BRANCH  20  21
HETATM   21  C3  UNL     1      -3.628   0.389   0.271  1.00  0.00     0.271 C 
BRANCH  21  22
HETATM   22  N1  UNL     1      -2.299   0.665   0.658  1.00  0.00     0.080 N 
HETATM   23  C1  UNL     1      -1.416   0.994  -0.441  1.00  0.00     0.309 C 
HETATM   24  C2  UNL     1      -2.200   1.593   1.747  1.00  0.00     0.309 C 
ENDBRANCH  21  22
ENDBRANCH  20  21
ENDBRANCH  19  20
ENDBRANCH   1  19
TORSDOF 10
