REMARK  10 active torsions:
REMARK  status: ('A' for Active; 'I' for Inactive)
REMARK    1  A    between atoms: C2_2  and  C3_3 
REMARK    2  A    between atoms: C2_2  and  C6_7 
REMARK    3  A    between atoms: C3_3  and  N1_4 
REMARK       I    between atoms: C6_7  and  N2_9 
REMARK    4  A    between atoms: N2_9  and  C7_10 
REMARK    5  A    between atoms: C12_15  and  O2_16 
REMARK    6  A    between atoms: O2_16  and  C13_17 
REMARK    7  A    between atoms: C13_17  and  C14_18 
REMARK    8  A    between atoms: N3_19  and  C15_20 
REMARK    9  A    between atoms: C15_20  and  C16_21 
REMARK   10  A    between atoms: C16_21  and  N4_22 
ROOT
HETATM    1  C7  UNL     1       0.973  -2.543  -0.500  1.00  0.00     0.064 A 
HETATM    2  C8  UNL     1       1.274  -3.759  -0.972  1.00  0.00     0.006 A 
HETATM    3  C9  UNL     1       2.340  -4.369  -1.798  1.00  0.00     0.033 A 
HETATM    4  C10 UNL     1       3.336  -3.319  -2.194  1.00  0.00     0.034 A 
HETATM    5  C11 UNL     1       2.930  -2.014  -1.633  1.00  0.00     0.012 A 
HETATM    6  C12 UNL     1       1.966  -1.522  -0.901  1.00  0.00     0.091 A 
ENDROOT
BRANCH   1   7
HETATM    7  N2  UNL     1      -0.124  -2.080   0.313  1.00  0.00    -0.321 N 
HETATM    8  C6  UNL     1      -0.873  -1.096  -0.366  1.00  0.00     0.250 C 
HETATM    9  O1  UNL     1      -0.425  -0.844  -1.522  1.00  0.00    -0.268 OA
HETATM   10  H11 UNL     1      -0.463  -2.328   1.290  1.00  0.00     0.169 HD
BRANCH   8  11
HETATM   11  C2  UNL     1      -2.050  -0.390   0.124  1.00  0.00     0.016 C 
HETATM   12  C1  UNL     1      -2.381  -0.767   1.338  1.00  0.00     0.046 C 
BRANCH  11  13
HETATM   13  C3  UNL     1      -2.702   0.610  -0.732  1.00  0.00     0.311 C 
BRANCH  13  14
HETATM   14  N1  UNL     1      -3.845   1.208  -0.081  1.00  0.00     0.084 N 
HETATM   15  C4  UNL     1      -4.404   2.172  -1.041  1.00  0.00     0.309 C 
HETATM   16  C5  UNL     1      -3.478   1.993   1.080  1.00  0.00     0.309 C 
ENDBRANCH  13  14
ENDBRANCH  11  13
ENDBRANCH   8  11
ENDBRANCH   1   7
BRANCH   6  17
HETATM   17  O2  UNL     1       1.937  -0.183  -0.574  1.00  0.00    -0.344 OA
BRANCH  17  18
HETATM   18  C13 UNL     1       2.090   0.286   0.748  1.00  0.00     0.222 C 
BRANCH  18  19
HETATM   19  C14 UNL     1       2.012   1.772   0.788  1.00  0.00     0.116 C 
HETATM   20  N3  UNL     1       1.584   2.248   1.898  1.00  0.00    -0.265 NA
BRANCH  20  21
HETATM   21  C15 UNL     1       1.415   3.605   2.200  1.00  0.00     0.191 C 
BRANCH  21  22
HETATM   22  C16 UNL     1       2.362   4.034   3.020  1.00  0.00    -0.006 C 
BRANCH  22  23
HETATM   23  N4  UNL     1       3.273   4.685   3.649  1.00  0.00    -0.257 NA
HETATM   24  H22 UNL     1       4.112   4.983   3.073  1.00  0.00     0.197 HD
ENDBRANCH  22  23
ENDBRANCH  21  22
ENDBRANCH  20  21
ENDBRANCH  18  19
ENDBRANCH  17  18
ENDBRANCH   6  17
TORSDOF 10
