REMARK  9 active torsions:
REMARK  status: ('A' for Active; 'I' for Inactive)
REMARK    1  A    between atoms: C2_2  and  C3_3 
REMARK    2  A    between atoms: C2_2  and  C6_7 
REMARK    3  A    between atoms: C3_3  and  N1_4 
REMARK    4  A    between atoms: C6_7  and  C7_9 
REMARK    5  A    between atoms: C7_9  and  N2_10 
REMARK    6  A    between atoms: C8_11  and  O2_12 
REMARK    7  A    between atoms: O2_12  and  C9_13 
REMARK    8  A    between atoms: C16_22  and  N5_23 
REMARK    9  A    between atoms: N5_23  and  C17_24 
ROOT
HETATM    1  C7  UNL     1       0.164  -0.219   1.436  1.00  0.00     0.298 A 
HETATM    2  C8  UNL     1      -0.093   0.026   2.878  1.00  0.00     0.100 A 
HETATM    3  C11 UNL     1       0.014  -1.078   3.599  1.00  0.00     0.068 A 
HETATM    4  C12 UNL     1       0.359  -2.211   2.738  1.00  0.00     0.071 A 
HETATM    5  N3  UNL     1       0.584  -3.544   2.899  1.00  0.00    -0.259 NA
HETATM    6  C13 UNL     1       0.888  -4.306   1.801  1.00  0.00     0.142 A 
HETATM    7  C14 UNL     1       0.981  -3.789   0.526  1.00  0.00     0.089 A 
HETATM    8  C15 UNL     1       1.308  -4.638  -0.604  1.00  0.00     0.103 C 
HETATM    9  N4  UNL     1       1.594  -5.331  -1.515  1.00  0.00    -0.191 NA
HETATM   10  C16 UNL     1       0.751  -2.439   0.364  1.00  0.00     0.067 A 
HETATM   11  C23 UNL     1       0.449  -1.691   1.466  1.00  0.00     0.052 A 
ENDROOT
BRANCH  10  12
HETATM   12  N5  UNL     1       0.869  -1.952  -0.976  1.00  0.00    -0.354 N 
HETATM   13  H20 UNL     1       0.059  -1.906  -1.628  1.00  0.00     0.166 HD
BRANCH  12  14
HETATM   14  C17 UNL     1       2.151  -1.497  -1.469  1.00  0.00     0.034 A 
HETATM   15  C18 UNL     1       2.319  -1.049  -2.774  1.00  0.00     0.032 A 
HETATM   16  C19 UNL     1       3.577  -0.629  -3.179  1.00  0.00     0.046 A 
HETATM   17  C20 UNL     1       4.645  -0.648  -2.322  1.00  0.00     0.138 A 
HETATM   18  F1  UNL     1       5.894  -0.239  -2.683  1.00  0.00    -0.204 F 
HETATM   19  C21 UNL     1       4.502  -1.086  -1.030  1.00  0.00     0.074 A 
HETATM   20 CL1  UNL     1       5.797  -1.160   0.178  1.00  0.00    -0.081 Cl
HETATM   21  C22 UNL     1       3.251  -1.503  -0.631  1.00  0.00     0.056 A 
ENDBRANCH  12  14
ENDBRANCH  10  12
BRANCH   1  22
HETATM   22  C6  UNL     1      -0.976   0.118   0.646  1.00  0.00     0.203 C 
HETATM   23  O1  UNL     1      -1.863  -0.644   1.190  1.00  0.00    -0.289 OA
BRANCH  22  24
HETATM   24  C2  UNL     1      -1.862   0.697  -0.328  1.00  0.00    -0.013 C 
HETATM   25  C1  UNL     1      -1.522   1.620  -1.242  1.00  0.00     0.044 C 
BRANCH  24  26
HETATM   26  C3  UNL     1      -3.270   0.588  -0.738  1.00  0.00     0.154 C 
BRANCH  26  27
HETATM   27  N1  UNL     1      -3.601   1.430  -1.827  1.00  0.00    -0.417 N 
HETATM   28  C4  UNL     1      -3.025   1.113  -3.091  1.00  0.00     0.142 C 
HETATM   29  C5  UNL     1      -3.833   2.803  -1.554  1.00  0.00     0.142 C 
ENDBRANCH  26  27
ENDBRANCH  24  26
ENDBRANCH  22  24
ENDBRANCH   1  22
BRANCH   1  30
HETATM   30  N2  UNL     1       1.370   0.529   1.124  1.00  0.00     0.107 N 
HETATM   31  H11 UNL     1       1.204   1.283   0.432  1.00  0.00     0.315 HD
HETATM   32  H12 UNL     1       1.906   0.815   1.974  1.00  0.00     0.315 HD
ENDBRANCH   1  30
BRANCH   2  33
HETATM   33  O2  UNL     1      -0.415   1.167   3.595  1.00  0.00    -0.352 OA
BRANCH  33  34
HETATM   34  C9  UNL     1      -0.404   2.452   3.040  1.00  0.00     0.171 C 
HETATM   35  C10 UNL     1      -0.777   3.402   4.172  1.00  0.00     0.034 C 
ENDBRANCH  33  34
ENDBRANCH   2  33
TORSDOF 9
