REMARK  7 active torsions:
REMARK  status: ('A' for Active; 'I' for Inactive)
REMARK    1  A    between atoms: C2_2  and  C3_3 
REMARK    2  A    between atoms: C2_2  and  C7_9 
REMARK    3  A    between atoms: C3_3  and  N1_4 
REMARK    4  A    between atoms: N1_4  and  C5_6 
REMARK       I    between atoms: C7_9  and  N3_11 
REMARK    5  A    between atoms: N3_11  and  C8_12 
REMARK    6  A    between atoms: C16_21  and  O2_22 
REMARK    7  A    between atoms: O2_22  and  C17_23 
ROOT
HETATM    1  C5  UNL     1       4.891   0.692   0.828  1.00  0.00     0.395 C 
HETATM    2  C6  UNL     1       6.221   0.526   1.409  1.00  0.00     0.089 C 
HETATM    3  N2  UNL     1       7.291   0.412   1.876  1.00  0.00    -0.195 NA
ENDROOT
BRANCH   1   4
HETATM    4  N1  UNL     1       4.591  -0.534   0.100  1.00  0.00     0.101 N 
HETATM    5  C4  UNL     1       5.500  -0.582  -1.078  1.00  0.00     0.311 C 
BRANCH   4   6
HETATM    6  C3  UNL     1       3.272  -0.493  -0.493  1.00  0.00     0.316 C 
BRANCH   6   7
HETATM    7  C2  UNL     1       2.168  -0.562   0.455  1.00  0.00     0.029 C 
HETATM    8  C1  UNL     1       2.281  -0.680   1.759  1.00  0.00     0.026 C 
BRANCH   7   9
HETATM    9  C7  UNL     1       0.747  -0.517   0.172  1.00  0.00     0.253 C 
HETATM   10  O1  UNL     1       0.456  -0.622   1.394  1.00  0.00    -0.268 OA
HETATM   11  N3  UNL     1       0.001  -0.399  -1.016  1.00  0.00    -0.321 N 
HETATM   12  H10 UNL     1       0.732  -0.345  -1.744  1.00  0.00     0.169 HD
BRANCH  11  13
HETATM   13  C8  UNL     1      -1.378  -0.410  -0.661  1.00  0.00     0.069 A 
HETATM   14  C9  UNL     1      -1.958  -1.640  -0.633  1.00  0.00     0.046 A 
HETATM   15  C10 UNL     1      -3.281  -1.761  -0.302  1.00  0.00    -0.005 A 
HETATM   16  C11 UNL     1      -3.910  -2.989  -0.261  1.00  0.00     0.015 A 
HETATM   17  C14 UNL     1      -3.972  -0.605  -0.007  1.00  0.00     0.069 A 
HETATM   18  C12 UNL     1      -5.252  -3.042   0.082  1.00  0.00     0.020 A 
HETATM   19  C13 UNL     1      -5.909  -1.844   0.372  1.00  0.00     0.117 A 
HETATM   20  N4  UNL     1      -5.267  -0.662   0.323  1.00  0.00    -0.260 NA
HETATM   21  C15 UNL     1      -3.389   0.646  -0.034  1.00  0.00     0.071 A 
HETATM   22  C16 UNL     1      -2.058   0.778  -0.366  1.00  0.00     0.097 A 
BRANCH  22  23
HETATM   23  O2  UNL     1      -1.276   1.919  -0.455  1.00  0.00    -0.349 OA
BRANCH  23  24
HETATM   24  C17 UNL     1      -1.681   3.227  -0.220  1.00  0.00     0.171 C 
HETATM   25  C18 UNL     1      -2.798   3.664  -1.149  1.00  0.00     0.034 C 
ENDBRANCH  23  24
ENDBRANCH  22  23
ENDBRANCH  11  13
ENDBRANCH   7   9
ENDBRANCH   6   7
ENDBRANCH   4   6
ENDBRANCH   1   4
TORSDOF 7
