REMARK  6 active torsions:
REMARK  status: ('A' for Active; 'I' for Inactive)
REMARK    1  A    between atoms: N1_2  and  C3_4 
REMARK    2  A    between atoms: C3_4  and  C4_5 
REMARK    3  A    between atoms: C5_6  and  C6_7 
REMARK       I    between atoms: C6_7  and  N2_9 
REMARK    4  A    between atoms: N2_9  and  C7_10 
REMARK    5  A    between atoms: C12_17  and  N5_18 
REMARK    6  A    between atoms: N5_18  and  C13_19 
ROOT
HETATM    1  C7  UNL     1      -0.412  -1.420  -1.652  1.00  0.00     0.036 A 
HETATM    2  C8  UNL     1      -0.212  -2.448  -2.535  1.00  0.00     0.032 A 
HETATM    3  C9  UNL     1       1.076  -2.872  -2.784  1.00  0.00     0.035 A 
HETATM    4  C10 UNL     1       2.119  -2.256  -2.144  1.00  0.00     0.072 A 
HETATM    5  N3  UNL     1       3.358  -2.725  -2.435  1.00  0.00    -0.241 NA
HETATM    6  C11 UNL     1       4.441  -2.181  -1.851  1.00  0.00     0.236 A 
HETATM    7  N4  UNL     1       4.264  -1.179  -0.988  1.00  0.00    -0.224 NA
HETATM    8  C12 UNL     1       3.102  -0.666  -0.652  1.00  0.00     0.142 A 
HETATM    9  C19 UNL     1       1.990  -1.220  -1.246  1.00  0.00     0.041 A 
HETATM   10  C20 UNL     1       0.679  -0.847  -1.044  1.00  0.00     0.047 A 
ENDROOT
BRANCH   1  11
HETATM   11  N2  UNL     1      -1.738  -0.938  -1.348  1.00  0.00    -0.324 N 
HETATM   12  C6  UNL     1      -2.226  -1.674  -0.228  1.00  0.00     0.245 C 
HETATM   13  O1  UNL     1      -1.253  -2.473   0.040  1.00  0.00    -0.268 OA
HETATM   14  H11 UNL     1      -2.302  -0.191  -1.817  1.00  0.00     0.169 HD
BRANCH  12  15
HETATM   15  C5  UNL     1      -3.535  -1.452   0.354  1.00  0.00     0.072 C 
HETATM   16  C4  UNL     1      -4.627  -0.718   0.229  1.00  0.00     0.008 C 
BRANCH  16  17
HETATM   17  C3  UNL     1      -5.181   0.351  -0.610  1.00  0.00     0.299 C 
BRANCH  17  18
HETATM   18  N1  UNL     1      -5.482   1.513   0.203  1.00  0.00     0.083 N 
HETATM   19  C1  UNL     1      -4.205   2.067   0.652  1.00  0.00     0.309 C 
HETATM   20  C2  UNL     1      -6.213   1.132   1.387  1.00  0.00     0.309 C 
ENDBRANCH  17  18
ENDBRANCH  16  17
ENDBRANCH  12  15
ENDBRANCH   1  11
BRANCH   8  21
HETATM   21  N5  UNL     1       2.898   0.387   0.258  1.00  0.00    -0.340 N 
HETATM   22  H15 UNL     1       1.978   0.767   0.473  1.00  0.00     0.167 HD
BRANCH  21  23
HETATM   23  C13 UNL     1       3.837   1.118   1.033  1.00  0.00     0.035 A 
HETATM   24  C14 UNL     1       3.582   2.198   1.842  1.00  0.00     0.029 A 
HETATM   25  C15 UNL     1       4.505   2.886   2.586  1.00  0.00     0.004 A 
HETATM   26  C16 UNL     1       5.811   2.484   2.541  1.00  0.00     0.019 A 
HETATM   27  C17 UNL     1       6.134   1.409   1.751  1.00  0.00     0.013 A 
HETATM   28 BR1  UNL     1       7.987   0.929   1.761  1.00  0.00    -0.051 Br
HETATM   29  C18 UNL     1       5.170   0.745   1.017  1.00  0.00     0.048 A 
ENDBRANCH  21  23
ENDBRANCH   8  21
TORSDOF 6
