REMARK  6 active torsions:
REMARK  status: ('A' for Active; 'I' for Inactive)
REMARK    1  A    between atoms: C8_10  and  N3_11 
REMARK    2  A    between atoms: N3_11  and  C9_12 
REMARK    3  A    between atoms: C16_21  and  N4_22 
REMARK       I    between atoms: N4_22  and  C17_23 
REMARK    4  A    between atoms: C17_23  and  C18_25 
REMARK    5  A    between atoms: C19_26  and  C20_27 
REMARK    6  A    between atoms: C20_27  and  N5_29 
ROOT
HETATM    1  C1  UNL     1      -0.782  -3.729  -1.968  1.00  0.00     0.046 C 
HETATM    2  C2  UNL     1       0.629  -3.436  -1.531  1.00  0.00    -0.054 A 
HETATM    3  C3  UNL     1       1.793  -3.948  -1.875  1.00  0.00     0.037 A 
HETATM    4  C4  UNL     1       2.822  -3.256  -1.108  1.00  0.00     0.067 A 
HETATM    5  N1  UNL     1       4.147  -3.506  -1.188  1.00  0.00    -0.259 NA
HETATM    6  C5  UNL     1       5.009  -2.793  -0.422  1.00  0.00     0.142 A 
HETATM    7  C6  UNL     1       4.460  -1.836   0.408  1.00  0.00     0.089 A 
HETATM    8  C7  UNL     1       5.381  -1.086   1.216  1.00  0.00     0.103 C 
HETATM    9  N2  UNL     1       6.134  -0.491   1.863  1.00  0.00    -0.191 NA
HETATM   10  C8  UNL     1       3.107  -1.575   0.496  1.00  0.00     0.066 A 
HETATM   11  C15 UNL     1       2.226  -2.299  -0.283  1.00  0.00     0.026 A 
HETATM   12  C16 UNL     1       0.744  -2.353  -0.505  1.00  0.00     0.152 A 
ENDROOT
BRANCH  10  13
HETATM   13  N3  UNL     1       2.561  -0.584   1.359  1.00  0.00    -0.354 N 
HETATM   14  H6  UNL     1       2.264  -0.765   2.343  1.00  0.00     0.166 HD
BRANCH  13  15
HETATM   15  C9  UNL     1       2.417   0.732   0.832  1.00  0.00     0.034 A 
HETATM   16  C10 UNL     1       2.801   1.003  -0.471  1.00  0.00     0.032 A 
HETATM   17  C11 UNL     1       2.647   2.304  -0.959  1.00  0.00     0.046 A 
HETATM   18  C12 UNL     1       2.123   3.308  -0.165  1.00  0.00     0.138 A 
HETATM   19  F1  UNL     1       1.978   4.566  -0.648  1.00  0.00    -0.204 F 
HETATM   20  C13 UNL     1       1.730   3.055   1.150  1.00  0.00     0.074 A 
HETATM   21 CL1  UNL     1       1.060   4.285   2.205  1.00  0.00    -0.081 Cl
HETATM   22  C14 UNL     1       1.893   1.755   1.612  1.00  0.00     0.056 A 
ENDBRANCH  13  15
ENDBRANCH  10  13
BRANCH  12  23
HETATM   23  N4  UNL     1       0.205  -1.126  -1.009  1.00  0.00    -0.345 N 
HETATM   24  C17 UNL     1      -0.918  -0.452  -0.418  1.00  0.00     0.241 C 
HETATM   25  O1  UNL     1      -1.350  -1.082   0.582  1.00  0.00    -0.269 OA
HETATM   26  H11 UNL     1       0.670  -0.714  -1.854  1.00  0.00     0.163 HD
BRANCH  24  27
HETATM   27  C18 UNL     1      -1.455   0.797  -0.943  1.00  0.00     0.072 C 
HETATM   28  C19 UNL     1      -2.485   1.439  -0.421  1.00  0.00     0.013 C 
BRANCH  28  29
HETATM   29  C20 UNL     1      -3.229   0.983   0.755  1.00  0.00     0.241 C 
HETATM   30  C21 UNL     1      -4.112  -0.201   0.446  1.00  0.00     0.047 C 
BRANCH  29  31
HETATM   31  N5  UNL     1      -4.041   2.031   1.345  1.00  0.00     0.087 N 
HETATM   32  C22 UNL     1      -3.237   3.147   1.771  1.00  0.00     0.310 C 
HETATM   33  C23 UNL     1      -5.070   2.484   0.442  1.00  0.00     0.310 C 
ENDBRANCH  29  31
ENDBRANCH  28  29
ENDBRANCH  24  27
ENDBRANCH  12  23
TORSDOF 6
