REMARK  5 active torsions:
REMARK  status: ('A' for Active; 'I' for Inactive)
REMARK    1  A    between atoms: O1_2  and  C2_3 
REMARK    2  A    between atoms: C2_3  and  C3_4 
REMARK    3  A    between atoms: C4_5  and  C5_6 
REMARK       I    between atoms: C5_6  and  N1_8 
REMARK    4  A    between atoms: N1_8  and  C6_9 
REMARK    5  A    between atoms: N4_20  and  C14_21 
ROOT
HETATM    1  C6  UNL     1       0.127  -0.187  -1.458  1.00  0.00     0.250 C 
HETATM    2  C7  UNL     1      -0.910   0.280  -0.427  1.00  0.00     0.051 C 
HETATM    3  C8  UNL     1      -1.699  -0.669   0.129  1.00  0.00     0.017 C 
HETATM    4  C9  UNL     1      -1.223  -2.088   0.467  1.00  0.00     0.095 C 
HETATM    5  C10 UNL     1      -1.811  -2.702  -0.846  1.00  0.00     0.253 C 
HETATM    6  C11 UNL     1      -0.769  -2.366  -1.840  1.00  0.00     0.206 C 
HETATM    7  O3  UNL     1      -0.388  -1.176  -2.241  1.00  0.00    -0.361 OA
HETATM    8  N2  UNL     1      -3.143  -2.280  -1.026  1.00  0.00     0.127 N 
HETATM    9  C12 UNL     1      -3.868  -1.715   0.122  1.00  0.00     0.434 C 
HETATM   10  C13 UNL     1      -4.042  -2.562   1.230  1.00  0.00     0.117 C 
HETATM   11  N3  UNL     1      -4.204  -3.250   2.128  1.00  0.00    -0.193 NA
HETATM   12  N4  UNL     1      -3.122  -0.451   0.395  1.00  0.00    -0.309 N 
HETATM   13  H14 UNL     1      -3.745  -3.037  -1.455  1.00  0.00     0.320 HD
ENDROOT
BRANCH  12  14
HETATM   14  C14 UNL     1      -3.268   0.928   0.798  1.00  0.00     0.038 A 
HETATM   15  C15 UNL     1      -3.613   1.772  -0.237  1.00  0.00     0.030 A 
HETATM   16  C16 UNL     1      -3.788   3.116   0.020  1.00  0.00     0.004 A 
HETATM   17  C17 UNL     1      -3.596   3.506   1.318  1.00  0.00     0.019 A 
HETATM   18  C18 UNL     1      -3.251   2.673   2.362  1.00  0.00     0.013 A 
HETATM   19 BR1  UNL     1      -3.004   3.302   4.143  1.00  0.00    -0.051 Br
HETATM   20  C19 UNL     1      -3.077   1.332   2.104  1.00  0.00     0.048 A 
ENDBRANCH  12  14
BRANCH   1  21
HETATM   21  N1  UNL     1       1.408  -0.377  -0.888  1.00  0.00    -0.320 N 
HETATM   22  C5  UNL     1       2.450   0.551  -1.265  1.00  0.00     0.298 C 
HETATM   23  O2  UNL     1       2.260   1.518  -2.079  1.00  0.00    -0.258 OA
HETATM   24  H6  UNL     1       1.812  -1.055  -0.229  1.00  0.00     0.166 HD
BRANCH  22  25
HETATM   25  C4  UNL     1       3.819   0.490  -0.766  1.00  0.00    -0.003 C 
HETATM   26  C3  UNL     1       4.945   0.422  -0.344  1.00  0.00    -0.070 C 
BRANCH  26  27
HETATM   27  C2  UNL     1       6.312   0.315   0.173  1.00  0.00     0.261 C 
BRANCH  27  28
HETATM   28  O1  UNL     1       6.933   1.526  -0.128  1.00  0.00    -0.384 OA
HETATM   29  C1  UNL     1       8.250   1.510   0.332  1.00  0.00     0.202 C 
ENDBRANCH  27  28
ENDBRANCH  26  27
ENDBRANCH  22  25
ENDBRANCH   1  21
TORSDOF 5
