REMARK  7 active torsions:
REMARK  status: ('A' for Active; 'I' for Inactive)
REMARK    1  A    between atoms: O1_2  and  C2_3 
REMARK    2  A    between atoms: C2_3  and  C3_4 
REMARK    3  A    between atoms: C4_5  and  C5_6 
REMARK    4  A    between atoms: C5_6  and  N1_7 
REMARK    5  A    between atoms: C9_11  and  C10_12 
REMARK    6  A    between atoms: C10_12  and  C11_13 
REMARK    7  A    between atoms: C11_13  and  O2_14 
ROOT
HETATM    1  N1  UNL     1      -1.165   0.800   0.496  1.00  0.00     0.119 N 
HETATM    2  C6  UNL     1      -0.440  -0.484   0.313  1.00  0.00     0.284 C 
HETATM    3  C7  UNL     1       0.913  -0.337  -0.166  1.00  0.00     0.046 C 
HETATM    4  C8  UNL     1       2.071  -0.474  -0.875  1.00  0.00    -0.013 C 
HETATM    5  C9  UNL     1       3.194   0.398  -0.445  1.00  0.00    -0.059 C 
HETATM    6  C12 UNL     1       3.244   1.368   0.439  1.00  0.00     0.020 C 
HETATM    7  C13 UNL     1       2.991   2.373   1.440  1.00  0.00     0.206 C 
HETATM    8  N2  UNL     1       1.751   2.804   1.704  1.00  0.00    -0.314 NA
HETATM    9  C14 UNL     1       0.687   2.261   0.932  1.00  0.00     0.133 C 
HETATM   10  C15 UNL     1      -0.367   1.500   1.577  1.00  0.00     0.342 C 
HETATM   11  C16 UNL     1       0.046   0.503   2.530  1.00  0.00     0.096 C 
HETATM   12  N3  UNL     1       0.370  -0.311   3.315  1.00  0.00    -0.195 NA
ENDROOT
BRANCH   1  13
HETATM   13  C5  UNL     1      -2.422   0.362   1.121  1.00  0.00     0.367 C 
BRANCH  13  14
HETATM   14  C4  UNL     1      -3.209  -0.419   0.179  1.00  0.00    -0.074 C 
HETATM   15  C3  UNL     1      -3.873  -1.054  -0.605  1.00  0.00    -0.079 C 
BRANCH  15  16
HETATM   16  C2  UNL     1      -4.694  -1.821  -1.540  1.00  0.00     0.260 C 
BRANCH  16  17
HETATM   17  O1  UNL     1      -5.948  -2.026  -0.926  1.00  0.00    -0.384 OA
HETATM   18  C1  UNL     1      -6.547  -0.785  -0.649  1.00  0.00     0.202 C 
ENDBRANCH  16  17
ENDBRANCH  15  16
ENDBRANCH  13  14
ENDBRANCH   1  13
BRANCH   5  19
HETATM   19  C10 UNL     1       4.504   0.151  -1.100  1.00  0.00     0.064 C 
BRANCH  19  20
HETATM   20  C11 UNL     1       5.060  -1.216  -0.890  1.00  0.00     0.168 C 
BRANCH  20  21
HETATM   21  O2  UNL     1       4.320  -2.267  -1.336  1.00  0.00    -0.401 OA
HETATM   22  H16 UNL     1       4.518  -2.584  -2.261  1.00  0.00     0.209 HD
ENDBRANCH  20  21
ENDBRANCH  19  20
ENDBRANCH   5  19
TORSDOF 7
