REMARK  1 active torsions:
REMARK  status: ('A' for Active; 'I' for Inactive)
REMARK    1  A    between atoms: C4_4  and  N1_5 
ROOT
HETATM    1  C1  UNL     1       1.374   3.850  -0.298  1.00  0.00     0.042 C 
HETATM    2  C2  UNL     1       0.995   2.602  -0.178  1.00  0.00     0.021 A 
HETATM    3  C3  UNL     1       1.926   1.499   0.032  1.00  0.00     0.056 A 
HETATM    4  C4  UNL     1       1.199   0.395   0.106  1.00  0.00     0.046 A 
HETATM    5  C7  UNL     1      -0.275   0.583  -0.039  1.00  0.00     0.125 A 
HETATM    6  N2  UNL     1      -0.314   2.044  -0.219  1.00  0.00    -0.368 N 
HETATM    7  C8  UNL     1      -0.802  -0.113  -1.224  1.00  0.00    -0.007 C 
HETATM    8  C9  UNL     1      -0.500   0.646  -2.292  1.00  0.00     0.024 C 
HETATM    9  C10 UNL     1      -1.518  -1.291  -1.700  1.00  0.00     0.070 C 
HETATM   10  C11 UNL     1      -1.723  -1.332  -3.119  1.00  0.00     0.101 C 
HETATM   11  N3  UNL     1      -1.905  -1.381  -4.272  1.00  0.00    -0.191 NA
HETATM   12  C12 UNL     1      -1.998  -2.312  -1.013  1.00  0.00     0.139 C 
HETATM   13  N4  UNL     1      -2.035  -2.694   0.356  1.00  0.00    -0.272 NA
HETATM   14  C13 UNL     1      -1.897  -2.074   1.478  1.00  0.00     0.116 C 
HETATM   15  C14 UNL     1      -1.633  -0.665   1.836  1.00  0.00     0.025 C 
HETATM   16  C15 UNL     1      -0.999   0.320   1.210  1.00  0.00    -0.044 C 
HETATM   17  C16 UNL     1      -1.097   1.506   2.135  1.00  0.00     0.047 C 
HETATM   18  H10 UNL     1      -1.157   2.630  -0.359  1.00  0.00     0.161 HD
ENDROOT
BRANCH   4  19
HETATM   19  N1  UNL     1       1.604  -0.955   0.303  1.00  0.00    -0.390 N 
HETATM   20  C5  UNL     1       1.712  -1.705   1.564  1.00  0.00     0.149 C 
HETATM   21  C6  UNL     1       1.972  -1.744  -0.873  1.00  0.00     0.149 C 
ENDBRANCH   4  19
TORSDOF 1
