REMARK  5 active torsions:
REMARK  status: ('A' for Active; 'I' for Inactive)
REMARK    1  A    between atoms: O1_2  and  C2_3 
REMARK    2  A    between atoms: C17_22  and  N4_23 
REMARK       I    between atoms: N4_23  and  C18_24 
REMARK    3  A    between atoms: C18_24  and  C19_26 
REMARK    4  A    between atoms: C20_27  and  C21_28 
REMARK    5  A    between atoms: C21_28  and  N5_30 
ROOT
HETATM    1  C2  UNL     1      -0.617   0.454   0.271  1.00  0.00     0.097 C 
HETATM    2  C3  UNL     1      -1.474   1.413   0.354  1.00  0.00     0.068 C 
HETATM    3  C4  UNL     1      -2.778   1.779  -0.145  1.00  0.00     0.064 A 
HETATM    4  N1  UNL     1      -2.862   1.441  -1.408  1.00  0.00    -0.262 NA
HETATM    5  C5  UNL     1      -4.143   1.803  -1.904  1.00  0.00     0.137 A 
HETATM    6  C6  UNL     1      -4.877   2.374  -0.958  1.00  0.00     0.068 A 
HETATM    7  C7  UNL     1      -6.211   2.891  -1.004  1.00  0.00     0.099 C 
HETATM    8  N2  UNL     1      -7.284   3.321  -1.057  1.00  0.00    -0.192 NA
HETATM    9  C8  UNL     1      -4.077   2.428   0.308  1.00  0.00     0.175 A 
HETATM   10  N3  UNL     1      -4.588   1.617   1.328  1.00  0.00    -0.405 N 
HETATM   11  C9  UNL     1      -5.755   0.876   1.196  1.00  0.00     0.142 C 
HETATM   12  C10 UNL     1      -5.633  -0.108   0.085  1.00  0.00    -0.005 C 
HETATM   13  C11 UNL     1      -6.063  -0.788  -0.962  1.00  0.00     0.039 C 
HETATM   14  C12 UNL     1      -5.676  -1.765  -1.946  1.00  0.00     0.113 C 
HETATM   15  F1  UNL     1      -6.689  -2.137  -2.730  1.00  0.00    -0.206 F 
HETATM   16  C13 UNL     1      -4.546  -2.348  -2.220  1.00  0.00     0.025 C 
HETATM   17  C14 UNL     1      -3.132  -2.585  -2.052  1.00  0.00     0.045 C 
HETATM   18  C15 UNL     1      -1.902  -2.437  -1.634  1.00  0.00    -0.015 C 
HETATM   19  C16 UNL     1      -0.761  -1.868  -0.950  1.00  0.00     0.029 C 
HETATM   20  C17 UNL     1      -0.279  -0.861  -0.257  1.00  0.00     0.068 C 
HETATM   21  H7  UNL     1      -3.877   1.121   1.930  1.00  0.00     0.154 HD
ENDROOT
BRANCH   1  22
HETATM   22  O1  UNL     1       0.421   0.966   1.099  1.00  0.00    -0.354 OA
HETATM   23  C1  UNL     1       0.355   0.514   2.447  1.00  0.00     0.210 C 
ENDBRANCH   1  22
BRANCH  20  24
HETATM   24  N4  UNL     1       1.079  -1.239   0.077  1.00  0.00    -0.321 N 
HETATM   25  C18 UNL     1       2.178  -0.438  -0.362  1.00  0.00     0.245 C 
HETATM   26  O2  UNL     1       2.089   0.622  -1.047  1.00  0.00    -0.268 OA
HETATM   27  H16 UNL     1       1.301  -2.108   0.648  1.00  0.00     0.169 HD
BRANCH  25  28
HETATM   28  C19 UNL     1       3.534  -0.858  -0.002  1.00  0.00     0.072 C 
HETATM   29  C20 UNL     1       4.617  -0.205  -0.347  1.00  0.00     0.013 C 
BRANCH  29  30
HETATM   30  C21 UNL     1       5.997  -0.592  -0.006  1.00  0.00     0.241 C 
HETATM   31  C22 UNL     1       6.829  -0.839  -1.254  1.00  0.00     0.047 C 
BRANCH  30  32
HETATM   32  N5  UNL     1       6.603   0.488   0.741  1.00  0.00     0.087 N 
HETATM   33  C23 UNL     1       5.868   0.749   1.949  1.00  0.00     0.310 C 
HETATM   34  C24 UNL     1       7.965   0.142   1.093  1.00  0.00     0.310 C 
ENDBRANCH  30  32
ENDBRANCH  29  30
ENDBRANCH  25  28
ENDBRANCH  20  24
TORSDOF 5
