REMARK  6 active torsions:
REMARK  status: ('A' for Active; 'I' for Inactive)
REMARK    1  A    between atoms: O1_2  and  C2_3 
REMARK    2  A    between atoms: C2_3  and  C3_4 
REMARK    3  A    between atoms: C4_5  and  C5_6 
REMARK       I    between atoms: C5_6  and  N1_8 
REMARK    4  A    between atoms: N1_8  and  C6_9 
REMARK    5  A    between atoms: C13_18  and  N4_19 
REMARK    6  A    between atoms: N4_19  and  C14_20 
ROOT
HETATM    1  C6  UNL     1       0.898  -1.223  -0.469  1.00  0.00     0.036 A 
HETATM    2  C7  UNL     1       1.114  -2.393  -1.164  1.00  0.00     0.032 A 
HETATM    3  C8  UNL     1       0.056  -3.191  -1.594  1.00  0.00     0.035 A 
HETATM    4  C9  UNL     1      -1.225  -2.735  -1.279  1.00  0.00     0.069 A 
HETATM    5  N2  UNL     1      -2.204  -3.542  -1.707  1.00  0.00    -0.259 NA
HETATM    6  C10 UNL     1      -3.495  -3.252  -1.483  1.00  0.00     0.142 A 
HETATM    7  C11 UNL     1      -3.785  -2.106  -0.801  1.00  0.00     0.089 A 
HETATM    8  C12 UNL     1      -5.127  -1.696  -0.482  1.00  0.00     0.103 C 
HETATM    9  N3  UNL     1      -6.226  -1.380  -0.226  1.00  0.00    -0.191 NA
HETATM   10  C13 UNL     1      -2.837  -1.224  -0.327  1.00  0.00     0.067 A 
HETATM   11  C18 UNL     1      -1.508  -1.563  -0.582  1.00  0.00     0.023 A 
HETATM   12  C19 UNL     1      -0.386  -0.841  -0.200  1.00  0.00     0.045 A 
ENDROOT
BRANCH  10  13
HETATM   13  N4  UNL     1      -2.899  -0.022   0.396  1.00  0.00    -0.358 N 
HETATM   14  H10 UNL     1      -2.532  -0.030   1.375  1.00  0.00     0.166 HD
BRANCH  13  15
HETATM   15  C14 UNL     1      -3.368   1.276   0.103  1.00  0.00     0.008 A 
HETATM   16  C15 UNL     1      -2.944   2.400  -0.386  1.00  0.00     0.014 A 
HETATM   17  C16 UNL     1      -4.221   3.073  -0.243  1.00  0.00     0.088 A 
HETATM   18 BR1  UNL     1      -4.268   4.435   1.137  1.00  0.00    -0.086 Br
HETATM   19  C17 UNL     1      -4.719   1.789   0.298  1.00  0.00     0.076 A 
ENDBRANCH  13  15
ENDBRANCH  10  13
BRANCH   1  20
HETATM   20  N1  UNL     1       1.972  -0.413  -0.015  1.00  0.00    -0.316 N 
HETATM   21  C5  UNL     1       2.642  -0.509   1.235  1.00  0.00     0.301 C 
HETATM   22  O2  UNL     1       2.338  -1.375   2.129  1.00  0.00    -0.258 OA
HETATM   23  H6  UNL     1       2.238   0.305  -0.723  1.00  0.00     0.170 HD
BRANCH  21  24
HETATM   24  C4  UNL     1       3.719   0.383   1.561  1.00  0.00    -0.003 C 
HETATM   25  C3  UNL     1       4.638   1.146   1.845  1.00  0.00    -0.070 C 
BRANCH  25  26
HETATM   26  C2  UNL     1       5.737   2.084   2.169  1.00  0.00     0.261 C 
BRANCH  26  27
HETATM   27  O1  UNL     1       6.960   1.568   1.732  1.00  0.00    -0.384 OA
HETATM   28  C1  UNL     1       6.946   1.356   0.368  1.00  0.00     0.202 C 
ENDBRANCH  26  27
ENDBRANCH  25  26
ENDBRANCH  21  24
ENDBRANCH   1  20
TORSDOF 6
