REMARK  4 active torsions:
REMARK  status: ('A' for Active; 'I' for Inactive)
REMARK    1  A    between atoms: O1_2  and  C2_3 
REMARK    2  A    between atoms: C8_11  and  N3_12 
REMARK    3  A    between atoms: N3_12  and  C9_13 
REMARK    4  A    between atoms: C17_23  and  N4_24 
REMARK       I    between atoms: N4_24  and  C18_25 
REMARK       I    between atoms: C18_25  and  N5_27 
ROOT
HETATM    1  C2  UNL     1       2.171  -1.604  -0.442  1.00  0.00     0.097 A 
HETATM    2  C3  UNL     1       1.414  -2.758  -0.563  1.00  0.00     0.071 A 
HETATM    3  C4  UNL     1       0.084  -2.780  -0.192  1.00  0.00     0.071 A 
HETATM    4  N1  UNL     1      -0.638  -3.906  -0.315  1.00  0.00    -0.259 NA
HETATM    5  C5  UNL     1      -1.936  -3.977   0.033  1.00  0.00     0.142 A 
HETATM    6  C6  UNL     1      -2.490  -2.796   0.534  1.00  0.00     0.089 A 
HETATM    7  C7  UNL     1      -3.889  -2.803   0.929  1.00  0.00     0.103 C 
HETATM    8  N2  UNL     1      -5.002  -2.794   1.239  1.00  0.00    -0.191 NA
HETATM    9  C8  UNL     1      -1.826  -1.598   0.694  1.00  0.00     0.067 A 
HETATM   10  C15 UNL     1      -0.482  -1.609   0.310  1.00  0.00     0.023 A 
HETATM   11  C16 UNL     1       0.258  -0.442   0.439  1.00  0.00     0.048 A 
HETATM   12  C17 UNL     1       1.564  -0.469   0.061  1.00  0.00     0.070 A 
ENDROOT
BRANCH   9  13
HETATM   13  N3  UNL     1      -2.457  -0.455   1.206  1.00  0.00    -0.354 N 
HETATM   14  H6  UNL     1      -2.306  -0.521   2.237  1.00  0.00     0.166 HD
BRANCH  13  15
HETATM   15  C9  UNL     1      -3.152   0.587   0.579  1.00  0.00     0.034 A 
HETATM   16  C10 UNL     1      -3.665   1.586   1.381  1.00  0.00     0.032 A 
HETATM   17  C11 UNL     1      -4.357   2.634   0.809  1.00  0.00     0.046 A 
HETATM   18  C12 UNL     1      -4.500   2.620  -0.582  1.00  0.00     0.138 A 
HETATM   19  F1  UNL     1      -5.170   3.624  -1.202  1.00  0.00    -0.204 F 
HETATM   20  C13 UNL     1      -3.984   1.619  -1.372  1.00  0.00     0.074 A 
HETATM   21 CL1  UNL     1      -4.203   1.672  -3.104  1.00  0.00    -0.081 Cl
HETATM   22  C14 UNL     1      -3.287   0.565  -0.795  1.00  0.00     0.056 A 
ENDBRANCH  13  15
ENDBRANCH   9  13
BRANCH  12  23
HETATM   23  N4  UNL     1       2.275   0.754   0.215  1.00  0.00    -0.306 N 
HETATM   24  C18 UNL     1       3.039   1.319   1.282  1.00  0.00     0.323 C 
HETATM   25  O2  UNL     1       3.074   0.560   2.276  1.00  0.00    -0.247 OA
HETATM   26  N5  UNL     1       3.572   2.609   0.949  1.00  0.00    -0.331 N 
HETATM   27  C19 UNL     1       3.844   3.801   0.138  1.00  0.00     0.147 A 
HETATM   28  C20 UNL     1       4.392   3.761   1.440  1.00  0.00     0.147 A 
HETATM   29  H11 UNL     1       2.096   1.198  -0.730  1.00  0.00     0.171 HD
ENDBRANCH  12  23
BRANCH   1  30
HETATM   30  O1  UNL     1       3.511  -1.475  -0.784  1.00  0.00    -0.354 OA
HETATM   31  C1  UNL     1       4.174  -2.602  -1.300  1.00  0.00     0.210 C 
ENDBRANCH   1  30
TORSDOF 4
