REMARK  5 active torsions:
REMARK  status: ('A' for Active; 'I' for Inactive)
REMARK    1  A    between atoms: C2_2  and  N1_3 
REMARK    2  A    between atoms: N1_3  and  C3_4 
REMARK    3  A    between atoms: N1_3  and  C5_6 
REMARK    4  A    between atoms: C8_9  and  C9_10 
REMARK    5  A    between atoms: C17_23  and  O2_24 
ROOT
HETATM    1  C5  UNL     1      -1.358  -0.896   0.519  1.00  0.00     0.303 C 
HETATM    2  C6  UNL     1      -0.528   0.313   0.557  1.00  0.00     0.014 C 
HETATM    3  C7  UNL     1       0.098   1.405   0.200  1.00  0.00     0.003 C 
HETATM    4  C8  UNL     1       0.951   2.551   0.447  1.00  0.00     0.165 C 
HETATM    5  N2  UNL     1       2.334   2.385   0.693  1.00  0.00    -0.384 N 
HETATM    6  C10 UNL     1       3.407   1.887  -0.092  1.00  0.00     0.093 C 
HETATM    7  C11 UNL     1       3.705   0.597  -0.000  1.00  0.00    -0.013 C 
HETATM    8  C12 UNL     1       2.954  -0.360   0.906  1.00  0.00     0.120 C 
HETATM    9  C13 UNL     1       2.248  -1.134  -0.196  1.00  0.00     0.107 C 
HETATM   10  N3  UNL     1       3.136  -1.863  -0.785  1.00  0.00    -0.245 NA
HETATM   11  C14 UNL     1       4.462  -1.328  -1.124  1.00  0.00     0.143 C 
HETATM   12  C15 UNL     1       4.752  -0.038  -0.812  1.00  0.00     0.059 C 
HETATM   13 CL1  UNL     1       6.110   0.946  -1.237  1.00  0.00    -0.082 Cl
HETATM   14  N4  UNL     1       1.034  -1.411  -0.885  1.00  0.00    -0.352 N 
HETATM   15  C16 UNL     1       0.318  -2.574  -0.564  1.00  0.00     0.124 C 
HETATM   16  C17 UNL     1      -0.737  -2.128   0.072  1.00  0.00     0.095 C 
HETATM   17  H16 UNL     1       2.950   2.583   1.521  1.00  0.00     0.160 HD
HETATM   18  H21 UNL     1       0.677  -0.783  -1.623  1.00  0.00     0.166 HD
ENDROOT
BRANCH   1  19
HETATM   19  N1  UNL     1      -2.597  -0.708  -0.207  1.00  0.00     0.102 N 
BRANCH  19  20
HETATM   20  C2  UNL     1      -3.411   0.351   0.307  1.00  0.00     0.269 C 
HETATM   21  C1  UNL     1      -3.508   0.269   1.819  1.00  0.00     0.037 C 
ENDBRANCH  19  20
BRANCH  19  22
HETATM   22  C3  UNL     1      -2.417  -0.754  -1.605  1.00  0.00     0.269 C 
HETATM   23  C4  UNL     1      -3.663  -1.103  -2.383  1.00  0.00     0.037 C 
ENDBRANCH  19  22
ENDBRANCH   1  19
BRANCH  16  24
HETATM   24  O2  UNL     1      -1.373  -3.319   0.342  1.00  0.00    -0.361 OA
HETATM   25  H23 UNL     1      -1.506  -3.601   1.307  1.00  0.00     0.217 HD
ENDBRANCH  16  24
BRANCH   4  26
HETATM   26  C9  UNL     1       0.405   3.298   1.648  1.00  0.00     0.260 C 
HETATM   27  O1  UNL     1      -0.531   3.805   2.231  1.00  0.00    -0.304 OA
ENDBRANCH   4  26
TORSDOF 5
