REMARK  2 active torsions:
REMARK  status: ('A' for Active; 'I' for Inactive)
REMARK    1  A    between atoms: N1_2  and  C2_3 
REMARK    2  A    between atoms: C4_5  and  S1_6 
ROOT
HETATM    1  S1  UNL     1      -0.659  -0.741  -1.003  1.00  0.00    -0.107 SA
HETATM    2  C5  UNL     1      -2.010  -0.406  -0.113  1.00  0.00     0.011 A 
HETATM    3  C6  UNL     1      -2.389   0.594   0.913  1.00  0.00     0.081 A 
HETATM    4  C7  UNL     1      -3.798   0.171   1.172  1.00  0.00    -0.077 A 
HETATM    5  C8  UNL     1      -4.436   1.037   2.201  1.00  0.00     0.044 C 
HETATM    6  C9  UNL     1      -4.222  -0.861   0.470  1.00  0.00     0.035 A 
HETATM    7  C10 UNL     1      -3.128  -1.317  -0.407  1.00  0.00     0.069 A 
HETATM    8  N2  UNL     1      -3.136  -2.278  -1.234  1.00  0.00    -0.258 NA
HETATM    9  C11 UNL     1      -2.067  -2.683  -2.059  1.00  0.00     0.147 A 
HETATM   10  C12 UNL     1      -0.866  -2.136  -2.118  1.00  0.00     0.098 A 
HETATM   11  C13 UNL     1       0.217  -2.526  -2.937  1.00  0.00     0.108 C 
HETATM   12  N3  UNL     1       1.094  -2.834  -3.603  1.00  0.00    -0.191 NA
ENDROOT
BRANCH   1  13
HETATM   13  C4  UNL     1       0.811   0.224  -0.828  1.00  0.00     0.003 A 
HETATM   14  C3  UNL     1       1.748  -0.242   0.057  1.00  0.00     0.049 A 
HETATM   15  C2  UNL     1       2.901   0.435   0.264  1.00  0.00     0.045 A 
HETATM   16  C16 UNL     1       3.154   1.629  -0.428  1.00  0.00     0.033 A 
HETATM   17  C15 UNL     1       2.219   2.143  -1.346  1.00  0.00     0.022 A 
HETATM   18  I1  UNL     1       4.827   2.946  -0.362  1.00  0.00    -0.042 I 
HETATM   19  C14 UNL     1       1.070   1.397  -1.502  1.00  0.00     0.020 A 
BRANCH  15  20
HETATM   20  N1  UNL     1       4.073   0.317   1.039  1.00  0.00    -0.393 N 
HETATM   21  C1  UNL     1       5.224   0.200   1.801  1.00  0.00     0.146 C 
HETATM   22  H4  UNL     1       3.754  -0.612   1.470  1.00  0.00     0.159 HD
ENDBRANCH  15  20
ENDBRANCH   1  13
TORSDOF 2
