REMARK  7 active torsions:
REMARK  status: ('A' for Active; 'I' for Inactive)
REMARK    1  A    between atoms: O1_2  and  C2_3 
REMARK    2  A    between atoms: C8_11  and  N3_12 
REMARK    3  A    between atoms: N3_12  and  C9_13 
REMARK    4  A    between atoms: C16_22  and  N4_23 
REMARK       I    between atoms: N4_23  and  C17_24 
REMARK    5  A    between atoms: C17_24  and  C18_26 
REMARK    6  A    between atoms: C19_27  and  C20_28 
REMARK    7  A    between atoms: C20_28  and  N5_30 
ROOT
HETATM    1  C2  UNL     1       0.513  -2.684  -1.038  1.00  0.00     0.097 A 
HETATM    2  C3  UNL     1       1.512  -3.469  -0.487  1.00  0.00     0.071 A 
HETATM    3  C4  UNL     1       2.579  -2.887   0.189  1.00  0.00     0.071 A 
HETATM    4  N1  UNL     1       3.552  -3.647   0.725  1.00  0.00    -0.259 NA
HETATM    5  C5  UNL     1       4.579  -3.067   1.376  1.00  0.00     0.142 A 
HETATM    6  C6  UNL     1       4.735  -1.709   1.554  1.00  0.00     0.089 A 
HETATM    7  C7  UNL     1       5.854  -1.157   2.259  1.00  0.00     0.103 C 
HETATM    8  N2  UNL     1       6.767  -0.703   2.818  1.00  0.00    -0.191 NA
HETATM    9  C8  UNL     1       3.727  -0.915   0.999  1.00  0.00     0.067 A 
HETATM   10  C14 UNL     1       2.676  -1.518   0.331  1.00  0.00     0.023 A 
HETATM   11  C15 UNL     1       1.694  -0.698  -0.207  1.00  0.00     0.048 A 
HETATM   12  C16 UNL     1       0.657  -1.323  -0.867  1.00  0.00     0.069 A 
ENDROOT
BRANCH   9  13
HETATM   13  N3  UNL     1       3.862   0.489   1.166  1.00  0.00    -0.354 N 
HETATM   14  H6  UNL     1       3.357   0.679   2.080  1.00  0.00     0.166 HD
BRANCH  13  15
HETATM   15  C9  UNL     1       4.465   1.550   0.440  1.00  0.00     0.033 A 
HETATM   16  C10 UNL     1       5.726   1.598   0.032  1.00  0.00     0.045 A 
HETATM   17  C11 UNL     1       5.962   2.889  -0.700  1.00  0.00     0.240 A 
HETATM   18  F1  UNL     1       6.374   2.683  -1.981  1.00  0.00    -0.239 F 
HETATM   19  C12 UNL     1       4.600   3.500  -0.598  1.00  0.00     0.051 A 
HETATM   20 CL1  UNL     1       4.342   5.079  -1.328  1.00  0.00    -0.086 Cl
HETATM   21  C13 UNL     1       3.735   2.750   0.048  1.00  0.00     0.052 A 
ENDBRANCH  13  15
ENDBRANCH   9  13
BRANCH  12  22
HETATM   22  N4  UNL     1      -0.342  -0.446  -1.413  1.00  0.00    -0.321 N 
HETATM   23  C17 UNL     1      -1.410  -0.168  -0.507  1.00  0.00     0.245 C 
HETATM   24  O2  UNL     1      -1.286  -0.737   0.599  1.00  0.00    -0.268 OA
HETATM   25  H11 UNL     1      -0.334  -0.021  -2.384  1.00  0.00     0.169 HD
BRANCH  23  26
HETATM   26  C18 UNL     1      -2.520   0.701  -0.874  1.00  0.00     0.072 C 
HETATM   27  C19 UNL     1      -3.479   0.919   0.011  1.00  0.00     0.013 C 
BRANCH  27  28
HETATM   28  C20 UNL     1      -4.666   1.760  -0.183  1.00  0.00     0.241 C 
HETATM   29  C21 UNL     1      -4.635   2.836   0.876  1.00  0.00     0.047 C 
BRANCH  28  30
HETATM   30  N5  UNL     1      -5.870   0.995  -0.212  1.00  0.00     0.087 N 
HETATM   31  C22 UNL     1      -7.038   1.795  -0.401  1.00  0.00     0.310 C 
HETATM   32  C23 UNL     1      -5.981  -0.028   0.782  1.00  0.00     0.310 C 
ENDBRANCH  28  30
ENDBRANCH  27  28
ENDBRANCH  23  26
ENDBRANCH  12  22
BRANCH   1  33
HETATM   33  O1  UNL     1      -0.587  -3.175  -1.728  1.00  0.00    -0.354 OA
HETATM   34  C1  UNL     1      -0.692  -4.579  -1.877  1.00  0.00     0.210 C 
ENDBRANCH   1  33
TORSDOF 7
