REMARK  7 active torsions:
REMARK  status: ('A' for Active; 'I' for Inactive)
REMARK    1  A    between atoms: C2_2  and  N1_3 
REMARK    2  A    between atoms: C2_2  and  C17_23 
REMARK    3  A    between atoms: N1_3  and  C3_4 
REMARK    4  A    between atoms: C4_5  and  N2_6 
REMARK    5  A    between atoms: N2_6  and  C5_7 
REMARK    6  A    between atoms: C17_23  and  N5_25 
REMARK    7  A    between atoms: C17_23  and  C19_26 
ROOT
HETATM    1  C3  UNL     1      -0.390   1.324   0.345  1.00  0.00     0.057 C 
HETATM    2  C4  UNL     1       0.904   1.342   0.714  1.00  0.00     0.081 C 
HETATM    3  C11 UNL     1       1.693   2.516   1.157  1.00  0.00     0.091 C 
HETATM    4  C12 UNL     1       2.712   2.110   2.108  1.00  0.00     0.103 C 
HETATM    5  N3  UNL     1       3.505   1.787   2.867  1.00  0.00    -0.191 NA
HETATM    6  C13 UNL     1       1.722   3.824   0.960  1.00  0.00     0.141 C 
HETATM    7  N4  UNL     1       0.911   4.671   0.158  1.00  0.00    -0.272 NA
HETATM    8  C14 UNL     1      -0.331   4.623  -0.260  1.00  0.00     0.116 C 
HETATM    9  C15 UNL     1      -1.408   3.632  -0.049  1.00  0.00     0.021 C 
HETATM   10  C16 UNL     1      -1.473   2.323   0.191  1.00  0.00     0.033 C 
ENDROOT
BRANCH   2  11
HETATM   11  N2  UNL     1       1.580   0.102   0.719  1.00  0.00    -0.353 N 
HETATM   12  H6  UNL     1       1.296  -0.339   1.621  1.00  0.00     0.166 HD
BRANCH  11  13
HETATM   13  C5  UNL     1       2.470  -0.748   0.026  1.00  0.00     0.034 A 
HETATM   14  C6  UNL     1       3.785  -0.865   0.436  1.00  0.00     0.032 A 
HETATM   15  C7  UNL     1       4.698  -1.668  -0.175  1.00  0.00     0.046 A 
HETATM   16  C8  UNL     1       4.228  -2.382  -1.261  1.00  0.00     0.138 A 
HETATM   17  F1  UNL     1       5.122  -3.194  -1.905  1.00  0.00    -0.204 F 
HETATM   18  C9  UNL     1       2.959  -2.349  -1.753  1.00  0.00     0.074 A 
HETATM   19 CL1  UNL     1       2.457  -3.317  -3.128  1.00  0.00    -0.081 Cl
HETATM   20  C10 UNL     1       2.104  -1.517  -1.083  1.00  0.00     0.056 A 
ENDBRANCH  11  13
ENDBRANCH   2  11
BRANCH   1  21
HETATM   21  N1  UNL     1      -0.862   0.022   0.018  1.00  0.00    -0.381 N 
HETATM   22  H5  UNL     1      -0.306  -0.815   0.323  1.00  0.00     0.160 HD
BRANCH  21  23
HETATM   23  C2  UNL     1      -2.003  -0.470  -0.660  1.00  0.00     0.122 C 
HETATM   24  C1  UNL     1      -1.787  -1.243  -1.912  1.00  0.00     0.035 C 
BRANCH  23  25
HETATM   25  C17 UNL     1      -2.819  -1.296   0.339  1.00  0.00     0.223 C 
HETATM   26  C18 UNL     1      -2.167  -2.579   0.721  1.00  0.00     0.059 C 
BRANCH  25  27
HETATM   27  N5  UNL     1      -2.976  -0.491   1.560  1.00  0.00     0.096 N 
HETATM   28  H17 UNL     1      -3.702   0.229   1.432  1.00  0.00     0.314 HD
HETATM   29  H18 UNL     1      -2.067  -0.195   1.919  1.00  0.00     0.314 HD
ENDBRANCH  25  27
BRANCH  25  30
HETATM   30  C19 UNL     1      -4.176  -1.468  -0.203  1.00  0.00     0.274 C 
HETATM   31  O1  UNL     1      -5.165  -0.919   0.263  1.00  0.00    -0.304 OA
ENDBRANCH  25  30
ENDBRANCH  23  25
ENDBRANCH  21  23
ENDBRANCH   1  21
TORSDOF 7
