REMARK  4 active torsions:
REMARK  status: ('A' for Active; 'I' for Inactive)
REMARK    1  A    between atoms: C2_2  and  N1_3 
REMARK    2  A    between atoms: C12_16  and  C13_18 
REMARK    3  A    between atoms: C13_18  and  C14_19 
REMARK    4  A    between atoms: C14_19  and  N3_20 
ROOT
HETATM    1  N1  UNL     1      -0.973   1.388  -0.564  1.00  0.00    -0.378 N 
HETATM    2  C3  UNL     1      -2.228   0.665  -0.718  1.00  0.00     0.154 C 
HETATM    3  C4  UNL     1      -1.995  -0.782  -0.385  1.00  0.00    -0.054 C 
HETATM    4  C5  UNL     1      -2.724  -1.359   0.561  1.00  0.00     0.078 C 
HETATM    5  C6  UNL     1      -2.114  -2.351   1.481  1.00  0.00     0.241 C 
HETATM    6  O1  UNL     1      -3.051  -2.747   2.215  1.00  0.00    -0.269 OA
HETATM    7  N2  UNL     1      -0.719  -2.750   1.495  1.00  0.00    -0.355 N 
HETATM    8  C7  UNL     1       0.493  -2.348   0.755  1.00  0.00     0.163 C 
HETATM    9  C8  UNL     1       0.254  -1.151  -0.018  1.00  0.00     0.109 C 
HETATM   10  C9  UNL     1      -0.826  -1.448  -1.109  1.00  0.00     0.078 C 
HETATM   11  O2  UNL     1      -0.283  -0.217   0.940  1.00  0.00    -0.344 OA
HETATM   12  C10 UNL     1       0.066   0.850   0.187  1.00  0.00     0.154 C 
HETATM   13  C11 UNL     1       0.925   1.900   0.893  1.00  0.00     0.073 C 
HETATM   14  C12 UNL     1       1.058  -0.086  -0.506  1.00  0.00     0.121 C 
HETATM   15 CL1  UNL     1       0.979   0.285  -2.266  1.00  0.00    -0.111 Cl
HETATM   16  H9  UNL     1      -0.668  -3.507   2.246  1.00  0.00     0.162 HD
ENDROOT
BRANCH  14  17
HETATM   17  C13 UNL     1       2.475  -0.009  -0.051  1.00  0.00     0.063 C 
BRANCH  17  18
HETATM   18  C14 UNL     1       3.226  -1.242  -0.492  1.00  0.00     0.269 C 
BRANCH  18  19
HETATM   19  N3  UNL     1       3.202  -1.353  -1.960  1.00  0.00     0.078 N 
HETATM   20  H21 UNL     1       4.005  -1.953  -2.302  1.00  0.00     0.312 HD
HETATM   21  H22 UNL     1       3.437  -0.396  -2.324  1.00  0.00     0.312 HD
ENDBRANCH  18  19
ENDBRANCH  17  18
ENDBRANCH  14  17
BRANCH   1  22
HETATM   22  C2  UNL     1      -1.252   2.771  -0.461  1.00  0.00     0.116 C 
HETATM   23  C1  UNL     1      -1.977   3.227   0.763  1.00  0.00     0.026 C 
ENDBRANCH   1  22
TORSDOF 4
