REMARK  7 active torsions:
REMARK  status: ('A' for Active; 'I' for Inactive)
REMARK    1  A    between atoms: N1_2  and  C3_4 
REMARK    2  A    between atoms: C3_4  and  C4_5 
REMARK    3  A    between atoms: C5_6  and  C6_7 
REMARK       I    between atoms: C6_7  and  N2_9 
REMARK    4  A    between atoms: N2_9  and  C7_10 
REMARK    5  A    between atoms: C12_16  and  C13_17 
REMARK    6  A    between atoms: C13_17  and  N4_21 
REMARK    7  A    between atoms: N4_21  and  C16_22 
ROOT
HETATM    1  C13 UNL     1      -2.998  -1.842   0.647  1.00  0.00     0.045 C 
HETATM    2  C14 UNL     1      -3.301  -2.266   1.851  1.00  0.00     0.123 C 
HETATM    3  C15 UNL     1      -2.397  -2.375   2.926  1.00  0.00     0.090 C 
HETATM    4  N3  UNL     1      -1.641  -2.472   3.815  1.00  0.00    -0.192 NA
ENDROOT
BRANCH   1   5
HETATM    5  C12 UNL     1      -1.710  -1.394   0.133  1.00  0.00     0.069 C 
HETATM    6  C11 UNL     1      -1.245  -0.963  -1.018  1.00  0.00     0.103 A 
HETATM    7  C7  UNL     1       0.124  -0.568  -1.279  1.00  0.00     0.069 A 
HETATM    8  O2  UNL     1      -2.219  -0.919  -2.001  1.00  0.00    -0.320 OA
HETATM    9  C8  UNL     1       0.297  -0.180  -2.528  1.00  0.00     0.034 A 
HETATM   10  C9  UNL     1      -0.701  -0.124  -3.573  1.00  0.00     0.027 A 
HETATM   11  C10 UNL     1      -1.943  -0.489  -3.311  1.00  0.00     0.142 A 
BRANCH   7  12
HETATM   12  N2  UNL     1       1.083  -0.625  -0.264  1.00  0.00    -0.321 N 
HETATM   13  C6  UNL     1       2.456  -0.307  -0.312  1.00  0.00     0.245 C 
HETATM   14  O1  UNL     1       2.992   0.091  -1.370  1.00  0.00    -0.268 OA
HETATM   15  H11 UNL     1       0.843  -0.934   0.693  1.00  0.00     0.169 HD
BRANCH  13  16
HETATM   16  C5  UNL     1       3.375  -0.401   0.822  1.00  0.00     0.072 C 
HETATM   17  C4  UNL     1       4.644  -0.083   0.700  1.00  0.00     0.008 C 
BRANCH  17  18
HETATM   18  C3  UNL     1       5.545  -0.192   1.874  1.00  0.00     0.299 C 
BRANCH  18  19
HETATM   19  N1  UNL     1       6.067   1.145   2.106  1.00  0.00     0.083 N 
HETATM   20  C1  UNL     1       6.949   1.570   1.057  1.00  0.00     0.309 C 
HETATM   21  C2  UNL     1       4.935   2.066   2.222  1.00  0.00     0.309 C 
ENDBRANCH  18  19
ENDBRANCH  17  18
ENDBRANCH  13  16
ENDBRANCH   7  12
ENDBRANCH   1   5
BRANCH   1  22
HETATM   22  N4  UNL     1      -3.941  -1.747  -0.412  1.00  0.00    -0.356 N 
HETATM   23  H17 UNL     1      -4.004  -2.588  -1.016  1.00  0.00     0.166 HD
BRANCH  22  24
HETATM   24  C16 UNL     1      -4.717  -0.556  -0.584  1.00  0.00     0.034 A 
HETATM   25  C17 UNL     1      -5.657  -0.405  -1.610  1.00  0.00     0.032 A 
HETATM   26  C18 UNL     1      -6.363   0.791  -1.696  1.00  0.00     0.046 A 
HETATM   27  C19 UNL     1      -6.174   1.830  -0.814  1.00  0.00     0.138 A 
HETATM   28  F1  UNL     1      -6.858   2.999  -0.895  1.00  0.00    -0.204 F 
HETATM   29  C20 UNL     1      -5.247   1.667   0.188  1.00  0.00     0.074 A 
HETATM   30 CL1  UNL     1      -4.919   2.928   1.375  1.00  0.00    -0.081 Cl
HETATM   31  C21 UNL     1      -4.531   0.487   0.296  1.00  0.00     0.056 A 
ENDBRANCH  22  24
ENDBRANCH   1  22
TORSDOF 7
