REMARK  4 active torsions:
REMARK  status: ('A' for Active; 'I' for Inactive)
REMARK    1  A    between atoms: C5_5  and  N1_6 
REMARK    2  A    between atoms: N1_6  and  C6_7 
REMARK    3  A    between atoms: C12_15  and  N2_16 
REMARK    4  A    between atoms: C13_17  and  C14_18 
ROOT
HETATM    1  C14 UNL     1       2.102   2.623   0.305  1.00  0.00     0.170 C 
HETATM    2  C15 UNL     1       2.829   3.843   0.566  1.00  0.00     0.064 C 
HETATM    3  N3  UNL     1       3.409   4.843   0.769  1.00  0.00    -0.197 NA
ENDROOT
BRANCH   1   4
HETATM    4  C13 UNL     1       1.946   2.335  -1.140  1.00  0.00     0.104 C 
HETATM    5  N2  UNL     1       1.712   1.157  -1.561  1.00  0.00    -0.266 NA
BRANCH   5   6
HETATM    6  C12 UNL     1       1.574  -0.005  -0.742  1.00  0.00     0.057 C 
HETATM    7  C5  UNL     1       0.256  -0.434  -0.246  1.00  0.00     0.156 C 
HETATM    8  C4  UNL     1       0.353  -0.847   1.191  1.00  0.00     0.001 C 
HETATM    9  C3  UNL     1       1.444  -1.579   1.494  1.00  0.00    -0.020 C 
HETATM   10  C2  UNL     1       2.438  -1.919   0.441  1.00  0.00     0.028 C 
HETATM   11  C1  UNL     1       2.095  -3.132  -0.358  1.00  0.00     0.018 C 
HETATM   12  C16 UNL     1       2.649  -0.706  -0.425  1.00  0.00     0.011 C 
BRANCH   7  13
HETATM   13  N1  UNL     1      -0.757   0.568  -0.465  1.00  0.00    -0.376 N 
HETATM   14  H8  UNL     1      -0.505   1.503  -0.852  1.00  0.00     0.160 HD
BRANCH  13  15
HETATM   15  C6  UNL     1      -2.119   0.311  -0.163  1.00  0.00     0.030 A 
HETATM   16  C7  UNL     1      -2.561  -0.890   0.350  1.00  0.00     0.032 A 
HETATM   17  C8  UNL     1      -3.897  -1.109   0.635  1.00  0.00     0.046 A 
HETATM   18  C9  UNL     1      -4.837  -0.123   0.414  1.00  0.00     0.138 A 
HETATM   19  F1  UNL     1      -6.157  -0.310   0.685  1.00  0.00    -0.204 F 
HETATM   20  C10 UNL     1      -4.448   1.110  -0.102  1.00  0.00     0.074 A 
HETATM   21 CL1  UNL     1      -5.596   2.397  -0.403  1.00  0.00    -0.081 Cl
HETATM   22  C11 UNL     1      -3.095   1.264  -0.366  1.00  0.00     0.056 A 
ENDBRANCH  13  15
ENDBRANCH   7  13
ENDBRANCH   5   6
ENDBRANCH   1   4
TORSDOF 4
