REMARK  8 active torsions:
REMARK  status: ('A' for Active; 'I' for Inactive)
REMARK    1  A    between atoms: O1_2  and  C2_3 
REMARK    2  A    between atoms: C2_3  and  C3_4 
REMARK    3  A    between atoms: C3_4  and  C4_5 
REMARK    4  A    between atoms: C4_5  and  C5_6 
REMARK    5  A    between atoms: C4_5  and  N2_9 
REMARK       I    between atoms: C5_6  and  N1_7 
REMARK    6  A    between atoms: N2_9  and  C7_11 
REMARK    7  A    between atoms: C7_11  and  C8_12 
REMARK    8  A    between atoms: C13_18  and  O3_19 
ROOT
HETATM    1  N2  UNL     1       0.280  -0.867   0.365  1.00  0.00    -0.400 N 
HETATM    2  C6  UNL     1      -0.599  -1.947   0.751  1.00  0.00     0.144 C 
ENDROOT
BRANCH   1   3
HETATM    3  C4  UNL     1       1.576  -1.284  -0.029  1.00  0.00     0.173 C 
BRANCH   3   4
HETATM    4  C3  UNL     1       2.418  -0.106  -0.416  1.00  0.00     0.060 C 
BRANCH   4   5
HETATM    5  C2  UNL     1       2.090   0.552  -1.687  1.00  0.00     0.169 C 
BRANCH   5   6
HETATM    6  O1  UNL     1       2.933   1.626  -1.887  1.00  0.00    -0.396 OA
HETATM    7  C1  UNL     1       4.266   1.319  -1.953  1.00  0.00     0.201 C 
ENDBRANCH   5   6
ENDBRANCH   4   5
ENDBRANCH   3   4
BRANCH   3   8
HETATM    8  C5  UNL     1       1.601  -2.398  -0.972  1.00  0.00     0.238 C 
HETATM    9  N1  UNL     1       2.941  -2.722  -1.292  1.00  0.00    -0.368 N 
HETATM   10  H9  UNL     1       3.909  -2.871  -1.619  1.00  0.00     0.159 HD
HETATM   11  H10 UNL     1       3.935  -2.886  -1.614  1.00  0.00     0.159 HD
HETATM   12  O2  UNL     1       0.766  -3.131  -1.564  1.00  0.00    -0.271 OA
ENDBRANCH   3   8
ENDBRANCH   1   3
BRANCH   1  13
HETATM   13  C7  UNL     1       0.143   0.295   1.151  1.00  0.00     0.158 C 
BRANCH  13  14
HETATM   14  C8  UNL     1      -1.327   0.483   1.436  1.00  0.00    -0.010 A 
HETATM   15  C9  UNL     1      -1.968   0.525   2.593  1.00  0.00    -0.000 A 
HETATM   16  C10 UNL     1      -3.380   0.700   3.018  1.00  0.00     0.080 A 
HETATM   17  I1  UNL     1      -3.910  -1.100   4.052  1.00  0.00    -0.080 I 
HETATM   18  C11 UNL     1      -4.278   0.867   1.839  1.00  0.00     0.048 A 
HETATM   19  C12 UNL     1      -3.466   0.805   0.601  1.00  0.00     0.012 A 
HETATM   20  C13 UNL     1      -2.198   0.645   0.276  1.00  0.00     0.072 A 
BRANCH  20  21
HETATM   21  O3  UNL     1      -1.820   0.645  -1.054  1.00  0.00    -0.356 OA
HETATM   22  C14 UNL     1      -2.192   1.726  -1.908  1.00  0.00     0.210 C 
ENDBRANCH  20  21
ENDBRANCH  13  14
ENDBRANCH   1  13
TORSDOF 8
