REMARK  2 active torsions:
REMARK  status: ('A' for Active; 'I' for Inactive)
REMARK    1  A    between atoms: C6_7  and  N2_8 
REMARK    2  A    between atoms: N2_8  and  C7_9 
ROOT
HETATM    1  C1  UNL     1      -3.249   1.800   1.228  1.00  0.00     0.309 C 
HETATM    2  N1  UNL     1      -2.910   1.104  -0.016  1.00  0.00     0.085 N 
HETATM    3  C2  UNL     1      -1.810   1.672  -0.668  1.00  0.00     0.275 C 
HETATM    4  C3  UNL     1      -0.506   1.489   0.035  1.00  0.00     0.058 C 
HETATM    5  C4  UNL     1       0.126   0.169   0.038  1.00  0.00    -0.013 C 
HETATM    6  C5  UNL     1       0.549  -1.137  -0.018  1.00  0.00    -0.001 A 
HETATM    7  C6  UNL     1       1.780  -1.609   0.289  1.00  0.00     0.063 A 
HETATM    8  C13 UNL     1       2.102  -2.857  -0.167  1.00  0.00     0.089 A 
HETATM    9  C14 UNL     1       3.393  -3.319   0.197  1.00  0.00     0.103 C 
HETATM   10  N3  UNL     1       4.441  -3.718   0.492  1.00  0.00    -0.191 NA
HETATM   11  C15 UNL     1       1.110  -3.514  -0.907  1.00  0.00     0.137 A 
HETATM   12  N4  UNL     1      -0.091  -2.909  -1.133  1.00  0.00    -0.282 NA
HETATM   13  C16 UNL     1      -0.448  -1.662  -0.686  1.00  0.00     0.111 A 
HETATM   14  C17 UNL     1      -1.588  -2.066  -1.129  1.00  0.00     0.059 A 
HETATM   15  C18 UNL     1      -1.957  -1.397   0.088  1.00  0.00     0.321 A 
HETATM   16  N5  UNL     1      -3.146  -1.138   0.552  1.00  0.00    -0.378 NA
HETATM   17  C19 UNL     1      -4.347  -1.495  -0.140  1.00  0.00     0.210 C 
HETATM   18  O1  UNL     1      -4.543  -2.660  -0.544  1.00  0.00    -0.275 OA
HETATM   19  C20 UNL     1      -4.966  -0.151  -0.103  1.00  0.00     0.132 C 
HETATM   20  C21 UNL     1      -4.095   0.854  -0.803  1.00  0.00     0.281 C 
ENDROOT
BRANCH   7  21
HETATM   21  N2  UNL     1       2.576  -0.740   1.082  1.00  0.00    -0.354 N 
HETATM   22  H9  UNL     1       2.318  -0.916   2.060  1.00  0.00     0.166 HD
BRANCH  21  23
HETATM   23  C7  UNL     1       3.527   0.194   0.630  1.00  0.00     0.034 A 
HETATM   24  C8  UNL     1       4.050   0.142  -0.617  1.00  0.00     0.032 A 
HETATM   25  C9  UNL     1       4.967   1.104  -0.992  1.00  0.00     0.046 A 
HETATM   26  C10 UNL     1       5.353   2.110  -0.114  1.00  0.00     0.138 A 
HETATM   27  F1  UNL     1       6.242   3.023  -0.512  1.00  0.00    -0.204 F 
HETATM   28  C11 UNL     1       4.789   2.126   1.166  1.00  0.00     0.074 A 
HETATM   29 CL1  UNL     1       5.322   3.429   2.212  1.00  0.00    -0.081 Cl
HETATM   30  C12 UNL     1       3.873   1.165   1.539  1.00  0.00     0.056 A 
ENDBRANCH  21  23
ENDBRANCH   7  21
TORSDOF 2
