REMARK  6 active torsions:
REMARK  status: ('A' for Active; 'I' for Inactive)
REMARK    1  A    between atoms: C1_2  and  C2_3 
REMARK       I    between atoms: C1_2  and  N2_12 
REMARK    2  A    between atoms: C3_4  and  C4_5 
REMARK    3  A    between atoms: C4_5  and  N1_6 
REMARK    4  A    between atoms: N2_12  and  C9_13 
REMARK    5  A    between atoms: C12_16  and  N3_17 
REMARK    6  A    between atoms: N3_17  and  C13_18 
ROOT
HETATM    1  C9  UNL     1      -0.628  -1.536  -0.320  1.00  0.00     0.038 C 
HETATM    2  C10 UNL     1      -1.719  -0.659  -0.483  1.00  0.00     0.039 C 
HETATM    3  C11 UNL     1      -2.999  -1.342  -0.210  1.00  0.00    -0.026 C 
HETATM    4  C12 UNL     1      -3.978  -1.214   0.656  1.00  0.00     0.034 C 
HETATM    5  C19 UNL     1      -4.469  -2.555   1.234  1.00  0.00     0.177 C 
HETATM    6  N4  UNL     1      -3.216  -3.412   1.302  1.00  0.00    -0.387 N 
HETATM    7  C20 UNL     1      -2.245  -3.142   0.294  1.00  0.00     0.011 C 
HETATM    8  C21 UNL     1      -0.944  -2.957   0.136  1.00  0.00     0.054 C 
HETATM    9  C22 UNL     1      -3.048  -2.701  -1.003  1.00  0.00     0.097 C 
HETATM   10  H20 UNL     1      -2.672  -4.188   1.817  1.00  0.00     0.159 HD
ENDROOT
BRANCH   1  11
HETATM   11  N2  UNL     1       0.632  -1.008  -0.570  1.00  0.00    -0.316 N 
HETATM   12  C1  UNL     1       1.756  -1.130  -1.459  1.00  0.00     0.301 C 
HETATM   13  O1  UNL     1       1.770  -1.957  -2.385  1.00  0.00    -0.258 OA
HETATM   14  H11 UNL     1       0.660  -0.311   0.238  1.00  0.00     0.170 HD
BRANCH  12  15
HETATM   15  C2  UNL     1       2.795  -0.184  -1.114  1.00  0.00    -0.004 C 
HETATM   16  C3  UNL     1       3.667   0.623  -0.804  1.00  0.00    -0.077 C 
BRANCH  16  17
HETATM   17  C4  UNL     1       4.704   1.589  -0.454  1.00  0.00     0.212 C 
BRANCH  17  18
HETATM   18  N1  UNL     1       5.946   0.844  -0.386  1.00  0.00    -0.401 N 
HETATM   19  C5  UNL     1       5.942  -0.124   0.665  1.00  0.00     0.128 C 
HETATM   20  C6  UNL     1       6.062   0.507   2.028  1.00  0.00     0.093 C 
HETATM   21  S1  UNL     1       7.380   1.730   2.126  1.00  0.00    -0.166 SA
HETATM   22  C7  UNL     1       7.532   2.530   0.524  1.00  0.00     0.093 C 
HETATM   23  C8  UNL     1       7.115   1.610  -0.564  1.00  0.00     0.128 C 
ENDBRANCH  17  18
ENDBRANCH  16  17
ENDBRANCH  12  15
ENDBRANCH   1  11
BRANCH   4  24
HETATM   24  N3  UNL     1      -4.063   0.236   0.668  1.00  0.00    -0.358 N 
HETATM   25  H13 UNL     1      -3.431   0.757   1.272  1.00  0.00     0.166 HD
BRANCH  24  26
HETATM   26  C13 UNL     1      -5.079   0.822  -0.199  1.00  0.00     0.033 A 
HETATM   27  C14 UNL     1      -6.024  -0.004  -0.951  1.00  0.00     0.029 A 
HETATM   28  C15 UNL     1      -6.519   1.222  -1.421  1.00  0.00     0.004 A 
HETATM   29  C16 UNL     1      -6.970   2.286  -1.847  1.00  0.00     0.019 A 
HETATM   30  C17 UNL     1      -5.953   2.916  -1.022  1.00  0.00     0.013 A 
HETATM   31 BR1  UNL     1      -5.692   4.862  -0.915  1.00  0.00    -0.051 Br
HETATM   32  C18 UNL     1      -4.993   2.268  -0.187  1.00  0.00     0.048 A 
ENDBRANCH  24  26
ENDBRANCH   4  24
TORSDOF 6
