REMARK  10 active torsions:
REMARK  status: ('A' for Active; 'I' for Inactive)
REMARK    1  A    between atoms: O1_2  and  C2_3 
REMARK    2  A    between atoms: C2_3  and  C3_4 
REMARK    3  A    between atoms: C3_4  and  C4_5 
REMARK    4  A    between atoms: C4_5  and  C5_6 
REMARK    5  A    between atoms: C4_5  and  N1_8 
REMARK    6  A    between atoms: N1_8  and  C7_10 
REMARK    7  A    between atoms: C10_13  and  N2_14 
REMARK    8  A    between atoms: N2_14  and  C11_15 
REMARK    9  A    between atoms: C19_27  and  C20_28 
REMARK   10  A    between atoms: C20_28  and  N5_29 
ROOT
HETATM    1  C7  UNL     1       0.345   0.718   0.425  1.00  0.00     0.012 A 
HETATM    2  C8  UNL     1      -0.905   0.358   0.453  1.00  0.00     0.043 A 
HETATM    3  C9  UNL     1      -1.708   1.171  -0.439  1.00  0.00     0.039 A 
HETATM    4  C10 UNL     1      -3.007   1.038  -0.614  1.00  0.00     0.142 A 
HETATM    5  N3  UNL     1      -3.779   1.867  -1.512  1.00  0.00    -0.225 NA
HETATM    6  C17 UNL     1      -3.217   2.819  -2.217  1.00  0.00     0.209 A 
HETATM    7  N4  UNL     1      -1.820   3.027  -2.084  1.00  0.00    -0.350 N 
HETATM    8  C18 UNL     1      -1.061   2.218  -1.207  1.00  0.00     0.051 A 
HETATM    9  C19 UNL     1       0.206   2.571  -1.228  1.00  0.00    -0.019 A 
HETATM   10  C21 UNL     1       1.071   1.752  -0.300  1.00  0.00     0.095 A 
HETATM   11  H19 UNL     1      -1.504   3.800  -2.688  1.00  0.00     0.166 HD
ENDROOT
BRANCH   4  12
HETATM   12  N2  UNL     1      -3.794   0.072   0.054  1.00  0.00    -0.338 N 
HETATM   13  H14 UNL     1      -4.520   0.549   0.672  1.00  0.00     0.167 HD
BRANCH  12  14
HETATM   14  C11 UNL     1      -4.083  -1.271   0.297  1.00  0.00     0.074 A 
HETATM   15  C12 UNL     1      -4.634  -1.903  -0.827  1.00  0.00     0.033 A 
HETATM   16  C13 UNL     1      -4.997  -3.235  -0.795  1.00  0.00     0.004 A 
HETATM   17  C14 UNL     1      -4.784  -3.889   0.398  1.00  0.00     0.027 A 
HETATM   18  C15 UNL     1      -4.251  -3.282   1.491  1.00  0.00     0.074 A 
HETATM   19 CL1  UNL     1      -3.985  -4.131   3.007  1.00  0.00    -0.081 Cl
HETATM   20  C16 UNL     1      -3.884  -1.954   1.474  1.00  0.00     0.164 A 
HETATM   21  F1  UNL     1      -3.366  -1.311   2.543  1.00  0.00    -0.202 F 
ENDBRANCH  12  14
ENDBRANCH   4  12
BRANCH   1  22
HETATM   22  N1  UNL     1       1.156  -0.068   1.294  1.00  0.00    -0.377 N 
HETATM   23  C6  UNL     1       1.256   0.353   2.688  1.00  0.00     0.150 C 
BRANCH  22  24
HETATM   24  C4  UNL     1       1.939  -1.267   1.033  1.00  0.00     0.147 C 
BRANCH  24  25
HETATM   25  C3  UNL     1       3.416  -1.015   1.330  1.00  0.00     0.058 C 
BRANCH  25  26
HETATM   26  C2  UNL     1       4.179  -2.278   1.002  1.00  0.00     0.169 C 
BRANCH  26  27
HETATM   27  O1  UNL     1       5.537  -2.165   1.237  1.00  0.00    -0.396 OA
HETATM   28  C1  UNL     1       6.167  -1.180   0.518  1.00  0.00     0.201 C 
ENDBRANCH  26  27
ENDBRANCH  25  26
ENDBRANCH  24  25
BRANCH  24  29
HETATM   29  C5  UNL     1       1.776  -1.608  -0.402  1.00  0.00     0.256 C 
HETATM   30  O2  UNL     1       1.194  -1.194  -1.387  1.00  0.00    -0.305 OA
ENDBRANCH  24  29
ENDBRANCH  22  24
ENDBRANCH   1  22
BRANCH   9  31
HETATM   31  C20 UNL     1       1.062   3.552  -1.890  1.00  0.00     0.303 C 
BRANCH  31  32
HETATM   32  N5  UNL     1       0.500   4.469  -2.803  1.00  0.00     0.082 N 
HETATM   33  H22 UNL     1       0.286   5.398  -2.371  1.00  0.00     0.313 HD
HETATM   34  H23 UNL     1       1.113   4.637  -3.647  1.00  0.00     0.313 HD
ENDBRANCH  31  32
ENDBRANCH   9  31
TORSDOF 10
