REMARK  6 active torsions:
REMARK  status: ('A' for Active; 'I' for Inactive)
REMARK    1  A    between atoms: C2_2  and  C3_3 
REMARK    2  A    between atoms: C3_3  and  C4_4 
REMARK    3  A    between atoms: C4_4  and  N1_5 
REMARK    4  A    between atoms: N1_5  and  C5_6 
REMARK    5  A    between atoms: C8_9  and  N2_10 
REMARK    6  A    between atoms: C19_25  and  O1_26 
ROOT
HETATM    1  C5  UNL     1      -1.157  -1.093   1.178  1.00  0.00     0.062 A 
HETATM    2  C6  UNL     1      -0.052  -0.724   0.439  1.00  0.00     0.048 A 
HETATM    3  C7  UNL     1       0.981  -1.539   0.059  1.00  0.00     0.023 A 
HETATM    4  C8  UNL     1       2.063  -1.112  -0.683  1.00  0.00     0.068 A 
HETATM    5  C14 UNL     1       3.066  -2.006  -1.024  1.00  0.00     0.089 A 
HETATM    6  C15 UNL     1       4.156  -1.501  -1.791  1.00  0.00     0.103 C 
HETATM    7  N3  UNL     1       5.035  -1.079  -2.410  1.00  0.00    -0.191 NA
HETATM    8  C16 UNL     1       2.974  -3.341  -0.614  1.00  0.00     0.142 A 
HETATM    9  N4  UNL     1       1.894  -3.724   0.115  1.00  0.00    -0.259 NA
HETATM   10  C17 UNL     1       0.926  -2.862   0.445  1.00  0.00     0.071 A 
HETATM   11  C18 UNL     1      -0.154  -3.292   1.186  1.00  0.00     0.071 A 
HETATM   12  C19 UNL     1      -1.175  -2.444   1.551  1.00  0.00     0.096 A 
ENDROOT
BRANCH   4  13
HETATM   13  N2  UNL     1       2.133   0.253  -1.089  1.00  0.00    -0.344 N 
HETATM   14  C9  UNL     1       1.543   0.604  -2.355  1.00  0.00     0.154 C 
HETATM   15  C10 UNL     1       1.677   2.092  -2.494  1.00  0.00     0.012 C 
HETATM   16  C11 UNL     1       2.520   2.924  -1.885  1.00  0.00     0.014 C 
HETATM   17 CL1  UNL     1       2.528   4.666  -2.182  1.00  0.00    -0.089 Cl
HETATM   18  C12 UNL     1       3.466   2.319  -0.932  1.00  0.00     0.110 C 
HETATM   19  C13 UNL     1       2.793   1.191  -0.203  1.00  0.00     0.277 C 
HETATM   20  F1  UNL     1       3.774   0.553   0.562  1.00  0.00    -0.226 F 
ENDBRANCH   4  13
BRANCH   1  21
HETATM   21  N1  UNL     1      -2.178  -0.218   1.553  1.00  0.00    -0.388 N 
HETATM   22  H10 UNL     1      -2.955  -0.632   2.141  1.00  0.00     0.159 HD
BRANCH  21  23
HETATM   23  C4  UNL     1      -2.354   1.189   1.264  1.00  0.00     0.120 C 
BRANCH  23  24
HETATM   24  C3  UNL     1      -2.633   1.462  -0.197  1.00  0.00     0.019 C 
BRANCH  24  25
HETATM   25  C2  UNL     1      -2.788   2.983  -0.344  1.00  0.00    -0.003 C 
HETATM   26  C1  UNL     1      -3.950   3.386   0.544  1.00  0.00     0.005 C 
ENDBRANCH  24  25
ENDBRANCH  23  24
ENDBRANCH  21  23
ENDBRANCH   1  21
BRANCH  12  27
HETATM   27  O1  UNL     1      -2.255  -2.884   2.294  1.00  0.00    -0.354 OA
HETATM   28  C20 UNL     1      -2.295  -4.244   2.682  1.00  0.00     0.210 C 
ENDBRANCH  12  27
TORSDOF 6
