REMARK  7 active torsions:
REMARK  status: ('A' for Active; 'I' for Inactive)
REMARK    1  A    between atoms: C2_2  and  N1_3 
REMARK    2  A    between atoms: N1_3  and  C3_4 
REMARK    3  A    between atoms: N1_3  and  C5_6 
REMARK    4  A    between atoms: C5_6  and  C7_8 
REMARK    5  A    between atoms: C8_9  and  C9_10 
REMARK       I    between atoms: C9_10  and  N2_12 
REMARK    6  A    between atoms: N2_12  and  C10_13 
REMARK    7  A    between atoms: C19_24  and  O2_25 
ROOT
HETATM    1  C10 UNL     1       2.400   0.059   0.005  1.00  0.00     0.069 A 
HETATM    2  C11 UNL     1       2.986   1.285  -0.222  1.00  0.00     0.046 A 
HETATM    3  C12 UNL     1       4.351   1.446  -0.166  1.00  0.00    -0.004 A 
HETATM    4  C13 UNL     1       5.006   2.644  -0.379  1.00  0.00     0.038 A 
HETATM    5  C14 UNL     1       6.382   2.675  -0.292  1.00  0.00     0.063 A 
HETATM    6  C15 UNL     1       7.102   3.892  -0.503  1.00  0.00     0.101 C 
HETATM    7  N3  UNL     1       7.694   4.867  -0.675  1.00  0.00    -0.191 NA
HETATM    8  C16 UNL     1       7.153   1.546   0.003  1.00  0.00     0.140 A 
HETATM    9  N4  UNL     1       6.482   0.400   0.204  1.00  0.00    -0.259 NA
HETATM   10  C17 UNL     1       5.142   0.360   0.122  1.00  0.00     0.069 A 
HETATM   11  C18 UNL     1       4.583  -0.879   0.352  1.00  0.00     0.071 A 
HETATM   12  C19 UNL     1       3.201  -1.053   0.298  1.00  0.00     0.097 A 
ENDROOT
BRANCH   1  13
HETATM   13  N2  UNL     1       1.002  -0.171  -0.037  1.00  0.00    -0.321 N 
HETATM   14  C9  UNL     1       0.032  -0.546  -0.986  1.00  0.00     0.245 C 
HETATM   15  O1  UNL     1       0.367  -0.773  -2.186  1.00  0.00    -0.268 OA
HETATM   16  H17 UNL     1       0.805   0.037   0.983  1.00  0.00     0.169 HD
BRANCH  14  17
HETATM   17  C8  UNL     1      -1.359  -0.670  -0.571  1.00  0.00     0.072 C 
HETATM   18  C7  UNL     1      -1.925  -0.482   0.604  1.00  0.00     0.013 C 
BRANCH  18  19
HETATM   19  C5  UNL     1      -3.384  -0.632   0.947  1.00  0.00     0.242 C 
HETATM   20  C6  UNL     1      -3.599  -2.072   1.235  1.00  0.00     0.047 C 
BRANCH  19  21
HETATM   21  N1  UNL     1      -4.133  -0.048  -0.112  1.00  0.00     0.095 N 
BRANCH  21  22
HETATM   22  C2  UNL     1      -3.659   1.350  -0.192  1.00  0.00     0.268 C 
HETATM   23  C1  UNL     1      -4.132   2.010  -1.449  1.00  0.00     0.037 C 
ENDBRANCH  21  22
BRANCH  21  24
HETATM   24  C3  UNL     1      -5.567  -0.035   0.067  1.00  0.00     0.268 C 
HETATM   25  C4  UNL     1      -6.234  -1.357   0.113  1.00  0.00     0.037 C 
ENDBRANCH  21  24
ENDBRANCH  19  21
ENDBRANCH  18  19
ENDBRANCH  14  17
ENDBRANCH   1  13
BRANCH  12  26
HETATM   26  O2  UNL     1       2.628  -2.296   0.529  1.00  0.00    -0.354 OA
HETATM   27  C20 UNL     1       3.483  -3.378   0.821  1.00  0.00     0.210 C 
ENDBRANCH  12  26
TORSDOF 7
