REMARK  3 active torsions:
REMARK  status: ('A' for Active; 'I' for Inactive)
REMARK    1  A    between atoms: O1_2  and  C2_3 
REMARK    2  A    between atoms: C4_5  and  N1_6 
REMARK    3  A    between atoms: N1_6  and  C5_7 
ROOT
HETATM    1  C2  UNL     1      -2.174  -0.466   0.784  1.00  0.00     0.072 C 
HETATM    2  C3  UNL     1      -1.130  -1.191   0.332  1.00  0.00     0.037 C 
HETATM    3  C4  UNL     1       0.243  -0.572   0.455  1.00  0.00     0.134 C 
HETATM    4  C11 UNL     1       0.216   0.773  -0.125  1.00  0.00     0.129 C 
HETATM    5  C12 UNL     1       0.294   0.875  -1.552  1.00  0.00     0.076 C 
HETATM    6  N2  UNL     1       0.370   0.971  -2.691  1.00  0.00    -0.196 NA
HETATM    7  C13 UNL     1       0.048   1.532   0.916  1.00  0.00     0.263 C 
HETATM    8  N3  UNL     1      -0.114   2.771   1.621  1.00  0.00     0.032 NA
HETATM    9  C14 UNL     1      -1.304   3.052   2.128  1.00  0.00     0.687 C 
HETATM   10  C15 UNL     1      -2.103   1.902   1.776  1.00  0.00     0.022 C 
HETATM   11  C16 UNL     1      -2.617   0.765   1.379  1.00  0.00    -0.030 C 
HETATM   12  C17 UNL     1      -4.081   0.919   1.685  1.00  0.00     0.050 C 
ENDROOT
BRANCH   3  13
HETATM   13  N1  UNL     1       1.124  -1.387  -0.420  1.00  0.00    -0.380 N 
HETATM   14  H6  UNL     1       0.726  -2.214  -0.963  1.00  0.00     0.160 HD
BRANCH  13  15
HETATM   15  C5  UNL     1       2.529  -1.195  -0.647  1.00  0.00     0.029 A 
HETATM   16  C6  UNL     1       3.280  -2.013  -1.488  1.00  0.00     0.029 A 
HETATM   17  C7  UNL     1       4.623  -1.756  -1.650  1.00  0.00     0.004 A 
HETATM   18  C8  UNL     1       5.281  -0.718  -1.016  1.00  0.00     0.019 A 
HETATM   19  C9  UNL     1       4.533   0.110  -0.168  1.00  0.00     0.013 A 
HETATM   20 BR1  UNL     1       5.438   1.544   0.705  1.00  0.00    -0.051 Br
HETATM   21  C10 UNL     1       3.189  -0.159  -0.016  1.00  0.00     0.048 A 
ENDBRANCH  13  15
ENDBRANCH   3  13
BRANCH   1  22
HETATM   22  O1  UNL     1      -3.226  -1.341   0.520  1.00  0.00    -0.356 OA
HETATM   23  C1  UNL     1      -3.692  -1.424  -0.812  1.00  0.00     0.210 C 
ENDBRANCH   1  22
TORSDOF 3
