REMARK  5 active torsions:
REMARK  status: ('A' for Active; 'I' for Inactive)
REMARK    1  A    between atoms: C2_2  and  C3_3 
REMARK    2  A    between atoms: C4_5  and  C5_6 
REMARK    3  A    between atoms: C5_6  and  N1_7 
REMARK    4  A    between atoms: N1_7  and  C6_8 
REMARK    5  A    between atoms: C13_17  and  O1_18 
ROOT
HETATM    1  C6  UNL     1       0.307  -1.775  -0.522  1.00  0.00     0.063 A 
HETATM    2  C7  UNL     1       0.327  -3.103  -0.066  1.00  0.00     0.089 A 
HETATM    3  C8  UNL     1      -0.576  -4.119  -0.526  1.00  0.00     0.103 C 
HETATM    4  N2  UNL     1      -1.288  -4.947  -0.905  1.00  0.00    -0.191 NA
HETATM    5  C9  UNL     1       1.257  -3.521   0.891  1.00  0.00     0.142 A 
HETATM    6  N3  UNL     1       2.149  -2.649   1.389  1.00  0.00    -0.259 NA
HETATM    7  C10 UNL     1       2.180  -1.366   0.992  1.00  0.00     0.069 A 
HETATM    8  C11 UNL     1       3.056  -0.417   1.432  1.00  0.00     0.035 A 
HETATM    9  C12 UNL     1       3.053   0.904   0.974  1.00  0.00     0.039 A 
HETATM   10  C13 UNL     1       2.116   1.288   0.019  1.00  0.00     0.069 A 
HETATM   11  C15 UNL     1       1.239   0.321  -0.415  1.00  0.00     0.053 A 
HETATM   12  C16 UNL     1       1.260  -0.972   0.051  1.00  0.00     0.023 A 
ENDROOT
BRANCH   1  13
HETATM   13  N1  UNL     1      -0.705  -1.565  -1.483  1.00  0.00    -0.387 N 
HETATM   14  H7  UNL     1      -0.111  -1.727  -2.327  1.00  0.00     0.159 HD
BRANCH  13  15
HETATM   15  C5  UNL     1      -2.096  -1.239  -1.529  1.00  0.00     0.136 C 
BRANCH  15  16
HETATM   16  C4  UNL     1      -2.503   0.038  -0.978  1.00  0.00     0.129 A 
HETATM   17  C3  UNL     1      -2.965   1.073  -0.361  1.00  0.00     0.015 A 
HETATM   18 BR1  UNL     1      -2.079   1.689  -1.969  1.00  0.00    -0.154 Br
BRANCH  17  19
HETATM   19  C2  UNL     1      -3.429   2.278   0.260  1.00  0.00     0.006 C 
HETATM   20  C1  UNL     1      -4.231   2.180   1.295  1.00  0.00     0.007 C 
ENDBRANCH  17  19
ENDBRANCH  15  16
ENDBRANCH  13  15
ENDBRANCH   1  13
BRANCH  10  21
HETATM   21  O1  UNL     1       2.050   2.578  -0.485  1.00  0.00    -0.356 OA
HETATM   22  C14 UNL     1       2.968   3.543  -0.012  1.00  0.00     0.210 C 
ENDBRANCH  10  21
TORSDOF 5
