REMARK  5 active torsions:
REMARK  status: ('A' for Active; 'I' for Inactive)
REMARK    1  A    between atoms: O1_2  and  C2_3 
REMARK    2  A    between atoms: C2_3  and  C14_18 
REMARK    3  A    between atoms: C3_4  and  C4_5 
REMARK    4  A    between atoms: C10_12  and  N2_13 
REMARK    5  A    between atoms: C14_18  and  C15_19 
ROOT
HETATM    1  C15 UNL     1       3.572  -1.233   0.565  1.00  0.00    -0.010 C 
HETATM    2  C16 UNL     1       4.565  -1.582  -0.235  1.00  0.00     0.090 C 
HETATM    3  C17 UNL     1       5.166  -0.536  -1.016  1.00  0.00     0.087 C 
HETATM    4  N3  UNL     1       5.652   0.285  -1.642  1.00  0.00    -0.192 NA
ENDROOT
BRANCH   1   5
HETATM    5  C14 UNL     1       3.062   0.173   0.686  1.00  0.00     0.092 C 
BRANCH   5   6
HETATM    6  C2  UNL     1       1.623   0.245   0.308  1.00  0.00     0.050 C 
HETATM    7  C3  UNL     1       0.730   0.654   1.143  1.00  0.00     0.045 C 
BRANCH   6   8
HETATM    8  O1  UNL     1       1.666  -0.199  -0.981  1.00  0.00    -0.360 OA
HETATM    9  C1  UNL     1       1.808   0.615  -2.128  1.00  0.00     0.209 C 
ENDBRANCH   6   8
BRANCH   7  10
HETATM   10  C4  UNL     1      -0.646   0.881   1.249  1.00  0.00    -0.013 C 
HETATM   11  C5  UNL     1      -1.431   0.634   0.218  1.00  0.00    -0.052 C 
HETATM   12  C6  UNL     1      -2.520   1.749  -0.021  1.00  0.00     0.068 C 
HETATM   13  C11 UNL     1      -1.491  -0.628  -0.616  1.00  0.00     0.089 C 
HETATM   14  C7  UNL     1      -3.513   0.980   1.042  1.00  0.00     0.148 C 
HETATM   15  N1  UNL     1      -2.853   1.416   2.235  1.00  0.00    -0.290 NA
HETATM   16  C9  UNL     1      -2.981  -0.380   0.498  1.00  0.00     0.007 C 
HETATM   17  C8  UNL     1      -1.542   1.327   2.363  1.00  0.00     0.122 C 
HETATM   18  C10 UNL     1      -3.016  -0.605  -0.855  1.00  0.00     0.024 C 
HETATM   19  C13 UNL     1      -2.129  -1.268   1.315  1.00  0.00     0.018 C 
HETATM   20  C12 UNL     1      -1.693  -1.930   0.203  1.00  0.00     0.008 C 
HETATM   21 BR1  UNL     1      -1.724  -1.651   3.142  1.00  0.00    -0.051 Br
BRANCH  18  22
HETATM   22  N2  UNL     1      -3.427  -0.814  -2.177  1.00  0.00    -0.401 N 
HETATM   23  H9  UNL     1      -4.047  -1.675  -2.235  1.00  0.00     0.156 HD
HETATM   24  H10 UNL     1      -3.080  -0.124  -2.880  1.00  0.00     0.156 HD
ENDBRANCH  18  22
ENDBRANCH   7  10
ENDBRANCH   5   6
ENDBRANCH   1   5
TORSDOF 5
