REMARK  5 active torsions:
REMARK  status: ('A' for Active; 'I' for Inactive)
REMARK    1  A    between atoms: O1_2  and  C2_3 
REMARK    2  A    between atoms: C8_10  and  N2_11 
REMARK    3  A    between atoms: N2_11  and  C9_12 
REMARK    4  A    between atoms: C9_12  and  C11_15 
REMARK    5  A    between atoms: C15_21  and  O2_22 
ROOT
HETATM    1  C9  UNL     1       0.942  -3.167   0.772  1.00  0.00     0.213 C 
HETATM    2  C10 UNL     1       2.089  -4.083   0.820  1.00  0.00     0.088 C 
HETATM    3  N3  UNL     1       2.967  -4.796   0.850  1.00  0.00    -0.195 NA
ENDROOT
BRANCH   1   4
HETATM    4  N2  UNL     1       1.100  -2.080   1.700  1.00  0.00    -0.378 N 
HETATM    5  H9  UNL     1       0.454  -1.919   2.515  1.00  0.00     0.160 HD
BRANCH   4   6
HETATM    6  C8  UNL     1       2.060  -1.071   1.742  1.00  0.00     0.104 C 
HETATM    7  C7  UNL     1       2.222   0.206   1.535  1.00  0.00     0.026 C 
HETATM    8  C6  UNL     1       2.649   1.563   1.379  1.00  0.00     0.040 C 
HETATM    9  C14 UNL     1       0.985   0.352   1.053  1.00  0.00    -0.112 C 
HETATM   10  C5  UNL     1       2.326   2.815   1.054  1.00  0.00     0.117 C 
HETATM   11  N1  UNL     1       1.008   2.677   0.744  1.00  0.00    -0.273 NA
HETATM   12  C4  UNL     1       0.053   3.443   0.708  1.00  0.00     0.118 C 
HETATM   13  C3  UNL     1      -1.379   3.216   0.357  1.00  0.00     0.054 C 
HETATM   14  C2  UNL     1      -2.275   2.267  -0.013  1.00  0.00     0.081 C 
HETATM   15  C15 UNL     1      -2.563   0.876  -0.329  1.00  0.00     0.213 C 
HETATM   16  P1  UNL     1      -0.300   0.525   0.555  1.00  0.00    -0.017 P 
HETATM   17  H15 UNL     1      -0.745   0.577   0.386  1.00  0.00     0.073 HD
BRANCH  14  18
HETATM   18  O1  UNL     1      -3.614   2.373  -0.286  1.00  0.00    -0.357 OA
HETATM   19  C1  UNL     1      -4.200   3.141  -1.303  1.00  0.00     0.209 C 
ENDBRANCH  14  18
BRANCH  15  20
HETATM   20  O2  UNL     1      -3.023   0.030   0.596  1.00  0.00    -0.379 OA
HETATM   21  C16 UNL     1      -2.746  -1.303   0.405  1.00  0.00     0.203 C 
ENDBRANCH  15  20
ENDBRANCH   4   6
ENDBRANCH   1   4
BRANCH   1  22
HETATM   22  C11 UNL     1       0.759  -2.736  -0.640  1.00  0.00     0.027 C 
HETATM   23  C12 UNL     1       1.716  -2.393  -1.512  1.00  0.00    -0.016 C 
HETATM   24  C13 UNL     1       3.187  -2.306  -1.445  1.00  0.00     0.056 C 
HETATM   25 BR1  UNL     1       1.218  -1.872  -3.301  1.00  0.00    -0.056 Br
ENDBRANCH   1  22
TORSDOF 5
