REMARK  2 active torsions:
REMARK  status: ('A' for Active; 'I' for Inactive)
REMARK    1  A    between atoms: C2_2  and  C3_3 
REMARK    2  A    between atoms: C13_14  and  O1_15 
ROOT
HETATM    1  C3  UNL     1       2.626   0.186   0.775  1.00  0.00    -0.002 A 
HETATM    2  C4  UNL     1       2.134   1.453   0.832  1.00  0.00     0.026 A 
HETATM    3  C5  UNL     1       0.820   1.681   0.471  1.00  0.00    -0.022 A 
HETATM    4  C6  UNL     1       0.448   3.021   0.576  1.00  0.00     0.014 A 
HETATM    5  C7  UNL     1      -0.839   3.384   0.245  1.00  0.00     0.026 A 
HETATM    6  C8  UNL     1      -1.735   2.430  -0.182  1.00  0.00     0.071 A 
HETATM    7  C9  UNL     1      -3.050   2.911  -0.500  1.00  0.00     0.102 C 
HETATM    8  N1  UNL     1      -4.112   3.317  -0.771  1.00  0.00    -0.191 NA
HETATM    9  C10 UNL     1      -1.356   1.111  -0.282  1.00  0.00     0.061 A 
HETATM   10  C11 UNL     1      -0.060   0.683   0.041  1.00  0.00     0.013 A 
HETATM   11  C12 UNL     1       0.485  -0.610  -0.004  1.00  0.00     0.007 A 
HETATM   12  C13 UNL     1       1.797  -0.829   0.358  1.00  0.00     0.087 A 
HETATM   13  C15 UNL     1      -0.009  -1.978  -0.374  1.00  0.00     0.117 C 
HETATM   14 BR1  UNL     1      -0.081  -2.156  -2.295  1.00  0.00    -0.082 Br
HETATM   15  C16 UNL     1      -1.308  -2.262   0.285  1.00  0.00    -0.008 C 
HETATM   16  C17 UNL     1      -2.554  -1.826   0.124  1.00  0.00    -0.005 C 
HETATM   17  C18 UNL     1      -3.061  -0.851  -0.836  1.00  0.00     0.100 C 
HETATM   18  C19 UNL     1      -4.582  -0.791  -0.652  1.00  0.00     0.036 C 
HETATM   19  N2  UNL     1      -2.565   0.476  -0.756  1.00  0.00    -0.381 N 
HETATM   20  H17 UNL     1      -3.264   1.145  -1.143  1.00  0.00     0.160 HD
ENDROOT
BRANCH  12  21
HETATM   21  O1  UNL     1       2.386  -2.104   0.328  1.00  0.00    -0.354 OA
HETATM   22  C14 UNL     1       3.019  -2.489  -0.886  1.00  0.00     0.210 C 
ENDBRANCH  12  21
BRANCH   1  23
HETATM   23  C2  UNL     1       3.985  -0.130   1.136  1.00  0.00     0.004 C 
HETATM   24  C1  UNL     1       4.730   0.878   1.525  1.00  0.00     0.012 C 
ENDBRANCH   1  23
TORSDOF 2
