REMARK  4 active torsions:
REMARK  status: ('A' for Active; 'I' for Inactive)
REMARK    1  A    between atoms: O1_2  and  C2_3 
REMARK    2  A    between atoms: C5_6  and  N1_7 
REMARK    3  A    between atoms: N1_7  and  C6_8 
REMARK    4  A    between atoms: C17_22  and  O2_23 
ROOT
HETATM    1  C2  UNL     1      -2.125   0.940  -0.138  1.00  0.00     0.102 A 
HETATM    2  C3  UNL     1      -0.901   0.460  -0.574  1.00  0.00     0.055 A 
HETATM    3  C4  UNL     1      -0.625  -0.849  -0.310  1.00  0.00     0.024 A 
HETATM    4  C5  UNL     1       0.568  -1.359  -0.724  1.00  0.00     0.067 A 
HETATM    5  C12 UNL     1       0.849  -2.693  -0.455  1.00  0.00     0.089 A 
HETATM    6  C13 UNL     1       2.089  -3.292  -0.863  1.00  0.00     0.103 C 
HETATM    7  N2  UNL     1       3.094  -3.775  -1.183  1.00  0.00    -0.191 NA
HETATM    8  C14 UNL     1      -0.059  -3.496   0.218  1.00  0.00     0.142 A 
HETATM    9  N3  UNL     1      -1.235  -2.988   0.623  1.00  0.00    -0.259 NA
HETATM   10  C15 UNL     1      -1.504  -1.695   0.361  1.00  0.00     0.071 A 
HETATM   11  C16 UNL     1      -2.726  -1.208   0.795  1.00  0.00     0.072 A 
HETATM   12  C17 UNL     1      -3.007   0.117   0.529  1.00  0.00     0.103 A 
ENDROOT
BRANCH   4  13
HETATM   13  N1  UNL     1       1.530  -0.565  -1.419  1.00  0.00    -0.354 N 
HETATM   14  H5  UNL     1       1.519  -0.502  -2.463  1.00  0.00     0.166 HD
BRANCH  13  15
HETATM   15  C6  UNL     1       2.523   0.158  -0.700  1.00  0.00     0.033 A 
HETATM   16  C7  UNL     1       3.471   0.937  -1.333  1.00  0.00     0.029 A 
HETATM   17  C8  UNL     1       4.461   1.664  -0.711  1.00  0.00     0.004 A 
HETATM   18  C9  UNL     1       4.458   1.567   0.683  1.00  0.00     0.019 A 
HETATM   19  C10 UNL     1       3.535   0.803   1.366  1.00  0.00     0.013 A 
HETATM   20 BR1  UNL     1       3.591   0.718   3.263  1.00  0.00    -0.051 Br
HETATM   21  C11 UNL     1       2.563   0.095   0.681  1.00  0.00     0.048 A 
ENDBRANCH  13  15
ENDBRANCH   4  13
BRANCH   1  22
HETATM   22  O1  UNL     1      -2.489   2.270  -0.365  1.00  0.00    -0.353 OA
HETATM   23  C1  UNL     1      -1.683   3.192  -1.026  1.00  0.00     0.210 C 
ENDBRANCH   1  22
BRANCH  12  24
HETATM   24  O2  UNL     1      -4.228   0.662   0.945  1.00  0.00    -0.353 OA
HETATM   25  C18 UNL     1      -5.189  -0.110   1.633  1.00  0.00     0.210 C 
ENDBRANCH  12  24
TORSDOF 4
