REMARK  4 active torsions:
REMARK  status: ('A' for Active; 'I' for Inactive)
REMARK    1  A    between atoms: O1_2  and  C2_3 
REMARK    2  A    between atoms: C8_11  and  N3_12 
REMARK    3  A    between atoms: N3_12  and  C9_13 
REMARK    4  A    between atoms: C16_21  and  O2_22 
ROOT
HETATM    1  C2  UNL     1      -2.876  -0.099  -0.035  1.00  0.00     0.103 A 
HETATM    2  C3  UNL     1      -2.553  -1.398  -0.379  1.00  0.00     0.072 A 
HETATM    3  C4  UNL     1      -1.235  -1.827  -0.326  1.00  0.00     0.071 A 
HETATM    4  N1  UNL     1      -0.831  -3.072  -0.643  1.00  0.00    -0.259 NA
HETATM    5  C5  UNL     1       0.460  -3.448  -0.577  1.00  0.00     0.142 A 
HETATM    6  C6  UNL     1       1.407  -2.540  -0.174  1.00  0.00     0.089 A 
HETATM    7  C7  UNL     1       2.762  -2.999  -0.124  1.00  0.00     0.103 C 
HETATM    8  N2  UNL     1       3.871  -3.363  -0.084  1.00  0.00    -0.191 NA
HETATM    9  C8  UNL     1       1.070  -1.262   0.162  1.00  0.00     0.067 A 
HETATM   10  C14 UNL     1      -0.280  -0.917   0.079  1.00  0.00     0.024 A 
HETATM   11  C15 UNL     1      -0.613   0.382   0.422  1.00  0.00     0.055 A 
HETATM   12  C16 UNL     1      -1.925   0.815   0.371  1.00  0.00     0.102 A 
ENDROOT
BRANCH   9  13
HETATM   13  N3  UNL     1       2.104  -0.407   0.561  1.00  0.00    -0.353 N 
HETATM   14  H6  UNL     1       2.128  -0.567   1.593  1.00  0.00     0.166 HD
BRANCH  13  15
HETATM   15  C9  UNL     1       3.022   0.516  -0.013  1.00  0.00     0.045 C 
HETATM   16  C10 UNL     1       4.304   0.257   0.189  1.00  0.00     0.004 C 
HETATM   17  C11 UNL     1       5.093   1.269  -0.117  1.00  0.00     0.033 C 
HETATM   18  C12 UNL     1       4.222   2.179  -0.860  1.00  0.00     0.014 C 
HETATM   19 BR1  UNL     1       4.611   3.784  -1.818  1.00  0.00    -0.051 Br
HETATM   20  C13 UNL     1       2.957   1.741  -0.811  1.00  0.00     0.049 C 
ENDBRANCH  13  15
ENDBRANCH   9  13
BRANCH  12  21
HETATM   21  O2  UNL     1      -2.322   2.097   0.700  1.00  0.00    -0.353 OA
HETATM   22  C17 UNL     1      -1.471   3.114   1.122  1.00  0.00     0.210 C 
ENDBRANCH  12  21
BRANCH   1  23
HETATM   23  O1  UNL     1      -4.194   0.311  -0.094  1.00  0.00    -0.353 OA
HETATM   24  C1  UNL     1      -5.249  -0.541  -0.495  1.00  0.00     0.210 C 
ENDBRANCH   1  23
TORSDOF 4
