REMARK  3 active torsions:
REMARK  status: ('A' for Active; 'I' for Inactive)
REMARK    1  A    between atoms: O1_2  and  C2_3 
REMARK    2  A    between atoms: C8_11  and  N3_12 
REMARK    3  A    between atoms: N3_12  and  C9_13 
ROOT
HETATM    1  C2  UNL     1      -2.768   0.162  -0.168  1.00  0.00     0.163 A 
HETATM    2  C3  UNL     1      -3.857  -0.742  -0.632  1.00  0.00     0.084 A 
HETATM    3  C4  UNL     1      -3.419  -2.073  -1.083  1.00  0.00     0.093 A 
HETATM    4  N1  UNL     1      -2.256  -2.644  -1.166  1.00  0.00    -0.263 NA
HETATM    5  C5  UNL     1      -1.131  -1.853  -0.739  1.00  0.00     0.090 A 
HETATM    6  C6  UNL     1       0.167  -1.721  -0.542  1.00  0.00     0.101 A 
HETATM    7  C7  UNL     1       1.322  -2.518  -0.710  1.00  0.00     0.104 C 
HETATM    8  N2  UNL     1       2.268  -3.174  -0.842  1.00  0.00    -0.191 NA
HETATM    9  C8  UNL     1      -0.137  -0.375  -0.070  1.00  0.00     0.067 A 
HETATM   10  C15 UNL     1      -1.431  -0.488  -0.260  1.00  0.00     0.029 A 
ENDROOT
BRANCH   9  11
HETATM   11  N3  UNL     1       0.708   0.684   0.425  1.00  0.00    -0.354 N 
HETATM   12  H8  UNL     1       0.321   1.539   0.849  1.00  0.00     0.166 HD
BRANCH  11  13
HETATM   13  C9  UNL     1       2.107   0.619   0.361  1.00  0.00     0.033 A 
HETATM   14  C10 UNL     1       2.919   0.085   1.346  1.00  0.00     0.029 A 
HETATM   15  C11 UNL     1       4.307   0.053   1.216  1.00  0.00     0.004 A 
HETATM   16  C12 UNL     1       4.929   0.550   0.099  1.00  0.00     0.019 A 
HETATM   17  C13 UNL     1       4.129   1.085  -0.891  1.00  0.00     0.013 A 
HETATM   18 BR1  UNL     1       4.990   1.777  -2.443  1.00  0.00    -0.051 Br
HETATM   19  C14 UNL     1       2.762   1.112  -0.752  1.00  0.00     0.048 A 
ENDBRANCH  11  13
ENDBRANCH   9  11
BRANCH   1  20
HETATM   20  O1  UNL     1      -2.959   0.529   1.174  1.00  0.00    -0.386 OA
HETATM   21  C1  UNL     1      -3.084   1.905   1.323  1.00  0.00     0.202 C 
ENDBRANCH   1  20
TORSDOF 3
