REMARK  9 active torsions:
REMARK  status: ('A' for Active; 'I' for Inactive)
REMARK    1  A    between atoms: N1_2  and  C2_3 
REMARK    2  A    between atoms: C2_3  and  C3_4 
REMARK    3  A    between atoms: C4_5  and  C5_6 
REMARK       I    between atoms: C5_6  and  N2_8 
REMARK    4  A    between atoms: N2_8  and  C6_9 
REMARK    5  A    between atoms: C9_12  and  N3_13 
REMARK    6  A    between atoms: N3_13  and  C10_14 
REMARK    7  A    between atoms: C10_14  and  C11_15 
REMARK    8  A    between atoms: C11_15  and  C12_16 
REMARK    9  A    between atoms: C18_25  and  O2_26 
ROOT
HETATM    1  C6  UNL     1      -0.002   1.046   0.536  1.00  0.00     0.069 A 
HETATM    2  C7  UNL     1      -1.004   0.423  -0.174  1.00  0.00     0.048 A 
HETATM    3  C8  UNL     1      -2.303   0.883  -0.201  1.00  0.00     0.023 A 
HETATM    4  C9  UNL     1      -3.343   0.281  -0.910  1.00  0.00     0.063 A 
HETATM    5  C13 UNL     1      -4.605   0.828  -0.869  1.00  0.00     0.089 A 
HETATM    6  C14 UNL     1      -5.609   0.144  -1.628  1.00  0.00     0.103 C 
HETATM    7  N4  UNL     1      -6.420  -0.433  -2.253  1.00  0.00    -0.191 NA
HETATM    8  C15 UNL     1      -4.866   1.966  -0.137  1.00  0.00     0.142 A 
HETATM    9  N5  UNL     1      -3.864   2.566   0.560  1.00  0.00    -0.259 NA
HETATM   10  C16 UNL     1      -2.611   2.035   0.528  1.00  0.00     0.071 A 
HETATM   11  C17 UNL     1      -1.598   2.658   1.241  1.00  0.00     0.071 A 
HETATM   12  C18 UNL     1      -0.292   2.187   1.263  1.00  0.00     0.097 A 
ENDROOT
BRANCH   4  13
HETATM   13  N3  UNL     1      -2.915  -0.882  -1.607  1.00  0.00    -0.384 N 
HETATM   14  H11 UNL     1      -2.534  -1.064  -2.539  1.00  0.00     0.160 HD
BRANCH  13  15
HETATM   15  C10 UNL     1      -3.090  -2.041  -0.726  1.00  0.00     0.147 C 
BRANCH  15  16
HETATM   16  C11 UNL     1      -2.637  -3.303  -1.322  1.00  0.00     0.000 C 
BRANCH  16  17
HETATM   17  C12 UNL     1      -3.483  -4.311  -1.501  1.00  0.00     0.162 C 
HETATM   18 BR1  UNL     1      -4.906  -5.573  -1.636  1.00  0.00    -0.172 Br
ENDBRANCH  16  17
ENDBRANCH  15  16
ENDBRANCH  13  15
ENDBRANCH   4  13
BRANCH   1  19
HETATM   19  N2  UNL     1       1.329   0.514   0.516  1.00  0.00    -0.321 N 
HETATM   20  C5  UNL     1       2.060   1.115  -0.579  1.00  0.00     0.245 C 
HETATM   21  O1  UNL     1       1.150   1.885  -1.056  1.00  0.00    -0.268 OA
HETATM   22  H9  UNL     1       1.726  -0.204   1.189  1.00  0.00     0.169 HD
BRANCH  20  23
HETATM   23  C4  UNL     1       3.429   0.747  -0.820  1.00  0.00     0.072 C 
HETATM   24  C3  UNL     1       4.451   0.024  -0.457  1.00  0.00     0.008 C 
BRANCH  24  25
HETATM   25  C2  UNL     1       4.781  -0.961   0.572  1.00  0.00     0.296 C 
BRANCH  25  26
HETATM   26  N1  UNL     1       5.169  -2.210  -0.071  1.00  0.00     0.082 N 
HETATM   27  C1  UNL     1       6.437  -2.051  -0.770  1.00  0.00     0.307 C 
HETATM   28  H4  UNL     1       4.454  -2.470  -0.763  1.00  0.00     0.315 HD
ENDBRANCH  25  26
ENDBRANCH  24  25
ENDBRANCH  20  23
ENDBRANCH   1  19
BRANCH  12  29
HETATM   29  O2  UNL     1       0.714   2.833   1.990  1.00  0.00    -0.354 OA
HETATM   30  C19 UNL     1       0.464   4.002   2.745  1.00  0.00     0.210 C 
ENDBRANCH  12  29
TORSDOF 9
