REMARK  10 active torsions:
REMARK  status: ('A' for Active; 'I' for Inactive)
REMARK    1  A    between atoms: O1_2  and  C2_3 
REMARK    2  A    between atoms: C6_9  and  N3_10 
REMARK    3  A    between atoms: N3_10  and  C7_11 
REMARK    4  A    between atoms: C8_12  and  C9_13 
REMARK    5  A    between atoms: C10_14  and  C11_16 
REMARK    6  A    between atoms: C11_16  and  N4_17 
REMARK    7  A    between atoms: C14_20  and  C15_21 
REMARK    8  A    between atoms: C15_21  and  N5_22 
REMARK    9  A    between atoms: N5_22  and  C17_24 
REMARK   10  A    between atoms: C17_24  and  C18_25 
ROOT
HETATM    1  C2  UNL     1      -2.704  -1.523  -0.594  1.00  0.00     0.078 A 
HETATM    2  C3  UNL     1      -1.948  -2.660  -0.391  1.00  0.00     0.070 A 
HETATM    3  C4  UNL     1      -0.624  -2.599  -0.026  1.00  0.00     0.074 A 
HETATM    4  N1  UNL     1       0.177  -3.639   0.189  1.00  0.00    -0.241 NA
HETATM    5  C5  UNL     1       1.465  -3.587   0.543  1.00  0.00     0.236 A 
HETATM    6  N2  UNL     1       1.998  -2.354   0.695  1.00  0.00    -0.224 NA
HETATM    7  C6  UNL     1       1.261  -1.244   0.498  1.00  0.00     0.141 A 
HETATM    8  C12 UNL     1      -0.045  -1.362   0.138  1.00  0.00     0.039 A 
HETATM    9  C13 UNL     1      -0.842  -0.244  -0.076  1.00  0.00     0.029 A 
HETATM   10  C14 UNL     1      -2.195  -0.249  -0.448  1.00  0.00     0.004 A 
ENDROOT
BRANCH   7  11
HETATM   11  N3  UNL     1       1.850   0.033   0.667  1.00  0.00    -0.350 N 
HETATM   12  H6  UNL     1       1.643   0.115   1.703  1.00  0.00     0.166 HD
BRANCH  11  13
HETATM   13  C7  UNL     1       2.531   1.130   0.085  1.00  0.00     0.090 C 
HETATM   14  C8  UNL     1       3.780   1.301  -0.298  1.00  0.00     0.018 C 
BRANCH  14  15
HETATM   15  C9  UNL     1       4.695   0.189  -0.118  1.00  0.00     0.022 C 
HETATM   16  C10 UNL     1       5.910   0.491  -0.540  1.00  0.00     0.039 C 
HETATM   17 CL1  UNL     1       6.018   2.138  -1.180  1.00  0.00    -0.087 Cl
BRANCH  16  18
HETATM   18  C11 UNL     1       7.283  -0.043  -0.695  1.00  0.00     0.317 C 
BRANCH  18  19
HETATM   19  N4  UNL     1       8.232   0.769   0.064  1.00  0.00     0.083 N 
HETATM   20  H12 UNL     1       8.099   1.761  -0.227  1.00  0.00     0.313 HD
HETATM   21  H13 UNL     1       7.990   0.671   1.057  1.00  0.00     0.313 HD
ENDBRANCH  18  19
ENDBRANCH  16  18
ENDBRANCH  14  15
ENDBRANCH  11  13
ENDBRANCH   7  11
BRANCH  10  22
HETATM   22  C15 UNL     1      -2.872   1.032  -0.612  1.00  0.00     0.313 C 
BRANCH  22  23
HETATM   23  N5  UNL     1      -3.688   1.482   0.457  1.00  0.00     0.091 N 
HETATM   24  C16 UNL     1      -4.808   0.640   0.803  1.00  0.00     0.310 C 
BRANCH  23  25
HETATM   25  C17 UNL     1      -4.192   2.814   0.298  1.00  0.00     0.308 C 
BRANCH  25  26
HETATM   26  C18 UNL     1      -3.135   3.861   0.371  1.00  0.00     0.421 C 
HETATM   27  O2  UNL     1      -3.110   5.100   0.284  1.00  0.00    -0.428 OA
ENDBRANCH  25  26
ENDBRANCH  23  25
ENDBRANCH  22  23
ENDBRANCH  10  22
BRANCH   1  28
HETATM   28  O1  UNL     1      -4.018  -1.635  -0.959  1.00  0.00    -0.355 OA
HETATM   29  C1  UNL     1      -4.765  -2.785  -1.170  1.00  0.00     0.210 C 
ENDBRANCH   1  28
TORSDOF 10
