REMARK  7 active torsions:
REMARK  status: ('A' for Active; 'I' for Inactive)
REMARK    1  A    between atoms: C2_2  and  N1_3 
REMARK    2  A    between atoms: N1_3  and  C3_4 
REMARK    3  A    between atoms: C3_4  and  C4_5 
REMARK    4  A    between atoms: C4_5  and  C5_6 
REMARK    5  A    between atoms: C5_6  and  C6_7 
REMARK    6  A    between atoms: C7_10  and  N4_11 
REMARK    7  A    between atoms: N4_11  and  C8_12 
ROOT
HETATM    1  C6  UNL     1       1.115   1.250  -1.139  1.00  0.00     0.071 A 
HETATM    2  N2  UNL     1       0.186   2.108  -0.662  1.00  0.00    -0.152 NA
HETATM    3  N3  UNL     1      -1.077   1.764  -0.489  1.00  0.00    -0.131 NA
HETATM    4  C7  UNL     1      -1.541   0.528  -0.776  1.00  0.00     0.161 A 
HETATM    5  C14 UNL     1      -0.629  -0.380  -1.266  1.00  0.00     0.024 A 
HETATM    6  C15 UNL     1      -1.169  -1.628  -1.541  1.00  0.00     0.016 A 
HETATM    7  C16 UNL     1      -0.272  -2.563  -2.038  1.00  0.00     0.001 A 
HETATM    8  C17 UNL     1       1.068  -2.215  -2.227  1.00  0.00     0.001 A 
HETATM    9  C18 UNL     1       1.566  -0.971  -1.943  1.00  0.00     0.014 A 
HETATM   10  C19 UNL     1       0.691  -0.040  -1.452  1.00  0.00     0.005 A 
ENDROOT
BRANCH   4  11
HETATM   11  N4  UNL     1      -2.924   0.386  -0.518  1.00  0.00    -0.339 N 
HETATM   12  H7  UNL     1      -3.309   0.596  -1.463  1.00  0.00     0.167 HD
BRANCH  11  13
HETATM   13  C8  UNL     1      -3.683   0.059   0.633  1.00  0.00     0.033 A 
HETATM   14  C9  UNL     1      -3.031  -0.243   1.808  1.00  0.00     0.031 A 
HETATM   15  C10 UNL     1      -3.847  -0.540   2.897  1.00  0.00     0.026 A 
HETATM   16  C11 UNL     1      -5.238  -0.529   2.787  1.00  0.00     0.034 A 
HETATM   17 CL1  UNL     1      -6.192  -0.915   4.215  1.00  0.00    -0.084 Cl
HETATM   18  C12 UNL     1      -5.820  -0.217   1.577  1.00  0.00     0.026 A 
HETATM   19  C13 UNL     1      -5.046   0.087   0.465  1.00  0.00     0.031 A 
ENDBRANCH  11  13
ENDBRANCH   4  11
BRANCH   1  20
HETATM   20  C5  UNL     1       2.515   1.681  -1.310  1.00  0.00     0.090 C 
BRANCH  20  21
HETATM   21  C4  UNL     1       3.395   1.134  -0.232  1.00  0.00    -0.001 C 
BRANCH  21  22
HETATM   22  C3  UNL     1       4.060   1.921   0.617  1.00  0.00     0.113 C 
BRANCH  22  23
HETATM   23  N1  UNL     1       4.917   1.534   1.670  1.00  0.00    -0.260 NA
BRANCH  23  24
HETATM   24  C2  UNL     1       5.783   0.582   1.520  1.00  0.00     0.075 C 
HETATM   25  C1  UNL     1       6.861   0.003   1.001  1.00  0.00     0.048 C 
ENDBRANCH  23  24
ENDBRANCH  22  23
ENDBRANCH  21  22
ENDBRANCH  20  21
ENDBRANCH   1  20
TORSDOF 7
