REMARK  1 active torsions:
REMARK  status: ('A' for Active; 'I' for Inactive)
REMARK    1  A    between atoms: N1_5  and  C5_6 
ROOT
HETATM    1  C5  UNL     1       0.921  -1.050  -1.087  1.00  0.00     0.238 C 
HETATM    2  N2  UNL     1       0.214  -2.173  -0.621  1.00  0.00    -0.275 NA
HETATM    3  C6  UNL     1      -0.873  -2.417  -0.032  1.00  0.00     0.091 C 
HETATM    4  C7  UNL     1      -2.152  -2.017   0.602  1.00  0.00     0.086 C 
HETATM    5  C8  UNL     1      -2.212  -0.583   0.987  1.00  0.00    -0.040 A 
HETATM    6  C9  UNL     1      -2.955  -0.453   2.156  1.00  0.00     0.027 A 
HETATM    7  C10 UNL     1      -3.115   0.811   2.703  1.00  0.00     0.116 A 
HETATM    8  N3  UNL     1      -2.595   1.941   2.178  1.00  0.00    -0.272 NA
HETATM    9  C11 UNL     1      -1.848   1.900   1.026  1.00  0.00     0.129 A 
HETATM   10  C12 UNL     1      -1.699   0.607   0.484  1.00  0.00    -0.001 A 
HETATM   11  C13 UNL     1      -0.892   0.881  -0.730  1.00  0.00    -0.014 A 
HETATM   12  C14 UNL     1      -1.464   2.090  -1.182  1.00  0.00     0.013 A 
HETATM   13  C15 UNL     1      -0.866   2.623  -2.336  1.00  0.00     0.001 A 
HETATM   14  C16 UNL     1       0.203   1.945  -2.927  1.00  0.00     0.001 A 
HETATM   15  C17 UNL     1       0.713   0.748  -2.422  1.00  0.00     0.012 A 
HETATM   16  C18 UNL     1       0.165   0.182  -1.292  1.00  0.00    -0.004 A 
ENDROOT
BRANCH   1  17
HETATM   17  N1  UNL     1       2.092  -0.789  -0.153  1.00  0.00    -0.370 N 
HETATM   18  C4  UNL     1       1.782  -0.610   1.338  1.00  0.00     0.121 A 
HETATM   19  C3  UNL     1       2.570  -0.352   2.547  1.00  0.00     0.054 A 
HETATM   20  C2  UNL     1       3.405  -0.402   1.574  1.00  0.00    -0.045 A 
HETATM   21  C1  UNL     1       4.084  -0.448   0.748  1.00  0.00    -0.045 A 
HETATM   22  C20 UNL     1       4.870  -0.507  -0.249  1.00  0.00     0.054 A 
HETATM   23  C19 UNL     1       3.507  -0.726  -0.765  1.00  0.00     0.121 A 
ENDBRANCH   1  17
TORSDOF 1
