REMARK  3 active torsions:
REMARK  status: ('A' for Active; 'I' for Inactive)
REMARK    1  A    between atoms: N1_1  and  C1_2 
REMARK    2  A    between atoms: C5_7  and  C6_8 
REMARK    3  A    between atoms: N4_10  and  C7_11 
ROOT
HETATM    1  C6  UNL     1       0.552  -0.296   0.417  1.00  0.00     0.145 C 
HETATM    2  N3  UNL     1      -0.506  -1.126  -0.060  1.00  0.00    -0.224 NA
HETATM    3  N4  UNL     1      -1.751  -0.801   0.485  1.00  0.00    -0.306 N 
HETATM    4  C11 UNL     1      -1.782   0.402   1.331  1.00  0.00     0.182 C 
HETATM    5  C12 UNL     1      -1.027   1.467   0.586  1.00  0.00    -0.031 A 
HETATM    6  C13 UNL     1      -1.552   2.730   0.406  1.00  0.00     0.009 A 
HETATM    7  C14 UNL     1      -0.806   3.670  -0.296  1.00  0.00     0.001 A 
HETATM    8  C15 UNL     1       0.424   3.316  -0.786  1.00  0.00     0.001 A 
HETATM    9  C16 UNL     1       0.954   2.053  -0.608  1.00  0.00     0.010 A 
HETATM   10  C17 UNL     1       0.223   1.116   0.085  1.00  0.00    -0.026 A 
HETATM   11  H7  UNL     1      -0.617  -0.925  -1.094  1.00  0.00     0.147 HD
ENDROOT
BRANCH   1  12
HETATM   12  C5  UNL     1       1.827  -0.736  -0.202  1.00  0.00    -0.005 A 
HETATM   13  C1  UNL     1       3.033  -0.256   0.261  1.00  0.00     0.051 A 
HETATM   14  C2  UNL     1       4.212  -0.651  -0.303  1.00  0.00     0.145 A 
HETATM   15  N2  UNL     1       4.269  -1.517  -1.327  1.00  0.00    -0.271 NA
HETATM   16  C3  UNL     1       3.123  -2.008  -1.808  1.00  0.00     0.117 A 
HETATM   17  C4  UNL     1       1.918  -1.624  -1.255  1.00  0.00     0.030 A 
BRANCH  13  18
HETATM   18  N1  UNL     1       3.123   0.660   1.336  1.00  0.00    -0.397 N 
HETATM   19  H1  UNL     1       2.441   1.316   1.771  1.00  0.00     0.156 HD
HETATM   20  H2  UNL     1       3.977   0.812   1.891  1.00  0.00     0.156 HD
ENDBRANCH  13  18
ENDBRANCH   1  12
BRANCH   3  21
HETATM   21  C7  UNL     1      -2.870  -1.630   0.193  1.00  0.00     0.067 A 
HETATM   22  C8  UNL     1      -3.236  -2.249  -0.928  1.00  0.00     0.034 A 
HETATM   23  C9  UNL     1      -4.397  -2.765  -0.214  1.00  0.00     0.028 A 
HETATM   24  C10 UNL     1      -4.030  -2.145   0.910  1.00  0.00     0.061 A 
HETATM   25 CL1  UNL     1      -4.661  -2.005   2.536  1.00  0.00    -0.082 Cl
ENDBRANCH   3  21
TORSDOF 3
