REMARK  3 active torsions:
REMARK  status: ('A' for Active; 'I' for Inactive)
REMARK    1  A    between atoms: C4_5  and  C5_6 
REMARK    2  A    between atoms: C6_8  and  C7_9 
REMARK    3  A    between atoms: C7_9  and  C8_10 
ROOT
HETATM    1  C5  UNL     1       1.450   0.139   0.090  1.00  0.00     0.073 A 
HETATM    2  N1  UNL     1       0.651   0.496   1.002  1.00  0.00    -0.278 NA
HETATM    3  C6  UNL     1      -0.602  -0.187   0.884  1.00  0.00     0.146 A 
HETATM    4  C13 UNL     1      -0.425  -1.090  -0.255  1.00  0.00    -0.021 A 
HETATM    5  C14 UNL     1      -1.188  -2.043  -0.899  1.00  0.00     0.010 A 
HETATM    6  C15 UNL     1      -0.765  -2.775  -1.996  1.00  0.00     0.001 A 
HETATM    7  C16 UNL     1       0.527  -2.511  -2.462  1.00  0.00     0.001 A 
HETATM    8  C17 UNL     1       1.284  -1.561  -1.817  1.00  0.00     0.014 A 
HETATM    9  C18 UNL     1       0.834  -0.861  -0.740  1.00  0.00     0.002 A 
ENDROOT
BRANCH   1  10
HETATM   10  C4  UNL     1       2.766   0.746   0.072  1.00  0.00    -0.007 A 
HETATM   11  C3  UNL     1       3.108   1.681   1.047  1.00  0.00     0.015 A 
HETATM   12  C2  UNL     1       4.314   2.343   1.157  1.00  0.00     0.024 A 
HETATM   13  C1  UNL     1       5.303   2.102   0.257  1.00  0.00     0.034 A 
HETATM   14 CL1  UNL     1       6.835   2.924   0.375  1.00  0.00    -0.084 Cl
HETATM   15  C20 UNL     1       5.041   1.190  -0.736  1.00  0.00     0.024 A 
HETATM   16  C19 UNL     1       3.813   0.577  -0.773  1.00  0.00     0.015 A 
ENDBRANCH   1  10
BRANCH   3  17
HETATM   17  C7  UNL     1      -1.624   0.901   0.591  1.00  0.00     0.070 C 
BRANCH  17  18
HETATM   18  C8  UNL     1      -2.989   0.425   0.431  1.00  0.00    -0.053 A 
HETATM   19  C9  UNL     1      -3.727   0.310   1.608  1.00  0.00     0.026 A 
HETATM   20  C10 UNL     1      -5.041  -0.104   1.674  1.00  0.00     0.116 A 
HETATM   21  N2  UNL     1      -5.661  -0.423   0.519  1.00  0.00    -0.273 NA
HETATM   22  C11 UNL     1      -5.005  -0.336  -0.674  1.00  0.00     0.116 A 
HETATM   23  C12 UNL     1      -3.706   0.076  -0.716  1.00  0.00     0.026 A 
ENDBRANCH  17  18
ENDBRANCH   3  17
TORSDOF 3
