REMARK  4 active torsions:
REMARK  status: ('A' for Active; 'I' for Inactive)
REMARK    1  A    between atoms: C10_12  and  C11_13 
REMARK    2  A    between atoms: C11_13  and  C12_14 
REMARK       I    between atoms: C12_14  and  N2_16 
REMARK    3  A    between atoms: N2_16  and  C13_17 
REMARK    4  A    between atoms: C17_21  and  C18_22 
ROOT
HETATM    1  C12 UNL     1      -0.205   1.937   1.004  1.00  0.00     0.247 C 
HETATM    2  O1  UNL     1       0.699   2.197   1.833  1.00  0.00    -0.268 OA
HETATM    3  N2  UNL     1      -0.253   0.505   1.102  1.00  0.00    -0.324 N 
HETATM    4  H13 UNL     1      -0.848  -0.235   0.624  1.00  0.00     0.169 HD
ENDROOT
BRANCH   1   5
HETATM    5  C11 UNL     1      -1.136   2.498   0.069  1.00  0.00     0.093 C 
BRANCH   5   6
HETATM    6  C10 UNL     1      -2.049   2.773  -0.826  1.00  0.00     0.013 A 
HETATM    7  S1  UNL     1      -2.737   1.194  -1.363  1.00  0.00    -0.102 SA
HETATM    8  C2  UNL     1      -1.605   0.055  -2.101  1.00  0.00    -0.002 C 
HETATM    9  N1  UNL     1      -3.482   0.253  -0.163  1.00  0.00    -0.368 N 
HETATM   10  C6  UNL     1      -3.996   1.899  -2.515  1.00  0.00     0.054 A 
HETATM   11  C1  UNL     1      -0.366   0.384  -2.357  1.00  0.00     0.032 C 
HETATM   12  C3  UNL     1      -2.127  -1.246  -2.418  1.00  0.00     0.016 C 
HETATM   13  C4  UNL     1      -2.984  -1.741  -1.539  1.00  0.00    -0.006 C 
HETATM   14  C5  UNL     1      -3.453  -1.136  -0.306  1.00  0.00     0.154 C 
HETATM   15  H7  UNL     1      -4.395   0.640   0.136  1.00  0.00     0.167 HD
HETATM   16  C7  UNL     1      -4.116   3.177  -2.702  1.00  0.00     0.007 A 
HETATM   17  C8  UNL     1      -3.383   4.275  -2.124  1.00  0.00     0.002 A 
HETATM   18  C9  UNL     1      -2.431   4.088  -1.262  1.00  0.00     0.019 A 
ENDBRANCH   5   6
ENDBRANCH   1   5
BRANCH   3  19
HETATM   19  C13 UNL     1       0.555  -0.345   1.947  1.00  0.00     0.035 A 
HETATM   20  C14 UNL     1       0.203  -0.715   3.226  1.00  0.00     0.029 A 
HETATM   21  C15 UNL     1       1.045  -1.540   3.970  1.00  0.00     0.003 A 
HETATM   22  C16 UNL     1       2.245  -2.000   3.439  1.00  0.00     0.008 A 
HETATM   23  C17 UNL     1       2.563  -1.607   2.150  1.00  0.00    -0.048 A 
HETATM   24  C24 UNL     1       1.746  -0.790   1.392  1.00  0.00     0.037 A 
BRANCH  23  25
HETATM   25  C18 UNL     1       3.823  -2.059   1.517  1.00  0.00     0.046 C 
HETATM   26  C19 UNL     1       3.532  -2.837   0.259  1.00  0.00     0.052 C 
HETATM   27  C20 UNL     1       4.469  -2.967  -0.654  1.00  0.00    -0.020 C 
HETATM   28  C21 UNL     1       5.621  -2.371  -0.509  1.00  0.00    -0.021 C 
HETATM   29  C22 UNL     1       5.610  -1.066   0.178  1.00  0.00    -0.007 C 
HETATM   30  C23 UNL     1       4.716  -0.949   1.164  1.00  0.00    -0.017 C 
ENDBRANCH  23  25
ENDBRANCH   3  19
TORSDOF 4
