REMARK  5 active torsions:
REMARK  status: ('A' for Active; 'I' for Inactive)
REMARK    1  A    between atoms: C6_6  and  N1_7 
REMARK       I    between atoms: N1_7  and  C7_8 
REMARK    2  A    between atoms: C7_8  and  C8_10 
REMARK    3  A    between atoms: C13_15  and  N2_16 
REMARK    4  A    between atoms: N2_16  and  C14_17 
REMARK    5  A    between atoms: C14_17  and  C15_18 
ROOT
HETATM    1  N1  UNL     1       0.439  -1.567  -0.594  1.00  0.00    -0.322 N 
HETATM    2  C7  UNL     1      -0.592  -0.538  -0.862  1.00  0.00     0.258 C 
HETATM    3  O1  UNL     1      -0.142   0.610  -0.469  1.00  0.00    -0.267 OA
HETATM    4  H6  UNL     1      -0.163  -2.356  -0.879  1.00  0.00     0.169 HD
ENDROOT
BRANCH   2   5
HETATM    5  C8  UNL     1      -2.017  -0.889  -1.508  1.00  0.00     0.058 A 
HETATM    6  C9  UNL     1      -1.773  -1.735  -2.551  1.00  0.00     0.019 A 
HETATM    7  C10 UNL     1      -3.254  -1.864  -3.283  1.00  0.00     0.001 A 
HETATM    8  C11 UNL     1      -3.793  -1.102  -2.450  1.00  0.00     0.002 A 
HETATM    9  C12 UNL     1      -4.103  -0.235  -1.391  1.00  0.00     0.030 A 
HETATM   10  C13 UNL     1      -2.792  -0.126  -0.769  1.00  0.00     0.044 A 
BRANCH  10  11
HETATM   11  N2  UNL     1      -2.970   0.669   0.341  1.00  0.00    -0.385 N 
HETATM   12  H11 UNL     1      -2.065   0.563   0.770  1.00  0.00     0.160 HD
BRANCH  11  13
HETATM   13  C14 UNL     1      -4.164   1.419   0.725  1.00  0.00     0.158 C 
BRANCH  13  14
HETATM   14  C15 UNL     1      -4.432   2.655   0.046  1.00  0.00    -0.038 A 
HETATM   15  C16 UNL     1      -5.615   2.531  -0.897  1.00  0.00     0.028 A 
HETATM   16  C17 UNL     1      -5.918   3.787  -1.587  1.00  0.00     0.116 A 
HETATM   17  N3  UNL     1      -5.260   5.016  -1.490  1.00  0.00    -0.273 NA
HETATM   18  C18 UNL     1      -4.187   5.106  -0.648  1.00  0.00     0.116 A 
HETATM   19  C19 UNL     1      -4.180   3.832  -0.176  1.00  0.00     0.028 A 
ENDBRANCH  13  14
ENDBRANCH  11  13
ENDBRANCH  10  11
ENDBRANCH   2   5
BRANCH   1  20
HETATM   20  C6  UNL     1       1.803  -1.715  -0.098  1.00  0.00     0.040 C 
HETATM   21  C5  UNL     1       2.339  -2.518  -1.083  1.00  0.00     0.030 C 
HETATM   22  C4  UNL     1       3.621  -3.116  -1.253  1.00  0.00     0.004 C 
HETATM   23  C3  UNL     1       4.240  -2.802  -0.056  1.00  0.00     0.027 C 
HETATM   24  C2  UNL     1       5.200  -2.642   0.992  1.00  0.00     0.035 C 
HETATM   25  C1  UNL     1       5.818  -2.449   2.312  1.00  0.00     0.065 C 
HETATM   26  N4  UNL     1       6.133  -1.952   0.099  1.00  0.00    -0.251 NA
HETATM   27  C26 UNL     1       6.066  -0.636   0.225  1.00  0.00     0.085 C 
HETATM   28  C25 UNL     1       6.582  -0.226   1.403  1.00  0.00     0.034 C 
HETATM   29  C24 UNL     1       5.208   0.172   1.730  1.00  0.00    -0.001 C 
HETATM   30  C23 UNL     1       3.922   0.420   1.411  1.00  0.00    -0.022 C 
HETATM   31  C22 UNL     1       2.766   0.484   0.390  1.00  0.00     0.067 C 
HETATM   32  C20 UNL     1       1.686  -0.613   0.911  1.00  0.00    -0.037 C 
HETATM   33  C21 UNL     1       1.110  -0.020   1.812  1.00  0.00     0.021 C 
ENDBRANCH   1  20
TORSDOF 5
