REMARK  2 active torsions:
REMARK  status: ('A' for Active; 'I' for Inactive)
REMARK    1  A    between atoms: C4_5  and  C5_6 
REMARK    2  A    between atoms: C6_7  and  C7_8 
ROOT
HETATM    1  C1  UNL     1       7.474   0.623   1.721  1.00  0.00     0.019 C 
HETATM    2  C2  UNL     1       6.296   0.821   1.858  1.00  0.00    -0.065 C 
HETATM    3  C3  UNL     1       4.890   1.061   1.996  1.00  0.00     0.086 C 
HETATM    4 CL1  UNL     1       4.252   2.060   3.264  1.00  0.00    -0.074 Cl
HETATM    5  C4  UNL     1       4.073   0.501   1.128  1.00  0.00     0.033 C 
ENDROOT
BRANCH   5   6
HETATM    6  C5  UNL     1       2.629   0.705   1.212  1.00  0.00    -0.001 C 
HETATM    7  C6  UNL     1       1.693   0.217   0.425  1.00  0.00    -0.017 C 
BRANCH   7   8
HETATM    8  C7  UNL     1       0.234   0.460   0.560  1.00  0.00     0.048 C 
HETATM    9  C8  UNL     1      -0.252   1.445  -0.427  1.00  0.00     0.060 C 
HETATM   10  C9  UNL     1      -0.033   1.151  -1.839  1.00  0.00     0.090 C 
HETATM   11  N1  UNL     1      -0.913   1.462  -2.766  1.00  0.00    -0.275 NA
HETATM   12  C10 UNL     1      -2.120   2.116  -2.303  1.00  0.00     0.143 C 
HETATM   13  C11 UNL     1      -2.965   1.127  -1.947  1.00  0.00     0.059 C 
HETATM   14  C12 UNL     1      -4.295   0.737  -1.411  1.00  0.00     0.172 C 
HETATM   15  N4  UNL     1      -2.752  -0.302  -2.013  1.00  0.00    -0.285 N 
HETATM   16  N2  UNL     1      -3.942  -0.252  -0.401  1.00  0.00    -0.212 NA
HETATM   17  N3  UNL     1      -2.646  -0.660  -0.673  1.00  0.00    -0.218 N 
HETATM   18  H12 UNL     1      -4.014   0.215   0.529  1.00  0.00     0.149 HD
HETATM   19  C13 UNL     1      -1.709  -1.223   0.201  1.00  0.00     0.076 A 
HETATM   20  C14 UNL     1      -2.168  -2.474   0.556  1.00  0.00     0.033 A 
HETATM   21  C18 UNL     1      -0.514  -0.786   0.714  1.00  0.00    -0.020 A 
HETATM   22  C15 UNL     1      -1.494  -3.353   1.417  1.00  0.00     0.002 A 
HETATM   23  C16 UNL     1      -0.294  -2.898   1.924  1.00  0.00     0.001 A 
HETATM   24  C17 UNL     1       0.155  -1.645   1.562  1.00  0.00     0.010 A 
HETATM   25  H13 UNL     1      -2.724  -0.736  -2.972  1.00  0.00     0.188 HD
ENDBRANCH   7   8
ENDBRANCH   5   6
TORSDOF 2
