REMARK  1 active torsions:
REMARK  status: ('A' for Active; 'I' for Inactive)
REMARK    1  A    between atoms: C8_11  and  S1_12 
ROOT
HETATM    1  C1  UNL     1      -4.503   1.608   2.235  1.00  0.00     0.046 C 
HETATM    2  C2  UNL     1      -3.923   1.426   0.856  1.00  0.00    -0.057 C 
HETATM    3  C3  UNL     1      -4.755   1.646  -0.130  1.00  0.00     0.006 C 
HETATM    4  C4  UNL     1      -4.208   1.482  -1.462  1.00  0.00     0.018 C 
HETATM    5  C5  UNL     1      -2.929   1.141  -1.518  1.00  0.00     0.094 C 
HETATM    6  N1  UNL     1      -1.962   0.902  -0.457  1.00  0.00    -0.328 N 
HETATM    7  C6  UNL     1      -0.617   0.676  -0.781  1.00  0.00     0.157 C 
HETATM    8  N2  UNL     1      -0.318   1.809  -1.252  1.00  0.00    -0.132 NA
HETATM    9  N3  UNL     1       1.003   2.048  -1.753  1.00  0.00    -0.163 NA
HETATM   10  C7  UNL     1       1.747   0.961  -1.664  1.00  0.00     0.132 C 
HETATM   11  C8  UNL     1       1.549  -0.481  -1.170  1.00  0.00     0.103 C 
HETATM   12  C14 UNL     1       0.255  -0.466  -0.533  1.00  0.00    -0.006 C 
HETATM   13  C15 UNL     1       0.388  -1.553   0.220  1.00  0.00     0.054 C 
HETATM   14  C16 UNL     1      -0.244  -2.339   1.325  1.00  0.00    -0.017 C 
HETATM   15  C17 UNL     1      -1.260  -2.441   2.235  1.00  0.00    -0.004 C 
HETATM   16  C18 UNL     1      -2.268  -1.387   2.306  1.00  0.00    -0.002 C 
HETATM   17  C19 UNL     1      -2.462  -0.256   1.675  1.00  0.00     0.003 C 
HETATM   18  C20 UNL     1      -2.473   0.944   0.850  1.00  0.00     0.142 C 
ENDROOT
BRANCH  11  19
HETATM   19  S1  UNL     1       2.938  -1.040  -0.578  1.00  0.00    -0.239 SA
HETATM   20  C9  UNL     1       3.171  -2.375  -1.270  1.00  0.00     0.066 C 
HETATM   21  C10 UNL     1       4.388  -0.410  -1.566  1.00  0.00     0.039 A 
HETATM   22  C11 UNL     1       5.353   0.657  -1.437  1.00  0.00     0.121 A 
HETATM   23  N4  UNL     1       5.288   1.512  -0.438  1.00  0.00    -0.272 NA
HETATM   24  C12 UNL     1       4.192   1.248   0.470  1.00  0.00     0.121 A 
HETATM   25  C13 UNL     1       3.329   0.251   0.349  1.00  0.00     0.039 A 
HETATM   26  H9  UNL     1       3.243  -1.710   0.620  1.00  0.00     0.082 HD
ENDBRANCH  11  19
TORSDOF 1
