REMARK  4 active torsions:
REMARK  status: ('A' for Active; 'I' for Inactive)
REMARK    1  A    between atoms: C2_2  and  C3_3 
REMARK    2  A    between atoms: C2_2  and  C12_14 
REMARK    3  A    between atoms: C9_10  and  C10_11 
REMARK    4  A    between atoms: C10_11  and  C11_12 
ROOT
HETATM    1  C12 UNL     1      -2.949  -0.256   0.033  1.00  0.00    -0.008 A 
HETATM    2  C13 UNL     1      -3.016   0.619  -1.022  1.00  0.00     0.013 A 
HETATM    3  C14 UNL     1      -4.103   1.171  -1.653  1.00  0.00     0.001 A 
HETATM    4  C15 UNL     1      -5.308   0.763  -1.123  1.00  0.00     0.002 A 
HETATM    5  C16 UNL     1      -5.374  -0.110  -0.068  1.00  0.00     0.023 A 
HETATM    6  C17 UNL     1      -4.225  -0.595   0.480  1.00  0.00     0.055 A 
HETATM    7  C18 UNL     1      -4.395  -1.503   1.588  1.00  0.00     0.100 C 
HETATM    8  N2  UNL     1      -4.549  -2.224   2.487  1.00  0.00    -0.191 NA
ENDROOT
BRANCH   1   9
HETATM    9  C2  UNL     1      -1.751  -0.733   0.666  1.00  0.00    -0.036 C 
HETATM   10  C1  UNL     1      -2.046  -1.724   1.477  1.00  0.00     0.045 C 
BRANCH   9  11
HETATM   11  C3  UNL     1      -0.352  -0.430   0.667  1.00  0.00    -0.027 A 
HETATM   12  C4  UNL     1       0.464  -1.312   1.351  1.00  0.00     0.012 A 
HETATM   13  C5  UNL     1       1.849  -1.108   1.454  1.00  0.00     0.012 A 
HETATM   14  C6  UNL     1       2.403  -0.010   0.863  1.00  0.00    -0.009 A 
HETATM   15  C7  UNL     1       1.667   0.920   0.163  1.00  0.00     0.037 A 
HETATM   16  C9  UNL     1       3.609   0.806   0.555  1.00  0.00     0.118 A 
HETATM   17  C8  UNL     1       0.325   0.631   0.121  1.00  0.00     0.041 A 
HETATM   18  N1  UNL     1       2.777   1.746  -0.166  1.00  0.00    -0.381 N 
HETATM   19  H6  UNL     1       2.930   2.633  -0.693  1.00  0.00     0.160 HD
BRANCH  16  20
HETATM   20  C10 UNL     1       4.514   0.072  -0.393  1.00  0.00     0.041 C 
BRANCH  20  21
HETATM   21  C11 UNL     1       5.708   0.995  -0.636  1.00  0.00     0.087 C 
HETATM   22 BR1  UNL     1       6.991   0.202  -1.848  1.00  0.00    -0.096 Br
ENDBRANCH  20  21
ENDBRANCH  16  20
ENDBRANCH   9  11
ENDBRANCH   1   9
TORSDOF 4
