REMARK  10 active torsions:
REMARK  status: ('A' for Active; 'I' for Inactive)
REMARK       I    between atoms: C1_2  and  N1_3 
REMARK    1  A    between atoms: C1_2  and  C9_12 
REMARK    2  A    between atoms: N1_3  and  C2_4 
REMARK    3  A    between atoms: C3_5  and  C4_6 
REMARK    4  A    between atoms: C4_6  and  C5_7 
REMARK    5  A    between atoms: C5_7  and  C6_8 
REMARK    6  A    between atoms: C6_8  and  C7_9 
REMARK    7  A    between atoms: C7_9  and  C8_10 
REMARK    8  A    between atoms: C14_17  and  N2_18 
REMARK    9  A    between atoms: N2_18  and  C15_19 
REMARK   10  A    between atoms: C15_19  and  C16_20 
ROOT
HETATM    1  C9  UNL     1      -0.701   0.400   1.437  1.00  0.00     0.058 A 
HETATM    2  C10 UNL     1      -0.053   1.568   1.712  1.00  0.00     0.019 A 
HETATM    3  C11 UNL     1      -0.720   2.738   1.981  1.00  0.00     0.001 A 
HETATM    4  C12 UNL     1      -2.104   2.736   1.976  1.00  0.00     0.002 A 
HETATM    5  C13 UNL     1      -2.739   1.547   1.696  1.00  0.00     0.030 A 
HETATM    6  C14 UNL     1      -2.075   0.383   1.428  1.00  0.00     0.044 A 
ENDROOT
BRANCH   1   7
HETATM    7  C1  UNL     1       0.039  -0.811   1.156  1.00  0.00     0.257 C 
HETATM    8  O1  UNL     1      -0.153  -1.995   0.876  1.00  0.00    -0.267 OA
HETATM    9  N1  UNL     1       1.459  -0.768   1.175  1.00  0.00    -0.333 N 
HETATM   10  H1  UNL     1       2.099   0.061   1.374  1.00  0.00     0.168 HD
BRANCH   9  11
HETATM   11  C2  UNL     1       2.105  -2.006   0.887  1.00  0.00     0.092 C 
HETATM   12  C3  UNL     1       2.912  -2.046  -0.163  1.00  0.00     0.025 C 
BRANCH  12  13
HETATM   13  C4  UNL     1       3.144  -0.878  -1.006  1.00  0.00     0.052 C 
BRANCH  13  14
HETATM   14  C5  UNL     1       4.410  -0.573  -1.257  1.00  0.00    -0.150 C 
BRANCH  14  15
HETATM   15  C6  UNL     1       5.709  -0.307  -1.239  1.00  0.00     0.074 C 
BRANCH  15  16
HETATM   16  C7  UNL     1       6.207   0.530  -0.122  1.00  0.00     0.049 C 
BRANCH  16  17
HETATM   17  C8  UNL     1       7.704   0.207  -0.020  1.00  0.00     0.223 C 
HETATM   18  F1  UNL     1       8.343   0.520  -1.208  1.00  0.00    -0.255 F 
ENDBRANCH  16  17
ENDBRANCH  15  16
ENDBRANCH  14  15
ENDBRANCH  13  14
ENDBRANCH  12  13
ENDBRANCH   9  11
ENDBRANCH   1   7
BRANCH   6  19
HETATM   19  N2  UNL     1      -2.899  -0.714   1.187  1.00  0.00    -0.385 N 
HETATM   20  H14 UNL     1      -2.331  -1.571   1.016  1.00  0.00     0.160 HD
BRANCH  19  21
HETATM   21  C15 UNL     1      -4.293  -1.067   1.092  1.00  0.00     0.158 C 
BRANCH  21  22
HETATM   22  C16 UNL     1      -4.863  -0.428  -0.128  1.00  0.00    -0.038 A 
HETATM   23  C17 UNL     1      -4.621  -1.180  -1.268  1.00  0.00     0.028 A 
HETATM   24  C18 UNL     1      -5.044  -0.840  -2.533  1.00  0.00     0.116 A 
HETATM   25  N3  UNL     1      -5.751   0.306  -2.711  1.00  0.00    -0.273 NA
HETATM   26  C19 UNL     1      -6.001   1.061  -1.603  1.00  0.00     0.116 A 
HETATM   27  C20 UNL     1      -5.583   0.727  -0.346  1.00  0.00     0.028 A 
ENDBRANCH  21  22
ENDBRANCH  19  21
ENDBRANCH   6  19
TORSDOF 10
