REMARK  3 active torsions:
REMARK  status: ('A' for Active; 'I' for Inactive)
REMARK    1  A    between atoms: C14_18  and  C15_19 
REMARK    2  A    between atoms: C16_20  and  C17_21 
REMARK    3  A    between atoms: C18_22  and  N4_23 
ROOT
HETATM    1  C1  UNL     1      -3.990  -2.735  -0.516  1.00  0.00     0.050 C 
HETATM    2  C2  UNL     1      -2.534  -2.684  -0.853  1.00  0.00    -0.036 A 
HETATM    3  C3  UNL     1      -2.171  -3.645  -1.767  1.00  0.00     0.123 A 
HETATM    4  N1  UNL     1      -0.892  -3.711  -2.181  1.00  0.00    -0.272 NA
HETATM    5  C4  UNL     1      -0.098  -2.753  -1.592  1.00  0.00     0.124 A 
HETATM    6  C5  UNL     1      -0.338  -1.702  -0.635  1.00  0.00    -0.030 A 
HETATM    7  C6  UNL     1      -1.702  -1.733  -0.280  1.00  0.00    -0.025 A 
HETATM    8  C7  UNL     1      -2.463  -0.881   0.632  1.00  0.00     0.158 C 
HETATM    9  N2  UNL     1      -3.065   0.274   0.016  1.00  0.00    -0.395 N 
HETATM   10  C8  UNL     1      -3.552   1.471  -0.658  1.00  0.00     0.083 C 
HETATM   11  C9  UNL     1      -3.186   2.749  -0.601  1.00  0.00     0.016 C 
HETATM   12  C10 UNL     1      -2.408   3.887  -0.155  1.00  0.00    -0.002 C 
HETATM   13  C11 UNL     1      -1.387   4.004   0.723  1.00  0.00    -0.017 C 
HETATM   14  C12 UNL     1      -0.975   2.757   1.353  1.00  0.00     0.130 C 
HETATM   15  C13 UNL     1       0.435   2.341   1.107  1.00  0.00     0.221 C 
HETATM   16  O1  UNL     1       1.672   2.410   0.963  1.00  0.00    -0.273 OA
HETATM   17  N3  UNL     1       0.740   0.963   0.793  1.00  0.00    -0.353 N 
HETATM   18  C14 UNL     1       1.433  -0.247   0.541  1.00  0.00     0.111 C 
HETATM   19  C19 UNL     1       0.978  -1.115  -0.531  1.00  0.00     0.069 C 
HETATM   20  H8  UNL     1      -2.170   0.540  -0.510  1.00  0.00     0.159 HD
HETATM   21  H15 UNL     1      -0.143   0.509   0.616  1.00  0.00     0.163 HD
ENDROOT
BRANCH  18  22
HETATM   22  C15 UNL     1       2.837   0.320  -0.056  1.00  0.00    -0.002 C 
HETATM   23  C16 UNL     1       4.036   0.093   0.432  1.00  0.00    -0.001 C 
BRANCH  23  24
HETATM   24  C17 UNL     1       5.053   0.749  -0.346  1.00  0.00     0.016 C 
HETATM   25  C18 UNL     1       6.256   0.496   0.190  1.00  0.00     0.080 C 
BRANCH  25  26
HETATM   26  N4  UNL     1       6.030  -0.334   1.336  1.00  0.00    -0.408 N 
HETATM   27  H21 UNL     1       5.857  -0.858   2.226  1.00  0.00     0.155 HD
HETATM   28  H22 UNL     1       5.919  -1.231   1.896  1.00  0.00     0.155 HD
ENDBRANCH  25  26
ENDBRANCH  23  24
ENDBRANCH  18  22
TORSDOF 3
