REMARK  4 active torsions:
REMARK  status: ('A' for Active; 'I' for Inactive)
REMARK    1  A    between atoms: C1_2  and  C16_20 
REMARK    2  A    between atoms: C2_3  and  C3_4 
REMARK    3  A    between atoms: C3_4  and  N1_5 
REMARK    4  A    between atoms: N1_5  and  C4_6 
ROOT
HETATM    1  C4  UNL     1       1.187  -1.899  -1.056  1.00  0.00     0.245 C 
HETATM    2  C5  UNL     1       0.389  -0.812  -1.665  1.00  0.00     0.009 C 
HETATM    3  C6  UNL     1      -0.751  -0.148  -1.349  1.00  0.00     0.012 C 
HETATM    4  C7  UNL     1      -1.694  -0.246  -0.225  1.00  0.00    -0.011 C 
HETATM    5  C8  UNL     1      -2.256   0.997   0.231  1.00  0.00    -0.022 A 
HETATM    6  C9  UNL     1      -1.800   2.163  -0.337  1.00  0.00     0.031 A 
HETATM    7  C10 UNL     1      -2.304   3.386   0.039  1.00  0.00     0.117 A 
HETATM    8  N2  UNL     1      -3.264   3.516   0.976  1.00  0.00    -0.273 NA
HETATM    9  C11 UNL     1      -3.745   2.403   1.564  1.00  0.00     0.117 A 
HETATM   10  C12 UNL     1      -3.219   1.198   1.164  1.00  0.00     0.031 A 
HETATM   11  C13 UNL     1      -2.053  -1.405   0.356  1.00  0.00     0.095 C 
HETATM   12  N3  UNL     1      -1.751  -2.815   0.195  1.00  0.00    -0.398 N 
HETATM   13  C14 UNL     1      -0.937  -3.326  -0.904  1.00  0.00     0.121 C 
HETATM   14  C15 UNL     1       0.515  -3.171  -0.757  1.00  0.00     0.059 C 
HETATM   15  H13 UNL     1      -2.202  -3.363   0.968  1.00  0.00     0.158 HD
ENDROOT
BRANCH   1  16
HETATM   16  N1  UNL     1       1.954  -1.503   0.098  1.00  0.00     0.095 NA
HETATM   17  H4  UNL     1       1.281  -1.256   0.875  1.00  0.00     0.317 HD
BRANCH  16  18
HETATM   18  C3  UNL     1       2.945  -0.517  -0.064  1.00  0.00     0.300 C 
BRANCH  18  19
HETATM   19  C2  UNL     1       2.450   0.849  -0.322  1.00  0.00     0.046 C 
HETATM   20  C1  UNL     1       2.641   1.977   0.403  1.00  0.00     0.155 C 
HETATM   21  F1  UNL     1       2.134   3.219   0.077  1.00  0.00    -0.205 F 
BRANCH  20  22
HETATM   22  C16 UNL     1       3.358   2.323   1.660  1.00  0.00     0.414 C 
HETATM   23  F2  UNL     1       4.322   3.285   1.413  1.00  0.00    -0.207 F 
HETATM   24  F3  UNL     1       4.033   1.223   2.181  1.00  0.00    -0.207 F 
ENDBRANCH  20  22
ENDBRANCH  18  19
ENDBRANCH  16  18
ENDBRANCH   1  16
TORSDOF 4
