REMARK  8 active torsions:
REMARK  status: ('A' for Active; 'I' for Inactive)
REMARK    1  A    between atoms: C2_2  and  C3_3 
REMARK    2  A    between atoms: C4_4  and  C5_5 
REMARK    3  A    between atoms: C4_4  and  N1_11 
REMARK    4  A    between atoms: C6_6  and  C7_7 
REMARK       I    between atoms: N1_11  and  C8_12 
REMARK    5  A    between atoms: C8_12  and  C9_14 
REMARK    6  A    between atoms: C14_19  and  N2_20 
REMARK    7  A    between atoms: N2_20  and  C15_21 
REMARK    8  A    between atoms: C15_21  and  C16_22 
ROOT
HETATM    1  C9  UNL     1       0.191  -1.464  -0.132  1.00  0.00     0.058 A 
HETATM    2  C10 UNL     1       0.799  -2.677  -0.007  1.00  0.00     0.019 A 
HETATM    3  C11 UNL     1       0.117  -3.854  -0.124  1.00  0.00     0.001 A 
HETATM    4  C12 UNL     1      -1.239  -3.826  -0.379  1.00  0.00     0.002 A 
HETATM    5  C13 UNL     1      -1.835  -2.592  -0.502  1.00  0.00     0.030 A 
HETATM    6  C14 UNL     1      -1.157  -1.402  -0.386  1.00  0.00     0.044 A 
ENDROOT
BRANCH   1   7
HETATM    7  C8  UNL     1       0.966  -0.250   0.002  1.00  0.00     0.258 C 
HETATM    8  N1  UNL     1       2.361  -0.325   0.264  1.00  0.00    -0.323 N 
HETATM    9  H7  UNL     1       2.953  -1.200   0.384  1.00  0.00     0.169 HD
HETATM   10  O1  UNL     1       0.806   0.985  -0.038  1.00  0.00    -0.267 OA
BRANCH   8  11
HETATM   11  C4  UNL     1       3.241   0.805   0.416  1.00  0.00     0.035 C 
HETATM   12  C3  UNL     1       3.878   0.979   1.556  1.00  0.00     0.029 C 
BRANCH  12  13
HETATM   13  C2  UNL     1       4.773   2.106   1.738  1.00  0.00    -0.008 C 
HETATM   14  C1  UNL     1       5.409   2.281   2.875  1.00  0.00     0.011 C 
ENDBRANCH  12  13
BRANCH  11  15
HETATM   15  C5  UNL     1       3.360   1.689  -0.736  1.00  0.00     0.034 C 
HETATM   16  C6  UNL     1       2.807   1.662  -1.928  1.00  0.00     0.091 C 
BRANCH  16  17
HETATM   17  C7  UNL     1       3.019   2.631  -3.008  1.00  0.00     0.408 C 
HETATM   18  F1  UNL     1       1.872   3.323  -3.378  1.00  0.00    -0.167 F 
HETATM   19  F2  UNL     1       3.571   2.111  -4.150  1.00  0.00    -0.167 F 
HETATM   20  F3  UNL     1       3.892   3.602  -2.538  1.00  0.00    -0.167 F 
ENDBRANCH  16  17
ENDBRANCH  11  15
ENDBRANCH   8  11
ENDBRANCH   1   7
BRANCH   6  21
HETATM   21  N2  UNL     1      -1.924  -0.229  -0.552  1.00  0.00    -0.385 N 
HETATM   22  H12 UNL     1      -1.337   0.616  -0.466  1.00  0.00     0.160 HD
BRANCH  21  23
HETATM   23  C15 UNL     1      -3.281   0.127  -0.803  1.00  0.00     0.158 C 
BRANCH  23  24
HETATM   24  C16 UNL     1      -4.240  -0.197   0.270  1.00  0.00    -0.038 A 
HETATM   25  C17 UNL     1      -5.094  -1.238   0.512  1.00  0.00     0.028 A 
HETATM   26  C18 UNL     1      -5.879  -1.288   1.641  1.00  0.00     0.116 A 
HETATM   27  N3  UNL     1      -5.875  -0.335   2.582  1.00  0.00    -0.273 NA
HETATM   28  C19 UNL     1      -5.055   0.709   2.392  1.00  0.00     0.116 A 
HETATM   29  C20 UNL     1      -4.254   0.789   1.272  1.00  0.00     0.028 A 
ENDBRANCH  23  24
ENDBRANCH  21  23
ENDBRANCH   6  21
TORSDOF 8
