REMARK  4 active torsions:
REMARK  status: ('A' for Active; 'I' for Inactive)
REMARK    1  A    between atoms: C6_8  and  C7_9 
REMARK    2  A    between atoms: C7_9  and  N1_10 
REMARK    3  A    between atoms: N1_10  and  C8_11 
REMARK    4  A    between atoms: C12_15  and  C13_16 
ROOT
HETATM    1  O1  UNL     1      -1.812  -1.181  -3.022  1.00  0.00    -0.405 OA
HETATM    2  C1  UNL     1      -2.125  -0.406  -2.135  1.00  0.00     0.383 C 
HETATM    3  P1  UNL     1      -2.750   0.794  -0.961  1.00  0.00    -0.056 P 
HETATM    4  C2  UNL     1      -4.341   0.518  -0.835  1.00  0.00     0.009 A 
HETATM    5  C3  UNL     1      -4.968   0.105   0.412  1.00  0.00     0.001 A 
HETATM    6  C4  UNL     1      -4.323  -0.083   1.547  1.00  0.00     0.001 A 
HETATM    7  C5  UNL     1      -2.885   0.106   1.672  1.00  0.00     0.010 A 
HETATM    8  C6  UNL     1      -2.102   0.480   0.675  1.00  0.00    -0.033 A 
HETATM    9  H2  UNL     1      -2.481   2.108  -1.376  1.00  0.00     0.067 HD
ENDROOT
BRANCH   8  10
HETATM   10  C7  UNL     1      -0.639   0.667   0.836  1.00  0.00     0.159 C 
BRANCH  10  11
HETATM   11  N1  UNL     1       0.118  -0.193  -0.014  1.00  0.00    -0.386 N 
HETATM   12  H9  UNL     1      -0.186  -0.910  -0.707  1.00  0.00     0.160 HD
BRANCH  11  13
HETATM   13  C8  UNL     1       1.525  -0.045   0.106  1.00  0.00     0.029 A 
HETATM   14  C9  UNL     1       2.097   0.866   0.983  1.00  0.00     0.029 A 
HETATM   15  C10 UNL     1       3.467   1.047   1.137  1.00  0.00     0.003 A 
HETATM   16  C11 UNL     1       4.325   0.282   0.378  1.00  0.00     0.016 A 
HETATM   17  C12 UNL     1       3.812  -0.636  -0.508  1.00  0.00     0.050 A 
HETATM   18  C14 UNL     1       2.456  -0.778  -0.623  1.00  0.00     0.045 A 
BRANCH  17  19
HETATM   19  C13 UNL     1       4.677  -1.490  -1.354  1.00  0.00     0.417 C 
HETATM   20  F1  UNL     1       4.688  -1.086  -2.673  1.00  0.00    -0.166 F 
HETATM   21  F2  UNL     1       5.987  -1.383  -0.896  1.00  0.00    -0.166 F 
HETATM   22  F3  UNL     1       4.324  -2.811  -1.193  1.00  0.00    -0.166 F 
ENDBRANCH  17  19
ENDBRANCH  11  13
ENDBRANCH  10  11
ENDBRANCH   8  10
TORSDOF 4
