REMARK  6 active torsions:
REMARK  status: ('A' for Active; 'I' for Inactive)
REMARK       I    between atoms: C1_2  and  N1_3 
REMARK    1  A    between atoms: C1_2  and  C9_14 
REMARK    2  A    between atoms: N1_3  and  C2_4 
REMARK    3  A    between atoms: C6_8  and  C7_9 
REMARK    4  A    between atoms: C14_19  and  N2_20 
REMARK    5  A    between atoms: N2_20  and  C15_21 
REMARK    6  A    between atoms: C15_21  and  C16_22 
ROOT
HETATM    1  C9  UNL     1       0.109  -2.191  -0.263  1.00  0.00     0.043 A 
HETATM    2  C10 UNL     1       0.635  -3.154  -0.982  1.00  0.00     0.014 A 
HETATM    3  C11 UNL     1      -0.241  -4.170  -1.539  1.00  0.00    -0.003 A 
HETATM    4  C12 UNL     1      -1.527  -4.035  -1.272  1.00  0.00    -0.024 A 
HETATM    5  C13 UNL     1      -2.233  -2.990  -0.480  1.00  0.00     0.068 A 
HETATM    6  C14 UNL     1      -1.313  -1.964   0.119  1.00  0.00     0.262 A 
ENDROOT
BRANCH   1   7
HETATM    7  C1  UNL     1       0.951  -1.148   0.315  1.00  0.00     0.254 C 
HETATM    8  O1  UNL     1       0.618  -0.144   1.033  1.00  0.00    -0.268 OA
HETATM    9  N1  UNL     1       2.354  -1.106   0.143  1.00  0.00    -0.323 N 
HETATM   10  H1  UNL     1       2.879  -1.821  -0.409  1.00  0.00     0.169 HD
BRANCH   9  11
HETATM   11  C2  UNL     1       3.203  -0.099   0.696  1.00  0.00     0.035 A 
HETATM   12  C3  UNL     1       3.838  -0.089   1.916  1.00  0.00     0.029 A 
HETATM   13  C4  UNL     1       4.607   1.020   2.203  1.00  0.00     0.003 A 
HETATM   14  C5  UNL     1       4.765   2.079   1.361  1.00  0.00     0.016 A 
HETATM   15  C6  UNL     1       4.118   2.066   0.122  1.00  0.00     0.050 A 
HETATM   16  C8  UNL     1       3.329   0.954  -0.200  1.00  0.00     0.045 A 
BRANCH  15  17
HETATM   17  C7  UNL     1       4.307   3.236  -0.780  1.00  0.00     0.417 C 
HETATM   18  F1  UNL     1       5.535   3.807  -0.524  1.00  0.00    -0.166 F 
HETATM   19  F2  UNL     1       3.334   4.190  -0.588  1.00  0.00    -0.166 F 
HETATM   20  F3  UNL     1       4.300   2.849  -2.106  1.00  0.00    -0.166 F 
ENDBRANCH  15  17
ENDBRANCH   9  11
ENDBRANCH   1   7
BRANCH   6  21
HETATM   21  N2  UNL     1      -1.740  -0.654  -0.314  1.00  0.00     0.097 N 
HETATM   22  H12 UNL     1      -1.670  -0.642  -1.358  1.00  0.00     0.317 HD
BRANCH  21  23
HETATM   23  C15 UNL     1      -3.078  -0.388   0.148  1.00  0.00     0.309 C 
BRANCH  23  24
HETATM   24  C16 UNL     1      -3.555   0.952  -0.279  1.00  0.00    -0.028 A 
HETATM   25  C17 UNL     1      -4.221   1.233  -1.438  1.00  0.00     0.028 A 
HETATM   26  C18 UNL     1      -4.612   2.533  -1.717  1.00  0.00     0.116 A 
HETATM   27  N3  UNL     1      -4.376   3.571  -0.903  1.00  0.00    -0.273 NA
HETATM   28  C19 UNL     1      -3.721   3.326   0.247  1.00  0.00     0.116 A 
HETATM   29  C20 UNL     1      -3.317   2.042   0.557  1.00  0.00     0.028 A 
ENDBRANCH  23  24
ENDBRANCH  21  23
ENDBRANCH   6  21
TORSDOF 6
