REMARK  6 active torsions:
REMARK  status: ('A' for Active; 'I' for Inactive)
REMARK    1  A    between atoms: C3_3  and  O1_4 
REMARK    2  A    between atoms: C6_9  and  N3_10 
REMARK    3  A    between atoms: N3_10  and  C7_11 
REMARK    4  A    between atoms: C14_20  and  C15_21 
REMARK    5  A    between atoms: C15_21  and  N4_22 
REMARK    6  A    between atoms: C17_24  and  C18_25 
REMARK       I    between atoms: C18_25  and  N5_26 
ROOT
HETATM    1  C1  UNL     1      -2.408  -2.797  -0.003  1.00  0.00     0.052 C 
HETATM    2  C2  UNL     1      -1.110  -2.210  -0.314  1.00  0.00    -0.018 A 
HETATM    3  C3  UNL     1      -0.198  -3.002  -0.928  1.00  0.00     0.101 A 
HETATM    4  C4  UNL     1       0.962  -2.181  -1.095  1.00  0.00     0.102 A 
HETATM    5  N1  UNL     1       2.077  -2.524  -1.701  1.00  0.00    -0.239 NA
HETATM    6  C5  UNL     1       3.125  -1.529  -1.787  1.00  0.00     0.230 A 
HETATM    7  N2  UNL     1       2.994  -0.373  -1.309  1.00  0.00    -0.252 NA
HETATM    8  C6  UNL     1       1.847   0.165  -0.608  1.00  0.00     0.244 A 
HETATM    9  C13 UNL     1       0.760  -0.848  -0.556  1.00  0.00     0.026 A 
HETATM   10  C14 UNL     1      -0.505  -0.883  -0.095  1.00  0.00    -0.009 A 
ENDROOT
BRANCH   8  11
HETATM   11  N3  UNL     1       2.517   0.118   0.783  1.00  0.00    -0.361 N 
HETATM   12  H7  UNL     1       2.252  -0.485   1.570  1.00  0.00     0.162 HD
BRANCH  11  13
HETATM   13  C7  UNL     1       3.471   1.105   0.497  1.00  0.00     0.070 A 
HETATM   14  C8  UNL     1       4.512   0.495   1.410  1.00  0.00     0.032 A 
HETATM   15  C9  UNL     1       5.857   0.952   1.685  1.00  0.00     0.004 A 
HETATM   16  C10 UNL     1       6.260   2.125   1.017  1.00  0.00     0.027 A 
HETATM   17  C11 UNL     1       5.393   2.802   0.137  1.00  0.00     0.074 A 
HETATM   18 CL1  UNL     1       5.581   4.215  -0.815  1.00  0.00    -0.081 Cl
HETATM   19  C12 UNL     1       4.319   1.976   0.252  1.00  0.00     0.164 A 
HETATM   20  F1  UNL     1       3.320   2.558  -0.627  1.00  0.00    -0.202 F 
ENDBRANCH  11  13
ENDBRANCH   8  11
BRANCH  10  21
HETATM   21  C15 UNL     1      -1.221   0.299   0.440  1.00  0.00     0.312 C 
BRANCH  21  22
HETATM   22  N4  UNL     1      -2.498   0.564  -0.269  1.00  0.00     0.094 N 
HETATM   23  C16 UNL     1      -3.067   1.898  -0.001  1.00  0.00     0.288 A 
HETATM   24  C17 UNL     1      -4.250   1.364   0.709  1.00  0.00     0.134 A 
HETATM   25  C19 UNL     1      -3.631   0.024   0.532  1.00  0.00     0.288 A 
BRANCH  24  26
HETATM   26  C18 UNL     1      -5.571   1.594   0.106  1.00  0.00     0.223 C 
HETATM   27  N5  UNL     1      -6.676   0.798   0.509  1.00  0.00    -0.370 N 
HETATM   28  H16 UNL     1      -7.678   0.954   0.605  1.00  0.00     0.159 HD
HETATM   29  H17 UNL     1      -6.493  -0.212   0.769  1.00  0.00     0.159 HD
HETATM   30  O2  UNL     1      -5.992   2.377  -0.755  1.00  0.00    -0.273 OA
ENDBRANCH  24  26
ENDBRANCH  21  22
ENDBRANCH  10  21
BRANCH   3  31
HETATM   31  O1  UNL     1      -0.326  -4.343  -1.328  1.00  0.00    -0.358 OA
HETATM   32  H4  UNL     1       0.135  -5.073  -0.765  1.00  0.00     0.217 HD
ENDBRANCH   3  31
TORSDOF 6
