REMARK  1 active torsions:
REMARK  status: ('A' for Active; 'I' for Inactive)
REMARK    1  A    between atoms: C1_2  and  C2_5 
ROOT
HETATM    1  C2  UNL     1       3.364  -1.313   0.043  1.00  0.00     0.045 C 
HETATM    2  C3  UNL     1       2.325  -2.118  -0.083  1.00  0.00     0.019 C 
HETATM    3  C4  UNL     1       0.921  -1.722  -0.092  1.00  0.00     0.298 C 
HETATM    4  N1  UNL     1       0.239  -2.160  -1.308  1.00  0.00     0.092 N 
HETATM    5  C5  UNL     1      -0.946  -1.375  -1.517  1.00  0.00     0.326 C 
HETATM    6  C6  UNL     1      -2.006  -1.486  -0.522  1.00  0.00     0.035 A 
HETATM    7  C7  UNL     1      -2.556  -2.660  -0.296  1.00  0.00     0.026 A 
HETATM    8  C8  UNL     1      -3.620  -2.855   0.678  1.00  0.00    -0.000 A 
HETATM    9  C9  UNL     1      -3.972  -1.745   1.300  1.00  0.00    -0.007 A 
HETATM   10  C10 UNL     1      -3.484  -0.356   1.184  1.00  0.00     0.150 A 
HETATM   11  N2  UNL     1      -2.400  -0.278   0.192  1.00  0.00    -0.379 N 
HETATM   12  C11 UNL     1      -1.817   1.009   0.021  1.00  0.00     0.127 C 
HETATM   13  C12 UNL     1      -2.518   1.903  -0.985  1.00  0.00     0.048 C 
HETATM   14  C13 UNL     1      -1.675   3.126  -1.096  1.00  0.00    -0.006 C 
HETATM   15  C14 UNL     1      -0.517   3.566  -0.628  1.00  0.00     0.112 C 
HETATM   16  N3  UNL     1       0.537   3.145   0.209  1.00  0.00    -0.277 NA
HETATM   17  C15 UNL     1       1.793   3.193  -0.137  1.00  0.00     0.093 C 
HETATM   18  C16 UNL     1       2.724   2.692   0.919  1.00  0.00     0.073 C 
HETATM   19  C17 UNL     1       3.088   1.297   0.606  1.00  0.00    -0.021 C 
HETATM   20  C18 UNL     1       3.507   0.096   0.329  1.00  0.00     0.012 C 
HETATM   21  H4  UNL     1       0.025  -3.179  -1.217  1.00  0.00     0.316 HD
ENDROOT
BRANCH   1  22
HETATM   22  C1  UNL     1       4.788  -1.811   0.030  1.00  0.00     0.417 C 
HETATM   23  F1  UNL     1       4.705  -3.147  -0.217  1.00  0.00    -0.166 F 
HETATM   24  F2  UNL     1       5.386  -1.202  -1.057  1.00  0.00    -0.166 F 
HETATM   25  F3  UNL     1       5.434  -1.541   1.208  1.00  0.00    -0.166 F 
ENDBRANCH   1  22
TORSDOF 1
