REMARK  9 active torsions:
REMARK  status: ('A' for Active; 'I' for Inactive)
REMARK    1  A    between atoms: C2_2  and  C3_5 
REMARK    2  A    between atoms: C3_5  and  C4_7 
REMARK    3  A    between atoms: C5_8  and  C6_9 
REMARK    4  A    between atoms: C7_10  and  N1_11 
REMARK    5  A    between atoms: N1_11  and  C8_12 
REMARK    6  A    between atoms: C8_12  and  C9_13 
REMARK    7  A    between atoms: C14_18  and  N2_19 
REMARK    8  A    between atoms: N2_19  and  C15_20 
REMARK    9  A    between atoms: C15_20  and  C16_21 
ROOT
HETATM    1  C9  UNL     1      -1.052  -0.225   0.858  1.00  0.00    -0.014 A 
HETATM    2  C10 UNL     1      -0.840  -0.446   2.195  1.00  0.00     0.011 A 
HETATM    3  C11 UNL     1      -1.748  -1.006   3.063  1.00  0.00     0.001 A 
HETATM    4  C12 UNL     1      -2.980  -1.383   2.560  1.00  0.00     0.002 A 
HETATM    5  C13 UNL     1      -3.225  -1.177   1.228  1.00  0.00     0.030 A 
HETATM    6  C14 UNL     1      -2.301  -0.610   0.358  1.00  0.00     0.036 A 
ENDROOT
BRANCH   1   7
HETATM    7  C8  UNL     1      -0.088   0.376  -0.094  1.00  0.00     0.160 C 
BRANCH   7   8
HETATM    8  N1  UNL     1       1.135   0.730   0.567  1.00  0.00    -0.395 N 
HETATM    9  H9  UNL     1       1.618   0.731   1.483  1.00  0.00     0.159 HD
BRANCH   8  10
HETATM   10  C7  UNL     1       1.990   1.289  -0.440  1.00  0.00     0.083 C 
HETATM   11  C6  UNL     1       3.178   0.711  -0.610  1.00  0.00     0.016 C 
BRANCH  11  12
HETATM   12  C5  UNL     1       3.566  -0.435   0.204  1.00  0.00     0.000 C 
HETATM   13  C4  UNL     1       4.734  -1.038   0.068  1.00  0.00     0.016 C 
BRANCH  13  14
HETATM   14  C3  UNL     1       5.779  -0.660  -0.886  1.00  0.00     0.264 C 
HETATM   15  F3  UNL     1       6.554  -1.755  -1.262  1.00  0.00    -0.239 F 
BRANCH  14  16
HETATM   16  C2  UNL     1       6.744   0.380  -0.375  1.00  0.00     0.273 C 
HETATM   17  C1  UNL     1       7.500  -0.200   0.806  1.00  0.00     0.093 C 
HETATM   18  F1  UNL     1       7.655   0.600  -1.415  1.00  0.00    -0.203 F 
HETATM   19  F2  UNL     1       6.170   1.573  -0.049  1.00  0.00    -0.203 F 
ENDBRANCH  14  16
ENDBRANCH  13  14
ENDBRANCH  11  12
ENDBRANCH   8  10
ENDBRANCH   7   8
ENDBRANCH   1   7
BRANCH   6  20
HETATM   20  N2  UNL     1      -2.686  -0.465  -0.993  1.00  0.00    -0.385 N 
HETATM   21  H16 UNL     1      -1.898  -0.030  -1.570  1.00  0.00     0.160 HD
BRANCH  20  22
HETATM   22  C15 UNL     1      -3.833  -0.727  -1.832  1.00  0.00     0.158 C 
BRANCH  22  23
HETATM   23  C16 UNL     1      -5.029   0.063  -1.503  1.00  0.00    -0.038 A 
HETATM   24  C17 UNL     1      -6.151  -0.152  -0.733  1.00  0.00     0.028 A 
HETATM   25  C18 UNL     1      -7.112   0.824  -0.610  1.00  0.00     0.116 A 
HETATM   26  N3  UNL     1      -7.024   2.013  -1.214  1.00  0.00    -0.273 NA
HETATM   27  C19 UNL     1      -5.964   2.274  -1.969  1.00  0.00     0.116 A 
HETATM   28  C20 UNL     1      -4.965   1.319  -2.124  1.00  0.00     0.028 A 
ENDBRANCH  22  23
ENDBRANCH  20  22
ENDBRANCH   6  20
TORSDOF 9
