REMARK  7 active torsions:
REMARK  status: ('A' for Active; 'I' for Inactive)
REMARK    1  A    between atoms: C2_3  and  C10_13 
REMARK    2  A    between atoms: C3_4  and  C4_5 
REMARK    3  A    between atoms: C7_8  and  O1_9 
REMARK    4  A    between atoms: C8_10  and  O2_11 
REMARK    5  A    between atoms: C10_13  and  N2_14 
REMARK    6  A    between atoms: N2_14  and  C11_15 
REMARK    7  A    between atoms: C16_20  and  O3_21 
ROOT
HETATM    1  N1  UNL     1       0.703  -2.150   2.559  1.00  0.00    -0.192 NA
HETATM    2  C1  UNL     1       0.528  -1.208   1.923  1.00  0.00     0.097 C 
HETATM    3  C2  UNL     1       0.325  -0.032   1.132  1.00  0.00     0.041 C 
HETATM    4  C3  UNL     1       1.316   0.577   0.520  1.00  0.00     0.031 C 
ENDROOT
BRANCH   3   5
HETATM    5  C10 UNL     1      -1.038   0.538   0.975  1.00  0.00     0.170 C 
BRANCH   5   6
HETATM    6  N2  UNL     1      -1.981  -0.370   0.379  1.00  0.00    -0.383 N 
HETATM    7  H9  UNL     1      -1.702  -1.338   0.148  1.00  0.00     0.160 HD
BRANCH   6   8
HETATM    8  C11 UNL     1      -3.320   0.055   0.097  1.00  0.00     0.061 A 
HETATM    9  C12 UNL     1      -3.698   1.366   0.394  1.00  0.00     0.032 A 
HETATM   10  C13 UNL     1      -5.002   1.784   0.109  1.00  0.00     0.002 A 
HETATM   11  C14 UNL     1      -5.870   0.867  -0.461  1.00  0.00     0.003 A 
HETATM   12  C15 UNL     1      -5.509  -0.412  -0.752  1.00  0.00     0.039 A 
HETATM   13  C16 UNL     1      -4.230  -0.841  -0.480  1.00  0.00     0.092 A 
BRANCH  13  14
HETATM   14  O3  UNL     1      -3.826  -2.144  -0.765  1.00  0.00    -0.358 OA
HETATM   15  H14 UNL     1      -4.243  -2.964  -0.324  1.00  0.00     0.217 HD
ENDBRANCH  13  14
ENDBRANCH   6   8
ENDBRANCH   5   6
ENDBRANCH   3   5
BRANCH   4  16
HETATM   16  C4  UNL     1       2.750   0.502   0.310  1.00  0.00    -0.032 A 
HETATM   17  C5  UNL     1       3.738   1.461   0.281  1.00  0.00     0.014 A 
HETATM   18  C6  UNL     1       5.029   1.058   0.036  1.00  0.00     0.040 A 
HETATM   19  C7  UNL     1       5.401  -0.249  -0.186  1.00  0.00     0.098 A 
HETATM   20  C8  UNL     1       4.405  -1.230  -0.158  1.00  0.00     0.099 A 
HETATM   21  C9  UNL     1       3.086  -0.834   0.091  1.00  0.00     0.051 A 
BRANCH  19  22
HETATM   22  O1  UNL     1       6.756  -0.484  -0.419  1.00  0.00    -0.358 OA
HETATM   23  H4  UNL     1       7.234   0.122  -1.096  1.00  0.00     0.217 HD
ENDBRANCH  19  22
BRANCH  20  24
HETATM   24  O2  UNL     1       4.849  -2.518  -0.388  1.00  0.00    -0.358 OA
HETATM   25  H5  UNL     1       5.326  -2.993   0.357  1.00  0.00     0.217 HD
ENDBRANCH  20  24
ENDBRANCH   4  16
TORSDOF 7
