REMARK  8 active torsions:
REMARK  status: ('A' for Active; 'I' for Inactive)
REMARK    1  A    between atoms: C2_2  and  C3_3 
REMARK    2  A    between atoms: C2_2  and  N1_10 
REMARK    3  A    between atoms: C4_4  and  C5_5 
REMARK    4  A    between atoms: C5_5  and  C6_6 
REMARK       I    between atoms: N1_10  and  C7_11 
REMARK    5  A    between atoms: C7_11  and  C8_13 
REMARK    6  A    between atoms: C13_18  and  N2_19 
REMARK    7  A    between atoms: N2_19  and  C14_20 
REMARK    8  A    between atoms: C14_20  and  C15_21 
ROOT
HETATM    1  C8  UNL     1       0.336  -1.226  -1.155  1.00  0.00     0.058 A 
HETATM    2  C9  UNL     1       0.318  -1.395  -2.517  1.00  0.00     0.019 A 
HETATM    3  C10 UNL     1       1.383  -1.982  -3.161  1.00  0.00     0.001 A 
HETATM    4  C11 UNL     1       2.486  -2.409  -2.435  1.00  0.00     0.002 A 
HETATM    5  C12 UNL     1       2.457  -2.218  -1.071  1.00  0.00     0.030 A 
HETATM    6  C13 UNL     1       1.408  -1.633  -0.393  1.00  0.00     0.044 A 
ENDROOT
BRANCH   1   7
HETATM    7  C7  UNL     1      -0.809  -0.600  -0.525  1.00  0.00     0.254 C 
HETATM    8  N1  UNL     1      -1.913  -0.177  -1.276  1.00  0.00    -0.349 N 
HETATM    9  H9  UNL     1      -2.029  -0.262  -2.331  1.00  0.00     0.163 HD
HETATM   10  O1  UNL     1      -1.135  -0.291   0.644  1.00  0.00    -0.268 OA
BRANCH   8  11
HETATM   11  C2  UNL     1      -3.149   0.464  -0.847  1.00  0.00     0.103 C 
HETATM   12  C1  UNL     1      -4.248  -0.556  -1.102  1.00  0.00     0.036 C 
BRANCH  11  13
HETATM   13  C3  UNL     1      -3.392   1.772  -1.454  1.00  0.00    -0.006 C 
HETATM   14  C4  UNL     1      -4.365   2.384  -2.072  1.00  0.00    -0.020 C 
BRANCH  14  15
HETATM   15  C5  UNL     1      -5.732   2.055  -2.474  1.00  0.00     0.144 C 
BRANCH  15  16
HETATM   16  C6  UNL     1      -6.766   2.976  -1.861  1.00  0.00     0.390 C 
HETATM   17  F1  UNL     1      -6.676   2.868  -0.484  1.00  0.00    -0.171 F 
HETATM   18  F2  UNL     1      -6.633   4.286  -2.274  1.00  0.00    -0.171 F 
HETATM   19  F3  UNL     1      -8.025   2.534  -2.221  1.00  0.00    -0.171 F 
ENDBRANCH  15  16
ENDBRANCH  14  15
ENDBRANCH  11  13
ENDBRANCH   8  11
ENDBRANCH   1   7
BRANCH   6  20
HETATM   20  N2  UNL     1       1.488  -1.516   1.014  1.00  0.00    -0.386 N 
HETATM   21  H14 UNL     1       0.728  -1.121   1.605  1.00  0.00     0.160 HD
BRANCH  20  22
HETATM   22  C14 UNL     1       2.640  -1.929   1.816  1.00  0.00     0.148 C 
BRANCH  22  23
HETATM   23  C15 UNL     1       3.776  -1.011   1.610  1.00  0.00     0.005 C 
HETATM   24  C16 UNL     1       4.366  -0.300   2.540  1.00  0.00    -0.021 A 
HETATM   25  C17 UNL     1       3.983  -0.304   3.953  1.00  0.00     0.010 A 
HETATM   26  C20 UNL     1       5.491   0.599   2.306  1.00  0.00     0.121 A 
HETATM   27  C18 UNL     1       4.594   0.423   4.879  1.00  0.00    -0.004 A 
HETATM   28  C19 UNL     1       5.720   1.299   4.537  1.00  0.00     0.175 A 
HETATM   29  N3  UNL     1       6.101   1.310   3.162  1.00  0.00    -0.297 NA
ENDBRANCH  22  23
ENDBRANCH  20  22
ENDBRANCH   6  20
TORSDOF 8
