REMARK  7 active torsions:
REMARK  status: ('A' for Active; 'I' for Inactive)
REMARK    1  A    between atoms: O1_2  and  C2_3 
REMARK    2  A    between atoms: N1_7  and  C6_8 
REMARK    3  A    between atoms: C6_8  and  C7_9 
REMARK    4  A    between atoms: C7_9  and  N2_10 
REMARK       I    between atoms: N2_10  and  C8_11 
REMARK       I    between atoms: C8_11  and  N3_13 
REMARK    5  A    between atoms: N3_13  and  C9_14 
REMARK    6  A    between atoms: C12_17  and  O3_18 
REMARK    7  A    between atoms: O3_18  and  C13_19 
ROOT
HETATM    1  N2  UNL     1       1.399   0.459  -1.350  1.00  0.00    -0.341 N 
HETATM    2  C8  UNL     1       0.185   0.382  -0.622  1.00  0.00     0.320 C 
HETATM    3  O2  UNL     1       0.333   0.330   0.610  1.00  0.00    -0.247 OA
HETATM    4  N3  UNL     1      -1.093   0.363  -1.211  1.00  0.00    -0.309 N 
HETATM    5  H11 UNL     1       1.357   0.504  -2.401  1.00  0.00     0.164 HD
HETATM    6  H12 UNL     1      -1.024   0.415  -2.252  1.00  0.00     0.170 HD
ENDROOT
BRANCH   1   7
HETATM    7  C7  UNL     1       2.698   0.478  -0.703  1.00  0.00     0.144 C 
BRANCH   7   8
HETATM    8  C6  UNL     1       3.817   0.564  -1.722  1.00  0.00     0.142 C 
BRANCH   8   9
HETATM    9  N1  UNL     1       5.070   0.580  -0.999  1.00  0.00    -0.382 N 
HETATM   10  C5  UNL     1       5.892   1.751  -0.979  1.00  0.00     0.086 A 
HETATM   11  C4  UNL     1       7.046   1.893  -0.367  1.00  0.00     0.019 A 
HETATM   12  C3  UNL     1       7.567   0.771   0.370  1.00  0.00     0.035 A 
HETATM   13  C2  UNL     1       6.839  -0.315   0.372  1.00  0.00     0.063 A 
HETATM   14  C18 UNL     1       5.549  -0.559  -0.277  1.00  0.00     0.186 A 
BRANCH  13  15
HETATM   15  O1  UNL     1       7.422  -1.345   1.108  1.00  0.00    -0.359 OA
HETATM   16  C1  UNL     1       6.571  -2.170   1.876  1.00  0.00     0.209 C 
ENDBRANCH  13  15
ENDBRANCH   8   9
ENDBRANCH   7   8
ENDBRANCH   1   7
BRANCH   4  17
HETATM   17  C9  UNL     1      -2.341   0.286  -0.554  1.00  0.00     0.036 A 
HETATM   18  C10 UNL     1      -3.443   0.290  -1.376  1.00  0.00     0.032 A 
HETATM   19  C11 UNL     1      -4.717   0.218  -0.882  1.00  0.00     0.039 A 
HETATM   20  C12 UNL     1      -5.010   0.137   0.455  1.00  0.00     0.069 A 
HETATM   21  C16 UNL     1      -3.892   0.133   1.299  1.00  0.00     0.039 A 
HETATM   22  C17 UNL     1      -2.597   0.207   0.773  1.00  0.00     0.032 A 
BRANCH  20  23
HETATM   23  O3  UNL     1      -6.177   0.057   1.174  1.00  0.00    -0.347 OA
BRANCH  23  24
HETATM   24  C13 UNL     1      -7.418   0.047   0.542  1.00  0.00     0.120 C 
HETATM   25  C14 UNL     1      -8.075  -1.298   0.778  1.00  0.00     0.040 C 
HETATM   26  C15 UNL     1      -8.261   1.176   1.094  1.00  0.00     0.040 C 
ENDBRANCH  23  24
ENDBRANCH  20  23
ENDBRANCH   4  17
TORSDOF 7
