REMARK  8 active torsions:
REMARK  status: ('A' for Active; 'I' for Inactive)
REMARK    1  A    between atoms: O1_2  and  C2_3 
REMARK    2  A    between atoms: C6_9  and  N3_10 
REMARK    3  A    between atoms: N3_10  and  C7_11 
REMARK    4  A    between atoms: C12_17  and  O2_18 
REMARK    5  A    between atoms: C15_21  and  C16_22 
REMARK    6  A    between atoms: C16_22  and  N4_23 
REMARK    7  A    between atoms: C18_25  and  C19_26 
REMARK    8  A    between atoms: C19_26  and  N5_27 
ROOT
HETATM    1  C2  UNL     1       1.269  -2.510   0.037  1.00  0.00     0.078 A 
HETATM    2  C3  UNL     1       0.092  -3.180   0.306  1.00  0.00     0.070 A 
HETATM    3  C4  UNL     1      -1.081  -2.465   0.274  1.00  0.00     0.074 A 
HETATM    4  N1  UNL     1      -2.215  -3.118   0.536  1.00  0.00    -0.241 NA
HETATM    5  C5  UNL     1      -3.412  -2.482   0.524  1.00  0.00     0.236 A 
HETATM    6  N2  UNL     1      -3.427  -1.158   0.237  1.00  0.00    -0.224 NA
HETATM    7  C6  UNL     1      -2.322  -0.463  -0.031  1.00  0.00     0.142 A 
HETATM    8  C13 UNL     1      -1.112  -1.120  -0.016  1.00  0.00     0.039 A 
HETATM    9  C14 UNL     1       0.044  -0.433  -0.287  1.00  0.00     0.029 A 
HETATM   10  C15 UNL     1       1.214  -1.168  -0.250  1.00  0.00     0.004 A 
ENDROOT
BRANCH   7  11
HETATM   11  N3  UNL     1      -2.455   0.923  -0.317  1.00  0.00    -0.338 N 
HETATM   12  H6  UNL     1      -1.752   1.626  -0.548  1.00  0.00     0.167 HD
BRANCH  11  13
HETATM   13  C7  UNL     1      -3.773   1.485  -0.292  1.00  0.00     0.069 A 
HETATM   14  C8  UNL     1      -4.181   2.505   0.538  1.00  0.00     0.032 A 
HETATM   15  C9  UNL     1      -5.480   2.971   0.478  1.00  0.00     0.004 A 
HETATM   16  C10 UNL     1      -6.388   2.417  -0.417  1.00  0.00     0.027 A 
HETATM   17  C11 UNL     1      -5.947   1.385  -1.244  1.00  0.00     0.069 A 
HETATM   18 CL1  UNL     1      -7.178   0.772  -2.322  1.00  0.00    -0.081 Cl
HETATM   19  C12 UNL     1      -4.654   0.900  -1.206  1.00  0.00     0.114 A 
BRANCH  19  20
HETATM   20  O2  UNL     1      -4.392  -0.116  -2.088  1.00  0.00    -0.357 OA
HETATM   21  H10 UNL     1      -3.565  -0.016  -2.688  1.00  0.00     0.218 HD
ENDBRANCH  19  20
ENDBRANCH  11  13
ENDBRANCH   7  11
BRANCH  10  22
HETATM   22  C16 UNL     1       2.524  -0.502  -0.531  1.00  0.00     0.313 C 
BRANCH  22  23
HETATM   23  N4  UNL     1       3.230  -0.292   0.742  1.00  0.00     0.093 N 
HETATM   24  C17 UNL     1       4.510   0.345   0.526  1.00  0.00     0.280 A 
HETATM   25  C18 UNL     1       4.079   1.528   1.352  1.00  0.00     0.070 A 
HETATM   26  C20 UNL     1       2.713   0.878   1.445  1.00  0.00     0.280 A 
BRANCH  25  27
HETATM   27  C19 UNL     1       3.984   2.829   0.586  1.00  0.00     0.274 C 
BRANCH  27  28
HETATM   28  N5  UNL     1       5.281   3.190   0.008  1.00  0.00     0.078 N 
HETATM   29  H19 UNL     1       5.280   2.774  -0.957  1.00  0.00     0.312 HD
HETATM   30  H20 UNL     1       6.036   2.745   0.596  1.00  0.00     0.312 HD
ENDBRANCH  27  28
ENDBRANCH  25  27
ENDBRANCH  22  23
ENDBRANCH  10  22
BRANCH   1  31
HETATM   31  O1  UNL     1       2.445  -3.245   0.074  1.00  0.00    -0.355 OA
HETATM   32  C1  UNL     1       2.480  -4.609   0.367  1.00  0.00     0.210 C 
ENDBRANCH   1  31
TORSDOF 8
