REMARK  5 active torsions:
REMARK  status: ('A' for Active; 'I' for Inactive)
REMARK    1  A    between atoms: C5_6  and  O1_7 
REMARK    2  A    between atoms: C6_8  and  O2_9 
REMARK    3  A    between atoms: C10_13  and  N2_14 
REMARK    4  A    between atoms: N2_14  and  C11_15 
REMARK    5  A    between atoms: C12_16  and  O3_17 
ROOT
HETATM    1  N1  UNL     1       0.183   2.131   3.685  1.00  0.00    -0.192 NA
HETATM    2  C1  UNL     1      -0.294   1.518   2.779  1.00  0.00     0.097 C 
HETATM    3  C2  UNL     1      -0.909   0.762   1.668  1.00  0.00     0.048 A 
HETATM    4  C3  UNL     1      -2.076   0.130   1.819  1.00  0.00     0.023 A 
HETATM    5  C4  UNL     1      -3.270  -0.674   1.521  1.00  0.00     0.040 A 
HETATM    6  C5  UNL     1      -3.652  -1.285   0.422  1.00  0.00     0.098 A 
HETATM    7  C6  UNL     1      -3.228  -1.537  -0.973  1.00  0.00     0.098 A 
HETATM    8  C7  UNL     1      -2.167  -1.189  -1.716  1.00  0.00     0.039 A 
HETATM    9  C8  UNL     1      -0.893  -0.441  -1.676  1.00  0.00     0.001 A 
HETATM   10  C9  UNL     1      -0.365   0.244  -0.656  1.00  0.00     0.004 A 
HETATM   11  C10 UNL     1       0.056   0.933   0.549  1.00  0.00     0.148 A 
ENDROOT
BRANCH  11  12
HETATM   12  N2  UNL     1       1.380   0.510   1.049  1.00  0.00    -0.378 N 
HETATM   13  H9  UNL     1       1.959   0.143   1.832  1.00  0.00     0.160 HD
BRANCH  12  14
HETATM   14  C11 UNL     1       2.375   0.618   0.055  1.00  0.00     0.043 C 
HETATM   15  C12 UNL     1       2.863  -0.327  -0.771  1.00  0.00     0.089 C 
HETATM   16  C13 UNL     1       3.915  -0.002  -1.745  1.00  0.00     0.050 C 
HETATM   17  C14 UNL     1       4.715   1.005  -1.523  1.00  0.00    -0.027 C 
HETATM   18  C15 UNL     1       4.267   1.992  -0.772  1.00  0.00    -0.008 C 
HETATM   19  C16 UNL     1       2.937   1.983  -0.058  1.00  0.00     0.087 C 
BRANCH  15  20
HETATM   20  O3  UNL     1       2.251  -1.566  -0.563  1.00  0.00    -0.359 OA
HETATM   21  H10 UNL     1       2.288  -1.959   0.366  1.00  0.00     0.217 HD
ENDBRANCH  15  20
ENDBRANCH  12  14
ENDBRANCH  11  12
BRANCH   6  22
HETATM   22  O1  UNL     1      -4.897  -1.926   0.661  1.00  0.00    -0.358 OA
HETATM   23  H3  UNL     1      -4.973  -2.805   1.126  1.00  0.00     0.217 HD
ENDBRANCH   6  22
BRANCH   7  24
HETATM   24  O2  UNL     1      -4.141  -2.328  -1.719  1.00  0.00    -0.358 OA
HETATM   25  H4  UNL     1      -4.146  -3.327  -1.475  1.00  0.00     0.217 HD
ENDBRANCH   7  24
TORSDOF 5
