REMARK  4 active torsions:
REMARK  status: ('A' for Active; 'I' for Inactive)
REMARK    1  A    between atoms: C10_12  and  O1_13 
REMARK    2  A    between atoms: C11_14  and  N1_15 
REMARK    3  A    between atoms: N1_15  and  C12_16 
REMARK    4  A    between atoms: C12_16  and  C14_18 
REMARK       I    between atoms: C14_18  and  N2_19 
ROOT
HETATM    1  C1  UNL     1       4.305   0.315  -1.951  1.00  0.00     0.049 C 
HETATM    2  C2  UNL     1       3.243   0.753  -0.978  1.00  0.00    -0.015 C 
HETATM    3  C3  UNL     1       2.067   1.389  -1.041  1.00  0.00     0.148 C 
HETATM    4  F1  UNL     1       1.293   1.092  -2.111  1.00  0.00    -0.203 F 
HETATM    5  C4  UNL     1       2.313   2.192   0.212  1.00  0.00     0.089 C 
HETATM    6  C5  UNL     1       3.565   1.950   0.754  1.00  0.00     0.038 C 
HETATM    7  C6  UNL     1       3.179   0.521   0.569  1.00  0.00     0.091 C 
HETATM    8 CL1  UNL     1       4.470  -0.583   1.036  1.00  0.00    -0.109 Cl
HETATM    9  C7  UNL     1       1.864   0.220   1.144  1.00  0.00     0.062 C 
HETATM   10  C8  UNL     1       1.356  -1.080   1.414  1.00  0.00    -0.019 C 
HETATM   11  C9  UNL     1       0.015  -1.188   1.615  1.00  0.00     0.007 C 
HETATM   12  C10 UNL     1      -1.117  -0.261   1.631  1.00  0.00     0.190 C 
HETATM   13  C11 UNL     1      -1.601   0.327   0.397  1.00  0.00     0.038 C 
HETATM   14  C15 UNL     1      -1.427   1.268  -0.479  1.00  0.00     0.029 C 
HETATM   15  C16 UNL     1      -0.634   2.383  -0.847  1.00  0.00     0.021 C 
HETATM   16  C17 UNL     1       0.331   3.264  -0.757  1.00  0.00     0.113 C 
HETATM   17  N3  UNL     1       0.954   2.799   0.471  1.00  0.00    -0.268 N 
HETATM   18  N4  UNL     1       0.842   2.557   1.953  1.00  0.00    -0.127 NA
HETATM   19  C18 UNL     1       1.330   1.268   2.183  1.00  0.00     0.132 C 
ENDROOT
BRANCH  13  20
HETATM   20  N1  UNL     1      -2.676  -0.548  -0.039  1.00  0.00    -0.378 N 
HETATM   21  H10 UNL     1      -3.557  -0.352   0.489  1.00  0.00     0.160 HD
BRANCH  20  22
HETATM   22  C12 UNL     1      -2.682  -1.592  -1.054  1.00  0.00     0.169 C 
HETATM   23  C13 UNL     1      -1.690  -2.691  -0.780  1.00  0.00     0.042 C 
BRANCH  22  24
HETATM   24  C14 UNL     1      -4.041  -2.193  -1.144  1.00  0.00     0.237 C 
HETATM   25  N2  UNL     1      -5.095  -1.724  -0.309  1.00  0.00    -0.368 N 
HETATM   26  H15 UNL     1      -5.907  -1.187   0.047  1.00  0.00     0.159 HD
HETATM   27  H16 UNL     1      -5.013  -2.321   0.533  1.00  0.00     0.159 HD
HETATM   28  O2  UNL     1      -4.241  -3.125  -1.976  1.00  0.00    -0.271 OA
ENDBRANCH  22  24
ENDBRANCH  20  22
ENDBRANCH  13  20
BRANCH  12  29
HETATM   29  O1  UNL     1      -2.197  -0.817   2.412  1.00  0.00    -0.386 OA
HETATM   30  H9  UNL     1      -2.178  -1.766   2.089  1.00  0.00     0.210 HD
ENDBRANCH  12  29
TORSDOF 4
