REMARK  10 active torsions:
REMARK  status: ('A' for Active; 'I' for Inactive)
REMARK    1  A    between atoms: C2_2  and  C3_3 
REMARK    2  A    between atoms: C4_4  and  N1_5 
REMARK    3  A    between atoms: N1_5  and  C5_6 
REMARK    4  A    between atoms: C10_14  and  O1_15 
REMARK    5  A    between atoms: O1_15  and  C11_16 
REMARK    6  A    between atoms: C13_18  and  N4_19 
REMARK       I    between atoms: N4_19  and  C14_20 
REMARK    7  A    between atoms: C14_20  and  C15_22 
REMARK    8  A    between atoms: C15_22  and  C16_23 
REMARK    9  A    between atoms: C16_23  and  C17_24 
REMARK   10  A    between atoms: C17_24  and  N5_25 
ROOT
HETATM    1  C5  UNL     1      -3.459   0.032   0.661  1.00  0.00     0.065 A 
HETATM    2  C6  UNL     1      -4.557  -0.054   1.482  1.00  0.00     0.089 A 
HETATM    3  C7  UNL     1      -5.925  -0.084   0.981  1.00  0.00     0.103 C 
HETATM    4  N2  UNL     1      -7.015  -0.118   0.601  1.00  0.00    -0.191 NA
HETATM    5  C8  UNL     1      -4.473  -0.125   2.857  1.00  0.00     0.140 A 
HETATM    6  N3  UNL     1      -3.189  -0.101   3.331  1.00  0.00    -0.276 NA
HETATM    7  C9  UNL     1      -2.281  -0.016   2.395  1.00  0.00     0.003 A 
HETATM    8  B1  UNL     1      -0.344   0.013   3.413  1.00  0.00     0.286 B 
HETATM    9  C10 UNL     1       0.666   0.114   2.056  1.00  0.00     0.027 A 
HETATM   10  C13 UNL     1       0.252   0.167   0.774  1.00  0.00     0.053 A 
HETATM   11  C20 UNL     1      -1.022   0.141   0.370  1.00  0.00     0.045 A 
HETATM   12  C21 UNL     1      -2.157   0.061   1.054  1.00  0.00     0.007 A 
ENDROOT
BRANCH   1  13
HETATM   13  N1  UNL     1      -3.641   0.106  -0.734  1.00  0.00    -0.364 N 
HETATM   14  H6  UNL     1      -2.966   0.163  -1.515  1.00  0.00     0.165 HD
BRANCH  13  15
HETATM   15  C4  UNL     1      -4.882   0.113  -1.397  1.00  0.00     0.088 C 
HETATM   16  C3  UNL     1      -5.375  -0.867  -2.135  1.00  0.00     0.013 C 
BRANCH  16  17
HETATM   17  C2  UNL     1      -6.669  -0.722  -2.759  1.00  0.00    -0.025 C 
HETATM   18  C1  UNL     1      -7.062  -1.747  -3.466  1.00  0.00     0.031 C 
ENDBRANCH  16  17
ENDBRANCH  13  15
ENDBRANCH   1  13
BRANCH  10  19
HETATM   19  N4  UNL     1       1.351   0.258  -0.119  1.00  0.00    -0.322 N 
HETATM   20  C14 UNL     1       1.887   1.501  -0.534  1.00  0.00     0.245 C 
HETATM   21  O2  UNL     1       1.551   2.674  -0.239  1.00  0.00    -0.268 OA
HETATM   22  H13 UNL     1       1.769  -0.628  -0.476  1.00  0.00     0.169 HD
BRANCH  20  23
HETATM   23  C15 UNL     1       3.012   1.481  -1.453  1.00  0.00     0.072 C 
BRANCH  23  24
HETATM   24  C16 UNL     1       3.736   0.555  -2.060  1.00  0.00     0.008 C 
BRANCH  24  25
HETATM   25  C17 UNL     1       4.852   0.309  -2.974  1.00  0.00     0.299 C 
BRANCH  25  26
HETATM   26  N5  UNL     1       5.918  -0.465  -2.361  1.00  0.00     0.083 N 
HETATM   27  C18 UNL     1       6.542   0.353  -1.345  1.00  0.00     0.309 C 
HETATM   28  C19 UNL     1       5.429  -1.683  -1.765  1.00  0.00     0.309 C 
ENDBRANCH  25  26
ENDBRANCH  24  25
ENDBRANCH  23  24
ENDBRANCH  20  23
ENDBRANCH  10  19
BRANCH   9  29
HETATM   29  O1  UNL     1       1.862   0.118   2.685  1.00  0.00    -0.366 OA
BRANCH  29  30
HETATM   30  C11 UNL     1       2.083   0.056   4.059  1.00  0.00     0.169 C 
HETATM   31  C12 UNL     1       1.475   1.183   4.836  1.00  0.00     0.034 C 
ENDBRANCH  29  30
ENDBRANCH   9  29
TORSDOF 10
