REMARK  4 active torsions:
REMARK  status: ('A' for Active; 'I' for Inactive)
REMARK    1  A    between atoms: O1_1  and  C1_2 
REMARK    2  A    between atoms: C2_3  and  C3_4 
REMARK    3  A    between atoms: C12_16  and  C13_17 
REMARK    4  A    between atoms: C13_17  and  N3_18 
ROOT
HETATM    1  C3  UNL     1      -1.601   1.150   0.550  1.00  0.00    -0.045 A 
HETATM    2  C4  UNL     1      -1.941   0.607   1.664  1.00  0.00     0.009 A 
HETATM    3  C5  UNL     1      -0.813  -0.321   1.692  1.00  0.00     0.147 A 
HETATM    4  N1  UNL     1      -1.195  -1.667   1.630  1.00  0.00    -0.273 NA
HETATM    5  C6  UNL     1      -2.196  -2.384   1.696  1.00  0.00     0.226 C 
HETATM    6  N2  UNL     1      -2.629  -3.770   1.639  1.00  0.00    -0.258 NA
HETATM    7  C7  UNL     1      -2.705  -4.179   0.370  1.00  0.00     0.099 C 
HETATM    8  C8  UNL     1      -2.478  -3.674  -1.025  1.00  0.00     0.069 C 
HETATM    9  C9  UNL     1      -2.203  -2.975  -2.143  1.00  0.00     0.160 C 
HETATM   10  O2  UNL     1      -1.765  -1.657  -2.451  1.00  0.00    -0.382 OA
HETATM   11  C10 UNL     1      -1.848  -0.679  -1.389  1.00  0.00     0.169 C 
HETATM   12  C11 UNL     1      -0.467  -0.637  -0.763  1.00  0.00     0.045 C 
HETATM   13  C12 UNL     1      -0.407   0.311   0.407  1.00  0.00     0.041 A 
ENDROOT
BRANCH  13  14
HETATM   14  C13 UNL     1       0.815   1.153   0.579  1.00  0.00     0.289 C 
BRANCH  14  15
HETATM   15  N3  UNL     1       2.093   0.618   0.524  1.00  0.00     0.089 N 
HETATM   16  C14 UNL     1       3.093   1.631   0.857  1.00  0.00     0.272 C 
HETATM   17  C15 UNL     1       3.800   2.069  -0.373  1.00  0.00     0.030 C 
HETATM   18  C16 UNL     1       4.783   0.985  -0.781  1.00  0.00     0.003 C 
HETATM   19  C17 UNL     1       4.104  -0.324  -0.461  1.00  0.00     0.030 C 
HETATM   20  C18 UNL     1       2.576  -0.141  -0.555  1.00  0.00     0.272 C 
ENDBRANCH  14  15
ENDBRANCH  13  14
BRANCH   1  21
HETATM   21  C2  UNL     1      -2.244   2.214  -0.201  1.00  0.00     0.031 C 
HETATM   22  C1  UNL     1      -3.333   2.850   0.127  1.00  0.00     0.132 C 
BRANCH  22  23
HETATM   23  O1  UNL     1      -4.376   3.044   1.008  1.00  0.00    -0.373 OA
HETATM   24  H1  UNL     1      -4.682   2.400   1.713  1.00  0.00     0.216 HD
ENDBRANCH  22  23
ENDBRANCH   1  21
TORSDOF 4
