REMARK  1 active torsions:
REMARK  status: ('A' for Active; 'I' for Inactive)
REMARK       I    between atoms: N1_7  and  C7_8 
REMARK       I    between atoms: C7_8  and  N2_10 
REMARK    1  A    between atoms: N3_13  and  C10_14 
ROOT
HETATM    1  C10 UNL     1      -5.519   1.206   2.305  1.00  0.00     0.114 C 
HETATM    2  C11 UNL     1      -6.220   1.554   1.205  1.00  0.00     0.417 C 
HETATM    3  F1  UNL     1      -7.075   1.961   0.246  1.00  0.00    -0.429 F 
ENDROOT
BRANCH   1   4
HETATM    4  N3  UNL     1      -4.346   0.743   1.684  1.00  0.00    -0.385 N 
HETATM    5  C9  UNL     1      -4.134  -0.624   2.058  1.00  0.00     0.142 C 
HETATM    6  C8  UNL     1      -3.233  -1.372   1.075  1.00  0.00     0.146 C 
HETATM    7  N2  UNL     1      -2.096  -0.590   0.776  1.00  0.00    -0.336 N 
HETATM    8  C7  UNL     1      -0.759  -1.059   0.513  1.00  0.00     0.350 C 
HETATM    9  C13 UNL     1      -2.103   0.846   0.694  1.00  0.00     0.146 C 
HETATM   10  N1  UNL     1       0.408  -0.247   0.183  1.00  0.00     0.018 N 
HETATM   11  O1  UNL     1      -1.392  -2.191   0.754  1.00  0.00    -0.144 OA
HETATM   12  C6  UNL     1       1.700  -0.875  -0.018  1.00  0.00     0.184 A 
HETATM   13  H8  UNL     1       0.566  -1.216   0.264  1.00  0.00     0.327 HD
HETATM   14  C14 UNL     1       1.558   0.371  -0.874  1.00  0.00     0.241 A 
HETATM   15  C5  UNL     1       2.458  -1.968   0.066  1.00  0.00     0.030 C 
HETATM   16  C4  UNL     1       3.892  -1.876  -0.368  1.00  0.00    -0.014 C 
HETATM   17  C3  UNL     1       4.961  -1.195  -0.883  1.00  0.00     0.049 C 
HETATM   18  C2  UNL     1       4.888   0.324  -1.361  1.00  0.00     0.122 C 
HETATM   19  C1  UNL     1       6.219   0.873  -1.441  1.00  0.00     0.040 C 
HETATM   20  O2  UNL     1       4.304   0.144  -2.648  1.00  0.00    -0.385 OA
HETATM   21  C16 UNL     1       2.974  -0.012  -2.496  1.00  0.00     0.175 C 
HETATM   22  C15 UNL     1       2.052   0.942  -1.992  1.00  0.00     0.051 C 
HETATM   23  C12 UNL     1      -3.454   1.447   0.799  1.00  0.00     0.142 C 
ENDBRANCH   1   4
TORSDOF 1
