REMARK  7 active torsions:
REMARK  status: ('A' for Active; 'I' for Inactive)
REMARK    1  A    between atoms: C2_2  and  C3_4 
REMARK    2  A    between atoms: C5_6  and  N1_7 
REMARK       I    between atoms: N1_7  and  C6_8 
REMARK    3  A    between atoms: C6_8  and  C7_10 
REMARK    4  A    between atoms: C8_11  and  C9_12 
REMARK    5  A    between atoms: C9_12  and  N2_13 
REMARK    6  A    between atoms: C14_18  and  C15_19 
REMARK    7  A    between atoms: C16_20  and  C17_21 
ROOT
HETATM    1  C3  UNL     1       2.250   1.089  -1.029  1.00  0.00     0.114 C 
HETATM    2  C4  UNL     1       0.766   1.288  -1.050  1.00  0.00     0.101 C 
HETATM    3  C5  UNL     1       0.305   0.224  -0.086  1.00  0.00     0.012 C 
HETATM    4  C12 UNL     1       1.307   0.004   0.768  1.00  0.00     0.011 C 
HETATM    5  C13 UNL     1       2.449   0.855   0.458  1.00  0.00     0.083 C 
HETATM    6  C14 UNL     1       3.782   0.212   0.559  1.00  0.00    -0.049 C 
HETATM    7  C18 UNL     1       4.652   1.033  -0.015  1.00  0.00     0.007 C 
HETATM    8  C19 UNL     1       4.174   2.324  -0.597  1.00  0.00     0.197 C 
HETATM    9  O2  UNL     1       3.007   2.206  -1.331  1.00  0.00    -0.369 OA
ENDROOT
BRANCH   3  10
HETATM   10  N1  UNL     1      -1.009  -0.369  -0.178  1.00  0.00    -0.328 N 
HETATM   11  C6  UNL     1      -2.045   0.594  -0.042  1.00  0.00     0.245 C 
HETATM   12  O1  UNL     1      -1.784   1.811   0.137  1.00  0.00    -0.268 OA
HETATM   13  H5  UNL     1      -1.251  -1.378  -0.326  1.00  0.00     0.169 HD
BRANCH  11  14
HETATM   14  C7  UNL     1      -3.428   0.142  -0.113  1.00  0.00     0.072 C 
HETATM   15  C8  UNL     1      -4.408   1.012   0.010  1.00  0.00     0.008 C 
BRANCH  15  16
HETATM   16  C9  UNL     1      -5.880   0.908  -0.011  1.00  0.00     0.299 C 
BRANCH  16  17
HETATM   17  N2  UNL     1      -6.277  -0.477  -0.206  1.00  0.00     0.083 N 
HETATM   18  C10 UNL     1      -7.736  -0.549  -0.256  1.00  0.00     0.309 C 
HETATM   19  C11 UNL     1      -5.893  -1.261   0.959  1.00  0.00     0.309 C 
ENDBRANCH  16  17
ENDBRANCH  15  16
ENDBRANCH  11  14
ENDBRANCH   3  10
BRANCH   1  20
HETATM   20  C2  UNL     1       2.712  -0.010  -1.879  1.00  0.00     0.038 C 
HETATM   21  C1  UNL     1       3.295  -1.149  -2.154  1.00  0.00     0.035 C 
HETATM   22 CL1  UNL     1       2.163   0.479  -3.484  1.00  0.00    -0.086 Cl
ENDBRANCH   1  20
BRANCH   6  23
HETATM   23  C15 UNL     1       4.073  -1.052   1.160  1.00  0.00     0.005 C 
HETATM   24  C16 UNL     1       5.125  -1.817   1.374  1.00  0.00    -0.011 C 
BRANCH  24  25
HETATM   25  C17 UNL     1       6.587  -1.899   1.164  1.00  0.00     0.141 C 
HETATM   26 CL2  UNL     1       7.351  -2.026   2.787  1.00  0.00    -0.126 Cl
ENDBRANCH  24  25
ENDBRANCH   6  23
TORSDOF 7
