REMARK  5 active torsions:
REMARK  status: ('A' for Active; 'I' for Inactive)
REMARK    1  A    between atoms: C5_7  and  N3_8 
REMARK    2  A    between atoms: N3_8  and  C6_9 
REMARK    3  A    between atoms: C9_12  and  O1_13 
REMARK    4  A    between atoms: O1_13  and  C10_14 
REMARK    5  A    between atoms: C10_14  and  C11_15 
ROOT
HETATM    1  N1  UNL     1       8.468  -1.286   0.433  1.00  0.00    -0.191 NA
HETATM    2  C1  UNL     1       7.408  -0.829   0.606  1.00  0.00     0.101 C 
HETATM    3  C2  UNL     1       6.102  -0.242   0.808  1.00  0.00     0.064 A 
HETATM    4  C3  UNL     1       6.040   0.925   1.535  1.00  0.00     0.138 A 
HETATM    5  N2  UNL     1       4.798   1.460   1.712  1.00  0.00    -0.269 NA
HETATM    6  C4  UNL     1       3.737   0.841   1.186  1.00  0.00     0.145 A 
HETATM    7  C5  UNL     1       3.732  -0.316   0.456  1.00  0.00     0.051 A 
HETATM    8  C19 UNL     1       4.977  -0.842   0.285  1.00  0.00     0.055 A 
ENDROOT
BRANCH   7   9
HETATM    9  N3  UNL     1       2.593  -0.922  -0.095  1.00  0.00    -0.355 N 
HETATM   10  H3  UNL     1       2.710  -1.969  -0.271  1.00  0.00     0.166 HD
BRANCH   9  11
HETATM   11  C6  UNL     1       1.318  -0.420  -0.464  1.00  0.00     0.034 A 
HETATM   12  C7  UNL     1       0.232  -1.267  -0.562  1.00  0.00     0.032 A 
HETATM   13  C8  UNL     1      -0.998  -0.779  -0.935  1.00  0.00     0.041 A 
HETATM   14  C9  UNL     1      -1.218   0.548  -1.225  1.00  0.00     0.090 A 
HETATM   15  C17 UNL     1      -0.138   1.437  -1.136  1.00  0.00     0.069 A 
HETATM   16 CL2  UNL     1      -0.299   3.161  -1.484  1.00  0.00    -0.081 Cl
HETATM   17  C18 UNL     1       1.094   0.911  -0.756  1.00  0.00     0.056 A 
BRANCH  14  18
HETATM   18  O1  UNL     1      -2.392   1.158  -1.607  1.00  0.00    -0.345 OA
BRANCH  18  19
HETATM   19  C10 UNL     1      -3.640   0.574  -1.787  1.00  0.00     0.210 C 
BRANCH  19  20
HETATM   20  C11 UNL     1      -4.221  -0.068  -0.594  1.00  0.00    -0.051 A 
HETATM   21  C12 UNL     1      -4.623  -1.303  -0.266  1.00  0.00     0.006 A 
HETATM   22  C13 UNL     1      -5.178  -1.662   1.032  1.00  0.00     0.014 A 
HETATM   23  C14 UNL     1      -5.332  -0.762   1.944  1.00  0.00    -0.006 A 
HETATM   24  C15 UNL     1      -4.942   0.455   1.698  1.00  0.00     0.027 A 
HETATM   25 CL1  UNL     1      -5.097   1.662   2.953  1.00  0.00    -0.088 Cl
HETATM   26  C16 UNL     1      -4.351   1.017   0.444  1.00  0.00     0.088 A 
ENDBRANCH  19  20
ENDBRANCH  18  19
ENDBRANCH  14  18
ENDBRANCH   9  11
ENDBRANCH   7   9
TORSDOF 5
