REMARK  6 active torsions:
REMARK  status: ('A' for Active; 'I' for Inactive)
REMARK    1  A    between atoms: C3_3  and  C4_4 
REMARK    2  A    between atoms: C4_4  and  C5_5 
REMARK    3  A    between atoms: N1_6  and  C6_7 
REMARK    4  A    between atoms: C6_7  and  C8_11 
REMARK    5  A    between atoms: C7_8  and  S1_9 
REMARK    6  A    between atoms: C16_20  and  N2_21 
ROOT
HETATM    1  C5  UNL     1      -0.034   0.224   0.413  1.00  0.00     0.095 C 
HETATM    2  N1  UNL     1      -0.968   0.811   1.044  1.00  0.00    -0.264 NA
ENDROOT
BRANCH   1   3
HETATM    3  C4  UNL     1       1.308   0.365   1.064  1.00  0.00     0.087 C 
BRANCH   3   4
HETATM    4  C3  UNL     1       2.413   0.219   0.081  1.00  0.00    -0.027 A 
HETATM    5  C2  UNL     1       3.425  -0.630  -0.016  1.00  0.00    -0.039 A 
HETATM    6  C1  UNL     1       3.568  -1.669   1.000  1.00  0.00     0.046 C 
HETATM    7  C16 UNL     1       4.255  -0.330  -1.212  1.00  0.00     0.271 A 
HETATM    8  C15 UNL     1       3.523   0.840  -1.764  1.00  0.00     0.037 A 
HETATM    9  C14 UNL     1       2.466   1.163  -1.031  1.00  0.00     0.039 A 
HETATM   10 CL1  UNL     1       1.492   2.523  -1.545  1.00  0.00    -0.084 Cl
BRANCH   7  11
HETATM   11  N2  UNL     1       5.522   0.165  -0.729  1.00  0.00     0.090 N 
HETATM   12  H15 UNL     1       5.497   1.194  -0.536  1.00  0.00     0.314 HD
HETATM   13  H16 UNL     1       5.968  -0.408  -0.010  1.00  0.00     0.314 HD
ENDBRANCH   7  11
ENDBRANCH   3   4
ENDBRANCH   1   3
BRANCH   2  14
HETATM   14  C6  UNL     1      -2.328   0.868   0.701  1.00  0.00     0.073 C 
HETATM   15  C7  UNL     1      -2.528   2.173   0.589  1.00  0.00     0.088 C 
BRANCH  15  16
HETATM   16  S1  UNL     1      -1.072   3.158   0.907  1.00  0.00    -0.062 SA
HETATM   17  I1  UNL     1      -1.726   5.464   1.431  1.00  0.00     0.001 I 
ENDBRANCH  15  16
BRANCH  14  18
HETATM   18  C8  UNL     1      -3.312  -0.189   0.505  1.00  0.00    -0.007 A 
HETATM   19  C9  UNL     1      -3.026  -1.528   0.640  1.00  0.00     0.014 A 
HETATM   20  C10 UNL     1      -4.068  -2.403   0.421  1.00  0.00     0.001 A 
HETATM   21  C11 UNL     1      -5.345  -1.992   0.082  1.00  0.00     0.000 A 
HETATM   22  C12 UNL     1      -5.591  -0.634  -0.044  1.00  0.00     0.001 A 
HETATM   23  C13 UNL     1      -4.570   0.266   0.168  1.00  0.00     0.014 A 
ENDBRANCH  14  18
ENDBRANCH   2  14
TORSDOF 6
