REMARK  1 active torsions:
REMARK  status: ('A' for Active; 'I' for Inactive)
REMARK    1  A    between atoms: C6_8  and  S1_9 
ROOT
HETATM    1  N1  UNL     1      -4.888  -0.929  -1.793  1.00  0.00    -0.191 NA
HETATM    2  C1  UNL     1      -3.756  -1.016  -1.608  1.00  0.00     0.105 C 
HETATM    3  C2  UNL     1      -2.356  -1.127  -1.403  1.00  0.00     0.107 C 
HETATM    4  C3  UNL     1      -1.428  -1.244  -2.417  1.00  0.00     0.143 C 
HETATM    5  N2  UNL     1       0.061  -1.254  -2.229  1.00  0.00    -0.267 NA
HETATM    6  C4  UNL     1       0.689  -0.406  -1.417  1.00  0.00     0.273 C 
HETATM    7  C5  UNL     1       0.143  -0.619  -0.026  1.00  0.00     0.095 C 
HETATM    8  C6  UNL     1       0.620   0.475   0.541  1.00  0.00     0.042 C 
HETATM    9  C9  UNL     1      -0.207   1.353   1.422  1.00  0.00     0.050 C 
HETATM   10 CL1  UNL     1       0.931   2.572   1.879  1.00  0.00    -0.083 Cl
HETATM   11  C10 UNL     1      -1.502   1.320   1.811  1.00  0.00     0.018 C 
HETATM   12  C11 UNL     1      -2.773   0.637   1.701  1.00  0.00     0.150 C 
HETATM   13  N4  UNL     1      -3.059  -0.213   0.587  1.00  0.00    -0.370 N 
HETATM   14  C12 UNL     1      -2.055  -1.051   0.056  1.00  0.00     0.146 C 
HETATM   15  N5  UNL     1      -0.871  -1.685   0.479  1.00  0.00    -0.227 NA
HETATM   16  H10 UNL     1      -3.819  -0.444  -0.023  1.00  0.00     0.161 HD
ENDROOT
BRANCH   8  17
HETATM   17  S1  UNL     1       2.199   0.694  -0.112  1.00  0.00    -0.153 SA
HETATM   18  N3  UNL     1       2.764  -0.803  -0.457  1.00  0.00    -0.191 NA
HETATM   19  C7  UNL     1       4.070  -0.641  -1.004  1.00  0.00     0.195 C 
HETATM   20  S2  UNL     1       4.910   0.309   0.293  1.00  0.00    -0.143 SA
HETATM   21  C8  UNL     1       3.452   0.908   1.204  1.00  0.00     0.142 C 
ENDBRANCH   8  17
TORSDOF 1
