REMARK  9 active torsions:
REMARK  status: ('A' for Active; 'I' for Inactive)
REMARK    1  A    between atoms: C1_2  and  P1_3 
REMARK    2  A    between atoms: P1_3  and  C2_4 
REMARK    3  A    between atoms: C2_4  and  C3_5 
REMARK    4  A    between atoms: C3_5  and  C4_7 
REMARK    5  A    between atoms: C5_8  and  C6_9 
REMARK    6  A    between atoms: C6_9  and  O1_10 
REMARK    7  A    between atoms: O1_10  and  C7_11 
REMARK    8  A    between atoms: C10_14  and  N1_15 
REMARK    9  A    between atoms: N1_15  and  C11_16 
ROOT
HETATM    1  C7  UNL     1      -0.090   0.237   0.776  1.00  0.00     0.090 A 
HETATM    2  C8  UNL     1      -0.747   1.195   1.500  1.00  0.00     0.041 A 
HETATM    3  C9  UNL     1      -2.105   1.342   1.332  1.00  0.00     0.032 A 
HETATM    4  C10 UNL     1      -2.783   0.518   0.434  1.00  0.00     0.030 A 
HETATM    5  C15 UNL     1      -2.145  -0.441  -0.294  1.00  0.00     0.056 A 
HETATM    6  C16 UNL     1      -0.766  -0.591  -0.124  1.00  0.00     0.069 A 
HETATM    7 CL1  UNL     1       0.033  -1.842  -1.082  1.00  0.00    -0.081 Cl
ENDROOT
BRANCH   1   8
HETATM    8  O1  UNL     1       1.252  -0.029   0.833  1.00  0.00    -0.346 OA
BRANCH   8   9
HETATM    9  C6  UNL     1       2.187   0.654   1.660  1.00  0.00     0.203 C 
BRANCH   9  10
HETATM   10  C5  UNL     1       3.544   0.108   1.467  1.00  0.00     0.003 C 
HETATM   11  C4  UNL     1       3.804  -0.880   0.628  1.00  0.00     0.049 C 
BRANCH  11  12
HETATM   12  C3  UNL     1       5.034  -1.607   0.243  1.00  0.00     0.162 C 
HETATM   13  F2  UNL     1       5.703  -2.705   0.731  1.00  0.00    -0.197 F 
BRANCH  12  14
HETATM   14  C2  UNL     1       5.634  -1.076  -0.816  1.00  0.00    -0.075 C 
BRANCH  14  15
HETATM   15  P1  UNL     1       6.598  -0.177  -1.834  1.00  0.00     0.031 P 
BRANCH  15  16
HETATM   16  C1  UNL     1       7.741   1.108  -1.079  1.00  0.00     0.274 C 
HETATM   17  F1  UNL     1       8.573   0.418  -0.195  1.00  0.00    -0.249 F 
ENDBRANCH  15  16
ENDBRANCH  14  15
ENDBRANCH  12  14
ENDBRANCH  11  12
ENDBRANCH   9  10
ENDBRANCH   8   9
ENDBRANCH   1   8
BRANCH   4  18
HETATM   18  N1  UNL     1      -4.200   0.673   0.259  1.00  0.00    -0.377 N 
HETATM   19  H9  UNL     1      -4.704   1.399   0.806  1.00  0.00     0.160 HD
BRANCH  18  20
HETATM   20  C11 UNL     1      -4.989  -0.126  -0.640  1.00  0.00     0.147 A 
HETATM   21  C12 UNL     1      -6.430   0.231  -0.636  1.00  0.00     0.022 A 
HETATM   22  C13 UNL     1      -7.167  -0.771  -0.179  1.00  0.00     0.114 A 
HETATM   23  N2  UNL     1      -6.288  -1.850   0.149  1.00  0.00    -0.275 NA
HETATM   24  C14 UNL     1      -5.060  -1.527  -0.096  1.00  0.00     0.118 A 
ENDBRANCH  18  20
ENDBRANCH   4  18
TORSDOF 9
