REMARK  3 active torsions:
REMARK  status: ('A' for Active; 'I' for Inactive)
REMARK    1  A    between atoms: O1_2  and  C2_3 
REMARK    2  A    between atoms: C11_14  and  N2_15 
REMARK    3  A    between atoms: N2_15  and  C12_16 
ROOT
HETATM    1  C12 UNL     1       3.867  -0.092   1.757  1.00  0.00     0.244 C 
HETATM    2  C13 UNL     1       3.509   0.908   2.777  1.00  0.00     0.078 C 
HETATM    3  N3  UNL     1       3.219   1.705   3.565  1.00  0.00    -0.196 NA
ENDROOT
BRANCH   1   4
HETATM    4  N2  UNL     1       3.205   0.094   0.510  1.00  0.00    -0.376 N 
HETATM    5  H8  UNL     1       3.768   0.289  -0.320  1.00  0.00     0.160 HD
BRANCH   4   6
HETATM    6  C11 UNL     1       1.888   0.083   0.093  1.00  0.00     0.059 C 
HETATM    7  C2  UNL     1       1.491   0.307  -1.252  1.00  0.00     0.096 C 
HETATM    8  C3  UNL     1       0.162   0.153  -1.751  1.00  0.00     0.070 C 
HETATM    9  C4  UNL     1      -1.145  -0.350  -1.381  1.00  0.00     0.055 C 
HETATM   10  N1  UNL     1      -1.061  -1.611  -0.647  1.00  0.00    -0.274 NA
HETATM   11  C17 UNL     1      -1.870   0.782  -2.002  1.00  0.00     0.043 C 
HETATM   12  C5  UNL     1      -1.134  -1.266   0.749  1.00  0.00     0.108 A 
HETATM   13  C6  UNL     1      -2.382  -1.589   0.951  1.00  0.00     0.046 A 
HETATM   14  C9  UNL     1      -0.179  -0.494   1.609  1.00  0.00     0.055 A 
HETATM   15  C8  UNL     1      -1.359  -1.007   1.391  1.00  0.00     0.083 A 
HETATM   16  C7  UNL     1      -3.626  -2.184   0.634  1.00  0.00     0.130 C 
HETATM   17 CL1  UNL     1      -3.503  -3.949   0.910  1.00  0.00    -0.129 Cl
HETATM   18  C10 UNL     1       1.076  -0.173   1.242  1.00  0.00     0.021 C 
HETATM   19  N4  UNL     1      -2.275   0.022   1.943  1.00  0.00    -0.405 N 
HETATM   20  C14 UNL     1      -2.663   0.724   0.685  1.00  0.00     0.143 C 
HETATM   21  H11 UNL     1      -2.505   0.150   2.942  1.00  0.00     0.154 HD
HETATM   22  C15 UNL     1      -1.674   1.557   0.051  1.00  0.00     0.004 C 
HETATM   23  C16 UNL     1      -2.162   1.781  -1.171  1.00  0.00    -0.026 C 
BRANCH   7  24
HETATM   24  O1  UNL     1       2.570   0.680  -1.934  1.00  0.00    -0.354 OA
HETATM   25  C1  UNL     1       2.516   0.981  -3.304  1.00  0.00     0.210 C 
ENDBRANCH   7  24
ENDBRANCH   4   6
ENDBRANCH   1   4
TORSDOF 3
