REMARK  9 active torsions:
REMARK  status: ('A' for Active; 'I' for Inactive)
REMARK    1  A    between atoms: C2_3  and  C3_4 
REMARK    2  A    between atoms: C3_4  and  N2_5 
REMARK    3  A    between atoms: N2_5  and  C4_6 
REMARK    4  A    between atoms: N4_12  and  C9_13 
REMARK    5  A    between atoms: C9_13  and  N5_14 
REMARK    6  A    between atoms: N5_14  and  C10_15 
REMARK    7  A    between atoms: C13_18  and  O1_19 
REMARK    8  A    between atoms: O1_19  and  C14_20 
REMARK    9  A    between atoms: C14_20  and  C15_21 
ROOT
HETATM    1  N1  UNL     1      -6.118   3.461   3.055  1.00  0.00    -0.197 NA
HETATM    2  C1  UNL     1      -5.640   2.420   3.145  1.00  0.00     0.067 C 
HETATM    3  C2  UNL     1      -5.046   1.119   3.236  1.00  0.00     0.139 C 
ENDROOT
BRANCH   3   4
HETATM    4  C3  UNL     1      -4.547   0.395   2.248  1.00  0.00     0.154 C 
BRANCH   4   5
HETATM    5  N2  UNL     1      -4.108  -0.121   1.023  1.00  0.00    -0.277 NA
BRANCH   5   6
HETATM    6  C4  UNL     1      -3.957  -1.432   0.935  1.00  0.00     0.097 A 
HETATM    7  C5  UNL     1      -4.175  -2.455   1.917  1.00  0.00     0.149 A 
HETATM    8  N3  UNL     1      -3.951  -3.662   1.509  1.00  0.00    -0.271 NA
HETATM    9  C6  UNL     1      -3.517  -3.905   0.157  1.00  0.00     0.118 A 
HETATM   10  C7  UNL     1      -3.302  -2.984  -0.787  1.00  0.00     0.053 A 
HETATM   11  C8  UNL     1      -3.504  -1.535  -0.516  1.00  0.00     0.084 A 
HETATM   12  N4  UNL     1      -3.306  -0.676  -1.414  1.00  0.00    -0.268 NA
BRANCH  12  13
HETATM   13  C9  UNL     1      -2.846  -1.101  -2.705  1.00  0.00     0.271 C 
BRANCH  13  14
HETATM   14  N5  UNL     1      -2.048  -0.007  -3.248  1.00  0.00    -0.372 N 
HETATM   15  H8  UNL     1      -2.369   0.541  -4.049  1.00  0.00     0.161 HD
BRANCH  14  16
HETATM   16  C10 UNL     1      -0.794   0.321  -2.663  1.00  0.00     0.031 A 
HETATM   17  C11 UNL     1      -0.253  -0.368  -1.596  1.00  0.00     0.032 A 
HETATM   18  C12 UNL     1       0.972  -0.092  -0.975  1.00  0.00     0.041 A 
HETATM   19  C13 UNL     1       1.703   0.985  -1.494  1.00  0.00     0.091 A 
HETATM   20  C21 UNL     1       1.213   1.702  -2.551  1.00  0.00     0.069 A 
HETATM   21 CL1  UNL     1       2.200   3.022  -3.127  1.00  0.00    -0.081 Cl
HETATM   22  C22 UNL     1      -0.001   1.360  -3.100  1.00  0.00     0.056 A 
BRANCH  19  23
HETATM   23  O1  UNL     1       2.902   1.190  -0.821  1.00  0.00    -0.345 OA
BRANCH  23  24
HETATM   24  C14 UNL     1       3.374   0.437   0.261  1.00  0.00     0.214 C 
BRANCH  24  25
HETATM   25  C15 UNL     1       4.680   0.893   0.762  1.00  0.00    -0.034 A 
HETATM   26  C16 UNL     1       4.703   1.866   1.774  1.00  0.00     0.009 A 
HETATM   27  C17 UNL     1       5.915   2.285   2.240  1.00  0.00     0.001 A 
HETATM   28  C18 UNL     1       7.153   1.808   1.777  1.00  0.00     0.000 A 
HETATM   29  C19 UNL     1       7.120   0.857   0.788  1.00  0.00     0.001 A 
HETATM   30  C20 UNL     1       5.892   0.436   0.320  1.00  0.00     0.009 A 
ENDBRANCH  24  25
ENDBRANCH  23  24
ENDBRANCH  19  23
ENDBRANCH  14  16
ENDBRANCH  13  14
ENDBRANCH  12  13
ENDBRANCH   5   6
ENDBRANCH   4   5
ENDBRANCH   3   4
TORSDOF 9
