REMARK  8 active torsions:
REMARK  status: ('A' for Active; 'I' for Inactive)
REMARK    1  A    between atoms: C2_2  and  C3_3 
REMARK    2  A    between atoms: C2_2  and  N2_12 
REMARK    3  A    between atoms: C3_3  and  P1_4 
REMARK    4  A    between atoms: P1_4  and  C4_5 
REMARK    5  A    between atoms: C4_5  and  N1_6 
REMARK    6  A    between atoms: N2_12  and  C9_13 
REMARK    7  A    between atoms: C14_19  and  O3_20 
REMARK    8  A    between atoms: O3_20  and  C15_21 
ROOT
HETATM    1  C1  UNL     1      -0.144   0.591  -1.916  1.00  0.00     0.038 C 
HETATM    2  C2  UNL     1      -0.515   0.601  -0.666  1.00  0.00     0.004 C 
ENDROOT
BRANCH   2   3
HETATM    3  C3  UNL     1       0.553   0.697   0.392  1.00  0.00     0.089 C 
BRANCH   3   4
HETATM    4  P1  UNL     1       2.194   0.778  -0.443  1.00  0.00    -0.094 P 
HETATM    5  H5  UNL     1       3.147   1.399   0.462  1.00  0.00     0.059 HD
BRANCH   4   6
HETATM    6  C4  UNL     1       2.760  -0.898  -1.015  1.00  0.00     0.303 C 
BRANCH   6   7
HETATM    7  N1  UNL     1       4.170  -1.046  -0.619  1.00  0.00     0.096 N 
HETATM    8  C5  UNL     1       4.207  -0.931   0.800  1.00  0.00     0.299 C 
HETATM    9  C6  UNL     1       5.450  -0.313   1.367  1.00  0.00     0.198 C 
HETATM   10  O1  UNL     1       6.045   0.644   0.558  1.00  0.00    -0.388 OA
HETATM   11  C7  UNL     1       6.221   0.206  -0.746  1.00  0.00     0.198 C 
HETATM   12  C8  UNL     1       4.864  -0.004  -1.337  1.00  0.00     0.299 C 
ENDBRANCH   6   7
ENDBRANCH   4   6
ENDBRANCH   3   4
ENDBRANCH   2   3
BRANCH   2  13
HETATM   13  N2  UNL     1      -1.900   0.523  -0.342  1.00  0.00    -0.358 N 
HETATM   14  H16 UNL     1      -2.241   1.488  -0.551  1.00  0.00     0.166 HD
BRANCH  13  15
HETATM   15  C9  UNL     1      -2.705  -0.544   0.144  1.00  0.00     0.069 A 
HETATM   16  C10 UNL     1      -2.254  -1.781   0.003  1.00  0.00     0.082 A 
HETATM   17  C11 UNL     1      -3.133  -2.803   0.524  1.00  0.00     0.155 A 
HETATM   18  O2  UNL     1      -2.817  -4.011   0.451  1.00  0.00    -0.293 OA
HETATM   19  C12 UNL     1      -4.441  -2.572   1.174  1.00  0.00     0.113 A 
HETATM   20  C13 UNL     1      -4.746  -1.117   1.224  1.00  0.00     0.020 A 
HETATM   21  C14 UNL     1      -3.960  -0.133   0.753  1.00  0.00     0.092 A 
BRANCH  21  22
HETATM   22  O3  UNL     1      -4.367   1.162   0.867  1.00  0.00    -0.349 OA
BRANCH  22  23
HETATM   23  C15 UNL     1      -5.031   1.920  -0.112  1.00  0.00     0.171 C 
HETATM   24  C16 UNL     1      -5.352   3.330   0.316  1.00  0.00     0.034 C 
ENDBRANCH  22  23
ENDBRANCH  21  22
ENDBRANCH  13  15
ENDBRANCH   2  13
TORSDOF 8
