REMARK  5 active torsions:
REMARK  status: ('A' for Active; 'I' for Inactive)
REMARK    1  A    between atoms: C8_11  and  N3_12 
REMARK    2  A    between atoms: N3_12  and  C9_13 
REMARK    3  A    between atoms: C12_16  and  N4_17 
REMARK    4  A    between atoms: N4_17  and  C13_18 
REMARK    5  A    between atoms: C13_18  and  C14_19 
ROOT
HETATM    1  N1  UNL     1      -4.091  -3.388   1.775  1.00  0.00    -0.195 NA
HETATM    2  C1  UNL     1      -3.974  -2.805   0.786  1.00  0.00     0.093 C 
HETATM    3  C2  UNL     1      -3.846  -2.081  -0.445  1.00  0.00     0.264 C 
HETATM    4  N2  UNL     1      -5.246  -1.824  -0.919  1.00  0.00    -0.268 NA
HETATM    5  C3  UNL     1      -5.547  -0.632  -1.309  1.00  0.00     0.036 C 
HETATM    6  C4  UNL     1      -6.631   0.341  -1.007  1.00  0.00     0.051 C 
HETATM    7  C5  UNL     1      -6.365   1.678  -0.887  1.00  0.00     0.137 C 
HETATM    8  O1  UNL     1      -5.103   2.316  -0.956  1.00  0.00    -0.359 OA
HETATM    9  C6  UNL     1      -3.770   1.804  -0.703  1.00  0.00     0.211 C 
HETATM   10  C7  UNL     1      -3.684   0.355  -0.895  1.00  0.00    -0.025 C 
HETATM   11  C8  UNL     1      -3.282  -0.695  -0.165  1.00  0.00     0.053 C 
HETATM   12  C21 UNL     1      -4.325  -0.209  -2.188  1.00  0.00     0.097 C 
ENDROOT
BRANCH  11  13
HETATM   13  N3  UNL     1      -2.360  -0.085   0.771  1.00  0.00    -0.357 N 
HETATM   14  H6  UNL     1      -2.840   0.278   1.634  1.00  0.00     0.166 HD
BRANCH  13  15
HETATM   15  C9  UNL     1      -0.952   0.095   0.712  1.00  0.00     0.034 A 
HETATM   16  C10 UNL     1      -0.161  -0.949   1.158  1.00  0.00     0.032 A 
HETATM   17  C11 UNL     1       1.238  -0.874   1.153  1.00  0.00     0.033 A 
HETATM   18  C12 UNL     1       1.858   0.284   0.687  1.00  0.00     0.050 A 
HETATM   19  C19 UNL     1       1.001   1.269   0.264  1.00  0.00     0.062 A 
HETATM   20 CL1  UNL     1       1.763   2.741  -0.329  1.00  0.00    -0.082 Cl
HETATM   21  C20 UNL     1      -0.365   1.274   0.236  1.00  0.00     0.055 A 
BRANCH  18  22
HETATM   22  N4  UNL     1       3.270   0.436   0.654  1.00  0.00    -0.384 N 
HETATM   23  H9  UNL     1       3.649   1.329   0.298  1.00  0.00     0.160 HD
BRANCH  22  24
HETATM   24  C13 UNL     1       4.140  -0.612   1.099  1.00  0.00     0.160 C 
BRANCH  24  25
HETATM   25  C14 UNL     1       5.574  -0.245   1.004  1.00  0.00    -0.023 A 
HETATM   26  C15 UNL     1       6.323  -0.469  -0.107  1.00  0.00     0.012 A 
HETATM   27  C16 UNL     1       7.671  -0.130  -0.207  1.00  0.00     0.020 A 
HETATM   28  C17 UNL     1       8.231   0.468   0.925  1.00  0.00     0.116 A 
HETATM   29  N5  UNL     1       7.494   0.694   2.036  1.00  0.00    -0.273 NA
HETATM   30  C18 UNL     1       6.192   0.354   2.097  1.00  0.00     0.124 A 
ENDBRANCH  24  25
ENDBRANCH  22  24
ENDBRANCH  18  22
ENDBRANCH  13  15
ENDBRANCH  11  13
TORSDOF 5
