REMARK  6 active torsions:
REMARK  status: ('A' for Active; 'I' for Inactive)
REMARK    1  A    between atoms: C8_10  and  C9_11 
REMARK    2  A    between atoms: C9_11  and  N3_12 
REMARK    3  A    between atoms: N3_12  and  C10_13 
REMARK    4  A    between atoms: C13_17  and  N4_18 
REMARK    5  A    between atoms: N4_18  and  C14_19 
REMARK    6  A    between atoms: C14_19  and  C15_20 
ROOT
HETATM    1  N1  UNL     1      -5.532   2.428  -0.328  1.00  0.00    -0.196 NA
HETATM    2  C1  UNL     1      -6.330   1.639  -0.035  1.00  0.00     0.072 C 
HETATM    3  C2  UNL     1      -7.366   0.642   0.322  1.00  0.00     0.146 C 
HETATM    4  C3  UNL     1      -7.166  -0.621  -0.415  1.00  0.00    -0.001 C 
HETATM    5  C4  UNL     1      -6.247  -1.457  -0.858  1.00  0.00     0.030 C 
HETATM    6  C5  UNL     1      -4.786  -1.474  -0.785  1.00  0.00     0.068 A 
HETATM    7  N2  UNL     1      -4.382  -1.909  -1.978  1.00  0.00    -0.260 NA
HETATM    8  C6  UNL     1      -3.073  -2.044  -2.252  1.00  0.00     0.118 A 
HETATM    9  C7  UNL     1      -2.182  -1.705  -1.226  1.00  0.00     0.033 A 
HETATM   10  C8  UNL     1      -2.604  -1.249   0.026  1.00  0.00    -0.006 A 
HETATM   11  C21 UNL     1      -3.977  -1.122   0.273  1.00  0.00     0.017 A 
HETATM   12  C22 UNL     1      -3.894  -0.697   1.497  1.00  0.00     0.004 C 
HETATM   13  P1  UNL     1      -5.154  -0.447   2.526  1.00  0.00    -0.017 P 
HETATM   14  P2  UNL     1      -7.184   0.379   2.160  1.00  0.00    -0.068 P 
HETATM   15  H18 UNL     1      -8.155  -0.662   2.528  1.00  0.00     0.064 HD
ENDROOT
BRANCH  10  16
HETATM   16  C9  UNL     1      -1.674  -0.956   0.926  1.00  0.00     0.096 C 
BRANCH  16  17
HETATM   17  N3  UNL     1      -0.321  -1.135   0.530  1.00  0.00    -0.387 N 
HETATM   18  H7  UNL     1       0.253  -2.002   0.620  1.00  0.00     0.159 HD
BRANCH  17  19
HETATM   19  C10 UNL     1       0.325   0.015  -0.062  1.00  0.00     0.131 A 
HETATM   20  C11 UNL     1       0.325   1.140   0.916  1.00  0.00     0.028 A 
HETATM   21  C12 UNL     1       1.537   1.535   1.269  1.00  0.00     0.058 A 
HETATM   22 CL1  UNL     1       2.058   2.803   2.375  1.00  0.00    -0.082 Cl
HETATM   23  C13 UNL     1       2.474   0.668   0.523  1.00  0.00     0.048 A 
HETATM   24  C20 UNL     1       1.796  -0.204  -0.240  1.00  0.00     0.033 A 
BRANCH  23  25
HETATM   25  N4  UNL     1       3.910   0.758   0.612  1.00  0.00    -0.384 N 
HETATM   26  H10 UNL     1       4.209   0.594   1.600  1.00  0.00     0.160 HD
BRANCH  25  27
HETATM   27  C14 UNL     1       4.881   1.030  -0.453  1.00  0.00     0.160 C 
BRANCH  27  28
HETATM   28  C15 UNL     1       6.237   1.016   0.155  1.00  0.00    -0.023 A 
HETATM   29  C16 UNL     1       6.955  -0.161   0.220  1.00  0.00     0.012 A 
HETATM   30  C17 UNL     1       8.208  -0.159   0.785  1.00  0.00     0.020 A 
HETATM   31  C18 UNL     1       8.724   1.029   1.280  1.00  0.00     0.116 A 
HETATM   32  N5  UNL     1       8.034   2.181   1.223  1.00  0.00    -0.273 NA
HETATM   33  C19 UNL     1       6.796   2.171   0.663  1.00  0.00     0.124 A 
ENDBRANCH  27  28
ENDBRANCH  25  27
ENDBRANCH  23  25
ENDBRANCH  17  19
ENDBRANCH  16  17
ENDBRANCH  10  16
TORSDOF 6
