REMARK  9 active torsions:
REMARK  status: ('A' for Active; 'I' for Inactive)
REMARK    1  A    between atoms: C2_2  and  O1_3 
REMARK    2  A    between atoms: O1_3  and  C3_4 
REMARK    3  A    between atoms: C9_12  and  C10_13 
REMARK    4  A    between atoms: C11_14  and  C12_15 
REMARK    5  A    between atoms: C13_16  and  N3_17 
REMARK    6  A    between atoms: C16_20  and  N4_21 
REMARK       I    between atoms: N4_21  and  C17_22 
REMARK    7  A    between atoms: C17_22  and  C18_24 
REMARK    8  A    between atoms: C19_25  and  C20_26 
REMARK    9  A    between atoms: C20_26  and  N5_27 
ROOT
HETATM    1  C3  UNL     1       1.719   2.368  -1.118  1.00  0.00     0.097 A 
HETATM    2  C4  UNL     1       2.291   2.412  -2.367  1.00  0.00     0.071 A 
HETATM    3  C5  UNL     1       2.280   1.314  -3.200  1.00  0.00     0.070 A 
HETATM    4  N1  UNL     1       2.790   1.335  -4.420  1.00  0.00    -0.259 NA
HETATM    5  C6  UNL     1       2.766   0.302  -5.259  1.00  0.00     0.140 A 
HETATM    6  C7  UNL     1       2.180  -0.845  -4.825  1.00  0.00     0.073 A 
HETATM    7  C8  UNL     1       2.197  -1.918  -5.793  1.00  0.00     0.102 C 
HETATM    8  N2  UNL     1       2.197  -2.791  -6.587  1.00  0.00    -0.191 NA
HETATM    9  C9  UNL     1       1.618  -0.977  -3.567  1.00  0.00    -0.001 A 
HETATM   10  C14 UNL     1       1.696   0.150  -2.789  1.00  0.00     0.007 A 
HETATM   11  C15 UNL     1       1.129   0.125  -1.542  1.00  0.00     0.047 A 
HETATM   12  C16 UNL     1       1.107   1.179  -0.678  1.00  0.00     0.069 A 
ENDROOT
BRANCH   9  13
HETATM   13  C10 UNL     1       1.043  -2.250  -3.281  1.00  0.00     0.014 C 
HETATM   14  C11 UNL     1       0.594  -3.151  -2.478  1.00  0.00     0.002 C 
BRANCH  14  15
HETATM   15  C12 UNL     1       0.296  -3.632  -1.178  1.00  0.00     0.017 C 
HETATM   16  C13 UNL     1      -0.128  -4.444  -0.319  1.00  0.00     0.080 C 
BRANCH  16  17
HETATM   17  N3  UNL     1      -0.721  -5.741  -0.428  1.00  0.00    -0.408 N 
HETATM   18  H12 UNL     1      -1.601  -6.167  -0.075  1.00  0.00     0.155 HD
HETATM   19  H13 UNL     1      -0.313  -6.558  -0.947  1.00  0.00     0.155 HD
ENDBRANCH  16  17
ENDBRANCH  14  15
ENDBRANCH   9  13
BRANCH  12  20
HETATM   20  N4  UNL     1       0.536   1.242   0.583  1.00  0.00    -0.321 N 
HETATM   21  C17 UNL     1      -0.200   0.310   1.316  1.00  0.00     0.245 C 
HETATM   22  O2  UNL     1      -0.405  -0.806   0.773  1.00  0.00    -0.268 OA
HETATM   23  H15 UNL     1       0.612   2.114   1.190  1.00  0.00     0.169 HD
BRANCH  21  24
HETATM   24  C18 UNL     1      -0.768   0.457   2.641  1.00  0.00     0.072 C 
HETATM   25  C19 UNL     1      -1.448  -0.499   3.243  1.00  0.00     0.008 C 
BRANCH  25  26
HETATM   26  C20 UNL     1      -2.046  -0.393   4.589  1.00  0.00     0.299 C 
BRANCH  26  27
HETATM   27  N5  UNL     1      -3.468  -0.578   4.549  1.00  0.00     0.083 N 
HETATM   28  C21 UNL     1      -4.160   0.505   3.889  1.00  0.00     0.309 C 
HETATM   29  C22 UNL     1      -4.085  -0.862   5.805  1.00  0.00     0.309 C 
ENDBRANCH  26  27
ENDBRANCH  25  26
ENDBRANCH  21  24
ENDBRANCH  12  20
BRANCH   1  30
HETATM   30  O1  UNL     1       1.755   3.492  -0.319  1.00  0.00    -0.349 OA
BRANCH  30  31
HETATM   31  C2  UNL     1       2.317   4.726  -0.625  1.00  0.00     0.171 C 
HETATM   32  C1  UNL     1       1.669   5.346  -1.816  1.00  0.00     0.034 C 
ENDBRANCH  30  31
ENDBRANCH   1  30
TORSDOF 9
