REMARK  4 active torsions:
REMARK  status: ('A' for Active; 'I' for Inactive)
REMARK    1  A    between atoms: C4_4  and  C5_5 
REMARK       I    between atoms: C5_5  and  N1_6 
REMARK    2  A    between atoms: C7_9  and  C8_10 
REMARK    3  A    between atoms: C11_15  and  N4_16 
REMARK    4  A    between atoms: N4_16  and  N5_17 
ROOT
HETATM    1  C8  UNL     1       0.041  -1.571  -0.457  1.00  0.00     0.031 A 
HETATM    2  C9  UNL     1      -0.616  -2.777  -0.582  1.00  0.00     0.133 A 
HETATM    3  N2  UNL     1       0.077  -3.931  -0.377  1.00  0.00    -0.253 NA
HETATM    4  C10 UNL     1       1.405  -3.855  -0.052  1.00  0.00     0.235 A 
HETATM    5  N3  UNL     1       2.050  -2.671   0.070  1.00  0.00    -0.222 NA
HETATM    6  C11 UNL     1       1.369  -1.561  -0.132  1.00  0.00     0.155 A 
ENDROOT
BRANCH   1   7
HETATM    7  C7  UNL     1      -0.779  -0.376  -0.665  1.00  0.00     0.042 C 
HETATM    8  C6  UNL     1      -1.947  -0.055  -0.172  1.00  0.00     0.019 C 
HETATM    9  C4  UNL     1      -2.736   1.154  -0.411  1.00  0.00     0.129 C 
HETATM   10  N6  UNL     1      -2.654  -0.877   0.756  1.00  0.00    -0.388 N 
HETATM   11  C3  UNL     1      -4.155   0.643  -0.149  1.00  0.00     0.044 C 
HETATM   12  C2  UNL     1      -3.868  -0.147   1.129  1.00  0.00     0.078 C 
HETATM   13  C1  UNL     1      -4.944  -1.111   1.497  1.00  0.00     0.032 C 
HETATM   14  H19 UNL     1      -2.407  -1.824   1.139  1.00  0.00     0.159 HD
BRANCH   9  15
HETATM   15  C5  UNL     1      -2.557   1.720  -1.749  1.00  0.00     0.225 C 
HETATM   16  N1  UNL     1      -3.291   2.818  -2.264  1.00  0.00    -0.370 N 
HETATM   17  H8  UNL     1      -3.248   3.580  -1.522  1.00  0.00     0.159 HD
HETATM   18  H9  UNL     1      -3.815   3.004  -3.144  1.00  0.00     0.159 HD
HETATM   19  O1  UNL     1      -1.774   1.395  -2.687  1.00  0.00    -0.273 OA
ENDBRANCH   9  15
ENDBRANCH   1   7
BRANCH   6  20
HETATM   20  N4  UNL     1       1.954  -0.296  -0.028  1.00  0.00    -0.275 N 
HETATM   21  H13 UNL     1       1.483   0.617  -0.181  1.00  0.00     0.189 HD
BRANCH  20  22
HETATM   22  N5  UNL     1       3.250   0.125   0.278  1.00  0.00    -0.240 N 
HETATM   23  C12 UNL     1       3.602   0.455   1.635  1.00  0.00     0.119 C 
HETATM   24  C13 UNL     1       4.576   1.291   2.022  1.00  0.00     0.019 C 
HETATM   25  C14 UNL     1       5.488   2.046   1.180  1.00  0.00     0.002 C 
HETATM   26  C15 UNL     1       5.764   1.929  -0.105  1.00  0.00     0.005 C 
HETATM   27  C16 UNL     1       5.174   0.946  -1.039  1.00  0.00     0.063 C 
HETATM   28  C17 UNL     1       4.094   0.165  -0.885  1.00  0.00     0.209 C 
HETATM   29  F1  UNL     1       3.791  -0.657  -1.944  1.00  0.00    -0.184 F 
ENDBRANCH  20  22
ENDBRANCH   6  20
TORSDOF 4
