REMARK  6 active torsions:
REMARK  status: ('A' for Active; 'I' for Inactive)
REMARK    1  A    between atoms: C2_2  and  O1_3 
REMARK    2  A    between atoms: O1_3  and  C3_4 
REMARK    3  A    between atoms: C12_15  and  N3_16 
REMARK       I    between atoms: N3_16  and  C13_17 
REMARK    4  A    between atoms: C13_17  and  C14_19 
REMARK    5  A    between atoms: C15_20  and  C16_21 
REMARK    6  A    between atoms: C16_21  and  N4_22 
ROOT
HETATM    1  C3  UNL     1      -2.108  -0.529  -0.484  1.00  0.00     0.097 A 
HETATM    2  C4  UNL     1      -3.410  -0.113  -0.472  1.00  0.00     0.071 A 
HETATM    3  C5  UNL     1      -3.780   1.179  -0.153  1.00  0.00     0.069 A 
HETATM    4  N1  UNL     1      -5.055   1.606  -0.135  1.00  0.00    -0.259 NA
HETATM    5  C6  UNL     1      -5.402   2.868   0.179  1.00  0.00     0.140 A 
HETATM    6  C7  UNL     1      -4.415   3.776   0.498  1.00  0.00     0.063 A 
HETATM    7  C8  UNL     1      -4.740   5.145   0.843  1.00  0.00     0.101 C 
HETATM    8  N2  UNL     1      -5.020   6.249   1.113  1.00  0.00    -0.191 NA
HETATM    9  C9  UNL     1      -3.070   3.389   0.496  1.00  0.00     0.038 A 
HETATM   10  C10 UNL     1      -2.766   2.079   0.166  1.00  0.00    -0.004 A 
HETATM   11  C11 UNL     1      -1.467   1.620   0.142  1.00  0.00     0.046 A 
HETATM   12  C12 UNL     1      -1.083   0.337  -0.173  1.00  0.00     0.069 A 
ENDROOT
BRANCH  12  13
HETATM   13  N3  UNL     1       0.246  -0.149  -0.205  1.00  0.00    -0.321 N 
HETATM   14  C13 UNL     1       1.455   0.531   0.055  1.00  0.00     0.245 C 
HETATM   15  O2  UNL     1       1.424   1.743   0.364  1.00  0.00    -0.268 OA
HETATM   16  H10 UNL     1       0.427  -1.139  -0.448  1.00  0.00     0.169 HD
BRANCH  14  17
HETATM   17  C14 UNL     1       2.759  -0.052  -0.001  1.00  0.00     0.072 C 
HETATM   18  C15 UNL     1       3.218  -1.258  -0.275  1.00  0.00    -0.002 C 
BRANCH  18  19
HETATM   19  C16 UNL     1       4.485  -2.017  -0.378  1.00  0.00     0.143 C 
BRANCH  19  20
HETATM   20  N4  UNL     1       5.583  -1.169  -0.085  1.00  0.00    -0.418 N 
HETATM   21  C17 UNL     1       5.719  -0.708   1.249  1.00  0.00     0.142 C 
HETATM   22  C18 UNL     1       6.060  -0.328  -1.123  1.00  0.00     0.142 C 
ENDBRANCH  19  20
ENDBRANCH  18  19
ENDBRANCH  14  17
ENDBRANCH  12  13
BRANCH   1  23
HETATM   23  O1  UNL     1      -1.785  -1.831  -0.810  1.00  0.00    -0.349 OA
BRANCH  23  24
HETATM   24  C2  UNL     1      -2.775  -2.759  -1.126  1.00  0.00     0.171 C 
HETATM   25  C1  UNL     1      -3.761  -3.024  -0.039  1.00  0.00     0.034 C 
ENDBRANCH  23  24
ENDBRANCH   1  23
TORSDOF 6
