REMARK  4 active torsions:
REMARK  status: ('A' for Active; 'I' for Inactive)
REMARK    1  A    between atoms: C2_2  and  C3_3 
REMARK    2  A    between atoms: C5_6  and  C6_7 
REMARK    3  A    between atoms: C7_8  and  C8_9 
REMARK    4  A    between atoms: C17_19  and  O1_20 
ROOT
HETATM    1  C6  UNL     1      -0.061  -0.275  -0.783  1.00  0.00     0.033 C 
HETATM    2  C7  UNL     1      -0.914   0.331   0.014  1.00  0.00     0.016 C 
ENDROOT
BRANCH   1   3
HETATM    3  C5  UNL     1       1.372  -0.412  -0.447  1.00  0.00     0.068 A 
HETATM    4  N1  UNL     1       2.122   0.025   0.697  1.00  0.00    -0.352 N 
HETATM    5  C4  UNL     1       3.316  -0.504   0.189  1.00  0.00     0.064 A 
HETATM    6  H7  UNL     1       1.901   0.541   1.586  1.00  0.00     0.166 HD
HETATM    7  C3  UNL     1       4.583  -0.581   0.571  1.00  0.00     0.005 C 
HETATM    8  C17 UNL     1       2.494  -0.914  -0.933  1.00  0.00     0.119 A 
BRANCH   7   9
HETATM    9  C2  UNL     1       5.585  -1.252  -0.288  1.00  0.00     0.025 C 
HETATM   10  C1  UNL     1       6.251  -2.430   0.391  1.00  0.00     0.009 C 
ENDBRANCH   7   9
BRANCH   8  11
HETATM   11  O1  UNL     1       2.759  -1.594  -2.116  1.00  0.00    -0.356 OA
HETATM   12  H16 UNL     1       2.150  -2.337  -2.397  1.00  0.00     0.218 HD
ENDBRANCH   8  11
ENDBRANCH   1   3
BRANCH   2  13
HETATM   13  C8  UNL     1      -2.330   0.476  -0.301  1.00  0.00    -0.006 A 
HETATM   14  C9  UNL     1      -2.890  -0.010  -1.461  1.00  0.00     0.014 A 
HETATM   15  C10 UNL     1      -4.229   0.126  -1.761  1.00  0.00     0.002 A 
HETATM   16  C11 UNL     1      -5.068   0.776  -0.874  1.00  0.00     0.014 A 
HETATM   17  C12 UNL     1      -4.523   1.276   0.306  1.00  0.00    -0.006 A 
HETATM   18  C13 UNL     1      -5.324   1.932   1.220  1.00  0.00     0.015 A 
HETATM   19  C16 UNL     1      -3.174   1.111   0.555  1.00  0.00     0.076 A 
HETATM   20  C14 UNL     1      -4.810   2.438   2.396  1.00  0.00     0.020 A 
HETATM   21  C15 UNL     1      -3.451   2.234   2.577  1.00  0.00     0.117 A 
HETATM   22  N2  UNL     1      -2.643   1.599   1.704  1.00  0.00    -0.259 NA
ENDBRANCH   2  13
TORSDOF 4
