REMARK  6 active torsions:
REMARK  status: ('A' for Active; 'I' for Inactive)
REMARK    1  A    between atoms: C2_2  and  C3_3 
REMARK    2  A    between atoms: C3_3  and  C4_4 
REMARK    3  A    between atoms: C7_7  and  C10_10 
REMARK    4  A    between atoms: C10_10  and  C11_11 
REMARK    5  A    between atoms: C11_11  and  N1_12 
REMARK    6  A    between atoms: C21_26  and  N5_27 
ROOT
HETATM    1  C4  UNL     1       2.232  -0.939   0.018  1.00  0.00     0.000 C 
HETATM    2  C5  UNL     1       3.244  -0.015   0.710  1.00  0.00     0.057 C 
HETATM    3  C6  UNL     1       3.057   1.422   0.256  1.00  0.00     0.017 A 
HETATM    4  C7  UNL     1       1.707   1.387   0.667  1.00  0.00     0.043 A 
HETATM    5  C8  UNL     1       0.372   1.686   0.883  1.00  0.00     0.011 A 
HETATM    6  C9  UNL     1      -0.559   2.715   0.561  1.00  0.00    -0.009 A 
HETATM    7  C10 UNL     1       0.745   2.773   0.164  1.00  0.00     0.041 A 
HETATM    8  C11 UNL     1       2.066   2.410  -0.007  1.00  0.00     0.174 A 
HETATM    9  C12 UNL     1      -1.579   1.737   1.016  1.00  0.00     0.070 C 
HETATM   10  C13 UNL     1      -2.932   2.259   0.627  1.00  0.00     0.002 C 
HETATM   11  C14 UNL     1      -4.206   2.064   0.373  1.00  0.00     0.112 C 
HETATM   12  N2  UNL     1      -5.067   0.929   0.366  1.00  0.00    -0.273 NA
HETATM   13  C15 UNL     1      -4.821  -0.290   0.822  1.00  0.00     0.117 C 
HETATM   14  C16 UNL     1      -3.642  -0.942   1.481  1.00  0.00     0.041 C 
HETATM   15  C17 UNL     1      -2.419  -0.507   1.128  1.00  0.00     0.068 C 
HETATM   16  C18 UNL     1      -1.582  -1.363   1.965  1.00  0.00     0.099 C 
HETATM   17  N3  UNL     1      -0.896  -2.057   2.639  1.00  0.00    -0.192 NA
HETATM   18  C19 UNL     1      -1.472   0.341   0.353  1.00  0.00     0.170 C 
HETATM   19  C20 UNL     1      -2.276   0.469  -0.983  1.00  0.00     0.444 C 
HETATM   20  O1  UNL     1      -2.972   0.643  -1.930  1.00  0.00    -0.427 OA
HETATM   21  N4  UNL     1      -0.400  -0.398   0.034  1.00  0.00    -0.410 NA
HETATM   22  C21 UNL     1       0.725  -0.925  -0.151  1.00  0.00     0.176 C 
ENDROOT
BRANCH  22  23
HETATM   23  N5  UNL     1       0.209  -2.087  -0.862  1.00  0.00    -0.369 N 
HETATM   24  C22 UNL     1      -0.736  -2.101  -1.973  1.00  0.00     0.148 C 
HETATM   25  H18 UNL     1       0.521  -3.088  -0.579  1.00  0.00     0.161 HD
ENDBRANCH  22  23
BRANCH   1  26
HETATM   26  C3  UNL     1       2.938  -1.895  -0.503  1.00  0.00     0.011 C 
BRANCH  26  27
HETATM   27  C2  UNL     1       3.819  -2.864  -1.013  1.00  0.00    -0.010 C 
HETATM   28  C1  UNL     1       4.127  -3.998  -1.694  1.00  0.00     0.011 C 
ENDBRANCH  26  27
ENDBRANCH   1  26
BRANCH   8  29
HETATM   29  N1  UNL     1       2.949   3.259  -0.736  1.00  0.00     0.089 N 
HETATM   30  H10 UNL     1       3.327   4.036  -0.145  1.00  0.00     0.313 HD
HETATM   31  H11 UNL     1       3.319   4.027  -0.141  1.00  0.00     0.313 HD
ENDBRANCH   8  29
TORSDOF 6
