REMARK  6 active torsions:
REMARK  status: ('A' for Active; 'I' for Inactive)
REMARK    1  A    between atoms: C2_2  and  O1_3 
REMARK    2  A    between atoms: O1_3  and  C3_4 
REMARK    3  A    between atoms: C7_9  and  N2_10 
REMARK       I    between atoms: N3_12  and  C9_13 
REMARK    4  A    between atoms: C9_13  and  C10_15 
REMARK    5  A    between atoms: C11_16  and  C12_17 
REMARK    6  A    between atoms: C12_17  and  N4_18 
ROOT
HETATM    1  C3  UNL     1      -2.820   0.584   0.586  1.00  0.00     0.097 C 
HETATM    2  C4  UNL     1      -4.167   0.408   0.748  1.00  0.00     0.066 C 
HETATM    3  C5  UNL     1      -3.766  -1.072   1.304  1.00  0.00     0.040 C 
HETATM    4  N1  UNL     1      -3.154  -1.824   2.310  1.00  0.00    -0.261 NA
HETATM    5  C6  UNL     1      -1.623  -1.982   2.150  1.00  0.00     0.165 C 
HETATM    6  C7  UNL     1      -0.674  -1.873   1.063  1.00  0.00     0.128 C 
HETATM    7  N3  UNL     1      -0.878  -0.965  -0.200  1.00  0.00    -0.261 N 
HETATM    8  C9  UNL     1       0.363  -0.794  -0.811  1.00  0.00     0.253 C 
HETATM    9  O2  UNL     1       1.231  -1.416  -0.170  1.00  0.00    -0.268 OA
HETATM   10  C15 UNL     1      -2.345  -0.567  -0.350  1.00  0.00     0.074 C 
HETATM   11  C16 UNL     1      -3.238  -1.473  -0.922  1.00  0.00     0.012 C 
HETATM   12  C17 UNL     1      -4.112  -2.068   0.180  1.00  0.00     0.088 C 
ENDROOT
BRANCH   6  13
HETATM   13  N2  UNL     1       0.410  -2.728   1.415  1.00  0.00    -0.379 N 
HETATM   14  C8  UNL     1       1.251  -2.244   2.522  1.00  0.00     0.147 C 
HETATM   15  H8  UNL     1       0.653  -3.653   0.960  1.00  0.00     0.160 HD
ENDBRANCH   6  13
BRANCH   8  16
HETATM   16  C10 UNL     1       0.497   0.005  -2.002  1.00  0.00     0.073 C 
HETATM   17  C11 UNL     1       1.640   0.208  -2.629  1.00  0.00     0.008 C 
BRANCH  17  18
HETATM   18  C12 UNL     1       3.013  -0.255  -2.363  1.00  0.00     0.299 C 
BRANCH  18  19
HETATM   19  N4  UNL     1       3.928   0.866  -2.154  1.00  0.00     0.083 N 
HETATM   20  C13 UNL     1       5.255   0.311  -1.899  1.00  0.00     0.309 C 
HETATM   21  C14 UNL     1       3.485   1.700  -1.062  1.00  0.00     0.309 C 
ENDBRANCH  18  19
ENDBRANCH  17  18
ENDBRANCH   8  16
BRANCH   1  22
HETATM   22  O1  UNL     1      -2.678   1.805   1.415  1.00  0.00    -0.349 OA
BRANCH  22  23
HETATM   23  C2  UNL     1      -2.116   2.913   0.692  1.00  0.00     0.171 C 
HETATM   24  C1  UNL     1      -1.761   4.032   1.602  1.00  0.00     0.034 C 
ENDBRANCH  22  23
ENDBRANCH   1  22
TORSDOF 6
