REMARK  1 active torsions:
REMARK  status: ('A' for Active; 'I' for Inactive)
REMARK    1  A    between atoms: O1_2  and  C2_3 
ROOT
HETATM    1  C2  UNL     1       2.401  -1.139  -0.105  1.00  0.00     0.077 C 
HETATM    2  C3  UNL     1       1.286  -0.535  -0.480  1.00  0.00     0.030 C 
HETATM    3  C4  UNL     1       0.353  -1.290  -1.371  1.00  0.00     0.055 C 
HETATM    4  N1  UNL     1       0.069  -0.699  -2.517  1.00  0.00    -0.263 NA
HETATM    5  C5  UNL     1      -0.328   0.690  -2.673  1.00  0.00     0.126 C 
HETATM    6  C6  UNL     1      -0.381   1.721  -1.782  1.00  0.00    -0.017 C 
HETATM    7  C7  UNL     1      -0.773   3.077  -2.140  1.00  0.00     0.052 C 
HETATM    8  C8  UNL     1      -0.033   1.576  -0.334  1.00  0.00     0.047 C 
HETATM    9  C9  UNL     1       1.066   0.866   0.003  1.00  0.00     0.002 C 
HETATM   10  C10 UNL     1       2.132   1.441   0.864  1.00  0.00     0.177 C 
HETATM   11  N2  UNL     1       2.807   0.461   1.643  1.00  0.00    -0.310 N 
HETATM   12  C11 UNL     1       2.887   0.438   3.039  1.00  0.00     0.180 C 
HETATM   13  N3  UNL     1       2.971   0.412   4.191  1.00  0.00    -0.172 NA
HETATM   14  C12 UNL     1       3.415  -0.537   0.765  1.00  0.00     0.200 C 
HETATM   15  N4  UNL     1      -1.057   2.270   0.418  1.00  0.00    -0.373 N 
HETATM   16  C13 UNL     1      -1.881   3.117  -0.402  1.00  0.00     0.150 C 
HETATM   17  C14 UNL     1      -3.212   2.398  -0.713  1.00  0.00    -0.004 C 
HETATM   18  C15 UNL     1      -3.518   1.202  -0.226  1.00  0.00     0.034 C 
HETATM   19  C16 UNL     1      -2.939   0.426   0.905  1.00  0.00     0.073 C 
HETATM   20  C17 UNL     1      -2.326   1.048   1.944  1.00  0.00     0.030 C 
HETATM   21  C18 UNL     1      -1.048   1.879   1.866  1.00  0.00     0.153 C 
HETATM   22  O2  UNL     1      -3.119  -0.948   0.725  1.00  0.00    -0.315 OA
HETATM   23  C19 UNL     1      -2.079  -1.768   0.297  1.00  0.00     0.054 C 
HETATM   24  C20 UNL     1      -1.266  -2.062   1.325  1.00  0.00     0.032 C 
HETATM   25  C21 UNL     1      -0.068  -2.911   1.156  1.00  0.00    -0.001 C 
HETATM   26  C22 UNL     1       0.142  -3.357  -0.076  1.00  0.00    -0.015 C 
HETATM   27  C23 UNL     1      -0.353  -2.614  -1.234  1.00  0.00     0.067 C 
HETATM   28  C24 UNL     1      -1.841  -2.275  -1.061  1.00  0.00     0.079 C 
ENDROOT
BRANCH   1  29
HETATM   29  O1  UNL     1       2.654  -2.424  -0.548  1.00  0.00    -0.358 OA
HETATM   30  C1  UNL     1       3.633  -3.256  -0.020  1.00  0.00     0.209 C 
ENDBRANCH   1  29
TORSDOF 1
