REMARK  5 active torsions:
REMARK  status: ('A' for Active; 'I' for Inactive)
REMARK    1  A    between atoms: C2_2  and  O1_3 
REMARK    2  A    between atoms: O1_3  and  C3_4 
REMARK    3  A    between atoms: C4_5  and  C5_6 
REMARK    4  A    between atoms: C6_8  and  C11_14 
REMARK    5  A    between atoms: N2_15  and  C12_16 
ROOT
HETATM    1  C3  UNL     1       1.444   0.131   0.998  1.00  0.00     0.085 A 
HETATM    2  C4  UNL     1       0.806   1.365   0.810  1.00  0.00     0.025 A 
HETATM    3  C6  UNL     1      -0.457   1.416   0.260  1.00  0.00     0.135 A 
HETATM    4  C7  UNL     1      -1.430   0.215  -0.251  1.00  0.00     0.235 A 
HETATM    5  C8  UNL     1      -2.520   0.671  -0.887  1.00  0.00     0.275 A 
HETATM    6  C9  UNL     1      -3.087   1.603  -0.081  1.00  0.00     0.091 A 
HETATM    7  C10 UNL     1      -4.266   2.281  -0.535  1.00  0.00     0.097 C 
HETATM    8  N1  UNL     1      -5.184   2.825  -0.880  1.00  0.00    -0.192 NA
HETATM    9  C11 UNL     1      -2.106   1.365   0.843  1.00  0.00     0.261 A 
HETATM   10  N2  UNL     1      -1.648   0.395  -0.230  1.00  0.00     0.010 N 
HETATM   11  C12 UNL     1      -0.490  -0.297   0.119  1.00  0.00     0.213 A 
HETATM   12  C13 UNL     1       0.608  -0.853   0.554  1.00  0.00     0.019 A 
HETATM   13  C14 UNL     1       0.083  -2.242   0.156  1.00  0.00     0.178 C 
HETATM   14 CL1  UNL     1      -1.448  -2.592   0.920  1.00  0.00    -0.113 Cl
HETATM   15  C15 UNL     1      -0.198  -2.042  -1.356  1.00  0.00     0.114 C 
HETATM   16  F1  UNL     1       0.991  -2.210  -1.994  1.00  0.00    -0.209 F 
HETATM   17  C16 UNL     1      -1.330  -1.716  -1.999  1.00  0.00     0.032 C 
HETATM   18  C17 UNL     1      -2.734  -1.399  -1.926  1.00  0.00     0.147 C 
HETATM   19  N3  UNL     1      -3.020   0.049  -2.142  1.00  0.00    -0.381 N 
HETATM   20  H13 UNL     1      -3.406   0.886  -2.689  1.00  0.00     0.156 HD
ENDROOT
BRANCH   2  21
HETATM   21  C5  UNL     1       1.681   2.400   1.274  1.00  0.00     0.269 C 
HETATM   22  O2  UNL     1       2.785   2.127   1.756  1.00  0.00    -0.302 OA
ENDBRANCH   2  21
BRANCH   1  23
HETATM   23  O1  UNL     1       2.513  -0.551   1.417  1.00  0.00    -0.350 OA
BRANCH  23  24
HETATM   24  C2  UNL     1       3.675  -1.020   0.885  1.00  0.00     0.171 C 
HETATM   25  C1  UNL     1       4.620  -0.014   0.302  1.00  0.00     0.034 C 
ENDBRANCH  23  24
ENDBRANCH   1  23
TORSDOF 5
