REMARK  8 active torsions:
REMARK  status: ('A' for Active; 'I' for Inactive)
REMARK    1  A    between atoms: C2_2  and  O1_3 
REMARK    2  A    between atoms: O1_3  and  C3_4 
REMARK    3  A    between atoms: C5_6  and  N1_7 
REMARK    4  A    between atoms: N1_7  and  C6_8 
REMARK    5  A    between atoms: C7_9  and  N2_10 
REMARK       I    between atoms: N3_14  and  C11_15 
REMARK    6  A    between atoms: C11_15  and  C12_17 
REMARK    7  A    between atoms: C13_18  and  C14_19 
REMARK    8  A    between atoms: C14_19  and  N4_20 
ROOT
HETATM    1  C3  UNL     1      -0.923  -0.202  -0.207  1.00  0.00     0.153 A 
HETATM    2  C4  UNL     1      -2.279  -0.253   0.091  1.00  0.00     0.088 A 
HETATM    3  C5  UNL     1      -2.580  -0.651   1.395  1.00  0.00     0.061 A 
HETATM    4  C9  UNL     1      -1.573  -0.961   2.285  1.00  0.00     0.049 A 
HETATM    5  C10 UNL     1      -0.249  -0.894   1.937  1.00  0.00     0.105 A 
HETATM    6  N3  UNL     1       0.042  -0.509   0.678  1.00  0.00    -0.269 N 
HETATM    7  C11 UNL     1       1.393  -0.415   0.240  1.00  0.00     0.253 C 
HETATM    8  O2  UNL     1       1.740  -0.064  -0.918  1.00  0.00    -0.268 OA
ENDROOT
BRANCH   1   9
HETATM    9  O1  UNL     1      -0.586   0.191  -1.500  1.00  0.00    -0.336 OA
BRANCH   9  10
HETATM   10  C2  UNL     1      -1.606   0.512  -2.424  1.00  0.00     0.173 C 
HETATM   11  C1  UNL     1      -1.079   0.917  -3.769  1.00  0.00     0.034 C 
ENDBRANCH   9  10
ENDBRANCH   1   9
BRANCH   7  12
HETATM   12  C12 UNL     1       2.517  -0.719   1.097  1.00  0.00     0.073 C 
HETATM   13  C13 UNL     1       3.677  -0.561   0.475  1.00  0.00     0.008 C 
BRANCH  13  14
HETATM   14  C14 UNL     1       5.028  -0.788   1.066  1.00  0.00     0.299 C 
BRANCH  14  15
HETATM   15  N4  UNL     1       5.845   0.379   1.057  1.00  0.00     0.083 N 
HETATM   16  C15 UNL     1       7.117   0.065   1.641  1.00  0.00     0.309 C 
HETATM   17  C16 UNL     1       5.947   1.058  -0.193  1.00  0.00     0.309 C 
ENDBRANCH  14  15
ENDBRANCH  13  14
ENDBRANCH   7  12
BRANCH   3  18
HETATM   18  N1  UNL     1      -3.836  -0.719   1.740  1.00  0.00    -0.260 NA
BRANCH  18  19
HETATM   19  C6  UNL     1      -4.804  -0.382   0.761  1.00  0.00     0.134 C 
HETATM   20  C7  UNL     1      -5.407  -0.747  -0.342  1.00  0.00     0.102 C 
BRANCH  20  21
HETATM   21  N2  UNL     1      -6.366   0.230  -0.761  1.00  0.00    -0.402 N 
HETATM   22  C8  UNL     1      -7.697   0.165  -0.212  1.00  0.00     0.145 C 
HETATM   23  H9  UNL     1      -5.822   0.801  -1.419  1.00  0.00     0.158 HD
ENDBRANCH  20  21
ENDBRANCH  18  19
ENDBRANCH   3  18
TORSDOF 8
