REMARK  9 active torsions:
REMARK  status: ('A' for Active; 'I' for Inactive)
REMARK    1  A    between atoms: C2_2  and  C11_14 
REMARK    2  A    between atoms: C3_3  and  N1_4 
REMARK       I    between atoms: N1_4  and  C4_5 
REMARK    3  A    between atoms: C4_5  and  C5_7 
REMARK    4  A    between atoms: C5_7  and  C6_8 
REMARK    5  A    between atoms: C7_9  and  C8_10 
REMARK    6  A    between atoms: C8_10  and  N2_11 
REMARK    7  A    between atoms: C11_14  and  N3_15 
REMARK    8  A    between atoms: N3_15  and  C12_16 
REMARK    9  A    between atoms: C15_19  and  N4_20 
ROOT
HETATM    1  C11 UNL     1      -1.668   1.700  -1.066  1.00  0.00     0.155 C 
ENDROOT
BRANCH   1   2
HETATM    2  C2  UNL     1      -0.666   2.780  -1.257  1.00  0.00    -0.051 C 
HETATM    3  C1  UNL     1      -1.336   4.121  -1.311  1.00  0.00     0.046 C 
HETATM    4  C3  UNL     1       0.648   2.627  -1.369  1.00  0.00     0.095 C 
BRANCH   4   5
HETATM    5  N1  UNL     1       1.313   1.371  -1.322  1.00  0.00    -0.337 N 
HETATM    6  C4  UNL     1       2.710   1.330  -1.453  1.00  0.00     0.224 C 
HETATM    7  O1  UNL     1       3.369   2.397  -1.610  1.00  0.00    -0.273 OA
HETATM    8  H5  UNL     1       0.808   0.483  -1.194  1.00  0.00     0.168 HD
BRANCH   6   9
HETATM    9  C5  UNL     1       3.518   0.077  -1.420  1.00  0.00     0.130 C 
BRANCH   9  10
HETATM   10  C6  UNL     1       4.952   0.336  -1.584  1.00  0.00    -0.020 C 
HETATM   11  C7  UNL     1       5.940   0.048  -0.747  1.00  0.00    -0.011 C 
BRANCH  11  12
HETATM   12  C8  UNL     1       5.869  -0.609   0.575  1.00  0.00     0.143 C 
BRANCH  12  13
HETATM   13  N2  UNL     1       6.648  -1.807   0.549  1.00  0.00    -0.418 N 
HETATM   14  C9  UNL     1       6.672  -2.562   1.761  1.00  0.00     0.142 C 
HETATM   15  C10 UNL     1       6.545  -2.569  -0.656  1.00  0.00     0.142 C 
ENDBRANCH  12  13
ENDBRANCH  11  12
ENDBRANCH   9  10
ENDBRANCH   6   9
ENDBRANCH   4   5
ENDBRANCH   1   2
BRANCH   1  16
HETATM   16  N3  UNL     1      -2.363   1.958   0.192  1.00  0.00    -0.386 N 
HETATM   17  H20 UNL     1      -2.175   2.752   0.839  1.00  0.00     0.160 HD
BRANCH  16  18
HETATM   18  C12 UNL     1      -3.401   1.141   0.702  1.00  0.00     0.029 A 
HETATM   19  C13 UNL     1      -4.124   1.305   1.890  1.00  0.00     0.031 A 
HETATM   20  C14 UNL     1      -5.104   0.417   2.240  1.00  0.00     0.034 A 
HETATM   21  C15 UNL     1      -5.416  -0.664   1.444  1.00  0.00     0.061 A 
HETATM   22  C19 UNL     1      -4.729  -0.864   0.265  1.00  0.00     0.063 A 
HETATM   23 CL1  UNL     1      -5.115  -2.235  -0.757  1.00  0.00    -0.082 Cl
HETATM   24  C20 UNL     1      -3.743   0.035  -0.080  1.00  0.00     0.055 A 
BRANCH  21  25
HETATM   25  N4  UNL     1      -6.446  -1.571   1.839  1.00  0.00    -0.314 N 
HETATM   26  C16 UNL     1      -6.547  -2.725   2.547  1.00  0.00     0.117 A 
HETATM   27  C17 UNL     1      -7.847  -3.121   2.576  1.00  0.00     0.135 A 
HETATM   28  N5  UNL     1      -8.595  -2.220   1.883  1.00  0.00    -0.254 NA
HETATM   29  C18 UNL     1      -7.716  -1.275   1.438  1.00  0.00     0.214 A 
ENDBRANCH  21  25
ENDBRANCH  16  18
ENDBRANCH   1  16
TORSDOF 9
