REMARK  1 active torsions:
REMARK  status: ('A' for Active; 'I' for Inactive)
REMARK    1  A    between atoms: C13_17  and  O2_19 
ROOT
HETATM    1  C1  UNL     1      -1.690   3.027   0.116  1.00  0.00     0.310 C 
HETATM    2  N1  UNL     1      -0.770   1.991   0.474  1.00  0.00     0.090 N 
HETATM    3  C2  UNL     1       0.100   1.573  -0.564  1.00  0.00     0.299 C 
HETATM    4  C3  UNL     1       1.148   2.449  -1.086  1.00  0.00     0.008 C 
HETATM    5  C4  UNL     1       2.390   1.933  -0.905  1.00  0.00     0.072 C 
HETATM    6  C5  UNL     1       3.089   0.768  -0.336  1.00  0.00     0.244 C 
HETATM    7  O1  UNL     1       4.106   0.105  -0.139  1.00  0.00    -0.268 OA
HETATM    8  N2  UNL     1       2.557  -0.300   0.467  1.00  0.00    -0.336 N 
HETATM    9  C6  UNL     1       3.519  -1.278   0.869  1.00  0.00     0.083 C 
HETATM   10  C7  UNL     1       3.659  -2.619   0.821  1.00  0.00     0.124 C 
HETATM   11  C8  UNL     1       2.419  -2.760   0.194  1.00  0.00    -0.095 C 
HETATM   12  C9  UNL     1       1.372  -2.868  -0.316  1.00  0.00    -0.104 C 
HETATM   13  C10 UNL     1       0.078  -2.979  -0.929  1.00  0.00     0.118 C 
HETATM   14  C11 UNL     1      -0.812  -1.874  -0.474  1.00  0.00     0.124 A 
HETATM   15  C12 UNL     1      -1.572  -0.800  -0.615  1.00  0.00     0.028 A 
HETATM   16 CL1  UNL     1      -0.895  -1.363  -2.157  1.00  0.00    -0.176 Cl
HETATM   17  C13 UNL     1      -2.272  -0.029   0.447  1.00  0.00     0.115 C 
HETATM   18  C14 UNL     1      -3.553   0.474  -0.098  1.00  0.00     0.053 C 
HETATM   19  C15 UNL     1      -1.369   0.872   1.155  1.00  0.00     0.315 C 
HETATM   20  H8  UNL     1       1.898  -0.903   0.981  1.00  0.00     0.168 HD
ENDROOT
BRANCH  17  21
HETATM   21  O2  UNL     1      -2.669  -1.040   1.394  1.00  0.00    -0.383 OA
HETATM   22  H17 UNL     1      -2.275  -0.887   2.267  1.00  0.00     0.211 HD
ENDBRANCH  17  21
TORSDOF 1
