REMARK  3 active torsions:
REMARK  status: ('A' for Active; 'I' for Inactive)
REMARK    1  A    between atoms: C2_2  and  N1_3 
REMARK    2  A    between atoms: N3_8  and  C6_9 
REMARK    3  A    between atoms: C6_9  and  N4_10 
ROOT
HETATM    1  N1  UNL     1      -2.416   0.465  -0.575  1.00  0.00    -0.344 N 
HETATM    2  C3  UNL     1      -1.064   0.399  -1.184  1.00  0.00     0.203 C 
HETATM    3  N2  UNL     1      -0.044   0.675  -0.404  1.00  0.00    -0.279 NA
HETATM    4  C4  UNL     1       1.273   0.596  -1.009  1.00  0.00     0.208 C 
HETATM    5  C5  UNL     1       2.277   0.123   0.005  1.00  0.00     0.049 C 
HETATM    6  N3  UNL     1       3.416   0.292   0.563  1.00  0.00    -0.263 NA
HETATM    7  C7  UNL     1       1.850  -1.075   0.787  1.00  0.00     0.028 C 
HETATM    8  C8  UNL     1       0.941  -2.049   1.061  1.00  0.00     0.129 C 
HETATM    9  N5  UNL     1      -0.169  -3.016   1.197  1.00  0.00    -0.397 N 
HETATM   10  C9  UNL     1      -1.332  -2.118   1.029  1.00  0.00     0.078 A 
HETATM   11  C10 UNL     1      -1.387  -2.838  -0.116  1.00  0.00     0.008 A 
HETATM   12  C11 UNL     1      -1.977  -1.941  -0.982  1.00  0.00     0.026 A 
HETATM   13  C12 UNL     1      -2.127  -0.879  -0.122  1.00  0.00     0.039 A 
HETATM   14  C13 UNL     1      -1.913  -0.472   1.171  1.00  0.00     0.115 A 
HETATM   15 CL1  UNL     1      -2.125   0.877   2.240  1.00  0.00    -0.109 Cl
HETATM   16  C14 UNL     1      -1.338  -1.297   2.102  1.00  0.00     0.061 A 
HETATM   17  H15 UNL     1       0.648  -3.689   1.322  1.00  0.00     0.155 HD
ENDROOT
BRANCH   6  18
HETATM   18  C6  UNL     1       4.277   1.357   0.201  1.00  0.00     0.414 C 
BRANCH  18  19
HETATM   19  N4  UNL     1       5.679   0.996   0.435  1.00  0.00     0.097 N 
HETATM   20  H11 UNL     1       5.878   0.979   1.458  1.00  0.00     0.315 HD
HETATM   21  H12 UNL     1       6.250   1.716  -0.037  1.00  0.00     0.315 HD
ENDBRANCH  18  19
ENDBRANCH   6  18
BRANCH   1  22
HETATM   22  C2  UNL     1      -2.732   1.771  -0.997  1.00  0.00     0.125 C 
HETATM   23  C1  UNL     1      -4.106   2.234  -0.527  1.00  0.00     0.027 C 
ENDBRANCH   1  22
TORSDOF 3
