REMARK  5 active torsions:
REMARK  status: ('A' for Active; 'I' for Inactive)
REMARK    1  A    between atoms: C4_4  and  N1_5 
REMARK       I    between atoms: N1_5  and  C5_6 
REMARK    2  A    between atoms: C5_6  and  C6_8 
REMARK    3  A    between atoms: C7_9  and  C8_10 
REMARK    4  A    between atoms: C8_10  and  N2_11 
REMARK    5  A    between atoms: C13_16  and  O2_17 
ROOT
HETATM    1  C1  UNL     1      -2.922   2.796   0.056  1.00  0.00     0.026 C 
HETATM    2  C2  UNL     1      -2.783   1.498   0.332  1.00  0.00    -0.015 C 
HETATM    3  C3  UNL     1      -1.371   1.071   0.421  1.00  0.00     0.038 C 
HETATM    4  C4  UNL     1      -0.849  -0.165   0.413  1.00  0.00     0.013 C 
HETATM    5  C11 UNL     1      -1.311  -1.577   0.324  1.00  0.00     0.063 C 
HETATM    6  C12 UNL     1      -2.401  -1.795  -0.677  1.00  0.00     0.070 C 
HETATM    7  C13 UNL     1      -3.773  -1.704  -0.066  1.00  0.00     0.045 C 
HETATM    8  C14 UNL     1      -4.414  -0.616   0.389  1.00  0.00     0.064 C 
HETATM    9  C15 UNL     1      -4.085   0.814   0.478  1.00  0.00     0.062 C 
HETATM   10  N3  UNL     1      -5.010   1.647   0.715  1.00  0.00    -0.294 NA
HETATM   11  C16 UNL     1      -6.368   1.246   0.899  1.00  0.00     0.178 C 
ENDROOT
BRANCH   4  12
HETATM   12  N1  UNL     1       0.556   0.021   0.525  1.00  0.00    -0.327 N 
HETATM   13  C5  UNL     1       1.412  -0.452  -0.486  1.00  0.00     0.245 C 
HETATM   14  O1  UNL     1       0.990  -1.042  -1.505  1.00  0.00    -0.268 OA
HETATM   15  H4  UNL     1       0.868   0.522   1.395  1.00  0.00     0.169 HD
BRANCH  13  16
HETATM   16  C6  UNL     1       2.821  -0.234  -0.314  1.00  0.00     0.072 C 
HETATM   17  C7  UNL     1       3.698  -0.643  -1.214  1.00  0.00    -0.002 C 
BRANCH  17  18
HETATM   18  C8  UNL     1       5.173  -0.590  -1.357  1.00  0.00     0.143 C 
BRANCH  18  19
HETATM   19  N2  UNL     1       5.732   0.068  -0.222  1.00  0.00    -0.418 N 
HETATM   20  C9  UNL     1       5.637  -0.617   1.020  1.00  0.00     0.142 C 
HETATM   21  C10 UNL     1       5.604   1.485  -0.187  1.00  0.00     0.142 C 
ENDBRANCH  18  19
ENDBRANCH  17  18
ENDBRANCH  13  16
ENDBRANCH   4  12
BRANCH   7  22
HETATM   22  O2  UNL     1      -4.671  -2.766   0.151  1.00  0.00    -0.365 OA
HETATM   23  H19 UNL     1      -4.648  -3.123   1.119  1.00  0.00     0.217 HD
ENDBRANCH   7  22
TORSDOF 5
