REMARK  5 active torsions:
REMARK  status: ('A' for Active; 'I' for Inactive)
REMARK    1  A    between atoms: O1_2  and  C2_3 
REMARK    2  A    between atoms: C18_22  and  N2_23 
REMARK    3  A    between atoms: N2_23  and  C19_24 
REMARK    4  A    between atoms: N2_23  and  O3_28 
REMARK    5  A    between atoms: C20_25  and  C21_26 
ROOT
HETATM    1  C2  UNL     1      -2.146   1.728  -0.211  1.00  0.00     0.099 A 
HETATM    2  C3  UNL     1      -0.926   1.179  -0.155  1.00  0.00     0.066 A 
HETATM    3  C4  UNL     1       0.225   0.490  -0.192  1.00  0.00    -0.037 A 
HETATM    4  C5  UNL     1      -0.677  -0.343  -0.888  1.00  0.00     0.040 A 
HETATM    5  C6  UNL     1      -1.874   0.278  -0.889  1.00  0.00     0.064 A 
HETATM    6  C7  UNL     1      -3.073   0.918  -0.880  1.00  0.00    -0.034 A 
HETATM    7  C8  UNL     1      -4.472   0.645  -1.315  1.00  0.00     0.209 C 
HETATM    8  O2  UNL     1      -4.963  -0.530  -0.574  1.00  0.00    -0.346 OA
HETATM    9  C9  UNL     1      -3.953  -1.376  -0.074  1.00  0.00     0.089 A 
HETATM   10  C10 UNL     1      -3.176  -2.516  -0.333  1.00  0.00     0.051 A 
HETATM   11  C11 UNL     1      -2.211  -2.908   0.594  1.00  0.00     0.282 A 
HETATM   12  C12 UNL     1      -2.393  -1.934   1.534  1.00  0.00     0.155 A 
HETATM   13  C13 UNL     1      -2.929  -0.834   2.120  1.00  0.00     0.062 A 
HETATM   14  C14 UNL     1      -3.792  -0.645   1.081  1.00  0.00     0.069 A 
HETATM   15 CL1  UNL     1      -4.484   0.723   1.956  1.00  0.00    -0.081 Cl
HETATM   16  N1  UNL     1      -1.046  -2.467   1.720  1.00  0.00    -0.009 N 
HETATM   17  C15 UNL     1       0.255  -2.967   1.910  1.00  0.00     0.207 C 
HETATM   18  C16 UNL     1       1.056  -2.558   0.892  1.00  0.00     0.027 C 
HETATM   19  C17 UNL     1       1.598  -1.257   0.525  1.00  0.00     0.034 C 
HETATM   20  C18 UNL     1       1.479  -0.121  -0.156  1.00  0.00     0.065 C 
HETATM   21  H12 UNL     1      -0.715  -1.702   2.407  1.00  0.00     0.293 HD
ENDROOT
BRANCH  20  22
HETATM   22  N2  UNL     1       2.607   0.423  -0.801  1.00  0.00    -0.234 N 
BRANCH  22  23
HETATM   23  C19 UNL     1       3.904   0.027  -0.395  1.00  0.00     0.122 C 
HETATM   24  C20 UNL     1       4.917   0.076  -1.245  1.00  0.00     0.024 C 
BRANCH  24  25
HETATM   25  C21 UNL     1       6.286  -0.333  -0.847  1.00  0.00     0.251 C 
HETATM   26  F1  UNL     1       7.159   0.734  -0.996  1.00  0.00    -0.251 F 
ENDBRANCH  24  25
ENDBRANCH  22  23
BRANCH  22  27
HETATM   27  O3  UNL     1       2.419   1.317  -1.788  1.00  0.00    -0.279 OA
HETATM   28  C22 UNL     1       3.140   2.478  -1.423  1.00  0.00     0.238 C 
ENDBRANCH  22  27
ENDBRANCH  20  22
BRANCH   1  29
HETATM   29  O1  UNL     1      -2.453   2.964   0.338  1.00  0.00    -0.379 OA
HETATM   30  C1  UNL     1      -1.471   3.740   1.005  1.00  0.00     0.203 C 
ENDBRANCH   1  29
TORSDOF 5
