REMARK  2 active torsions:
REMARK  status: ('A' for Active; 'I' for Inactive)
REMARK    1  A    between atoms: C2_2  and  O1_3 
REMARK    2  A    between atoms: O1_3  and  C3_4 
ROOT
HETATM    1  C3  UNL     1       4.399   0.765   0.273  1.00  0.00     0.070 A 
HETATM    2  C4  UNL     1       3.103   1.292   0.301  1.00  0.00     0.038 A 
HETATM    3  C5  UNL     1       2.067   0.462  -0.098  1.00  0.00     0.017 A 
HETATM    4  C6  UNL     1       2.241  -0.858  -0.522  1.00  0.00     0.005 A 
HETATM    5  C7  UNL     1       1.152  -1.625  -0.906  1.00  0.00     0.009 A 
HETATM    6  C8  UNL     1      -0.139  -0.980  -0.838  1.00  0.00    -0.021 A 
HETATM    7  C9  UNL     1      -0.570  -0.322  -1.945  1.00  0.00     0.039 A 
HETATM    8  C10 UNL     1      -1.793   0.306  -1.923  1.00  0.00     0.068 A 
HETATM    9 CL1  UNL     1      -2.467   1.185  -3.279  1.00  0.00    -0.081 Cl
HETATM   10  C11 UNL     1      -2.627   0.319  -0.847  1.00  0.00     0.097 A 
HETATM   11  C12 UNL     1      -2.201  -0.352   0.301  1.00  0.00    -0.017 A 
HETATM   12  C13 UNL     1      -0.962  -0.995   0.294  1.00  0.00     0.022 A 
HETATM   13  C14 UNL     1      -2.845  -0.538   1.630  1.00  0.00     0.088 C 
HETATM   14  C15 UNL     1      -4.228   0.049   1.617  1.00  0.00     0.088 C 
HETATM   15  N1  UNL     1      -4.517   1.225   1.966  1.00  0.00    -0.302 NA
HETATM   16  C16 UNL     1      -5.864   1.734   1.932  1.00  0.00     0.175 C 
HETATM   17  C17 UNL     1      -6.346   1.866   0.549  1.00  0.00    -0.007 C 
HETATM   18  C18 UNL     1      -6.030   1.688  -0.729  1.00  0.00    -0.003 C 
HETATM   19  C19 UNL     1      -4.825   1.182  -1.475  1.00  0.00     0.203 C 
HETATM   20  O2  UNL     1      -3.851   0.834  -0.532  1.00  0.00    -0.345 OA
HETATM   21  C20 UNL     1       1.421  -2.922  -1.312  1.00  0.00     0.074 A 
HETATM   22  C21 UNL     1       0.288  -3.699  -1.706  1.00  0.00     0.102 C 
HETATM   23  N2  UNL     1      -0.621  -4.346  -2.017  1.00  0.00    -0.191 NA
HETATM   24  C22 UNL     1       2.724  -3.377  -1.315  1.00  0.00     0.140 A 
HETATM   25  N3  UNL     1       3.744  -2.585  -0.931  1.00  0.00    -0.259 NA
HETATM   26  C23 UNL     1       3.544  -1.316  -0.526  1.00  0.00     0.070 A 
HETATM   27  C24 UNL     1       4.607  -0.535  -0.140  1.00  0.00     0.069 A 
ENDROOT
BRANCH   1  28
HETATM   28  O1  UNL     1       5.359   1.676   0.691  1.00  0.00    -0.351 OA
BRANCH  28  29
HETATM   29  C2  UNL     1       6.730   1.449   0.773  1.00  0.00     0.171 C 
HETATM   30  C1  UNL     1       7.078   0.318   1.719  1.00  0.00     0.034 C 
ENDBRANCH  28  29
ENDBRANCH   1  28
TORSDOF 2
