REMARK  4 active torsions:
REMARK  status: ('A' for Active; 'I' for Inactive)
REMARK    1  A    between atoms: C2_2  and  O1_3 
REMARK    2  A    between atoms: O1_3  and  C3_4 
REMARK    3  A    between atoms: N2_11  and  C9_12 
REMARK    4  A    between atoms: C9_12  and  C10_13 
ROOT
HETATM    1  C10 UNL     1       4.199   2.768  -0.878  1.00  0.00     0.112 C 
HETATM    2  C11 UNL     1       5.239   3.363  -1.687  1.00  0.00     0.089 C 
HETATM    3  N3  UNL     1       6.069   3.817  -2.334  1.00  0.00    -0.192 NA
ENDROOT
BRANCH   1   4
HETATM    4  C9  UNL     1       3.828   1.528  -0.792  1.00  0.00     0.130 C 
BRANCH   4   5
HETATM    5  N2  UNL     1       3.399   0.269  -0.657  1.00  0.00    -0.243 NA
HETATM    6  C8  UNL     1       2.474  -0.501  -0.815  1.00  0.00     0.128 C 
HETATM    7  N1  UNL     1       1.590   0.445  -1.341  1.00  0.00    -0.350 N 
HETATM    8  C12 UNL     1       2.990  -1.822  -0.346  1.00  0.00     0.072 C 
HETATM    9  C7  UNL     1       1.043   1.426  -0.440  1.00  0.00     0.097 C 
HETATM   10  H10 UNL     1       1.358   0.412  -2.360  1.00  0.00     0.166 HD
HETATM   11  C6  UNL     1       0.089   2.161   0.071  1.00  0.00    -0.038 C 
HETATM   12  C5  UNL     1      -0.731   3.092   0.837  1.00  0.00     0.070 C 
HETATM   13  C22 UNL     1      -0.896   1.591  -0.826  1.00  0.00     0.024 C 
HETATM   14  C4  UNL     1      -2.181   2.737   0.892  1.00  0.00     0.015 C 
HETATM   15  C3  UNL     1      -2.352   1.401   0.913  1.00  0.00     0.076 C 
HETATM   16  C21 UNL     1      -1.593   0.674  -0.101  1.00  0.00     0.008 C 
HETATM   17  C18 UNL     1      -1.199  -0.591  -0.694  1.00  0.00    -0.023 A 
HETATM   18  C17 UNL     1      -0.716  -0.993   0.518  1.00  0.00     0.015 A 
HETATM   19  C19 UNL     1      -1.326  -0.808  -2.024  1.00  0.00     0.015 A 
HETATM   20  C16 UNL     1       0.016  -2.144   0.624  1.00  0.00     0.037 A 
HETATM   21  C15 UNL     1      -0.103  -2.363  -0.706  1.00  0.00     0.069 A 
HETATM   22  O2  UNL     1       0.518  -3.475  -1.247  1.00  0.00    -0.346 OA
HETATM   23  C20 UNL     1      -0.589  -1.956  -1.906  1.00  0.00     0.037 A 
HETATM   24  C14 UNL     1       1.580  -4.126  -0.533  1.00  0.00     0.227 C 
HETATM   25  C13 UNL     1       2.623  -3.114  -0.235  1.00  0.00     0.039 C 
HETATM   26 CL1  UNL     1       3.815  -4.222   0.472  1.00  0.00    -0.086 Cl
BRANCH  15  27
HETATM   27  O1  UNL     1      -3.039   0.386   1.599  1.00  0.00    -0.351 OA
BRANCH  27  28
HETATM   28  C2  UNL     1      -4.438   0.487   1.634  1.00  0.00     0.171 C 
HETATM   29  C1  UNL     1      -5.111  -0.648   2.372  1.00  0.00     0.034 C 
ENDBRANCH  27  28
ENDBRANCH  15  27
ENDBRANCH   4   5
ENDBRANCH   1   4
TORSDOF 4
