REMARK  5 active torsions:
REMARK  status: ('A' for Active; 'I' for Inactive)
REMARK    1  A    between atoms: C6_8  and  N3_9 
REMARK    2  A    between atoms: N3_9  and  C7_10 
REMARK    3  A    between atoms: C10_13  and  O1_14 
REMARK    4  A    between atoms: O1_14  and  C11_15 
REMARK    5  A    between atoms: C11_15  and  C12_16 
ROOT
HETATM    1  C1  UNL     1      -6.788   0.737   1.377  1.00  0.00     0.070 C 
HETATM    2  C2  UNL     1      -5.466   0.539   0.763  1.00  0.00     0.030 C 
HETATM    3  N1  UNL     1      -4.918  -0.179   1.724  1.00  0.00    -0.265 NA
HETATM    4  C3  UNL     1      -3.557  -0.582   1.455  1.00  0.00     0.139 C 
HETATM    5  C4  UNL     1      -2.346  -0.921   1.093  1.00  0.00     0.088 C 
HETATM    6  C5  UNL     1      -1.490  -1.368   2.146  1.00  0.00     0.101 C 
HETATM    7  N2  UNL     1      -0.790  -1.712   2.985  1.00  0.00    -0.191 NA
HETATM    8  C6  UNL     1      -2.123  -0.738  -0.380  1.00  0.00     0.268 C 
HETATM    9  O2  UNL     1      -1.773   0.531  -0.668  1.00  0.00    -0.358 OA
HETATM   10  C18 UNL     1      -2.557   1.164  -1.575  1.00  0.00     0.198 C 
HETATM   11  C19 UNL     1      -3.979   1.286  -1.222  1.00  0.00     0.001 C 
HETATM   12  C20 UNL     1      -5.073   1.139  -0.501  1.00  0.00     0.025 C 
ENDROOT
BRANCH   8  13
HETATM   13  N3  UNL     1      -1.053  -1.656  -0.815  1.00  0.00    -0.359 N 
HETATM   14  H6  UNL     1      -1.289  -2.476  -1.392  1.00  0.00     0.162 HD
BRANCH  13  15
HETATM   15  C7  UNL     1       0.314  -1.533  -0.519  1.00  0.00     0.032 A 
HETATM   16  C8  UNL     1       0.562  -0.405   0.213  1.00  0.00     0.032 A 
HETATM   17  C9  UNL     1       1.864  -0.248   0.510  1.00  0.00     0.041 A 
HETATM   18  C10 UNL     1       3.082  -0.774   0.375  1.00  0.00     0.091 A 
HETATM   19  C16 UNL     1       2.707  -1.985  -0.428  1.00  0.00     0.069 A 
HETATM   20 CL1  UNL     1       3.578  -3.380  -1.159  1.00  0.00    -0.081 Cl
HETATM   21  C17 UNL     1       1.381  -2.362  -0.864  1.00  0.00     0.056 A 
BRANCH  18  22
HETATM   22  O1  UNL     1       4.312  -1.311   0.235  1.00  0.00    -0.344 OA
BRANCH  22  23
HETATM   23  C11 UNL     1       5.481  -0.725   0.778  1.00  0.00     0.222 C 
BRANCH  23  24
HETATM   24  C12 UNL     1       5.665   0.619   0.206  1.00  0.00     0.006 A 
HETATM   25  C13 UNL     1       6.330   1.051  -0.883  1.00  0.00     0.017 A 
HETATM   26  C14 UNL     1       6.373   2.361  -1.249  1.00  0.00     0.008 A 
HETATM   27  C15 UNL     1       5.620   3.250  -0.334  1.00  0.00     0.050 A 
HETATM   28  S1  UNL     1       4.954   2.028   0.938  1.00  0.00    -0.104 SA
ENDBRANCH  23  24
ENDBRANCH  22  23
ENDBRANCH  18  22
ENDBRANCH  13  15
ENDBRANCH   8  13
TORSDOF 5
