REMARK  7 active torsions:
REMARK  status: ('A' for Active; 'I' for Inactive)
REMARK    1  A    between atoms: C2_3  and  C3_4 
REMARK    2  A    between atoms: C8_11  and  C9_12 
REMARK    3  A    between atoms: C9_12  and  C10_13 
REMARK    4  A    between atoms: C11_14  and  O1_15 
REMARK    5  A    between atoms: O1_15  and  C12_16 
REMARK    6  A    between atoms: C12_16  and  C13_17 
REMARK    7  A    between atoms: C18_23  and  C19_24 
ROOT
HETATM    1  N1  UNL     1      -5.207   0.869  -3.404  1.00  0.00    -0.197 NA
HETATM    2  C1  UNL     1      -4.752   1.364  -2.437  1.00  0.00     0.063 C 
HETATM    3  C2  UNL     1      -4.207   1.980  -1.269  1.00  0.00     0.158 C 
ENDROOT
BRANCH   3   4
HETATM    4  C3  UNL     1      -3.611   1.011  -0.255  1.00  0.00    -0.059 C 
HETATM    5  C4  UNL     1      -3.866  -0.056  -0.882  1.00  0.00     0.017 C 
HETATM    6  C5  UNL     1      -3.686  -1.536  -0.787  1.00  0.00     0.206 C 
HETATM    7  N2  UNL     1      -2.961  -2.332   0.054  1.00  0.00    -0.315 NA
HETATM    8  C6  UNL     1      -2.281  -1.510   0.945  1.00  0.00     0.102 C 
HETATM    9  C7  UNL     1      -0.988  -1.555   1.610  1.00  0.00     0.133 C 
HETATM   10  N3  UNL     1      -0.970  -0.150   2.185  1.00  0.00    -0.392 N 
HETATM   11  C8  UNL     1      -0.909   1.032   1.281  1.00  0.00     0.005 C 
HETATM   12  H9  UNL     1      -0.974   0.479   2.974  1.00  0.00     0.159 HD
HETATM   13  C17 UNL     1      -1.842   2.168   1.103  1.00  0.00     0.068 C 
HETATM   14  C18 UNL     1      -3.306   1.849   0.876  1.00  0.00     0.055 C 
BRANCH  11  15
HETATM   15  C9  UNL     1       0.175   0.985   0.548  1.00  0.00     0.026 C 
BRANCH  15  16
HETATM   16  C10 UNL     1       1.429   0.592  -0.052  1.00  0.00     0.026 C 
HETATM   17  C11 UNL     1       2.446   0.718  -0.868  1.00  0.00     0.135 C 
BRANCH  17  18
HETATM   18  O1  UNL     1       3.488  -0.018  -1.067  1.00  0.00    -0.358 OA
BRANCH  18  19
HETATM   19  C12 UNL     1       4.019  -1.219  -1.348  1.00  0.00     0.220 C 
BRANCH  19  20
HETATM   20  C13 UNL     1       5.454  -1.383  -0.981  1.00  0.00     0.006 A 
HETATM   21  C14 UNL     1       6.627  -1.106  -1.713  1.00  0.00     0.017 A 
HETATM   22  C15 UNL     1       7.779  -1.415  -1.035  1.00  0.00     0.008 A 
HETATM   23  C16 UNL     1       7.848  -1.940   0.222  1.00  0.00     0.050 A 
HETATM   24  S1  UNL     1       5.965  -2.048   0.599  1.00  0.00    -0.104 SA
ENDBRANCH  19  20
ENDBRANCH  18  19
ENDBRANCH  17  18
ENDBRANCH  15  16
ENDBRANCH  11  15
BRANCH  14  25
HETATM   25  C19 UNL     1      -3.668   1.053   2.140  1.00  0.00     0.400 C 
HETATM   26  O2  UNL     1      -3.568   1.660   3.221  1.00  0.00    -0.429 OA
ENDBRANCH  14  25
ENDBRANCH   3   4
TORSDOF 7
