REMARK  0 active torsions:
REMARK  status: ('A' for Active; 'I' for Inactive)
ROOT
HETATM    1 CL1  UNL     1       2.928  -0.823  -2.911  1.00  0.00    -0.081 Cl
HETATM    2  C1  UNL     1       2.440  -0.386  -1.266  1.00  0.00     0.070 C 
HETATM    3  C2  UNL     1       2.448   0.967  -1.114  1.00  0.00     0.078 C 
HETATM    4  C3  UNL     1       2.277   1.713   0.167  1.00  0.00     0.145 C 
HETATM    5  N1  UNL     1       3.025   1.328   1.174  1.00  0.00    -0.267 NA
HETATM    6  C4  UNL     1       3.563   0.051   1.556  1.00  0.00     0.181 C 
HETATM    7  C5  UNL     1       2.799  -1.121   1.037  1.00  0.00     0.033 C 
HETATM    8  C6  UNL     1       2.042  -1.200  -0.080  1.00  0.00     0.088 C 
HETATM    9  O1  UNL     1       0.987  -2.081   0.141  1.00  0.00    -0.346 OA
HETATM   10  C7  UNL     1      -0.167  -2.046  -0.716  1.00  0.00     0.204 C 
HETATM   11  C8  UNL     1      -1.319  -2.424   0.131  1.00  0.00     0.016 C 
HETATM   12  C9  UNL     1      -2.317  -1.575   0.286  1.00  0.00     0.017 A 
HETATM   13  S1  UNL     1      -3.842  -1.766   1.255  1.00  0.00    -0.104 SA
HETATM   14  C10 UNL     1      -4.530  -0.163   0.819  1.00  0.00     0.048 A 
HETATM   15  C11 UNL     1      -3.636   0.406   0.037  1.00  0.00     0.021 A 
HETATM   16  C12 UNL     1      -2.381  -0.226  -0.334  1.00  0.00     0.283 A 
HETATM   17  N2  UNL     1      -1.287   0.565   0.233  1.00  0.00     0.101 N 
HETATM   18  C13 UNL     1      -0.983   1.701  -0.613  1.00  0.00     0.317 C 
HETATM   19  C14 UNL     1       0.138   2.488  -0.068  1.00  0.00     0.121 C 
HETATM   20  N3  UNL     1       1.335   2.796   0.326  1.00  0.00    -0.244 NA
HETATM   21  H11 UNL     1      -1.625   0.862   1.182  1.00  0.00     0.317 HD
ENDROOT
TORSDOF 0
