REMARK  4 active torsions:
REMARK  status: ('A' for Active; 'I' for Inactive)
REMARK    1  A    between atoms: O1_2  and  C2_3 
REMARK    2  A    between atoms: C5_6  and  N1_7 
REMARK    3  A    between atoms: C9_12  and  O2_13 
REMARK    4  A    between atoms: O2_13  and  N3_14 
ROOT
HETATM    1  N1  UNL     1      -1.679  -0.417   0.266  1.00  0.00    -0.295 N 
HETATM    2  C6  UNL     1      -1.152   0.889  -0.072  1.00  0.00     0.178 A 
HETATM    3  C7  UNL     1       0.294   0.834  -0.209  1.00  0.00     0.024 A 
HETATM    4  C8  UNL     1       0.797   2.096  -0.535  1.00  0.00     0.134 A 
HETATM    5  N2  UNL     1       2.121   2.351  -0.726  1.00  0.00    -0.217 NA
HETATM    6  C9  UNL     1       2.989   1.315  -0.590  1.00  0.00     0.292 A 
HETATM    7  N4  UNL     1       2.539   0.070  -0.273  1.00  0.00    -0.187 NA
HETATM    8  C15 UNL     1       1.234  -0.159  -0.089  1.00  0.00     0.145 A 
HETATM    9  N5  UNL     1       0.658  -1.416   0.243  1.00  0.00    -0.292 N 
HETATM   10  C16 UNL     1      -0.752  -1.478   0.401  1.00  0.00     0.329 A 
HETATM   11  O3  UNL     1      -1.146  -2.632   0.693  1.00  0.00    -0.246 OA
HETATM   12  H14 UNL     1       1.292  -2.234   0.356  1.00  0.00     0.172 HD
ENDROOT
BRANCH   1  13
HETATM   13  C5  UNL     1      -3.058  -0.519   0.429  1.00  0.00     0.039 A 
HETATM   14  C4  UNL     1      -3.865   0.616   0.265  1.00  0.00     0.032 A 
HETATM   15  C3  UNL     1      -5.233   0.655   0.397  1.00  0.00     0.039 A 
HETATM   16  C2  UNL     1      -5.901  -0.504   0.718  1.00  0.00     0.068 A 
HETATM   17  C18 UNL     1      -5.177  -1.663   0.896  1.00  0.00     0.039 A 
HETATM   18  C17 UNL     1      -3.811  -1.603   0.742  1.00  0.00     0.032 A 
BRANCH  16  19
HETATM   19  O1  UNL     1      -7.280  -0.490   0.856  1.00  0.00    -0.356 OA
HETATM   20  C1  UNL     1      -7.944   0.743   0.656  1.00  0.00     0.210 C 
ENDBRANCH  16  19
ENDBRANCH   1  13
BRANCH   6  21
HETATM   21  O2  UNL     1       4.359   1.529  -0.777  1.00  0.00    -0.194 OA
BRANCH  21  22
HETATM   22  N3  UNL     1       5.299   0.534  -0.657  1.00  0.00    -0.254 N 
HETATM   23  C10 UNL     1       6.070   0.564   0.527  1.00  0.00     0.118 A 
HETATM   24  C11 UNL     1       6.995  -0.362   0.710  1.00  0.00     0.022 A 
HETATM   25  C12 UNL     1       7.272  -1.423  -0.241  1.00  0.00     0.041 A 
HETATM   26  C13 UNL     1       6.520  -1.400  -1.328  1.00  0.00     0.114 A 
HETATM   27  F1  UNL     1       6.709  -2.352  -2.270  1.00  0.00    -0.209 F 
HETATM   28  C14 UNL     1       5.448  -0.456  -1.707  1.00  0.00     0.225 A 
ENDBRANCH  21  22
ENDBRANCH   6  21
TORSDOF 4
