REMARK  6 active torsions:
REMARK  status: ('A' for Active; 'I' for Inactive)
REMARK    1  A    between atoms: O1_2  and  C2_3 
REMARK    2  A    between atoms: C5_6  and  N1_7 
REMARK    3  A    between atoms: C9_12  and  N3_13 
REMARK    4  A    between atoms: N3_13  and  C10_14 
REMARK    5  A    between atoms: N5_23  and  C16_24 
REMARK    6  A    between atoms: C19_27  and  O2_28 
ROOT
HETATM    1  N1  UNL     1       1.516   0.472  -0.635  1.00  0.00    -0.295 N 
HETATM    2  C6  UNL     1       0.766   1.706  -0.619  1.00  0.00     0.178 C 
HETATM    3  C7  UNL     1      -0.529   1.558   0.104  1.00  0.00     0.025 A 
HETATM    4  C8  UNL     1      -1.158   2.766   0.315  1.00  0.00     0.149 A 
HETATM    5  N2  UNL     1      -2.358   2.754   0.913  1.00  0.00    -0.074 NA
HETATM    6  C9  UNL     1      -2.878   1.556   1.272  1.00  0.00     0.729 A 
HETATM    7  N4  UNL     1      -2.245   0.383   1.056  1.00  0.00    -0.044 NA
HETATM    8  C15 UNL     1      -1.043   0.337   0.463  1.00  0.00     0.162 A 
HETATM    9  N5  UNL     1      -0.315  -0.897   0.286  1.00  0.00    -0.278 N 
HETATM   10  C21 UNL     1       0.960  -0.780  -0.270  1.00  0.00     0.331 C 
HETATM   11  O3  UNL     1       1.707  -1.738  -0.490  1.00  0.00    -0.246 OA
ENDROOT
BRANCH   6  12
HETATM   12  N3  UNL     1      -4.133   1.344   1.923  1.00  0.00    -0.182 N 
HETATM   13  H9  UNL     1      -4.246   1.114   2.927  1.00  0.00     0.185 HD
BRANCH  12  14
HETATM   14  C10 UNL     1      -5.212   1.491   1.022  1.00  0.00     0.091 C 
HETATM   15  S1  UNL     1      -6.731   1.286   1.565  1.00  0.00    -0.068 SA
HETATM   16  C11 UNL     1      -7.881   1.729   0.492  1.00  0.00     0.065 C 
HETATM   17  C12 UNL     1      -7.434   1.777  -0.750  1.00  0.00     0.135 C 
HETATM   18  F1  UNL     1      -8.554   1.610  -1.508  1.00  0.00    -0.205 F 
HETATM   19  C13 UNL     1      -6.084   1.959  -1.230  1.00  0.00     0.046 C 
HETATM   20  C14 UNL     1      -5.062   1.820  -0.382  1.00  0.00     0.041 C 
ENDBRANCH  12  14
ENDBRANCH   6  12
BRANCH   9  21
HETATM   21  C16 UNL     1      -0.907  -2.130   0.672  1.00  0.00     0.099 C 
HETATM   22  C17 UNL     1      -1.023  -3.022  -0.569  1.00  0.00     0.028 C 
HETATM   23  C18 UNL     1      -1.571  -4.289   0.112  1.00  0.00     0.034 C 
HETATM   24  C19 UNL     1      -0.854  -4.334   1.442  1.00  0.00     0.120 C 
HETATM   25  C20 UNL     1      -0.112  -2.999   1.579  1.00  0.00     0.057 C 
BRANCH  24  26
HETATM   26  O2  UNL     1       0.059  -5.382   1.400  1.00  0.00    -0.396 OA
HETATM   27  H18 UNL     1       0.868  -5.189   1.957  1.00  0.00     0.210 HD
ENDBRANCH  24  26
ENDBRANCH   9  21
BRANCH   1  28
HETATM   28  C5  UNL     1       2.878   0.707  -1.034  1.00  0.00     0.039 A 
HETATM   29  C4  UNL     1       3.539   0.668  -2.242  1.00  0.00     0.032 A 
HETATM   30  C3  UNL     1       4.881   0.973  -2.267  1.00  0.00     0.039 A 
HETATM   31  C2  UNL     1       5.610   1.319  -1.141  1.00  0.00     0.068 A 
HETATM   32  C23 UNL     1       4.938   1.353   0.062  1.00  0.00     0.039 A 
HETATM   33  C22 UNL     1       3.575   1.052   0.139  1.00  0.00     0.032 A 
BRANCH  31  34
HETATM   34  O1  UNL     1       6.943   1.589  -1.372  1.00  0.00    -0.356 OA
HETATM   35  C1  UNL     1       7.885   1.966  -0.391  1.00  0.00     0.210 C 
ENDBRANCH  31  34
ENDBRANCH   1  28
TORSDOF 6
