REMARK  6 active torsions:
REMARK  status: ('A' for Active; 'I' for Inactive)
REMARK    1  A    between atoms: O1_2  and  C2_3 
REMARK    2  A    between atoms: C5_6  and  N1_7 
REMARK    3  A    between atoms: C9_12  and  N3_13 
REMARK    4  A    between atoms: N3_13  and  C10_14 
REMARK    5  A    between atoms: N5_19  and  C13_20 
REMARK    6  A    between atoms: C16_23  and  O2_24 
ROOT
HETATM    1  N1  UNL     1      -1.687  -0.043   0.030  1.00  0.00    -0.295 N 
HETATM    2  C6  UNL     1      -1.347   1.339  -0.020  1.00  0.00     0.178 A 
HETATM    3  C7  UNL     1       0.110   1.502  -0.159  1.00  0.00     0.025 A 
HETATM    4  C8  UNL     1       0.439   2.848  -0.205  1.00  0.00     0.149 A 
HETATM    5  N2  UNL     1       1.717   3.273  -0.331  1.00  0.00    -0.074 NA
HETATM    6  C9  UNL     1       2.737   2.369  -0.418  1.00  0.00     0.728 A 
HETATM    7  N4  UNL     1       2.414   1.057  -0.372  1.00  0.00    -0.044 NA
HETATM    8  C12 UNL     1       1.162   0.630  -0.249  1.00  0.00     0.162 A 
HETATM    9  N5  UNL     1       0.753  -0.738  -0.194  1.00  0.00    -0.278 N 
HETATM   10  C18 UNL     1      -0.641  -0.996  -0.058  1.00  0.00     0.331 A 
HETATM   11  O3  UNL     1      -0.875  -2.225  -0.022  1.00  0.00    -0.246 OA
ENDROOT
BRANCH   1  12
HETATM   12  C5  UNL     1      -3.042  -0.355   0.165  1.00  0.00     0.039 A 
HETATM   13  C4  UNL     1      -3.645  -1.587   0.234  1.00  0.00     0.032 A 
HETATM   14  C3  UNL     1      -4.989  -1.845   0.368  1.00  0.00     0.039 A 
HETATM   15  C2  UNL     1      -5.857  -0.781   0.443  1.00  0.00     0.068 A 
HETATM   16  C20 UNL     1      -5.348   0.486   0.383  1.00  0.00     0.039 A 
HETATM   17  C19 UNL     1      -3.989   0.650   0.249  1.00  0.00     0.032 A 
BRANCH  15  18
HETATM   18  O1  UNL     1      -7.213  -0.970   0.578  1.00  0.00    -0.356 OA
HETATM   19  C1  UNL     1      -8.112   0.112   0.656  1.00  0.00     0.210 C 
ENDBRANCH  15  18
ENDBRANCH   1  12
BRANCH   9  20
HETATM   20  C13 UNL     1       1.763  -1.752  -0.279  1.00  0.00     0.099 C 
HETATM   21  C14 UNL     1       2.575  -1.734  -1.537  1.00  0.00     0.028 C 
HETATM   22  C15 UNL     1       3.843  -2.462  -1.138  1.00  0.00     0.034 C 
HETATM   23  C16 UNL     1       3.739  -2.795   0.323  1.00  0.00     0.120 C 
HETATM   24  C17 UNL     1       2.771  -1.737   0.831  1.00  0.00     0.057 C 
BRANCH  23  25
HETATM   25  O2  UNL     1       3.239  -4.077   0.520  1.00  0.00    -0.396 OA
HETATM   26  H18 UNL     1       3.932  -4.709   0.253  1.00  0.00     0.210 HD
ENDBRANCH  23  25
ENDBRANCH   9  20
BRANCH   6  27
HETATM   27  N3  UNL     1       4.105   2.732  -0.553  1.00  0.00    -0.196 N 
HETATM   28  H9  UNL     1       4.475   2.837  -1.503  1.00  0.00     0.183 HD
BRANCH  27  29
HETATM   29  C10 UNL     1       4.970   2.951   0.554  1.00  0.00     0.134 C 
HETATM   30  C11 UNL     1       5.747   4.018   0.453  1.00  0.00     0.418 C 
HETATM   31  F1  UNL     1       6.696   4.877   0.888  1.00  0.00    -0.429 F 
ENDBRANCH  27  29
ENDBRANCH   6  27
TORSDOF 6
