REMARK  5 active torsions:
REMARK  status: ('A' for Active; 'I' for Inactive)
REMARK    1  A    between atoms: C8_10  and  N2_11 
REMARK    2  A    between atoms: N2_11  and  C9_12 
REMARK    3  A    between atoms: C9_12  and  C10_13 
REMARK    4  A    between atoms: C10_13  and  C11_14 
REMARK    5  A    between atoms: C11_14  and  C12_15 
ROOT
HETATM    1  O1  UNL     1       2.488   3.558   1.545  1.00  0.00    -0.274 OA
HETATM    2  C1  UNL     1       2.472   2.312   1.477  1.00  0.00     0.219 C 
HETATM    3  C2  UNL     1       3.396   1.123   1.664  1.00  0.00     0.122 C 
HETATM    4  C3  UNL     1       4.575   1.292   0.712  1.00  0.00     0.123 C 
HETATM    5  N1  UNL     1       4.137   1.386  -0.628  1.00  0.00    -0.418 N 
HETATM    6  C4  UNL     1       3.618   0.311  -1.354  1.00  0.00     0.141 C 
HETATM    7  C5  UNL     1       2.394  -0.265  -0.744  1.00  0.00    -0.008 C 
HETATM    8  C6  UNL     1       1.555  -1.171  -0.262  1.00  0.00     0.002 C 
HETATM    9  C7  UNL     1       0.267  -1.394   0.356  1.00  0.00     0.055 C 
HETATM   10  C8  UNL     1      -0.765  -0.699   0.807  1.00  0.00     0.138 C 
HETATM   11  O2  UNL     1      -1.136   0.623   0.938  1.00  0.00    -0.334 OA
HETATM   12  C13 UNL     1      -1.006   1.711   0.146  1.00  0.00     0.197 C 
HETATM   13  C14 UNL     1      -0.223   2.887   0.732  1.00  0.00     0.149 C 
HETATM   14  N3  UNL     1       1.124   2.547   1.100  1.00  0.00    -0.359 N 
HETATM   15  H5  UNL     1       4.061   2.328  -1.042  1.00  0.00     0.153 HD
HETATM   16  H22 UNL     1       1.013   1.517   1.136  1.00  0.00     0.162 HD
ENDROOT
BRANCH  10  17
HETATM   17  N2  UNL     1      -1.827  -1.555   1.336  1.00  0.00    -0.364 N 
HETATM   18  H11 UNL     1      -1.373  -1.497   2.281  1.00  0.00     0.162 HD
BRANCH  17  19
HETATM   19  C9  UNL     1      -2.432  -1.630   0.069  1.00  0.00     0.111 C 
BRANCH  19  20
HETATM   20  C10 UNL     1      -3.490  -2.222  -0.438  1.00  0.00     0.019 C 
BRANCH  20  21
HETATM   21  C11 UNL     1      -4.730  -3.001  -0.720  1.00  0.00     0.038 C 
BRANCH  21  22
HETATM   22  C12 UNL     1      -5.840  -2.136  -1.264  1.00  0.00     0.222 C 
HETATM   23  F1  UNL     1      -5.397  -1.562  -2.443  1.00  0.00    -0.255 F 
ENDBRANCH  21  22
ENDBRANCH  20  21
ENDBRANCH  19  20
ENDBRANCH  17  19
ENDBRANCH  10  17
TORSDOF 5
