REMARK  3 active torsions:
REMARK  status: ('A' for Active; 'I' for Inactive)
REMARK    1  A    between atoms: C2_4  and  O2_5 
REMARK    2  A    between atoms: C5_8  and  C6_9 
REMARK    3  A    between atoms: C6_9  and  C7_10 
ROOT
HETATM    1  C7  UNL     1      -0.073   0.253   1.889  1.00  0.00     0.035 A 
HETATM    2  C8  UNL     1      -0.727  -0.423   2.954  1.00  0.00     0.364 A 
HETATM    3  N2  UNL     1      -2.061  -0.562   3.001  1.00  0.00    -0.027 NA
HETATM    4  C9  UNL     1      -3.076  -0.217   2.264  1.00  0.00     0.408 A 
HETATM    5  N3  UNL     1      -1.890  -0.012   2.081  1.00  0.00     0.129 N 
HETATM    6  C10 UNL     1      -1.187   0.575   1.178  1.00  0.00     0.284 A 
HETATM    7  O3  UNL     1      -1.112   1.297  -0.046  1.00  0.00    -0.258 OA
HETATM    8  C11 UNL     1      -2.128   2.214  -0.521  1.00  0.00     0.233 C 
HETATM    9  F1  UNL     1      -1.626   3.095  -1.360  1.00  0.00    -0.178 F 
HETATM   10  C12 UNL     1      -3.450   2.225  -0.187  1.00  0.00     0.088 C 
HETATM   11  C13 UNL     1      -4.255   1.512   0.844  1.00  0.00     0.120 C 
HETATM   12  N4  UNL     1      -3.958   0.290   1.304  1.00  0.00    -0.239 NA
ENDROOT
BRANCH   1  13
HETATM   13  C6  UNL     1       1.149   0.743   1.216  1.00  0.00     0.086 C 
BRANCH  13  14
HETATM   14  C5  UNL     1       1.499  -0.137   0.044  1.00  0.00     0.010 C 
HETATM   15  C1  UNL     1       2.702   0.228  -0.692  1.00  0.00     0.249 C 
HETATM   16  O1  UNL     1       3.354   1.233  -0.314  1.00  0.00    -0.268 OA
HETATM   17  N1  UNL     1       3.079  -0.586  -1.814  1.00  0.00    -0.331 N 
HETATM   18  C2  UNL     1       2.659  -1.973  -1.808  1.00  0.00     0.223 C 
HETATM   19  H1  UNL     1       3.634  -0.128  -2.567  1.00  0.00     0.165 HD
HETATM   20  C3  UNL     1       1.194  -2.041  -1.514  1.00  0.00     0.081 C 
HETATM   21  C4  UNL     1       0.824  -1.198  -0.368  1.00  0.00    -0.010 C 
BRANCH  18  22
HETATM   22  O2  UNL     1       2.898  -2.511  -3.070  1.00  0.00    -0.377 OA
HETATM   23  H3  UNL     1       3.721  -2.046  -3.395  1.00  0.00     0.212 HD
ENDBRANCH  18  22
ENDBRANCH  13  14
ENDBRANCH   1  13
TORSDOF 3
