REMARK  5 active torsions:
REMARK  status: ('A' for Active; 'I' for Inactive)
REMARK    1  A    between atoms: O1_2  and  C2_3 
REMARK    2  A    between atoms: N1_11  and  C9_12 
REMARK    3  A    between atoms: C12_15  and  O3_16 
REMARK    4  A    between atoms: C15_20  and  N3_21 
REMARK    5  A    between atoms: N3_21  and  C16_22 
ROOT
HETATM    1  C2  UNL     1      -5.293  -1.778   0.398  1.00  0.00     0.069 A 
HETATM    2  C3  UNL     1      -4.774  -2.736   1.267  1.00  0.00     0.037 A 
HETATM    3  C4  UNL     1      -3.490  -2.539   1.725  1.00  0.00     0.011 A 
HETATM    4  C5  UNL     1      -2.687  -1.450   1.376  1.00  0.00    -0.038 A 
HETATM    5  C6  UNL     1      -3.289  -0.563   0.516  1.00  0.00     0.041 A 
HETATM    6  C7  UNL     1      -4.565  -0.675   0.005  1.00  0.00     0.054 A 
HETATM    7  C8  UNL     1      -2.599   0.654   0.028  1.00  0.00     0.260 C 
HETATM    8  O2  UNL     1      -3.393   1.610  -0.258  1.00  0.00    -0.267 OA
HETATM    9  N1  UNL     1      -1.186   0.911  -0.169  1.00  0.00    -0.292 N 
HETATM   10  C14 UNL     1      -0.177   0.072   0.370  1.00  0.00     0.160 A 
HETATM   11  N2  UNL     1       0.990   0.400  -0.153  1.00  0.00    -0.044 NA
HETATM   12  C15 UNL     1       2.154  -0.185   0.132  1.00  0.00     0.728 A 
HETATM   13  N4  UNL     1       2.052  -1.168   1.021  1.00  0.00    -0.074 NA
HETATM   14  C22 UNL     1       0.927  -1.571   1.602  1.00  0.00     0.147 A 
HETATM   15  C23 UNL     1      -0.260  -0.949   1.289  1.00  0.00     0.011 A 
HETATM   16  C24 UNL     1      -1.376  -1.539   2.039  1.00  0.00     0.083 C 
ENDROOT
BRANCH  12  17
HETATM   17  N3  UNL     1       3.349   0.235  -0.481  1.00  0.00    -0.188 N 
HETATM   18  H16 UNL     1       3.261   1.031  -1.177  1.00  0.00     0.184 HD
BRANCH  17  19
HETATM   19  C16 UNL     1       4.663  -0.260  -0.299  1.00  0.00     0.049 A 
HETATM   20  C17 UNL     1       5.036  -1.282   0.543  1.00  0.00     0.033 A 
HETATM   21  C18 UNL     1       6.310  -1.760   0.716  1.00  0.00     0.044 A 
HETATM   22  C19 UNL     1       7.321  -1.173  -0.012  1.00  0.00     0.116 A 
HETATM   23  F1  UNL     1       8.594  -1.612   0.128  1.00  0.00    -0.206 F 
HETATM   24  C20 UNL     1       7.017  -0.148  -0.870  1.00  0.00     0.044 A 
HETATM   25  C21 UNL     1       5.717   0.283  -0.997  1.00  0.00     0.033 A 
ENDBRANCH  17  19
ENDBRANCH  12  17
BRANCH   9  26
HETATM   26  C9  UNL     1      -0.922   2.068  -0.929  1.00  0.00     0.097 C 
HETATM   27  C10 UNL     1      -0.150   1.995  -2.177  1.00  0.00     0.028 C 
HETATM   28  C11 UNL     1       0.221   3.480  -2.363  1.00  0.00     0.034 C 
HETATM   29  C12 UNL     1       0.729   3.835  -1.010  1.00  0.00     0.120 C 
HETATM   30  C13 UNL     1      -0.201   3.095  -0.074  1.00  0.00     0.057 C 
BRANCH  29  31
HETATM   31  O3  UNL     1       2.065   3.476  -0.839  1.00  0.00    -0.396 OA
HETATM   32  H13 UNL     1       2.646   4.244  -1.048  1.00  0.00     0.210 HD
ENDBRANCH  29  31
ENDBRANCH   9  26
BRANCH   1  33
HETATM   33  O1  UNL     1      -6.586  -1.912  -0.106  1.00  0.00    -0.356 OA
HETATM   34  C1  UNL     1      -7.323  -3.045   0.303  1.00  0.00     0.210 C 
ENDBRANCH   1  33
TORSDOF 5
