REMARK  5 active torsions:
REMARK  status: ('A' for Active; 'I' for Inactive)
REMARK    1  A    between atoms: N1_2  and  C3_4 
REMARK    2  A    between atoms: C3_4  and  C4_5 
REMARK    3  A    between atoms: C5_6  and  C6_7 
REMARK       I    between atoms: C6_7  and  N2_9 
REMARK    4  A    between atoms: N2_9  and  C7_10 
REMARK    5  A    between atoms: N3_14  and  C11_15 
ROOT
HETATM    1  C7  UNL     1       0.684   0.884  -0.125  1.00  0.00     0.032 C 
HETATM    2  C8  UNL     1       1.519   1.624   0.612  1.00  0.00     0.008 C 
HETATM    3  C9  UNL     1       2.707   2.224   1.211  1.00  0.00     0.107 C 
HETATM    4  C10 UNL     1       3.915   1.530   0.696  1.00  0.00     0.106 C 
HETATM    5  N3  UNL     1       4.663   0.861   1.471  1.00  0.00    -0.246 NA
HETATM    6  N4  UNL     1       4.527   1.393  -0.561  1.00  0.00    -0.354 N 
HETATM    7  C13 UNL     1       5.036   0.404  -1.417  1.00  0.00     0.087 C 
HETATM    8  C14 UNL     1       4.628  -0.627  -2.132  1.00  0.00     0.016 C 
HETATM    9  C15 UNL     1       3.171  -0.897  -2.059  1.00  0.00     0.196 C 
HETATM   10  O2  UNL     1       2.597   0.027  -1.207  1.00  0.00    -0.382 OA
HETATM   11  C16 UNL     1       1.227  -0.036  -1.148  1.00  0.00     0.224 C 
HETATM   12  H17 UNL     1       4.519   2.414  -0.753  1.00  0.00     0.166 HD
ENDROOT
BRANCH   1  13
HETATM   13  N2  UNL     1      -0.761   0.790  -0.217  1.00  0.00    -0.325 N 
HETATM   14  C6  UNL     1      -1.376  -0.447   0.094  1.00  0.00     0.245 C 
HETATM   15  O1  UNL     1      -0.928  -1.560   0.457  1.00  0.00    -0.268 OA
HETATM   16  H11 UNL     1      -1.339   1.605  -0.503  1.00  0.00     0.169 HD
BRANCH  14  17
HETATM   17  C5  UNL     1      -2.829  -0.509  -0.007  1.00  0.00     0.072 C 
HETATM   18  C4  UNL     1      -3.810   0.310  -0.327  1.00  0.00     0.008 C 
BRANCH  18  19
HETATM   19  C3  UNL     1      -5.252   0.517  -0.506  1.00  0.00     0.299 C 
BRANCH  19  20
HETATM   20  N1  UNL     1      -6.040  -0.675  -0.220  1.00  0.00     0.083 N 
HETATM   21  C1  UNL     1      -7.428  -0.285  -0.460  1.00  0.00     0.309 C 
HETATM   22  C2  UNL     1      -5.843  -1.072   1.165  1.00  0.00     0.309 C 
ENDBRANCH  19  20
ENDBRANCH  18  19
ENDBRANCH  14  17
ENDBRANCH   1  13
BRANCH   5  23
HETATM   23  C11 UNL     1       5.818   0.132   1.282  1.00  0.00     0.130 C 
HETATM   24  C12 UNL     1       5.911  -0.433   2.481  1.00  0.00     0.237 C 
HETATM   25 CL1  UNL     1       5.522  -0.851   4.137  1.00  0.00    -0.229 Cl
ENDBRANCH   5  23
TORSDOF 5
