REMARK  6 active torsions:
REMARK  status: ('A' for Active; 'I' for Inactive)
REMARK    1  A    between atoms: N1_2  and  C2_3 
REMARK    2  A    between atoms: C3_4  and  C4_5 
REMARK    3  A    between atoms: C4_5  and  C5_6 
REMARK    4  A    between atoms: C8_9  and  O1_10 
REMARK    5  A    between atoms: O1_10  and  C9_11 
REMARK    6  A    between atoms: C9_11  and  C10_12 
ROOT
HETATM    1  C5  UNL     1       2.597   0.468  -0.163  1.00  0.00    -0.053 A 
HETATM    2  C6  UNL     1       1.745  -0.601   0.028  1.00  0.00     0.010 A 
HETATM    3  C7  UNL     1       0.379  -0.539  -0.149  1.00  0.00     0.039 A 
HETATM    4  C8  UNL     1      -0.192   0.661  -0.543  1.00  0.00     0.090 A 
HETATM    5  C16 UNL     1       0.640   1.752  -0.742  1.00  0.00     0.068 A 
HETATM    6 CL1  UNL     1      -0.067   3.275  -1.239  1.00  0.00    -0.081 Cl
HETATM    7  C17 UNL     1       2.019   1.656  -0.554  1.00  0.00     0.034 A 
ENDROOT
BRANCH   4   8
HETATM    8  O1  UNL     1      -1.570   0.767  -0.733  1.00  0.00    -0.345 OA
BRANCH   8   9
HETATM    9  C9  UNL     1      -2.375  -0.350  -0.524  1.00  0.00     0.214 C 
BRANCH   9  10
HETATM   10  C10 UNL     1      -3.818  -0.135  -0.752  1.00  0.00    -0.034 A 
HETATM   11  C11 UNL     1      -4.462  -0.315  -1.961  1.00  0.00     0.012 A 
HETATM   12  C12 UNL     1      -5.817  -0.070  -2.002  1.00  0.00     0.043 A 
HETATM   13  C13 UNL     1      -6.577   0.342  -0.927  1.00  0.00     0.116 A 
HETATM   14  F1  UNL     1      -7.909   0.574  -1.007  1.00  0.00    -0.206 F 
HETATM   15  C14 UNL     1      -5.928   0.524   0.288  1.00  0.00     0.043 A 
HETATM   16  C15 UNL     1      -4.562   0.283   0.358  1.00  0.00     0.012 A 
ENDBRANCH   9  10
ENDBRANCH   8   9
ENDBRANCH   4   8
BRANCH   1  17
HETATM   17  C4  UNL     1       4.040   0.241   0.069  1.00  0.00     0.067 C 
BRANCH  17  18
HETATM   18  C3  UNL     1       4.360   0.530   1.487  1.00  0.00    -0.003 C 
HETATM   19  C2  UNL     1       4.873  -0.431   2.273  1.00  0.00     0.111 C 
BRANCH  19  20
HETATM   20  N1  UNL     1       4.970  -1.569   1.425  1.00  0.00    -0.284 NA
HETATM   21  C1  UNL     1       6.103  -2.149   1.168  1.00  0.00     0.148 C 
ENDBRANCH  19  20
ENDBRANCH  17  18
ENDBRANCH   1  17
TORSDOF 6
