REMARK  7 active torsions:
REMARK  status: ('A' for Active; 'I' for Inactive)
REMARK    1  A    between atoms: C4_4  and  N1_5 
REMARK    2  A    between atoms: N1_5  and  C5_6 
REMARK    3  A    between atoms: C5_6  and  C6_8 
REMARK    4  A    between atoms: C6_8  and  C7_9 
REMARK    5  A    between atoms: C9_12  and  O1_13 
REMARK    6  A    between atoms: O1_13  and  C10_14 
REMARK    7  A    between atoms: C10_14  and  C11_15 
ROOT
HETATM    1  C7  UNL     1      -4.250  -2.235  -0.061  1.00  0.00     0.127 C 
HETATM    2  C8  UNL     1      -5.293  -1.418   0.525  1.00  0.00     0.059 C 
HETATM    3  N2  UNL     1      -6.152  -0.756   0.984  1.00  0.00    -0.197 NA
ENDROOT
BRANCH   1   4
HETATM    4  C6  UNL     1      -2.922  -1.568   0.096  1.00  0.00     0.055 C 
BRANCH   4   5
HETATM    5  C5  UNL     1      -2.529  -1.321   1.533  1.00  0.00     0.180 C 
HETATM    6 CL1  UNL     1      -3.675  -0.310   2.403  1.00  0.00    -0.103 Cl
BRANCH   5   7
HETATM    7  N1  UNL     1      -1.222  -0.672   1.484  1.00  0.00    -0.370 N 
HETATM    8  H5  UNL     1      -0.363  -1.100   1.942  1.00  0.00     0.161 HD
BRANCH   7   9
HETATM    9  C4  UNL     1      -1.046   0.571   0.817  1.00  0.00     0.059 A 
HETATM   10  C3  UNL     1      -2.082   1.542   0.484  1.00  0.00     0.034 A 
HETATM   11  C2  UNL     1      -1.612   2.609  -0.141  1.00  0.00    -0.075 A 
HETATM   12  C1  UNL     1      -2.325   3.812  -0.645  1.00  0.00     0.044 C 
HETATM   13  C17 UNL     1      -0.147   2.409  -0.274  1.00  0.00     0.100 A 
HETATM   14  C9  UNL     1       0.091   1.080   0.371  1.00  0.00     0.077 A 
BRANCH  14  15
HETATM   15  O1  UNL     1       1.362   0.527   0.450  1.00  0.00    -0.348 OA
BRANCH  15  16
HETATM   16  C10 UNL     1       1.905  -0.062  -0.703  1.00  0.00     0.214 C 
BRANCH  16  17
HETATM   17  C11 UNL     1       3.263  -0.609  -0.468  1.00  0.00    -0.034 A 
HETATM   18  C12 UNL     1       3.534  -1.894  -0.048  1.00  0.00     0.011 A 
HETATM   19  C13 UNL     1       4.865  -2.255   0.127  1.00  0.00     0.024 A 
HETATM   20  C14 UNL     1       5.899  -1.379  -0.106  1.00  0.00     0.034 A 
HETATM   21 CL2  UNL     1       7.571  -1.832   0.113  1.00  0.00    -0.084 Cl
HETATM   22  C15 UNL     1       5.641  -0.087  -0.527  1.00  0.00     0.024 A 
HETATM   23  C16 UNL     1       4.308   0.287  -0.706  1.00  0.00     0.011 A 
ENDBRANCH  16  17
ENDBRANCH  15  16
ENDBRANCH  14  15
ENDBRANCH   7   9
ENDBRANCH   5   7
ENDBRANCH   4   5
ENDBRANCH   1   4
TORSDOF 7
