REMARK  1 active torsions:
REMARK  status: ('A' for Active; 'I' for Inactive)
REMARK    1  A    between atoms: C10_13  and  C11_14 
ROOT
HETATM    1  C1  UNL     1      -2.622   0.866   2.583  1.00  0.00     0.076 C 
HETATM    2  C2  UNL     1      -1.901   0.658   1.317  1.00  0.00     0.043 C 
HETATM    3  C3  UNL     1      -1.037   1.212   0.518  1.00  0.00     0.047 C 
HETATM    4  C4  UNL     1      -0.106   1.646  -0.489  1.00  0.00     0.012 A 
HETATM    5  C5  UNL     1      -0.657   2.539  -1.373  1.00  0.00     0.130 A 
HETATM    6  N1  UNL     1       0.144   2.983  -2.359  1.00  0.00    -0.271 NA
HETATM    7  C6  UNL     1       1.405   2.567  -2.456  1.00  0.00     0.141 A 
HETATM    8  C7  UNL     1       1.970   1.675  -1.578  1.00  0.00     0.089 A 
HETATM    9  C8  UNL     1       3.315   1.194  -1.604  1.00  0.00     0.103 C 
HETATM   10  N2  UNL     1       4.417   0.817  -1.639  1.00  0.00    -0.191 NA
HETATM   11  C9  UNL     1       1.168   1.211  -0.566  1.00  0.00     0.067 A 
HETATM   12  N3  UNL     1       1.674   0.277   0.358  1.00  0.00    -0.354 N 
HETATM   13  C10 UNL     1       2.275  -0.522   1.337  1.00  0.00     0.044 C 
HETATM   14  C13 UNL     1       3.315  -1.299   1.037  1.00  0.00     0.003 C 
HETATM   15  C14 UNL     1       3.138  -2.041  -0.029  1.00  0.00     0.014 C 
HETATM   16  C15 UNL     1       1.867  -1.947  -0.722  1.00  0.00     0.001 C 
HETATM   17  C16 UNL     1       1.131  -1.883  -1.805  1.00  0.00    -0.000 C 
HETATM   18  C17 UNL     1      -0.233  -1.784  -2.248  1.00  0.00    -0.004 C 
HETATM   19  C18 UNL     1      -1.440  -1.705  -1.807  1.00  0.00    -0.025 C 
HETATM   20  C19 UNL     1      -2.850  -1.612  -1.365  1.00  0.00     0.054 C 
HETATM   21  C20 UNL     1      -3.069  -0.368  -0.501  1.00  0.00     0.179 C 
HETATM   22  O1  UNL     1      -2.144  -0.535   0.594  1.00  0.00    -0.355 OA
HETATM   23  H7  UNL     1       2.337   0.986   0.822  1.00  0.00     0.166 HD
ENDROOT
BRANCH  13  24
HETATM   24  C11 UNL     1       1.860  -0.608   2.721  1.00  0.00     0.042 C 
HETATM   25  C12 UNL     1       0.922  -0.064   3.472  1.00  0.00     0.087 C 
HETATM   26 CL1  UNL     1       0.444  -0.206   5.187  1.00  0.00    -0.097 Cl
ENDBRANCH  13  24
TORSDOF 1
