REMARK  1 active torsions:
REMARK  status: ('A' for Active; 'I' for Inactive)
REMARK    1  A    between atoms: N3_12  and  C9_13 
ROOT
HETATM    1  C1  UNL     1       3.959  -0.318  -0.416  1.00  0.00     0.161 C 
HETATM    2  N1  UNL     1       2.771  -0.235   0.377  1.00  0.00    -0.305 N 
HETATM    3  C2  UNL     1       2.531  -1.029   1.534  1.00  0.00     0.248 A 
HETATM    4  O1  UNL     1       3.379  -1.850   1.902  1.00  0.00    -0.268 OA
HETATM    5  C3  UNL     1       1.297  -0.892   2.300  1.00  0.00     0.073 A 
HETATM    6  C4  UNL     1       0.407  -0.007   1.895  1.00  0.00     0.011 A 
HETATM    7  C5  UNL     1       0.436   0.922   0.744  1.00  0.00     0.177 A 
HETATM    8  C6  UNL     1       1.739   0.682   0.026  1.00  0.00     0.130 A 
HETATM    9  N2  UNL     1       1.801   1.452  -1.010  1.00  0.00    -0.273 NA
HETATM   10  C7  UNL     1       0.770   2.396  -1.398  1.00  0.00     0.170 C 
HETATM   11  C8  UNL     1      -0.613   1.867  -1.156  1.00  0.00     0.146 C 
HETATM   12  N3  UNL     1      -0.645   0.791  -0.174  1.00  0.00    -0.361 N 
ENDROOT
BRANCH  12  13
HETATM   13  C9  UNL     1      -1.686  -0.193  -0.251  1.00  0.00     0.075 A 
HETATM   14  C10 UNL     1      -2.869   0.020   0.432  1.00  0.00     0.062 A 
HETATM   15 CL1  UNL     1      -3.048   1.487   1.366  1.00  0.00    -0.082 Cl
HETATM   16  C11 UNL     1      -3.911  -0.894   0.396  1.00  0.00     0.026 A 
HETATM   17  C12 UNL     1      -3.767  -2.060  -0.347  1.00  0.00     0.003 A 
HETATM   18  C13 UNL     1      -2.593  -2.268  -1.023  1.00  0.00     0.026 A 
HETATM   19  C14 UNL     1      -1.535  -1.356  -0.996  1.00  0.00     0.062 A 
HETATM   20 CL2  UNL     1      -0.044  -1.591  -1.836  1.00  0.00    -0.082 Cl
ENDBRANCH  12  13
TORSDOF 1
