REMARK  2 active torsions:
REMARK  status: ('A' for Active; 'I' for Inactive)
REMARK    1  A    between atoms: C8_9  and  C9_10 
REMARK    2  A    between atoms: C9_10  and  N1_11 
ROOT
HETATM    1  C1  UNL     1       0.548   2.010  -3.080  1.00  0.00     0.042 C 
HETATM    2  C2  UNL     1       1.547   2.069  -2.121  1.00  0.00     0.152 A 
HETATM    3  O1  UNL     1       2.572   0.817  -2.328  1.00  0.00    -0.366 OA
HETATM    4  C3  UNL     1       2.111   0.107  -1.009  1.00  0.00     0.110 A 
HETATM    5  C4  UNL     1       1.154  -0.502  -1.888  1.00  0.00     0.097 A 
HETATM    6  C5  UNL     1       0.308  -1.071  -0.976  1.00  0.00     0.034 A 
HETATM    7  C6  UNL     1       1.304  -0.429  -0.177  1.00  0.00     0.077 A 
HETATM    8  C7  UNL     1       2.075   0.048   0.872  1.00  0.00     0.002 A 
HETATM    9  C8  UNL     1       2.953   0.633  -0.033  1.00  0.00    -0.019 A 
HETATM   10  C12 UNL     1       0.946   1.227  -0.726  1.00  0.00     0.109 A 
HETATM   11  N2  UNL     1       0.165   2.298  -0.200  1.00  0.00    -0.374 N 
HETATM   12  C13 UNL     1      -0.899   2.314   0.728  1.00  0.00     0.031 A 
HETATM   13  C14 UNL     1      -1.115   3.404   1.533  1.00  0.00     0.029 A 
HETATM   14  C15 UNL     1      -2.095   3.506   2.493  1.00  0.00     0.005 A 
HETATM   15  C16 UNL     1      -2.956   2.450   2.703  1.00  0.00     0.037 A 
HETATM   16  C17 UNL     1      -2.835   1.317   1.964  1.00  0.00     0.071 A 
HETATM   17  C18 UNL     1      -1.803   1.320   1.009  1.00  0.00     0.065 A 
HETATM   18  O2  UNL     1      -3.197   0.047   1.605  1.00  0.00    -0.347 OA
HETATM   19  C19 UNL     1      -3.776  -0.389   0.423  1.00  0.00     0.215 C 
HETATM   20  C20 UNL     1      -3.888  -1.870   0.417  1.00  0.00    -0.026 A 
HETATM   21  C21 UNL     1      -5.096  -2.509   0.342  1.00  0.00     0.010 A 
HETATM   22  C22 UNL     1      -5.205  -3.881   0.315  1.00  0.00     0.001 A 
HETATM   23  C23 UNL     1      -4.052  -4.654   0.365  1.00  0.00     0.001 A 
HETATM   24  C24 UNL     1      -2.873  -3.949   0.439  1.00  0.00     0.009 A 
HETATM   25  C25 UNL     1      -2.675  -2.561   0.472  1.00  0.00    -0.030 A 
HETATM   26  C26 UNL     1      -1.256  -2.129   0.573  1.00  0.00     0.187 C 
HETATM   27  N3  UNL     1      -0.741  -1.770  -0.710  1.00  0.00    -0.292 NA
HETATM   28  H15 UNL     1       0.443   3.205  -0.543  1.00  0.00     0.160 HD
ENDROOT
BRANCH   9  29
HETATM   29  C9  UNL     1       4.034   1.284   0.819  1.00  0.00     0.308 C 
BRANCH  29  30
HETATM   30  N1  UNL     1       5.127   0.351   0.835  1.00  0.00     0.083 N 
HETATM   31  C10 UNL     1       5.667   0.094  -0.485  1.00  0.00     0.309 C 
HETATM   32  C11 UNL     1       4.744  -0.929   1.406  1.00  0.00     0.309 C 
ENDBRANCH  29  30
ENDBRANCH   9  29
TORSDOF 2
