REMARK  5 active torsions:
REMARK  status: ('A' for Active; 'I' for Inactive)
REMARK    1  A    between atoms: C4_5  and  N2_6 
REMARK    2  A    between atoms: N2_6  and  C5_7 
REMARK    3  A    between atoms: C12_14  and  O1_15 
REMARK    4  A    between atoms: O1_15  and  C13_16 
REMARK    5  A    between atoms: C13_16  and  C14_17 
ROOT
HETATM    1  N1  UNL     1      -0.402  -3.937  -1.861  1.00  0.00    -0.191 NA
HETATM    2  C1  UNL     1      -0.186  -2.907  -1.382  1.00  0.00     0.102 C 
HETATM    3  C2  UNL     1       0.077  -1.613  -0.772  1.00  0.00     0.080 A 
HETATM    4  C3  UNL     1       1.292  -1.038  -1.155  1.00  0.00     0.055 A 
HETATM    5  C4  UNL     1       1.623   0.185  -0.623  1.00  0.00     0.034 A 
HETATM    6  C10 UNL     1       0.806   0.851   0.263  1.00  0.00     0.032 A 
HETATM    7  C11 UNL     1      -0.370   0.235   0.598  1.00  0.00     0.040 A 
HETATM    8  C12 UNL     1      -0.801  -0.985   0.127  1.00  0.00     0.090 A 
ENDROOT
BRANCH   8   9
HETATM    9  O1  UNL     1      -1.894  -1.734   0.334  1.00  0.00    -0.345 OA
BRANCH   9  10
HETATM   10  C13 UNL     1      -3.030  -1.590   1.093  1.00  0.00     0.214 C 
BRANCH  10  11
HETATM   11  C14 UNL     1      -3.887  -0.423   0.786  1.00  0.00    -0.034 A 
HETATM   12  C15 UNL     1      -4.818  -0.645  -0.240  1.00  0.00     0.009 A 
HETATM   13  C16 UNL     1      -5.723   0.276  -0.701  1.00  0.00     0.001 A 
HETATM   14  C17 UNL     1      -5.736   1.527  -0.122  1.00  0.00     0.000 A 
HETATM   15  C18 UNL     1      -4.833   1.794   0.897  1.00  0.00     0.001 A 
HETATM   16  C19 UNL     1      -3.947   0.841   1.323  1.00  0.00     0.009 A 
ENDBRANCH  10  11
ENDBRANCH   9  10
ENDBRANCH   8   9
BRANCH   5  17
HETATM   17  N2  UNL     1       2.863   0.748  -1.033  1.00  0.00    -0.356 N 
HETATM   18  H2  UNL     1       2.807   1.392  -1.853  1.00  0.00     0.166 HD
BRANCH  17  19
HETATM   19  C5  UNL     1       4.183   0.620  -0.557  1.00  0.00     0.028 A 
HETATM   20  C6  UNL     1       4.888   1.629  -0.072  1.00  0.00     0.006 A 
HETATM   21  C7  UNL     1       6.226   1.147   0.335  1.00  0.00     0.056 A 
HETATM   22  C8  UNL     1       6.197  -0.302   0.014  1.00  0.00    -0.021 A 
HETATM   23  C9  UNL     1       5.025  -0.582  -0.493  1.00  0.00     0.025 A 
ENDBRANCH  17  19
ENDBRANCH   5  17
TORSDOF 5
