REMARK  3 active torsions:
REMARK  status: ('A' for Active; 'I' for Inactive)
REMARK    1  A    between atoms: O1_1  and  C1_2 
REMARK    2  A    between atoms: N1_8  and  C5_9 
REMARK    3  A    between atoms: C8_12  and  C9_13 
ROOT
HETATM    1  C5  UNL     1       1.692   0.318  -0.705  1.00  0.00     0.352 C 
HETATM    2  C6  UNL     1       0.867   1.332   0.059  1.00  0.00     0.088 C 
HETATM    3  C7  UNL     1      -0.577   1.007  -0.137  1.00  0.00     0.003 C 
HETATM    4  C8  UNL     1      -1.270  -0.118  -0.196  1.00  0.00     0.012 C 
HETATM    5  N3  UNL     1      -0.713  -1.446  -0.068  1.00  0.00    -0.354 N 
HETATM    6  C15 UNL     1       0.666  -1.785   0.193  1.00  0.00     0.203 C 
HETATM    7  N4  UNL     1       1.676  -0.998  -0.095  1.00  0.00    -0.248 NA
HETATM    8  H19 UNL     1      -1.319  -2.298  -0.163  1.00  0.00     0.166 HD
ENDROOT
BRANCH   1   9
HETATM    9  N1  UNL     1       3.082   0.725  -0.791  1.00  0.00     0.153 N 
HETATM   10  C4  UNL     1       3.762  -0.314  -1.537  1.00  0.00     0.413 C 
HETATM   11  C3  UNL     1       4.579  -1.234  -0.665  1.00  0.00     0.123 C 
HETATM   12  F1  UNL     1       2.866  -1.057  -2.280  1.00  0.00    -0.216 F 
HETATM   13  C2  UNL     1       5.654  -0.369  -0.071  1.00  0.00     0.047 C 
HETATM   14  C1  UNL     1       5.153   0.742   0.487  1.00  0.00     0.089 C 
HETATM   15 CL1  UNL     1       7.321  -0.856  -0.156  1.00  0.00    -0.086 Cl
HETATM   16  C16 UNL     1       3.694   1.002   0.471  1.00  0.00     0.344 C 
BRANCH  14  17
HETATM   17  O1  UNL     1       6.061   1.623   1.073  1.00  0.00    -0.362 OA
HETATM   18  H1  UNL     1       6.398   1.489   2.033  1.00  0.00     0.217 HD
ENDBRANCH  14  17
ENDBRANCH   1   9
BRANCH   4  19
HETATM   19  C9  UNL     1      -2.736  -0.246  -0.402  1.00  0.00     0.064 C 
HETATM   20  C10 UNL     1      -3.442   1.032  -0.696  1.00  0.00     0.020 C 
HETATM   21  C11 UNL     1      -4.936   0.744  -0.627  1.00  0.00     0.043 C 
HETATM   22  C12 UNL     1      -5.267  -0.710  -0.688  1.00  0.00     0.279 C 
HETATM   23  C13 UNL     1      -5.241   0.545   0.861  1.00  0.00     0.279 C 
HETATM   24  N2  UNL     1      -4.796  -0.842   0.684  1.00  0.00     0.090 N 
HETATM   25  C14 UNL     1      -3.359  -0.958   0.777  1.00  0.00     0.283 C 
ENDBRANCH   4  19
TORSDOF 3
