REMARK  1 active torsions:
REMARK  status: ('A' for Active; 'I' for Inactive)
REMARK    1  A    between atoms: C2_2  and  C3_3 
ROOT
HETATM    1  C3  UNL     1       0.815   1.189   1.821  1.00  0.00     0.126 C 
HETATM    2  C4  UNL     1       1.661   0.840   0.660  1.00  0.00    -0.001 C 
HETATM    3  C5  UNL     1       2.783   0.108   0.524  1.00  0.00    -0.012 C 
HETATM    4  C6  UNL     1       3.934  -0.551  -0.098  1.00  0.00     0.147 C 
HETATM    5  N1  UNL     1       4.027  -0.348  -1.512  1.00  0.00    -0.198 NA
HETATM    6  C7  UNL     1       5.253  -1.018  -1.937  1.00  0.00     0.144 C 
HETATM    7  O1  UNL     1       2.982  -0.713  -2.236  1.00  0.00    -0.304 OA
HETATM    8  C8  UNL     1       2.206  -1.736  -1.788  1.00  0.00     0.194 C 
HETATM    9  C9  UNL     1       1.041  -2.090  -2.715  1.00  0.00     0.030 C 
HETATM   10  O2  UNL     1       0.199  -0.977  -2.898  1.00  0.00     0.000 OA
HETATM   11  C10 UNL     1      -0.858  -0.675  -1.960  1.00  0.00    -0.002 A 
HETATM   12  C11 UNL     1      -0.880   0.522  -1.201  1.00  0.00     0.005 A 
HETATM   13  C12 UNL     1      -1.529   1.290  -0.176  1.00  0.00     0.009 C 
HETATM   14  C13 UNL     1      -1.718   1.066   1.111  1.00  0.00     0.003 C 
HETATM   15  C14 UNL     1      -2.976   1.206   1.859  1.00  0.00     0.069 C 
HETATM   16  C15 UNL     1      -4.018   0.180   1.635  1.00  0.00     0.040 C 
HETATM   17  C16 UNL     1      -3.406  -1.171   1.718  1.00  0.00    -0.001 C 
HETATM   18  C17 UNL     1      -2.671  -1.484   0.663  1.00  0.00     0.089 C 
HETATM   19  N2  UNL     1      -2.927  -0.917  -0.616  1.00  0.00    -0.336 N 
HETATM   20  C18 UNL     1      -3.999   0.001  -0.745  1.00  0.00     0.113 C 
HETATM   21  C19 UNL     1      -4.311   0.610  -2.005  1.00  0.00     0.117 C 
HETATM   22  N3  UNL     1      -4.564   1.108  -3.016  1.00  0.00    -0.190 NA
HETATM   23  C20 UNL     1      -4.725   0.299   0.319  1.00  0.00     0.023 C 
HETATM   24  C21 UNL     1      -2.011  -1.393  -1.583  1.00  0.00     0.075 A 
HETATM   25  C22 UNL     1      -0.885  -0.637  -1.917  1.00  0.00     0.077 A 
HETATM   26  N4  UNL     1      -0.512   0.667   1.807  1.00  0.00    -0.382 N 
HETATM   27  H24 UNL     1      -0.795  -0.180   2.385  1.00  0.00     0.160 HD
ENDROOT
BRANCH   1  28
HETATM   28  C2  UNL     1       0.902   2.622   2.185  1.00  0.00    -0.008 C 
HETATM   29  C1  UNL     1       0.672   3.062   3.415  1.00  0.00     0.009 C 
ENDBRANCH   1  28
TORSDOF 1
