REMARK  6 active torsions:
REMARK  status: ('A' for Active; 'I' for Inactive)
REMARK    1  A    between atoms: C2_2  and  C3_3 
REMARK    2  A    between atoms: C5_5  and  N1_6 
REMARK    3  A    between atoms: C9_10  and  N2_11 
REMARK       I    between atoms: N2_11  and  C10_12 
REMARK    4  A    between atoms: C10_12  and  C11_14 
REMARK    5  A    between atoms: C12_15  and  C13_16 
REMARK    6  A    between atoms: C13_16  and  N3_17 
ROOT
HETATM    1  N1  UNL     1       3.364   0.283   1.520  1.00  0.00    -0.247 NA
HETATM    2  C6  UNL     1       2.446  -0.502   1.251  1.00  0.00     0.106 C 
HETATM    3  C7  UNL     1       1.257  -1.466   1.549  1.00  0.00     0.107 C 
HETATM    4  C8  UNL     1       0.257  -1.179   0.491  1.00  0.00     0.008 C 
HETATM    5  C9  UNL     1      -0.740  -0.891  -0.355  1.00  0.00     0.032 C 
HETATM    6  C16 UNL     1      -0.588  -0.915  -1.853  1.00  0.00     0.224 C 
HETATM    7  O2  UNL     1      -0.842   0.496  -2.219  1.00  0.00    -0.382 OA
HETATM    8  C17 UNL     1       0.184   1.115  -1.424  1.00  0.00     0.196 C 
HETATM    9  C18 UNL     1       1.550   0.837  -1.884  1.00  0.00     0.016 C 
HETATM   10  C19 UNL     1       2.730   0.249  -1.530  1.00  0.00     0.087 C 
HETATM   11  N4  UNL     1       2.651  -0.384  -0.198  1.00  0.00    -0.354 N 
HETATM   12  H30 UNL     1       2.930  -1.380  -0.448  1.00  0.00     0.166 HD
ENDROOT
BRANCH   5  13
HETATM   13  N2  UNL     1      -1.568  -0.657   0.733  1.00  0.00    -0.329 N 
HETATM   14  C10 UNL     1      -2.788   0.024   0.559  1.00  0.00     0.222 C 
HETATM   15  O1  UNL     1      -2.894   0.292  -0.691  1.00  0.00    -0.273 OA
HETATM   16  H13 UNL     1      -1.572  -0.875   1.750  1.00  0.00     0.168 HD
BRANCH  14  17
HETATM   17  C11 UNL     1      -3.926   0.505   1.358  1.00  0.00     0.068 C 
HETATM   18  C12 UNL     1      -5.148   1.126   1.147  1.00  0.00     0.069 C 
BRANCH  18  19
HETATM   19  C13 UNL     1      -5.528   1.450  -0.218  1.00  0.00     0.277 C 
BRANCH  19  20
HETATM   20  N3  UNL     1      -6.806   0.755  -0.549  1.00  0.00     0.080 N 
HETATM   21  C14 UNL     1      -6.499  -0.685  -0.731  1.00  0.00     0.309 C 
HETATM   22  C15 UNL     1      -7.660   0.856   0.659  1.00  0.00     0.309 C 
ENDBRANCH  19  20
ENDBRANCH  18  19
ENDBRANCH  14  17
ENDBRANCH   5  13
BRANCH   1  23
HETATM   23  C5  UNL     1       4.328   1.027   0.886  1.00  0.00     0.121 C 
HETATM   24  C3  UNL     1       5.486   0.449   0.528  1.00  0.00    -0.067 C 
HETATM   25  C4  UNL     1       6.469   1.372  -0.151  1.00  0.00     0.045 C 
BRANCH  24  26
HETATM   26  C2  UNL     1       5.909  -0.926   0.720  1.00  0.00     0.031 C 
HETATM   27  C1  UNL     1       6.157  -1.560  -0.655  1.00  0.00     0.010 C 
ENDBRANCH  24  26
ENDBRANCH   1  23
TORSDOF 6
