REMARK  8 active torsions:
REMARK  status: ('A' for Active; 'I' for Inactive)
REMARK    1  A    between atoms: C2_2  and  C3_3 
REMARK    2  A    between atoms: C3_3  and  O1_4 
REMARK    3  A    between atoms: O1_4  and  C4_5 
REMARK    4  A    between atoms: C7_9  and  N2_10 
REMARK    5  A    between atoms: C8_11  and  N3_12 
REMARK    6  A    between atoms: N3_12  and  C9_13 
REMARK    7  A    between atoms: C20_28  and  C21_29 
REMARK    8  A    between atoms: C21_29  and  N5_30 
ROOT
HETATM    1  C4  UNL     1      -2.738  -0.064   0.455  1.00  0.00     0.179 C 
HETATM    2  C5  UNL     1      -1.486  -0.618  -0.158  1.00  0.00     0.334 C 
HETATM    3  N1  UNL     1      -0.582  -0.815  -1.056  1.00  0.00    -0.414 NA
HETATM    4  C6  UNL     1       0.558  -1.622  -0.938  1.00  0.00     0.094 C 
HETATM    5  C7  UNL     1       1.863  -1.542  -0.834  1.00  0.00     0.021 C 
HETATM    6  C8  UNL     1       2.838  -0.441  -0.795  1.00  0.00     0.058 C 
HETATM    7  C15 UNL     1       1.946   0.572  -0.908  1.00  0.00     0.122 C 
HETATM    8  C16 UNL     1       2.260   2.036  -0.935  1.00  0.00    -0.001 C 
HETATM    9  C17 UNL     1       1.140   2.727  -1.053  1.00  0.00     0.087 C 
HETATM   10  N4  UNL     1      -0.236   2.470  -1.167  1.00  0.00    -0.334 N 
HETATM   11  C18 UNL     1      -1.587   2.449  -1.556  1.00  0.00     0.245 C 
HETATM   12  O3  UNL     1      -1.191   3.299  -2.371  1.00  0.00    -0.268 OA
HETATM   13  C19 UNL     1      -2.817   1.799  -1.228  1.00  0.00     0.081 C 
HETATM   14  C20 UNL     1      -3.401   0.874  -0.513  1.00  0.00    -0.016 C 
HETATM   15  H23 UNL     1      -0.250   1.836  -0.342  1.00  0.00     0.168 HD
ENDROOT
BRANCH   6  16
HETATM   16  N3  UNL     1       4.212  -0.945  -0.659  1.00  0.00    -0.388 N 
HETATM   17  H13 UNL     1       4.338  -1.697   0.040  1.00  0.00     0.159 HD
BRANCH  16  18
HETATM   18  C9  UNL     1       5.291  -0.419  -1.435  1.00  0.00     0.093 C 
HETATM   19  C10 UNL     1       6.392  -0.089  -0.752  1.00  0.00    -0.018 C 
HETATM   20  C11 UNL     1       7.594   0.470  -1.417  1.00  0.00     0.032 C 
HETATM   21  C14 UNL     1       6.594  -0.219   0.714  1.00  0.00     0.208 C 
HETATM   22  C12 UNL     1       8.693   0.642  -0.711  1.00  0.00     0.036 C 
HETATM   23 CL1  UNL     1      10.158   1.301  -1.439  1.00  0.00    -0.087 Cl
HETATM   24  C13 UNL     1       8.797   0.301   0.750  1.00  0.00     0.219 C 
HETATM   25  O2  UNL     1       7.864  -0.697   1.043  1.00  0.00    -0.381 OA
ENDBRANCH  16  18
ENDBRANCH   6  16
BRANCH   5  26
HETATM   26  N2  UNL     1       2.332  -2.915  -0.752  1.00  0.00    -0.303 NA
HETATM   27  H11 UNL     1       2.858  -3.260   0.091  1.00  0.00     0.124 HD
HETATM   28  H12 UNL     1       2.821  -3.017   0.164  1.00  0.00     0.124 HD
ENDBRANCH   5  26
BRANCH   1  29
HETATM   29  O1  UNL     1      -3.574  -1.141   0.679  1.00  0.00    -0.379 OA
BRANCH  29  30
HETATM   30  C3  UNL     1      -3.866  -1.396   1.994  1.00  0.00     0.168 C 
BRANCH  30  31
HETATM   31  C2  UNL     1      -4.815  -2.604   2.078  1.00  0.00     0.022 C 
HETATM   32  C1  UNL     1      -4.160  -3.819   1.466  1.00  0.00     0.007 C 
ENDBRANCH  30  31
ENDBRANCH  29  30
ENDBRANCH   1  29
BRANCH  14  33
HETATM   33  C21 UNL     1      -4.881   0.815  -0.587  1.00  0.00     0.308 C 
BRANCH  33  34
HETATM   34  N5  UNL     1      -5.515   1.024   0.701  1.00  0.00     0.083 N 
HETATM   35  C22 UNL     1      -5.293   2.405   1.110  1.00  0.00     0.309 C 
HETATM   36  C23 UNL     1      -6.952   0.883   0.475  1.00  0.00     0.309 C 
ENDBRANCH  33  34
ENDBRANCH  14  33
TORSDOF 8
