REMARK  6 active torsions:
REMARK  status: ('A' for Active; 'I' for Inactive)
REMARK    1  A    between atoms: C2_2  and  C3_3 
REMARK    2  A    between atoms: C3_3  and  C4_5 
REMARK    3  A    between atoms: C4_5  and  C5_6 
REMARK    4  A    between atoms: C6_7  and  C7_8 
REMARK    5  A    between atoms: C7_8  and  O1_9 
REMARK    6  A    between atoms: O1_9  and  C8_10 
ROOT
HETATM    1  C8  UNL     1       0.736  -1.016   0.201  1.00  0.00     0.195 C 
HETATM    2  C9  UNL     1      -0.023  -0.009  -0.563  1.00  0.00     0.041 C 
HETATM    3 CL1  UNL     1      -0.026  -1.171  -1.870  1.00  0.00    -0.086 Cl
HETATM    4  C10 UNL     1      -0.664   0.998  -1.093  1.00  0.00     0.015 C 
HETATM    5  C11 UNL     1      -1.450   1.793  -2.057  1.00  0.00     0.148 C 
HETATM    6  N1  UNL     1      -2.675   2.294  -1.425  1.00  0.00    -0.385 N 
HETATM    7  C12 UNL     1      -3.488   1.441  -0.641  1.00  0.00     0.052 A 
HETATM    8  C13 UNL     1      -3.316   0.109  -0.772  1.00  0.00     0.058 A 
HETATM    9  C14 UNL     1      -3.874  -0.987  -0.117  1.00  0.00     0.044 A 
HETATM   10  N2  UNL     1      -4.756  -0.595   0.816  1.00  0.00    -0.263 NA
HETATM   11  C15 UNL     1      -5.031   0.723   1.051  1.00  0.00     0.142 A 
HETATM   12  C16 UNL     1      -4.408   1.723   0.336  1.00  0.00     0.088 A 
HETATM   13  C17 UNL     1      -4.650   3.137   0.535  1.00  0.00     0.103 C 
HETATM   14  N3  UNL     1      -4.856   4.267   0.711  1.00  0.00    -0.191 NA
HETATM   15  C18 UNL     1      -3.540  -2.422  -0.320  1.00  0.00     0.154 C 
HETATM   16  C19 UNL     1      -2.257  -2.992  -0.362  1.00  0.00     0.051 C 
HETATM   17  C20 UNL     1      -2.360  -4.482  -0.585  1.00  0.00     0.041 C 
HETATM   18  O2  UNL     1      -0.794  -2.856  -0.296  1.00  0.00    -0.377 OA
HETATM   19  C21 UNL     1      -0.237  -2.087   0.728  1.00  0.00     0.152 C 
HETATM   20  C22 UNL     1       0.416  -2.878   1.828  1.00  0.00     0.042 C 
HETATM   21  H11 UNL     1      -3.070   3.249  -1.457  1.00  0.00     0.160 HD
ENDROOT
BRANCH   1  22
HETATM   22  O1  UNL     1       1.761  -1.590  -0.498  1.00  0.00    -0.366 OA
BRANCH  22  23
HETATM   23  C7  UNL     1       3.011  -1.408   0.067  1.00  0.00     0.262 C 
BRANCH  23  24
HETATM   24  C6  UNL     1       3.386   0.001   0.196  1.00  0.00    -0.080 C 
HETATM   25  C5  UNL     1       3.688   1.161   0.322  1.00  0.00    -0.097 C 
BRANCH  25  26
HETATM   26  C4  UNL     1       4.049   2.570   0.500  1.00  0.00     0.172 C 
BRANCH  26  27
HETATM   27  C3  UNL     1       5.328   2.656   1.175  1.00  0.00     0.145 C 
HETATM   28  F1  UNL     1       5.667   2.192   2.363  1.00  0.00    -0.201 F 
BRANCH  27  29
HETATM   29  C2  UNL     1       6.340   3.260   0.600  1.00  0.00    -0.117 C 
HETATM   30  C1  UNL     1       7.183   4.046  -0.054  1.00  0.00     0.099 C 
ENDBRANCH  27  29
ENDBRANCH  26  27
ENDBRANCH  25  26
ENDBRANCH  23  24
ENDBRANCH  22  23
ENDBRANCH   1  22
TORSDOF 6
