REMARK  4 active torsions:
REMARK  status: ('A' for Active; 'I' for Inactive)
REMARK    1  A    between atoms: P1_20  and  N4_21 
REMARK       I    between atoms: N4_21  and  C16_22 
REMARK    2  A    between atoms: C16_22  and  C17_24 
REMARK    3  A    between atoms: C18_25  and  C19_26 
REMARK    4  A    between atoms: C19_26  and  N5_27 
ROOT
HETATM    1  C1  UNL     1       0.040  -3.503   2.010  1.00  0.00     0.051 C 
HETATM    2  C2  UNL     1      -1.074  -2.568   1.718  1.00  0.00    -0.033 C 
HETATM    3  C3  UNL     1      -2.099  -2.649   2.514  1.00  0.00     0.009 C 
HETATM    4  C4  UNL     1      -3.505  -2.420   2.361  1.00  0.00    -0.000 C 
HETATM    5  C5  UNL     1      -4.246  -1.835   1.465  1.00  0.00     0.025 C 
HETATM    6  C6  UNL     1      -4.251  -0.950   0.327  1.00  0.00     0.243 A 
HETATM    7  N1  UNL     1      -4.947   0.344   0.580  1.00  0.00     0.112 NA
HETATM    8  C7  UNL     1      -4.687   1.058  -0.556  1.00  0.00     0.323 C 
HETATM    9  C8  UNL     1      -4.946   2.425  -0.904  1.00  0.00     0.068 C 
HETATM   10  C9  UNL     1      -6.230   3.036  -1.092  1.00  0.00     0.098 C 
HETATM   11  N2  UNL     1      -7.277   3.530  -1.228  1.00  0.00    -0.192 NA
HETATM   12  C10 UNL     1      -3.829   3.208  -1.065  1.00  0.00     0.136 C 
HETATM   13  N3  UNL     1      -2.937   2.170  -0.763  1.00  0.00    -0.272 NA
HETATM   14  C11 UNL     1      -1.731   2.100  -0.486  1.00  0.00     0.117 C 
HETATM   15  C12 UNL     1      -1.163   0.773  -0.220  1.00  0.00     0.034 C 
HETATM   16  C13 UNL     1      -1.738  -0.381  -0.235  1.00  0.00     0.005 C 
HETATM   17  C14 UNL     1      -3.106  -0.862  -0.506  1.00  0.00     0.024 A 
HETATM   18  C15 UNL     1      -4.260  -1.362  -1.059  1.00  0.00     0.069 A 
HETATM   19 CL1  UNL     1      -5.097  -2.015  -2.446  1.00  0.00    -0.085 Cl
HETATM   20  P1  UNL     1      -0.501  -1.631   0.265  1.00  0.00     0.050 P 
HETATM   21  H7  UNL     1      -4.685   0.724   1.494  1.00  0.00     0.318 HD
ENDROOT
BRANCH  20  22
HETATM   22  N4  UNL     1       1.122  -0.938   0.503  1.00  0.00    -0.325 N 
HETATM   23  C16 UNL     1       1.991  -0.895  -0.618  1.00  0.00     0.244 C 
HETATM   24  O1  UNL     1       1.694  -1.312  -1.766  1.00  0.00    -0.268 OA
HETATM   25  H13 UNL     1       1.414  -0.577   1.446  1.00  0.00     0.168 HD
BRANCH  23  26
HETATM   26  C17 UNL     1       3.315  -0.325  -0.407  1.00  0.00     0.072 C 
HETATM   27  C18 UNL     1       4.196  -0.241  -1.393  1.00  0.00     0.008 C 
BRANCH  27  28
HETATM   28  C19 UNL     1       5.564   0.250  -1.553  1.00  0.00     0.299 C 
BRANCH  28  29
HETATM   29  N5  UNL     1       6.141   0.800  -0.355  1.00  0.00     0.083 N 
HETATM   30  C20 UNL     1       7.511   1.237  -0.571  1.00  0.00     0.309 C 
HETATM   31  C21 UNL     1       5.395   1.957   0.039  1.00  0.00     0.309 C 
ENDBRANCH  28  29
ENDBRANCH  27  28
ENDBRANCH  23  26
ENDBRANCH  20  22
TORSDOF 4
