REMARK  3 active torsions:
REMARK  status: ('A' for Active; 'I' for Inactive)
REMARK    1  A    between atoms: C4_5  and  O1_6 
REMARK    2  A    between atoms: O1_6  and  C5_7 
REMARK    3  A    between atoms: C5_7  and  C6_8 
ROOT
HETATM    1  C6  UNL     1      -0.623   0.016  -0.748  1.00  0.00    -0.048 C 
HETATM    2  C7  UNL     1      -1.892   0.456  -0.664  1.00  0.00     0.032 C 
HETATM    3  C8  UNL     1      -2.401   0.567   0.724  1.00  0.00     0.032 C 
HETATM    4  N1  UNL     1      -1.439   0.199   1.540  1.00  0.00    -0.293 NA
HETATM    5  C9  UNL     1      -0.872  -1.157   1.331  1.00  0.00     0.158 C 
HETATM    6  C10 UNL     1      -0.823  -1.361  -0.159  1.00  0.00     0.042 C 
HETATM    7  C11 UNL     1      -1.975  -2.102  -0.733  1.00  0.00     0.036 C 
HETATM    8  C12 UNL     1      -3.322  -2.026  -0.893  1.00  0.00    -0.001 C 
HETATM    9  C13 UNL     1      -4.588  -1.248  -0.661  1.00  0.00    -0.029 C 
HETATM   10  C14 UNL     1      -4.614  -0.067  -0.019  1.00  0.00    -0.025 C 
HETATM   11  C15 UNL     1      -3.819   0.987   0.683  1.00  0.00     0.085 C 
ENDROOT
BRANCH   1  12
HETATM   12  C5  UNL     1       0.763   0.411  -1.188  1.00  0.00     0.210 C 
BRANCH  12  13
HETATM   13  O1  UNL     1       1.639   0.358  -0.093  1.00  0.00    -0.347 OA
BRANCH  13  14
HETATM   14  C4  UNL     1       2.974   0.645  -0.092  1.00  0.00     0.069 A 
HETATM   15  C3  UNL     1       3.667   0.532   1.102  1.00  0.00     0.038 A 
HETATM   16  C2  UNL     1       5.026   0.812   1.156  1.00  0.00     0.026 A 
HETATM   17  C1  UNL     1       5.696   1.203   0.031  1.00  0.00     0.034 A 
HETATM   18 CL1  UNL     1       7.425   1.557   0.108  1.00  0.00    -0.084 Cl
HETATM   19  C17 UNL     1       5.030   1.328  -1.190  1.00  0.00     0.026 A 
HETATM   20  C16 UNL     1       3.667   1.046  -1.240  1.00  0.00     0.038 A 
ENDBRANCH  13  14
ENDBRANCH  12  13
ENDBRANCH   1  12
TORSDOF 3
