REMARK  5 active torsions:
REMARK  status: ('A' for Active; 'I' for Inactive)
REMARK    1  A    between atoms: C6_7  and  N2_8 
REMARK    2  A    between atoms: N2_8  and  C7_9 
REMARK    3  A    between atoms: C10_12  and  O1_13 
REMARK    4  A    between atoms: O1_13  and  C11_14 
REMARK    5  A    between atoms: C11_14  and  C12_15 
ROOT
HETATM    1  N1  UNL     1       5.079  -2.614  -2.080  1.00  0.00    -0.191 NA
HETATM    2  C1  UNL     1       5.116  -1.554  -1.615  1.00  0.00     0.101 C 
HETATM    3  C2  UNL     1       5.178  -0.231  -1.058  1.00  0.00     0.067 A 
HETATM    4  C3  UNL     1       5.873   0.835  -1.445  1.00  0.00     0.002 A 
HETATM    5  C4  UNL     1       5.603   1.989  -0.540  1.00  0.00     0.058 A 
HETATM    6  C5  UNL     1       4.639   1.403   0.426  1.00  0.00     0.008 A 
HETATM    7  C6  UNL     1       4.419   0.149   0.108  1.00  0.00     0.049 A 
ENDROOT
BRANCH   7   8
HETATM    8  N2  UNL     1       3.510  -0.537   0.955  1.00  0.00    -0.355 N 
HETATM    9  H5  UNL     1       3.849  -1.096   1.764  1.00  0.00     0.166 HD
BRANCH   8  10
HETATM   10  C7  UNL     1       2.083  -0.509   0.760  1.00  0.00     0.032 A 
HETATM   11  C8  UNL     1       1.170  -1.173   1.577  1.00  0.00     0.032 A 
HETATM   12  C9  UNL     1      -0.188  -1.064   1.278  1.00  0.00     0.039 A 
HETATM   13  C10 UNL     1      -0.612  -0.305   0.183  1.00  0.00     0.069 A 
HETATM   14  C18 UNL     1       0.292   0.353  -0.626  1.00  0.00     0.039 A 
HETATM   15  C19 UNL     1       1.631   0.242  -0.326  1.00  0.00     0.032 A 
BRANCH  13  16
HETATM   16  O1  UNL     1      -1.940  -0.200  -0.107  1.00  0.00    -0.347 OA
BRANCH  16  17
HETATM   17  C11 UNL     1      -2.996  -0.792   0.595  1.00  0.00     0.214 C 
BRANCH  17  18
HETATM   18  C12 UNL     1      -4.267  -0.407  -0.077  1.00  0.00    -0.034 A 
HETATM   19  C13 UNL     1      -4.851  -1.137  -1.097  1.00  0.00     0.009 A 
HETATM   20  C14 UNL     1      -6.038  -0.744  -1.698  1.00  0.00     0.001 A 
HETATM   21  C15 UNL     1      -6.617   0.419  -1.229  1.00  0.00     0.000 A 
HETATM   22  C16 UNL     1      -6.083   1.194  -0.212  1.00  0.00     0.001 A 
HETATM   23  C17 UNL     1      -4.893   0.761   0.360  1.00  0.00     0.009 A 
ENDBRANCH  17  18
ENDBRANCH  16  17
ENDBRANCH  13  16
ENDBRANCH   8  10
ENDBRANCH   7   8
TORSDOF 5
