REMARK  8 active torsions:
REMARK  status: ('A' for Active; 'I' for Inactive)
REMARK    1  A    between atoms: C2_2  and  C3_4 
REMARK    2  A    between atoms: C3_4  and  N1_5 
REMARK    3  A    between atoms: C3_4  and  O2_16 
REMARK    4  A    between atoms: N1_5  and  C4_6 
REMARK    5  A    between atoms: C8_10  and  O1_11 
REMARK    6  A    between atoms: O1_11  and  C9_12 
REMARK    7  A    between atoms: O2_16  and  C13_17 
REMARK    8  A    between atoms: C13_17  and  C14_18 
ROOT
HETATM    1  C3  UNL     1      -0.875  -0.757   1.270  1.00  0.00     0.262 C 
ENDROOT
BRANCH   1   2
HETATM    2  C2  UNL     1      -0.756  -0.781  -0.469  1.00  0.00     0.035 A 
HETATM    3  C1  UNL     1      -0.245  -1.929  -0.982  1.00  0.00     0.152 A 
HETATM    4 CL1  UNL     1      -0.728  -0.532  -2.212  1.00  0.00    -0.182 Cl
ENDBRANCH   1   2
BRANCH   1   5
HETATM    5  N1  UNL     1       0.456   0.297   1.321  1.00  0.00    -0.368 N 
HETATM    6  H4  UNL     1       0.664   0.441   2.310  1.00  0.00     0.161 HD
BRANCH   5   7
HETATM    7  C4  UNL     1       1.142   0.889   0.249  1.00  0.00     0.093 C 
HETATM    8  C5  UNL     1       2.403   0.557   0.113  1.00  0.00    -0.039 A 
HETATM    9  C6  UNL     1       2.981  -0.381   1.069  1.00  0.00     0.011 A 
HETATM   10  C12 UNL     1       3.128   1.196  -1.021  1.00  0.00     0.070 A 
HETATM   11  C7  UNL     1       4.290  -0.683   0.916  1.00  0.00     0.037 A 
HETATM   12  C8  UNL     1       4.935  -0.036  -0.180  1.00  0.00     0.065 A 
HETATM   13  C11 UNL     1       4.530   0.797  -1.084  1.00  0.00     0.014 A 
BRANCH  12  14
HETATM   14  O1  UNL     1       6.304  -0.418  -0.223  1.00  0.00    -0.352 OA
BRANCH  14  15
HETATM   15  C9  UNL     1       7.261   0.354  -0.885  1.00  0.00     0.171 C 
HETATM   16  C10 UNL     1       8.569   0.231  -0.105  1.00  0.00     0.034 C 
ENDBRANCH  14  15
ENDBRANCH  12  14
ENDBRANCH   5   7
ENDBRANCH   1   5
BRANCH   1  17
HETATM   17  O2  UNL     1      -1.722   0.185   1.294  1.00  0.00    -0.357 OA
BRANCH  17  18
HETATM   18  C13 UNL     1      -2.769   0.493   0.534  1.00  0.00     0.210 C 
BRANCH  18  19
HETATM   19  C14 UNL     1      -3.890  -0.443   0.581  1.00  0.00    -0.021 A 
HETATM   20  C15 UNL     1      -3.987  -1.764   0.942  1.00  0.00     0.029 A 
HETATM   21  C16 UNL     1      -5.189  -2.440   0.953  1.00  0.00     0.118 A 
HETATM   22  N2  UNL     1      -6.351  -1.847   0.611  1.00  0.00    -0.260 NA
HETATM   23  C17 UNL     1      -6.318  -0.564   0.249  1.00  0.00     0.067 A 
HETATM   24  C18 UNL     1      -7.491   0.066  -0.119  1.00  0.00     0.032 A 
HETATM   25  C22 UNL     1      -5.128   0.128   0.232  1.00  0.00     0.001 A 
HETATM   26  C19 UNL     1      -7.537   1.371  -0.509  1.00  0.00     0.002 A 
HETATM   27  C20 UNL     1      -6.359   2.124  -0.542  1.00  0.00     0.001 A 
HETATM   28  C21 UNL     1      -5.215   1.422  -0.158  1.00  0.00     0.014 A 
ENDBRANCH  18  19
ENDBRANCH  17  18
ENDBRANCH   1  17
TORSDOF 8
