REMARK  8 active torsions:
REMARK  status: ('A' for Active; 'I' for Inactive)
REMARK    1  A    between atoms: C2_2  and  O1_3 
REMARK    2  A    between atoms: O1_3  and  C3_4 
REMARK    3  A    between atoms: C8_9  and  N1_10 
REMARK       I    between atoms: N1_10  and  C9_11 
REMARK    4  A    between atoms: C9_11  and  C10_13 
REMARK    5  A    between atoms: C11_14  and  C12_15 
REMARK    6  A    between atoms: C12_15  and  N2_16 
REMARK    7  A    between atoms: C15_19  and  N3_20 
REMARK    8  A    between atoms: N3_20  and  C16_21 
ROOT
HETATM    1  C3  UNL     1       0.473  -2.726  -0.172  1.00  0.00     0.097 A 
HETATM    2  C4  UNL     1      -0.557  -3.278  -0.901  1.00  0.00     0.071 A 
HETATM    3  C5  UNL     1      -1.801  -2.692  -0.915  1.00  0.00     0.066 A 
HETATM    4  C6  UNL     1      -2.080  -1.541  -0.211  1.00  0.00     0.023 A 
HETATM    5  C7  UNL     1      -1.073  -0.960   0.530  1.00  0.00     0.048 A 
HETATM    6  C8  UNL     1       0.196  -1.554   0.546  1.00  0.00     0.069 A 
HETATM    7  C15 UNL     1      -3.295  -1.020  -0.260  1.00  0.00     0.070 A 
HETATM    8  C22 UNL     1      -4.288  -1.712  -1.074  1.00  0.00     0.073 A 
HETATM    9  N4  UNL     1      -5.488  -1.258  -1.166  1.00  0.00    -0.301 NA
HETATM   10  C23 UNL     1      -4.026  -2.949  -1.841  1.00  0.00     0.210 A 
HETATM   11  N5  UNL     1      -2.644  -3.347  -1.652  1.00  0.00    -0.283 NA
HETATM   12  H24 UNL     1      -6.262  -1.663  -1.708  1.00  0.00     0.186 HD
ENDROOT
BRANCH   6  13
HETATM   13  N1  UNL     1       1.103  -0.798   1.375  1.00  0.00    -0.321 N 
HETATM   14  C9  UNL     1       1.760   0.185   0.603  1.00  0.00     0.245 C 
HETATM   15  O2  UNL     1       1.472   0.249  -0.615  1.00  0.00    -0.268 OA
HETATM   16  H8  UNL     1       1.357  -0.838   2.401  1.00  0.00     0.169 HD
BRANCH  14  17
HETATM   17  C10 UNL     1       2.743   1.103   1.181  1.00  0.00     0.072 C 
HETATM   18  C11 UNL     1       3.335   2.007   0.432  1.00  0.00     0.008 C 
BRANCH  18  19
HETATM   19  C12 UNL     1       4.333   2.994   0.848  1.00  0.00     0.299 C 
BRANCH  19  20
HETATM   20  N2  UNL     1       5.592   2.862   0.149  1.00  0.00     0.083 N 
HETATM   21  C13 UNL     1       6.495   3.884   0.641  1.00  0.00     0.309 C 
HETATM   22  C14 UNL     1       6.227   1.577   0.376  1.00  0.00     0.309 C 
ENDBRANCH  19  20
ENDBRANCH  18  19
ENDBRANCH  14  17
ENDBRANCH   6  13
BRANCH   1  23
HETATM   23  O1  UNL     1       1.795  -3.057   0.043  1.00  0.00    -0.349 OA
BRANCH  23  24
HETATM   24  C2  UNL     1       2.345  -4.204  -0.557  1.00  0.00     0.171 C 
HETATM   25  C1  UNL     1       1.594  -5.411  -0.059  1.00  0.00     0.034 C 
ENDBRANCH  23  24
ENDBRANCH   1  23
BRANCH   7  26
HETATM   26  N3  UNL     1      -3.605   0.181   0.467  1.00  0.00    -0.363 N 
HETATM   27  H19 UNL     1      -4.128  -0.250   1.286  1.00  0.00     0.165 HD
BRANCH  26  28
HETATM   28  C16 UNL     1      -3.348   1.573   0.262  1.00  0.00     0.100 C 
HETATM   29  C17 UNL     1      -4.345   2.388   0.032  1.00  0.00    -0.019 A 
HETATM   30  C18 UNL     1      -5.771   2.102  -0.057  1.00  0.00     0.014 A 
HETATM   31  C21 UNL     1      -4.279   3.829  -0.200  1.00  0.00     0.036 A 
HETATM   32  C19 UNL     1      -6.428   3.226  -0.305  1.00  0.00     0.024 A 
HETATM   33  C20 UNL     1      -5.483   4.344  -0.400  1.00  0.00     0.035 A 
HETATM   34 CL1  UNL     1      -5.811   6.049  -0.713  1.00  0.00    -0.084 Cl
ENDBRANCH  26  28
ENDBRANCH   7  26
TORSDOF 8
