REMARK  6 active torsions:
REMARK  status: ('A' for Active; 'I' for Inactive)
REMARK    1  A    between atoms: C3_3  and  C4_4 
REMARK    2  A    between atoms: C4_4  and  O1_5 
REMARK    3  A    between atoms: O1_5  and  C5_6 
REMARK    4  A    between atoms: C7_8  and  C8_9 
REMARK    5  A    between atoms: C8_9  and  C12_15 
REMARK    6  A    between atoms: C9_10  and  N1_11 
ROOT
HETATM    1  N1  UNL     1       4.506  -1.568   0.255  1.00  0.00    -0.262 NA
HETATM    2  C10 UNL     1       4.443  -1.759   1.530  1.00  0.00     0.209 C 
HETATM    3  C11 UNL     1       4.424  -0.701   2.498  1.00  0.00     0.107 C 
HETATM    4  N2  UNL     1       4.390   0.148   3.285  1.00  0.00    -0.191 NA
ENDROOT
BRANCH   1   5
HETATM    5  C9  UNL     1       4.564  -0.290  -0.359  1.00  0.00     0.122 C 
HETATM    6  C8  UNL     1       3.780   0.182  -1.341  1.00  0.00    -0.032 C 
BRANCH   6   7
HETATM    7  C7  UNL     1       2.780  -0.796  -1.768  1.00  0.00     0.111 A 
HETATM    8  C6  UNL     1       1.403  -0.273  -1.626  1.00  0.00     0.037 A 
HETATM    9  C5  UNL     1       0.830  -1.059  -0.718  1.00  0.00     0.104 A 
HETATM   10  S1  UNL     1       2.315  -2.029  -0.531  1.00  0.00    -0.092 SA
BRANCH   9  11
HETATM   11  O1  UNL     1      -0.476  -1.028  -0.189  1.00  0.00    -0.340 OA
BRANCH  11  12
HETATM   12  C4  UNL     1      -1.169   0.216  -0.092  1.00  0.00     0.211 C 
BRANCH  12  13
HETATM   13  C3  UNL     1      -2.527   0.014   0.501  1.00  0.00    -0.050 C 
HETATM   14  C2  UNL     1      -3.689   0.304  -0.077  1.00  0.00    -0.076 C 
HETATM   15  C1  UNL     1      -3.612   0.888  -1.455  1.00  0.00     0.044 C 
HETATM   16  C17 UNL     1      -4.982   0.073   0.580  1.00  0.00     0.061 C 
HETATM   17  C16 UNL     1      -4.945   0.195   2.056  1.00  0.00    -0.026 C 
HETATM   18  C15 UNL     1      -3.803  -0.118   2.622  1.00  0.00    -0.026 C 
HETATM   19  C14 UNL     1      -2.618  -0.564   1.866  1.00  0.00     0.063 C 
ENDBRANCH  12  13
ENDBRANCH  11  12
ENDBRANCH   9  11
ENDBRANCH   6   7
BRANCH   6  20
HETATM   20  C12 UNL     1       4.059   1.554  -1.823  1.00  0.00     0.161 C 
HETATM   21  C13 UNL     1       2.883   2.378  -1.561  1.00  0.00     0.063 C 
HETATM   22  N3  UNL     1       1.954   3.054  -1.346  1.00  0.00    -0.197 NA
ENDBRANCH   6  20
ENDBRANCH   1   5
TORSDOF 6
