REMARK  5 active torsions:
REMARK  status: ('A' for Active; 'I' for Inactive)
REMARK       I    between atoms: N1_2  and  C3_4 
REMARK    1  A    between atoms: C3_4  and  C4_6 
REMARK    2  A    between atoms: C7_9  and  N2_10 
REMARK    3  A    between atoms: N2_10  and  C8_11 
REMARK    4  A    between atoms: C8_11  and  C9_12 
REMARK    5  A    between atoms: C10_13  and  C11_14 
ROOT
HETATM    1  C4  UNL     1      -1.410  -0.088   0.121  1.00  0.00     0.176 C 
HETATM    2  C5  UNL     1      -0.273   0.185   1.045  1.00  0.00     0.077 C 
HETATM    3  C6  UNL     1       0.935  -0.637   0.827  1.00  0.00    -0.010 C 
HETATM    4  C7  UNL     1       2.195  -0.301   0.559  1.00  0.00     0.131 C 
HETATM    5  N3  UNL     1       2.879  -1.586   0.429  1.00  0.00    -0.227 NA
HETATM    6  C13 UNL     1       2.444  -2.385  -0.532  1.00  0.00     0.194 C 
HETATM    7  N4  UNL     1       2.116  -3.390  -1.517  1.00  0.00    -0.403 NA
HETATM    8  C14 UNL     1       1.068  -4.165  -1.409  1.00  0.00     0.303 C 
HETATM    9  C15 UNL     1       0.029  -4.228  -0.356  1.00  0.00     0.065 C 
HETATM   10  C16 UNL     1      -0.188  -2.983   0.335  1.00  0.00    -0.060 C 
HETATM   11  C17 UNL     1       0.470  -2.042   0.992  1.00  0.00     0.015 C 
HETATM   12  C18 UNL     1      -1.609  -2.561   0.366  1.00  0.00     0.151 C 
HETATM   13  N5  UNL     1      -1.988  -1.315  -0.011  1.00  0.00    -0.400 N 
HETATM   14  C19 UNL     1      -2.816  -1.339  -1.210  1.00  0.00     0.144 C 
ENDROOT
BRANCH   4  15
HETATM   15  N2  UNL     1       2.490   1.071   0.455  1.00  0.00    -0.371 N 
HETATM   16  H10 UNL     1       2.799   1.394   1.399  1.00  0.00     0.161 HD
BRANCH  15  17
HETATM   17  C8  UNL     1       2.427   2.022  -0.664  1.00  0.00     0.148 C 
BRANCH  17  18
HETATM   18  C9  UNL     1       2.862   3.344  -0.167  1.00  0.00    -0.006 C 
HETATM   19  C10 UNL     1       3.857   4.196  -0.489  1.00  0.00     0.020 C 
BRANCH  19  20
HETATM   20  C11 UNL     1       4.354   3.323  -1.531  1.00  0.00     0.047 C 
HETATM   21 CL1  UNL     1       5.005   2.345  -2.781  1.00  0.00    -0.086 Cl
HETATM   22  C12 UNL     1       5.314   4.236  -1.782  1.00  0.00     0.465 C 
HETATM   23  F1  UNL     1       6.391   4.763  -2.400  1.00  0.00    -0.451 F 
ENDBRANCH  19  20
ENDBRANCH  17  18
ENDBRANCH  15  17
ENDBRANCH   4  15
BRANCH   1  24
HETATM   24  C3  UNL     1      -2.501   0.857   0.587  1.00  0.00     0.242 C 
HETATM   25  N1  UNL     1      -3.738   0.640   1.253  1.00  0.00    -0.359 N 
HETATM   26  C1  UNL     1      -4.346   1.970   1.397  1.00  0.00     0.152 C 
HETATM   27  C2  UNL     1      -4.473  -0.506   1.785  1.00  0.00     0.152 C 
HETATM   28  O1  UNL     1      -2.337   2.090   0.373  1.00  0.00    -0.271 OA
ENDBRANCH   1  24
TORSDOF 5
