REMARK  9 active torsions:
REMARK  status: ('A' for Active; 'I' for Inactive)
REMARK    1  A    between atoms: C2_2  and  O1_3 
REMARK    2  A    between atoms: O1_3  and  C3_4 
REMARK    3  A    between atoms: C6_8  and  O2_9 
REMARK    4  A    between atoms: O2_9  and  C7_10 
REMARK    5  A    between atoms: C8_11  and  C9_12 
REMARK    6  A    between atoms: C12_15  and  O3_16 
REMARK    7  A    between atoms: O3_16  and  C13_17 
REMARK    8  A    between atoms: C13_17  and  C14_18 
REMARK    9  A    between atoms: C14_18  and  C15_19 
ROOT
HETATM    1  C9  UNL     1      -0.466   0.788   0.822  1.00  0.00     0.020 A 
HETATM    2  C10 UNL     1      -1.082   0.849   2.053  1.00  0.00     0.023 A 
HETATM    3  C11 UNL     1      -2.451   0.562   2.156  1.00  0.00     0.038 A 
HETATM    4  C12 UNL     1      -3.213   0.212   1.030  1.00  0.00     0.068 A 
HETATM    5  C21 UNL     1      -2.553   0.163  -0.178  1.00  0.00     0.038 A 
HETATM    6  C22 UNL     1      -1.209   0.446  -0.276  1.00  0.00     0.023 A 
ENDROOT
BRANCH   1   7
HETATM    7  C8  UNL     1       0.927   1.063   0.610  1.00  0.00    -0.037 C 
HETATM    8  C7  UNL     1       2.100   1.274   0.429  1.00  0.00     0.060 C 
BRANCH   8   9
HETATM    9  O2  UNL     1       3.454   1.514   0.245  1.00  0.00    -0.288 OA
BRANCH   9  10
HETATM   10  C6  UNL     1       4.291   0.383   0.100  1.00  0.00     0.216 A 
HETATM   11  C5  UNL     1       5.340   0.323   1.152  1.00  0.00     0.062 A 
HETATM   12  C4  UNL     1       6.788   0.273   0.988  1.00  0.00     0.068 A 
HETATM   13  N1  UNL     1       4.692   0.324   2.280  1.00  0.00    -0.302 NA
HETATM   14  C3  UNL     1       7.204   0.284  -0.268  1.00  0.00     0.092 A 
HETATM   15  C24 UNL     1       6.286   0.340  -1.400  1.00  0.00     0.066 A 
HETATM   16  C23 UNL     1       4.977   0.385  -1.217  1.00  0.00     0.039 A 
HETATM   17 CL1  UNL     1       7.021   0.346  -2.988  1.00  0.00    -0.082 Cl
HETATM   18  H7  UNL     1       5.183   0.288   3.198  1.00  0.00     0.186 HD
BRANCH  14  19
HETATM   19  O1  UNL     1       8.587   0.233  -0.312  1.00  0.00    -0.350 OA
BRANCH  19  20
HETATM   20  C2  UNL     1       9.252  -0.945  -0.751  1.00  0.00     0.171 C 
HETATM   21  C1  UNL     1      10.756  -0.748  -0.707  1.00  0.00     0.034 C 
ENDBRANCH  19  20
ENDBRANCH  14  19
ENDBRANCH   9  10
ENDBRANCH   8   9
ENDBRANCH   1   7
BRANCH   4  22
HETATM   22  O3  UNL     1      -4.493  -0.002   1.467  1.00  0.00    -0.351 OA
BRANCH  22  23
HETATM   23  C13 UNL     1      -5.638  -0.356   0.794  1.00  0.00     0.180 C 
BRANCH  23  24
HETATM   24  C14 UNL     1      -6.133   0.584  -0.258  1.00  0.00     0.065 C 
BRANCH  24  25
HETATM   25  C15 UNL     1      -7.385   0.046  -0.885  1.00  0.00    -0.056 A 
HETATM   26  C16 UNL     1      -7.237  -0.774  -1.997  1.00  0.00     0.007 A 
HETATM   27  C17 UNL     1      -8.342  -1.287  -2.602  1.00  0.00     0.001 A 
HETATM   28  C18 UNL     1      -9.612  -1.022  -2.148  1.00  0.00     0.000 A 
HETATM   29  C19 UNL     1      -9.702  -0.208  -1.047  1.00  0.00     0.001 A 
HETATM   30  C20 UNL     1      -8.634   0.357  -0.371  1.00  0.00     0.007 A 
ENDBRANCH  24  25
ENDBRANCH  23  24
ENDBRANCH  22  23
ENDBRANCH   4  22
TORSDOF 9
