REMARK  4 active torsions:
REMARK  status: ('A' for Active; 'I' for Inactive)
REMARK    1  A    between atoms: C2_2  and  O1_3 
REMARK    2  A    between atoms: O1_3  and  C3_4 
REMARK    3  A    between atoms: C8_11  and  C9_12 
REMARK    4  A    between atoms: C9_12  and  N1_13 
ROOT
HETATM    1  C3  UNL     1       2.825  -0.034   0.382  1.00  0.00     0.060 C 
HETATM    2  C4  UNL     1       2.755  -1.301  -0.122  1.00  0.00     0.009 C 
HETATM    3  C5  UNL     1       1.513  -1.797  -0.654  1.00  0.00     0.056 C 
HETATM    4  C6  UNL     1       0.573  -2.570   0.158  1.00  0.00     0.122 C 
HETATM    5 BR1  UNL     1       0.008  -1.863   1.817  1.00  0.00    -0.079 Br
HETATM    6  S1  UNL     1      -0.996  -2.716  -0.903  1.00  0.00    -0.148 SA
HETATM    7  C7  UNL     1      -1.455  -1.121  -1.444  1.00  0.00     0.111 C 
HETATM    8  C8  UNL     1      -2.197  -0.258  -0.553  1.00  0.00    -0.037 C 
HETATM    9  C12 UNL     1      -1.730   0.716   0.197  1.00  0.00     0.079 C 
HETATM   10  C13 UNL     1      -0.618   1.512   0.697  1.00  0.00     0.241 C 
HETATM   11  O2  UNL     1      -0.139   2.501   1.303  1.00  0.00    -0.269 OA
HETATM   12  N2  UNL     1       0.827   1.303   0.687  1.00  0.00    -0.351 N 
HETATM   13  C14 UNL     1       2.299   1.272   0.774  1.00  0.00     0.187 C 
HETATM   14  H21 UNL     1       0.638   0.462   0.144  1.00  0.00     0.163 HD
ENDROOT
BRANCH   8  15
HETATM   15  C9  UNL     1      -3.643  -0.508  -0.512  1.00  0.00     0.306 C 
BRANCH  15  16
HETATM   16  N1  UNL     1      -4.424   0.377   0.319  1.00  0.00     0.083 N 
HETATM   17  C10 UNL     1      -5.806  -0.136   0.311  1.00  0.00     0.309 C 
HETATM   18  C11 UNL     1      -4.435   1.737  -0.228  1.00  0.00     0.309 C 
ENDBRANCH  15  16
ENDBRANCH   8  15
BRANCH   1  19
HETATM   19  O1  UNL     1       4.182   0.078   0.767  1.00  0.00    -0.354 OA
BRANCH  19  20
HETATM   20  C2  UNL     1       5.135   0.666  -0.085  1.00  0.00     0.171 C 
HETATM   21  C1  UNL     1       6.519   0.687   0.546  1.00  0.00     0.034 C 
ENDBRANCH  19  20
ENDBRANCH   1  19
TORSDOF 4
