REMARK  6 active torsions:
REMARK  status: ('A' for Active; 'I' for Inactive)
REMARK    1  A    between atoms: C2_2  and  C3_3 
REMARK    2  A    between atoms: C3_3  and  N1_4 
REMARK    3  A    between atoms: C6_7  and  N2_9 
REMARK    4  A    between atoms: N2_9  and  C7_10 
REMARK    5  A    between atoms: C13_17  and  O2_18 
REMARK    6  A    between atoms: O2_18  and  C14_19 
ROOT
HETATM    1  C7  UNL     1      -0.336  -0.267  -0.715  1.00  0.00     0.014 A 
HETATM    2  C8  UNL     1      -0.064  -1.071  -1.732  1.00  0.00     0.039 A 
HETATM    3  C9  UNL     1      -1.155  -1.807  -2.374  1.00  0.00    -0.003 A 
HETATM    4  C10 UNL     1      -1.137  -2.658  -3.395  1.00  0.00     0.128 A 
HETATM    5  N3  UNL     1      -2.477  -3.083  -3.609  1.00  0.00    -0.271 NA
HETATM    6  C11 UNL     1      -3.272  -2.532  -2.777  1.00  0.00     0.131 A 
HETATM    7  C12 UNL     1      -2.515  -1.640  -1.879  1.00  0.00     0.023 A 
HETATM    8  C13 UNL     1      -2.734  -0.829  -0.863  1.00  0.00     0.064 A 
HETATM    9  C16 UNL     1      -1.688  -0.049  -0.162  1.00  0.00     0.122 A 
ENDROOT
BRANCH   1  10
HETATM   10  N2  UNL     1       0.684   0.464  -0.060  1.00  0.00    -0.356 N 
HETATM   11  H11 UNL     1       1.315  -0.270   0.323  1.00  0.00     0.162 HD
BRANCH  10  12
HETATM   12  C6  UNL     1       1.037   1.811   0.197  1.00  0.00     0.182 A 
HETATM   13  C2  UNL     1       2.210   2.246   0.926  1.00  0.00     0.009 A 
HETATM   14  C1  UNL     1       1.489   3.275   0.527  1.00  0.00     0.243 A 
HETATM   15  O1  UNL     1       0.335   2.772  -0.202  1.00  0.00    -0.348 OA
BRANCH  13  16
HETATM   16  C3  UNL     1       3.446   1.898   1.665  1.00  0.00     0.308 C 
BRANCH  16  17
HETATM   17  N1  UNL     1       4.436   1.191   0.946  1.00  0.00     0.083 N 
HETATM   18  C4  UNL     1       4.151  -0.147   0.559  1.00  0.00     0.309 C 
HETATM   19  C5  UNL     1       5.650   1.194   1.761  1.00  0.00     0.309 C 
ENDBRANCH  16  17
ENDBRANCH  13  16
ENDBRANCH  10  12
ENDBRANCH   1  10
BRANCH   8  20
HETATM   20  O2  UNL     1      -4.084  -0.812  -0.549  1.00  0.00    -0.354 OA
BRANCH  20  21
HETATM   21  C14 UNL     1      -4.535  -1.152   0.740  1.00  0.00     0.171 C 
HETATM   22  C15 UNL     1      -6.042  -1.186   0.794  1.00  0.00     0.034 C 
ENDBRANCH  20  21
ENDBRANCH   8  20
TORSDOF 6
