REMARK  1 active torsions:
REMARK  status: ('A' for Active; 'I' for Inactive)
REMARK    1  A    between atoms: C9_13  and  C10_14 
REMARK       I    between atoms: C10_14  and  N3_16 
ROOT
HETATM    1  C1  UNL     1       1.989  -3.376  -1.655  1.00  0.00     0.000 C 
HETATM    2  O1  UNL     1       2.220  -3.248  -0.262  1.00  0.00     0.000 OA
HETATM    3  C2  UNL     1       1.244  -2.844   0.622  1.00  0.00    -0.067 A 
HETATM    4  C3  UNL     1       2.265  -2.007   0.712  1.00  0.00     0.069 A 
HETATM    5  C4  UNL     1       3.526  -1.303   0.560  1.00  0.00     0.110 C 
HETATM    6  N1  UNL     1       4.477  -0.449   0.683  1.00  0.00    -0.211 NA
HETATM    7  S1  UNL     1       4.433   0.964   1.734  1.00  0.00     0.090 SA
HETATM    8  N2  UNL     1       3.756   2.290   0.820  1.00  0.00    -0.322 N 
HETATM    9  C5  UNL     1       2.930   3.145   0.047  1.00  0.00     0.093 C 
HETATM   10  C6  UNL     1       1.703   2.829  -0.358  1.00  0.00    -0.008 C 
HETATM   11  C7  UNL     1       0.673   1.730  -0.306  1.00  0.00     0.001 C 
HETATM   12  C8  UNL     1      -0.632   1.677  -0.865  1.00  0.00     0.039 C 
HETATM   13  C9  UNL     1      -1.266   0.348  -0.530  1.00  0.00     0.083 C 
HETATM   14  C13 UNL     1      -0.398  -0.551   0.244  1.00  0.00     0.015 C 
HETATM   15  C14 UNL     1      -1.016  -1.858   0.653  1.00  0.00     0.005 C 
HETATM   16  C15 UNL     1       0.078  -2.589   1.495  1.00  0.00     0.035 C 
HETATM   17  H6  UNL     1       4.685   2.660   1.093  1.00  0.00     0.175 HD
ENDROOT
BRANCH  13  18
HETATM   18  C10 UNL     1      -2.546   0.588   0.220  1.00  0.00     0.223 C 
HETATM   19  O2  UNL     1      -3.057   0.328   1.344  1.00  0.00    -0.273 OA
HETATM   20  N3  UNL     1      -3.647   1.297  -0.307  1.00  0.00    -0.360 N 
HETATM   21  C11 UNL     1      -4.787   1.412   0.581  1.00  0.00     0.152 C 
HETATM   22  C12 UNL     1      -3.760   1.919  -1.631  1.00  0.00     0.152 C 
ENDBRANCH  13  18
TORSDOF 1
