REMARK  6 active torsions:
REMARK  status: ('A' for Active; 'I' for Inactive)
REMARK    1  A    between atoms: C2_2  and  N1_3 
REMARK    2  A    between atoms: C2_2  and  C9_12 
REMARK       I    between atoms: N1_3  and  C3_4 
REMARK    3  A    between atoms: C3_4  and  C4_6 
REMARK    4  A    between atoms: C5_7  and  C6_8 
REMARK    5  A    between atoms: C6_8  and  N2_9 
REMARK    6  A    between atoms: C17_21  and  C18_22 
ROOT
HETATM    1  C9  UNL     1      -1.713   0.354   0.125  1.00  0.00    -0.006 A 
HETATM    2  C10 UNL     1      -2.422   1.368  -0.403  1.00  0.00     0.001 A 
HETATM    3  C11 UNL     1      -3.752   0.710  -0.413  1.00  0.00     0.067 A 
HETATM    4  C12 UNL     1      -4.349   0.415  -1.712  1.00  0.00     0.005 C 
HETATM    5  C13 UNL     1      -5.334  -0.437  -1.941  1.00  0.00     0.023 C 
HETATM    6  C14 UNL     1      -5.586  -0.393  -3.375  1.00  0.00     0.095 C 
HETATM    7  N3  UNL     1      -5.801  -0.374  -4.534  1.00  0.00    -0.192 NA
HETATM    8  C15 UNL     1      -6.262  -1.399  -1.325  1.00  0.00     0.077 C 
HETATM    9  C16 UNL     1      -5.667  -2.184  -0.208  1.00  0.00    -0.013 C 
HETATM   10  C17 UNL     1      -4.604  -2.366   0.575  1.00  0.00    -0.047 C 
HETATM   11  C19 UNL     1      -3.349  -1.625   0.545  1.00  0.00     0.017 C 
HETATM   12  C20 UNL     1      -2.965  -0.395   0.159  1.00  0.00    -0.034 A 
ENDROOT
BRANCH  10  13
HETATM   13  C18 UNL     1      -4.637  -3.445   1.629  1.00  0.00     0.152 C 
HETATM   14 CL1  UNL     1      -3.331  -4.618   1.327  1.00  0.00    -0.126 Cl
ENDBRANCH  10  13
BRANCH   1  15
HETATM   15  C2  UNL     1      -0.343   0.058   0.510  1.00  0.00     0.036 C 
HETATM   16  C1  UNL     1      -0.025  -1.117   1.022  1.00  0.00     0.044 C 
BRANCH  15  17
HETATM   17  N1  UNL     1       0.691   1.018   0.346  1.00  0.00    -0.324 N 
HETATM   18  C3  UNL     1       2.012   0.650   0.746  1.00  0.00     0.245 C 
HETATM   19  O1  UNL     1       2.325  -0.467   1.236  1.00  0.00    -0.268 OA
HETATM   20  H3  UNL     1       0.459   1.940  -0.053  1.00  0.00     0.169 HD
BRANCH  18  21
HETATM   21  C4  UNL     1       3.074   1.650   0.572  1.00  0.00     0.072 C 
HETATM   22  C5  UNL     1       4.312   1.402   0.910  1.00  0.00     0.008 C 
BRANCH  22  23
HETATM   23  C6  UNL     1       5.496   2.268   0.811  1.00  0.00     0.299 C 
BRANCH  23  24
HETATM   24  N2  UNL     1       6.526   1.683  -0.039  1.00  0.00     0.083 N 
HETATM   25  C7  UNL     1       7.684   2.549  -0.124  1.00  0.00     0.309 C 
HETATM   26  C8  UNL     1       6.898   0.371   0.393  1.00  0.00     0.309 C 
ENDBRANCH  23  24
ENDBRANCH  22  23
ENDBRANCH  18  21
ENDBRANCH  15  17
ENDBRANCH   1  15
TORSDOF 6
