REMARK  4 active torsions:
REMARK  status: ('A' for Active; 'I' for Inactive)
REMARK    1  A    between atoms: C7_9  and  N3_10 
REMARK    2  A    between atoms: N3_10  and  C8_11 
REMARK    3  A    between atoms: C11_14  and  O1_15 
REMARK    4  A    between atoms: O1_15  and  C12_16 
ROOT
HETATM    1  C1  UNL     1       5.250  -1.737   0.531  1.00  0.00     0.071 C 
HETATM    2  C2  UNL     1       5.808  -0.466  -0.050  1.00  0.00     0.043 A 
HETATM    3  N1  UNL     1       6.939  -0.322  -0.682  1.00  0.00    -0.263 NA
HETATM    4  C3  UNL     1       7.128   1.028  -1.085  1.00  0.00     0.140 A 
HETATM    5  C4  UNL     1       6.106   1.792  -0.714  1.00  0.00     0.075 A 
HETATM    6  C5  UNL     1       5.925   3.202  -0.933  1.00  0.00     0.102 C 
HETATM    7  N2  UNL     1       5.762   4.341  -1.116  1.00  0.00    -0.191 NA
HETATM    8  C6  UNL     1       5.214   0.864  -0.032  1.00  0.00     0.026 A 
HETATM    9  C7  UNL     1       4.057   1.197   0.507  1.00  0.00     0.103 C 
ENDROOT
BRANCH   9  10
HETATM   10  N3  UNL     1       3.214   0.259   1.165  1.00  0.00    -0.365 N 
HETATM   11  H6  UNL     1       3.551  -0.326   1.960  1.00  0.00     0.165 HD
BRANCH  10  12
HETATM   12  C8  UNL     1       1.869   0.116   0.724  1.00  0.00     0.033 A 
HETATM   13  C9  UNL     1       1.020  -0.770   1.324  1.00  0.00     0.032 A 
HETATM   14  C10 UNL     1      -0.289  -0.940   0.930  1.00  0.00     0.041 A 
HETATM   15  C11 UNL     1      -0.803  -0.201  -0.113  1.00  0.00     0.091 A 
HETATM   16  C21 UNL     1       0.057   0.713  -0.739  1.00  0.00     0.069 A 
HETATM   17 CL1  UNL     1      -0.351   1.778  -2.095  1.00  0.00    -0.081 Cl
HETATM   18  C22 UNL     1       1.382   0.873  -0.327  1.00  0.00     0.056 A 
BRANCH  15  19
HETATM   19  O1  UNL     1      -2.036  -0.138  -0.731  1.00  0.00    -0.340 OA
BRANCH  19  20
HETATM   20  C12 UNL     1      -3.078  -0.938  -0.311  1.00  0.00     0.162 C 
HETATM   21  C13 UNL     1      -3.694  -1.778  -1.406  1.00  0.00     0.042 C 
HETATM   22  C14 UNL     1      -5.131  -2.009  -0.947  1.00  0.00     0.042 C 
HETATM   23  C15 UNL     1      -5.481  -0.746  -0.246  1.00  0.00    -0.049 A 
HETATM   24  C16 UNL     1      -6.643  -0.085   0.102  1.00  0.00     0.007 A 
HETATM   25  C20 UNL     1      -4.287  -0.152   0.107  1.00  0.00    -0.023 A 
HETATM   26  C17 UNL     1      -6.597   1.128   0.782  1.00  0.00     0.001 A 
HETATM   27  C18 UNL     1      -5.388   1.704   1.127  1.00  0.00     0.001 A 
HETATM   28  C19 UNL     1      -4.217   1.056   0.785  1.00  0.00     0.010 A 
ENDBRANCH  19  20
ENDBRANCH  15  19
ENDBRANCH  10  12
ENDBRANCH   9  10
TORSDOF 4
