REMARK  7 active torsions:
REMARK  status: ('A' for Active; 'I' for Inactive)
REMARK    1  A    between atoms: C2_3  and  N1_4 
REMARK    2  A    between atoms: N1_4  and  C3_5 
REMARK    3  A    between atoms: C4_6  and  C5_7 
REMARK    4  A    between atoms: C10_15  and  N5_16 
REMARK       I    between atoms: N5_16  and  C11_17 
REMARK    5  A    between atoms: C11_17  and  C12_19 
REMARK    6  A    between atoms: C13_20  and  C14_21 
REMARK    7  A    between atoms: C14_21  and  N6_22 
ROOT
HETATM    1  B1  UNL     1      -6.809  -2.636   1.201  1.00  0.00     0.191 B 
HETATM    2  C1  UNL     1      -5.178  -2.012   1.388  1.00  0.00    -0.243 C 
HETATM    3  C2  UNL     1      -3.827  -1.499   1.520  1.00  0.00     0.183 C 
ENDROOT
BRANCH   3   4
HETATM    4  N1  UNL     1      -3.502  -0.447   0.621  1.00  0.00    -0.380 N 
HETATM    5  H3  UNL     1      -3.199   0.515   0.966  1.00  0.00     0.160 HD
BRANCH   4   6
HETATM    6  C3  UNL     1      -3.411  -0.127  -0.735  1.00  0.00     0.050 A 
HETATM    7  C4  UNL     1      -4.342   0.419  -1.587  1.00  0.00    -0.000 A 
HETATM    8  C7  UNL     1      -4.047   0.635  -2.916  1.00  0.00     0.127 A 
HETATM    9  N3  UNL     1      -2.848   0.324  -3.431  1.00  0.00    -0.258 NA
HETATM   10  C8  UNL     1      -1.904  -0.207  -2.660  1.00  0.00     0.086 A 
HETATM   11  C9  UNL     1      -0.703  -0.498  -3.250  1.00  0.00     0.151 A 
HETATM   12  C18 UNL     1      -2.180  -0.429  -1.332  1.00  0.00     0.025 A 
HETATM   13  N4  UNL     1       0.254  -1.034  -2.471  1.00  0.00    -0.241 NA
HETATM   14  C10 UNL     1       0.086  -1.288  -1.172  1.00  0.00     0.131 A 
HETATM   15  C17 UNL     1      -1.137  -0.982  -0.610  1.00  0.00     0.066 A 
BRANCH   7  16
HETATM   16  C5  UNL     1      -5.652   0.768  -0.995  1.00  0.00     0.166 C 
HETATM   17  C6  UNL     1      -5.481   2.011  -0.205  1.00  0.00     0.063 C 
HETATM   18  N2  UNL     1      -5.332   2.988   0.410  1.00  0.00    -0.197 NA
ENDBRANCH   7  16
BRANCH  14  19
HETATM   19  N5  UNL     1       1.153  -1.857  -0.418  1.00  0.00    -0.308 N 
HETATM   20  C11 UNL     1       1.999  -0.844   0.165  1.00  0.00     0.246 C 
HETATM   21  O1  UNL     1       1.558   0.300  -0.155  1.00  0.00    -0.268 OA
HETATM   22  H8  UNL     1       1.384  -2.882  -0.246  1.00  0.00     0.170 HD
BRANCH  20  23
HETATM   23  C12 UNL     1       3.158  -1.157   0.980  1.00  0.00     0.072 C 
HETATM   24  C13 UNL     1       3.958  -0.272   1.534  1.00  0.00     0.008 C 
BRANCH  24  25
HETATM   25  C14 UNL     1       3.939   1.211   1.510  1.00  0.00     0.299 C 
BRANCH  25  26
HETATM   26  N6  UNL     1       5.170   1.729   0.926  1.00  0.00     0.083 N 
HETATM   27  C15 UNL     1       6.270   1.440   1.830  1.00  0.00     0.309 C 
HETATM   28  C16 UNL     1       5.377   1.106  -0.360  1.00  0.00     0.309 C 
ENDBRANCH  25  26
ENDBRANCH  24  25
ENDBRANCH  20  23
ENDBRANCH  14  19
ENDBRANCH   4   6
ENDBRANCH   3   4
TORSDOF 7
