REMARK  10 active torsions:
REMARK  status: ('A' for Active; 'I' for Inactive)
REMARK    1  A    between atoms: C5_5  and  C6_6 
REMARK    2  A    between atoms: C6_6  and  N1_7 
REMARK    3  A    between atoms: N1_7  and  C7_8 
REMARK    4  A    between atoms: C13_16  and  O1_17 
REMARK    5  A    between atoms: C15_19  and  N4_20 
REMARK    6  A    between atoms: N4_20  and  C16_21 
REMARK    7  A    between atoms: C16_21  and  C17_22 
REMARK    8  A    between atoms: C17_22  and  C18_23 
REMARK    9  A    between atoms: C18_23  and  C19_24 
REMARK   10  A    between atoms: C19_24  and  N5_25 
ROOT
HETATM    1  C7  UNL     1       2.408  -0.708  -0.469  1.00  0.00     0.063 A 
HETATM    2  C8  UNL     1       3.063  -1.894  -0.430  1.00  0.00     0.089 A 
HETATM    3  C9  UNL     1       4.352  -1.832  -1.058  1.00  0.00     0.103 C 
HETATM    4  N2  UNL     1       5.393  -1.787  -1.571  1.00  0.00    -0.191 NA
HETATM    5  C10 UNL     1       2.615  -3.073   0.109  1.00  0.00     0.142 A 
HETATM    6  N3  UNL     1       1.374  -2.996   0.651  1.00  0.00    -0.259 NA
HETATM    7  C11 UNL     1       0.689  -1.846   0.635  1.00  0.00     0.071 A 
HETATM    8  C12 UNL     1      -0.533  -1.932   1.210  1.00  0.00     0.071 A 
HETATM    9  C13 UNL     1      -1.143  -0.740   1.142  1.00  0.00     0.096 A 
HETATM   10  C15 UNL     1      -1.176   0.504   0.799  1.00  0.00     0.063 A 
HETATM   11  C22 UNL     1       0.210   0.451   0.192  1.00  0.00     0.048 A 
HETATM   12  C23 UNL     1       1.141  -0.635   0.085  1.00  0.00     0.023 A 
ENDROOT
BRANCH   1  13
HETATM   13  N1  UNL     1       2.839   0.514  -0.982  1.00  0.00    -0.382 N 
HETATM   14  H8  UNL     1       2.536   0.435  -1.987  1.00  0.00     0.160 HD
BRANCH  13  15
HETATM   15  C6  UNL     1       3.513   1.712  -0.533  1.00  0.00     0.181 C 
BRANCH  15  16
HETATM   16  C5  UNL     1       4.790   1.317   0.104  1.00  0.00     0.076 A 
HETATM   17  C4  UNL     1       6.092   1.493  -0.031  1.00  0.00     0.063 A 
HETATM   18  C3  UNL     1       6.757   0.745   1.039  1.00  0.00     0.077 A 
HETATM   19  C2  UNL     1       8.067   0.715   1.189  1.00  0.00     0.002 C 
HETATM   20  N7  UNL     1       5.698   0.143   1.771  1.00  0.00    -0.151 NA
HETATM   21  C1  UNL     1       8.929   1.466   0.244  1.00  0.00     0.038 C 
HETATM   22  N6  UNL     1       4.578   0.466   1.244  1.00  0.00    -0.153 NA
ENDBRANCH  15  16
ENDBRANCH  13  15
ENDBRANCH   1  13
BRANCH  10  23
HETATM   23  N4  UNL     1      -1.211   1.838   0.431  1.00  0.00    -0.384 N 
HETATM   24  H14 UNL     1      -0.787   2.681   0.060  1.00  0.00     0.160 HD
BRANCH  23  25
HETATM   25  C16 UNL     1      -2.587   2.142   0.782  1.00  0.00     0.147 C 
BRANCH  25  26
HETATM   26  C17 UNL     1      -3.531   1.376  -0.059  1.00  0.00    -0.010 C 
BRANCH  26  27
HETATM   27  C18 UNL     1      -4.412   0.640  -0.631  1.00  0.00    -0.010 C 
BRANCH  27  28
HETATM   28  C19 UNL     1      -5.328  -0.098  -1.502  1.00  0.00     0.143 C 
BRANCH  28  29
HETATM   29  N5  UNL     1      -6.689   0.212  -1.161  1.00  0.00    -0.418 N 
HETATM   30  C20 UNL     1      -7.132   1.528  -1.450  1.00  0.00     0.142 C 
HETATM   31  C21 UNL     1      -7.645  -0.798  -1.435  1.00  0.00     0.142 C 
ENDBRANCH  28  29
ENDBRANCH  27  28
ENDBRANCH  26  27
ENDBRANCH  25  26
ENDBRANCH  23  25
ENDBRANCH  10  23
BRANCH   9  32
HETATM   32  O1  UNL     1      -2.470  -0.517   1.683  1.00  0.00    -0.354 OA
HETATM   33  C14 UNL     1      -3.067  -1.634   2.277  1.00  0.00     0.210 C 
ENDBRANCH   9  32
TORSDOF 10
