REMARK  6 active torsions:
REMARK  status: ('A' for Active; 'I' for Inactive)
REMARK    1  A    between atoms: C2_2  and  C3_3 
REMARK    2  A    between atoms: C2_2  and  C6_8 
REMARK    3  A    between atoms: C3_3  and  N1_4 
REMARK    4  A    between atoms: C13_17  and  C14_18 
REMARK    5  A    between atoms: C14_18  and  C15_19 
REMARK    6  A    between atoms: C15_19  and  N4_20 
ROOT
HETATM    1  N1  UNL     1       3.507   0.514  -0.453  1.00  0.00    -0.374 N 
HETATM    2  C4  UNL     1       4.351   0.122  -1.564  1.00  0.00     0.150 C 
HETATM    3  C5  UNL     1       4.209   0.331   0.797  1.00  0.00     0.471 C 
HETATM    4  O1  UNL     1       4.755   0.200   1.921  1.00  0.00    -0.392 OA
ENDROOT
BRANCH   1   5
HETATM    5  C3  UNL     1       2.177   1.030  -0.350  1.00  0.00     0.132 C 
BRANCH   5   6
HETATM    6  C2  UNL     1       1.144  -0.093  -0.202  1.00  0.00     0.033 C 
HETATM    7  C1  UNL     1       1.209  -0.994  -1.408  1.00  0.00     0.017 C 
BRANCH   6   8
HETATM    8  C6  UNL     1      -0.200   0.526  -0.136  1.00  0.00    -0.046 C 
HETATM    9  C7  UNL     1      -0.555   1.834  -0.195  1.00  0.00     0.010 C 
HETATM   10  C8  UNL     1      -1.947   2.405  -0.249  1.00  0.00     0.091 C 
HETATM   11  C9  UNL     1      -2.080   3.600  -0.990  1.00  0.00     0.078 C 
HETATM   12  C10 UNL     1      -2.685   2.376   1.040  1.00  0.00     0.019 C 
HETATM   13  C16 UNL     1      -2.652   1.267  -1.072  1.00  0.00     0.090 C 
HETATM   14  N2  UNL     1      -2.173   4.574  -1.593  1.00  0.00    -0.196 NA
HETATM   15  C11 UNL     1      -3.468   1.427   1.626  1.00  0.00     0.086 C 
HETATM   16  N3  UNL     1      -3.376   0.055   1.101  1.00  0.00    -0.369 N 
HETATM   17  C12 UNL     1      -2.386   0.203   0.023  1.00  0.00     0.018 C 
HETATM   18  H14 UNL     1      -3.665  -0.942   1.162  1.00  0.00     0.165 HD
HETATM   19  C13 UNL     1      -1.227  -0.537   0.002  1.00  0.00    -0.027 C 
BRANCH  19  20
HETATM   20  C14 UNL     1      -1.373  -1.956   0.172  1.00  0.00     0.070 C 
BRANCH  20  21
HETATM   21  C15 UNL     1      -0.681  -2.615   1.338  1.00  0.00     0.271 C 
BRANCH  21  22
HETATM   22  N4  UNL     1      -1.070  -4.045   1.223  1.00  0.00     0.078 N 
HETATM   23  H19 UNL     1      -1.005  -4.519   2.143  1.00  0.00     0.312 HD
HETATM   24  H20 UNL     1      -2.018  -4.132   0.785  1.00  0.00     0.312 HD
ENDBRANCH  21  22
ENDBRANCH  20  21
ENDBRANCH  19  20
ENDBRANCH   6   8
ENDBRANCH   5   6
ENDBRANCH   1   5
TORSDOF 6
