REMARK  8 active torsions:
REMARK  status: ('A' for Active; 'I' for Inactive)
REMARK    1  A    between atoms: C2_2  and  C3_3 
REMARK    2  A    between atoms: C10_11  and  C11_12 
REMARK    3  A    between atoms: C11_12  and  O1_13 
REMARK    4  A    between atoms: O1_13  and  C12_14 
REMARK    5  A    between atoms: C12_14  and  C13_15 
REMARK    6  A    between atoms: C15_17  and  C16_18 
REMARK    7  A    between atoms: C16_18  and  N1_19 
REMARK    8  A    between atoms: N1_19  and  C17_20 
ROOT
HETATM    1  O1  UNL     1      -0.770   1.657   2.015  1.00  0.00    -0.386 OA
ENDROOT
BRANCH   1   2
HETATM    2  C11 UNL     1      -1.872   2.141   1.533  1.00  0.00     0.178 C 
BRANCH   2   3
HETATM    3  C10 UNL     1      -2.269   1.807   0.136  1.00  0.00     0.053 C 
HETATM    4  C7  UNL     1      -2.461   0.371  -0.099  1.00  0.00    -0.034 A 
HETATM    5  C6  UNL     1      -1.590  -0.630  -0.474  1.00  0.00     0.009 A 
HETATM    6  C8  UNL     1      -3.757  -0.126   0.085  1.00  0.00     0.013 A 
HETATM    7  C5  UNL     1      -1.938  -1.946  -0.647  1.00  0.00     0.001 A 
HETATM    8  C4  UNL     1      -3.235  -2.354  -0.446  1.00  0.00     0.008 A 
HETATM    9  C3  UNL     1      -4.177  -1.423  -0.069  1.00  0.00    -0.041 A 
HETATM   10  S1  UNL     1      -4.723   1.340   0.553  1.00  0.00    -0.128 SA
HETATM   11  C9  UNL     1      -3.566   2.524  -0.258  1.00  0.00     0.091 C 
BRANCH   9  12
HETATM   12  C2  UNL     1      -5.600  -1.762   0.170  1.00  0.00     0.035 C 
HETATM   13  C1  UNL     1      -6.489  -1.329  -0.968  1.00  0.00     0.010 C 
ENDBRANCH   9  12
ENDBRANCH   2   3
ENDBRANCH   1   2
BRANCH   1  14
HETATM   14  C12 UNL     1       0.497   1.805   1.793  1.00  0.00     0.201 C 
BRANCH  14  15
HETATM   15  C13 UNL     1       1.137   1.530   0.489  1.00  0.00    -0.062 C 
HETATM   16  C14 UNL     1       1.214   1.922  -0.938  1.00  0.00     0.045 C 
HETATM   17  C15 UNL     1       2.096   0.564   0.497  1.00  0.00    -0.003 C 
BRANCH  17  18
HETATM   18  C16 UNL     1       3.043  -0.121  -0.450  1.00  0.00     0.148 C 
BRANCH  18  19
HETATM   19  N1  UNL     1       4.412   0.062  -0.061  1.00  0.00    -0.377 N 
HETATM   20  H22 UNL     1       4.591   0.619   0.804  1.00  0.00     0.160 HD
BRANCH  19  21
HETATM   21  C17 UNL     1       5.773  -0.202  -0.352  1.00  0.00     0.102 C 
HETATM   22 CL1  UNL     1       6.574   1.088  -1.231  1.00  0.00    -0.065 Cl
HETATM   23  C18 UNL     1       6.415  -1.292  -0.018  1.00  0.00    -0.041 A 
HETATM   24  C19 UNL     1       7.730  -2.054  -0.052  1.00  0.00     0.042 A 
HETATM   25  C20 UNL     1       6.580  -2.669   0.601  1.00  0.00     0.042 A 
ENDBRANCH  19  21
ENDBRANCH  18  19
ENDBRANCH  17  18
ENDBRANCH  14  15
ENDBRANCH   1  14
TORSDOF 8
