REMARK  8 active torsions:
REMARK  status: ('A' for Active; 'I' for Inactive)
REMARK    1  A    between atoms: C4_4  and  C5_5 
REMARK    2  A    between atoms: C5_5  and  C6_6 
REMARK    3  A    between atoms: C6_6  and  N1_7 
REMARK    4  A    between atoms: N1_7  and  C7_8 
REMARK    5  A    between atoms: C7_8  and  C11_12 
REMARK    6  A    between atoms: C8_9  and  C9_10 
REMARK    7  A    between atoms: N4_17  and  C14_18 
REMARK    8  A    between atoms: C14_18  and  C15_19 
ROOT
HETATM    1  C1  UNL     1      -1.823   3.135   0.179  1.00  0.00     0.099 C 
HETATM    2  C2  UNL     1      -1.676   1.894   0.550  1.00  0.00    -0.123 C 
HETATM    3  C3  UNL     1      -1.430   0.636   0.883  1.00  0.00     0.105 A 
HETATM    4  C4  UNL     1      -0.232   0.034   0.758  1.00  0.00     0.017 A 
HETATM    5  C13 UNL     1      -0.514  -1.253   1.239  1.00  0.00     0.153 A 
HETATM    6  N3  UNL     1      -1.828  -1.300   1.599  1.00  0.00    -0.183 NA
HETATM    7  N4  UNL     1      -2.402  -0.107   1.373  1.00  0.00    -0.258 N 
ENDROOT
BRANCH   4   8
HETATM    8  C5  UNL     1       0.935   0.468   0.314  1.00  0.00     0.008 C 
BRANCH   8   9
HETATM    9  C6  UNL     1       2.101  -0.478   0.307  1.00  0.00     0.148 C 
BRANCH   9  10
HETATM   10  N1  UNL     1       3.170   0.001  -0.514  1.00  0.00    -0.389 N 
HETATM   11  H6  UNL     1       3.038   0.915  -1.001  1.00  0.00     0.159 HD
BRANCH  10  12
HETATM   12  C7  UNL     1       4.398  -0.689  -0.707  1.00  0.00     0.018 C 
HETATM   13  C8  UNL     1       5.549  -0.039  -0.666  1.00  0.00     0.021 C 
BRANCH  13  14
HETATM   14  C9  UNL     1       5.561   1.396  -0.421  1.00  0.00    -0.024 C 
HETATM   15  C10 UNL     1       6.640   2.159  -0.356  1.00  0.00     0.031 C 
ENDBRANCH  13  14
BRANCH  12  16
HETATM   16  C11 UNL     1       4.321  -2.137  -0.950  1.00  0.00     0.180 C 
HETATM   17  C12 UNL     1       5.645  -2.735  -1.133  1.00  0.00     0.065 C 
HETATM   18  N2  UNL     1       6.708  -3.204  -1.285  1.00  0.00    -0.197 NA
ENDBRANCH  12  16
ENDBRANCH  10  12
ENDBRANCH   9  10
ENDBRANCH   8   9
ENDBRANCH   4   8
BRANCH   7  19
HETATM   19  C14 UNL     1      -3.781   0.206   1.636  1.00  0.00     0.190 C 
BRANCH  19  20
HETATM   20  C15 UNL     1      -4.658  -0.068   0.481  1.00  0.00    -0.038 A 
HETATM   21  C16 UNL     1      -4.887   0.925  -0.454  1.00  0.00     0.009 A 
HETATM   22  C17 UNL     1      -5.718   0.626  -1.524  1.00  0.00     0.001 A 
HETATM   23  C18 UNL     1      -6.314  -0.610  -1.682  1.00  0.00     0.000 A 
HETATM   24  C19 UNL     1      -6.082  -1.594  -0.750  1.00  0.00     0.001 A 
HETATM   25  C20 UNL     1      -5.248  -1.296   0.326  1.00  0.00     0.009 A 
ENDBRANCH  19  20
ENDBRANCH   7  19
TORSDOF 8
