REMARK  6 active torsions:
REMARK  status: ('A' for Active; 'I' for Inactive)
REMARK    1  A    between atoms: C2_2  and  O1_3 
REMARK    2  A    between atoms: O1_3  and  C3_4 
REMARK    3  A    between atoms: C18_23  and  N4_24 
REMARK       I    between atoms: N4_24  and  C19_25 
REMARK    4  A    between atoms: C19_25  and  C20_27 
REMARK    5  A    between atoms: C21_28  and  C22_29 
REMARK    6  A    between atoms: C22_29  and  N5_30 
ROOT
HETATM    1  C3  UNL     1      -0.266   1.843  -1.291  1.00  0.00     0.097 A 
HETATM    2  C4  UNL     1      -1.539   2.202  -1.340  1.00  0.00     0.071 A 
HETATM    3  C5  UNL     1      -2.571   1.464  -0.627  1.00  0.00     0.065 A 
HETATM    4  N1  UNL     1      -3.775   1.883  -0.760  1.00  0.00    -0.294 NA
HETATM    5  C6  UNL     1      -4.132   3.023  -1.567  1.00  0.00     0.178 C 
HETATM    6  C7  UNL     1      -2.292   0.296   0.182  1.00  0.00     0.019 A 
HETATM    7  C8  UNL     1      -3.136  -0.400   0.909  1.00  0.00     0.046 C 
HETATM    8  N2  UNL     1      -4.506   0.043   0.927  1.00  0.00    -0.387 N 
HETATM    9  C9  UNL     1      -5.844  -0.412   0.784  1.00  0.00     0.148 C 
HETATM   10  C10 UNL     1      -6.075  -1.539   1.750  1.00  0.00     0.017 C 
HETATM   11  C11 UNL     1      -5.249  -2.507   2.207  1.00  0.00     0.040 C 
HETATM   12 CL1  UNL     1      -5.865  -3.706   3.363  1.00  0.00    -0.084 Cl
HETATM   13  C12 UNL     1      -3.831  -2.605   1.754  1.00  0.00    -0.011 C 
HETATM   14  C13 UNL     1      -3.060  -3.580   1.403  1.00  0.00    -0.013 C 
HETATM   15  C14 UNL     1      -1.943  -2.675   1.134  1.00  0.00     0.064 C 
HETATM   16  C15 UNL     1      -2.803  -1.605   1.679  1.00  0.00     0.123 C 
HETATM   17  C16 UNL     1      -2.187  -1.187   2.990  1.00  0.00     0.081 C 
HETATM   18  N3  UNL     1      -1.730  -0.862   4.008  1.00  0.00    -0.196 NA
HETATM   19  C17 UNL     1      -0.869  -0.001   0.162  1.00  0.00     0.048 A 
HETATM   20  C18 UNL     1       0.064   0.674  -0.490  1.00  0.00     0.069 A 
HETATM   21  H10 UNL     1      -4.581   1.100   1.127  1.00  0.00     0.159 HD
ENDROOT
BRANCH  20  22
HETATM   22  N4  UNL     1       1.447   0.334  -0.473  1.00  0.00    -0.321 N 
HETATM   23  C19 UNL     1       2.247  -0.005  -1.599  1.00  0.00     0.245 C 
HETATM   24  O2  UNL     1       1.795  -0.040  -2.772  1.00  0.00    -0.268 OA
HETATM   25  H18 UNL     1       1.788   0.373   0.513  1.00  0.00     0.169 HD
BRANCH  23  26
HETATM   26  C20 UNL     1       3.655  -0.328  -1.391  1.00  0.00     0.072 C 
HETATM   27  C21 UNL     1       4.209  -0.315  -0.193  1.00  0.00     0.008 C 
BRANCH  27  28
HETATM   28  C22 UNL     1       5.643  -0.638   0.062  1.00  0.00     0.299 C 
BRANCH  28  29
HETATM   29  N5  UNL     1       5.652  -1.783   0.961  1.00  0.00     0.083 N 
HETATM   30  C23 UNL     1       6.996  -2.210   1.299  1.00  0.00     0.309 C 
HETATM   31  C24 UNL     1       4.966  -2.886   0.303  1.00  0.00     0.309 C 
ENDBRANCH  28  29
ENDBRANCH  27  28
ENDBRANCH  23  26
ENDBRANCH  20  22
BRANCH   1  32
HETATM   32  O1  UNL     1       0.661   2.575  -1.983  1.00  0.00    -0.349 OA
BRANCH  32  33
HETATM   33  C2  UNL     1       0.905   3.939  -1.689  1.00  0.00     0.171 C 
HETATM   34  C1  UNL     1       1.965   4.547  -2.572  1.00  0.00     0.034 C 
ENDBRANCH  32  33
ENDBRANCH   1  32
TORSDOF 6
