REMARK  6 active torsions:
REMARK  status: ('A' for Active; 'I' for Inactive)
REMARK    1  A    between atoms: C2_2  and  O1_3 
REMARK    2  A    between atoms: O1_3  and  C3_4 
REMARK    3  A    between atoms: C7_8  and  C8_9 
REMARK    4  A    between atoms: C8_9  and  C9_10 
REMARK    5  A    between atoms: C9_10  and  C10_11 
REMARK    6  A    between atoms: C10_11  and  C11_12 
ROOT
HETATM    1  C3  UNL     1       2.231  -0.368   0.122  1.00  0.00     0.077 A 
HETATM    2  C4  UNL     1       1.027   0.202   0.336  1.00  0.00    -0.016 A 
HETATM    3  C5  UNL     1       0.805   1.616   0.658  1.00  0.00     0.052 C 
HETATM    4  C6  UNL     1      -0.012  -0.812   0.192  1.00  0.00     0.005 A 
HETATM    5  C7  UNL     1      -1.330  -0.930   0.313  1.00  0.00    -0.044 A 
HETATM    6  C12 UNL     1      -2.115  -2.160   0.053  1.00  0.00     0.163 A 
HETATM    7  C13 UNL     1      -2.942  -1.906  -1.141  1.00  0.00     0.073 C 
HETATM    8  N1  UNL     1      -3.592  -1.722  -2.099  1.00  0.00    -0.196 NA
HETATM    9  C14 UNL     1      -1.140  -3.256  -0.254  1.00  0.00     0.114 A 
HETATM   10  N2  UNL     1       0.147  -3.263  -0.351  1.00  0.00    -0.263 NA
HETATM   11  C15 UNL     1       0.812  -1.998  -0.127  1.00  0.00     0.070 A 
HETATM   12  C16 UNL     1       2.100  -1.770  -0.173  1.00  0.00     0.069 A 
ENDROOT
BRANCH   5  13
HETATM   13  C8  UNL     1      -2.015   0.299   0.722  1.00  0.00     0.037 C 
BRANCH  13  14
HETATM   14  C9  UNL     1      -3.011   0.878  -0.203  1.00  0.00     0.011 C 
BRANCH  14  15
HETATM   15  C10 UNL     1      -3.546   2.132   0.419  1.00  0.00     0.011 C 
BRANCH  15  16
HETATM   16  C11 UNL     1      -4.798   2.376   0.732  1.00  0.00     0.237 C 
HETATM   17 CL1  UNL     1      -6.252   3.164   1.310  1.00  0.00    -0.255 Cl
ENDBRANCH  15  16
ENDBRANCH  14  15
ENDBRANCH  13  14
ENDBRANCH   5  13
BRANCH   1  18
HETATM   18  O1  UNL     1       3.448   0.325   0.181  1.00  0.00    -0.351 OA
BRANCH  18  19
HETATM   19  C2  UNL     1       4.555  -0.170  -0.540  1.00  0.00     0.171 C 
HETATM   20  C1  UNL     1       5.754   0.725  -0.336  1.00  0.00     0.034 C 
ENDBRANCH  18  19
ENDBRANCH   1  18
TORSDOF 6
