REMARK  6 active torsions:
REMARK  status: ('A' for Active; 'I' for Inactive)
REMARK    1  A    between atoms: C6_9  and  C7_10 
REMARK    2  A    between atoms: C8_11  and  N3_12 
REMARK       I    between atoms: N3_12  and  C9_13 
REMARK    3  A    between atoms: C9_13  and  C10_15 
REMARK    4  A    between atoms: C11_16  and  C12_17 
REMARK    5  A    between atoms: C12_17  and  N4_18 
REMARK    6  A    between atoms: C15_21  and  O3_22 
ROOT
HETATM    1  N1  UNL     1      -6.654  -0.846   3.446  1.00  0.00    -0.192 NA
HETATM    2  C1  UNL     1      -6.317  -0.429   2.407  1.00  0.00     0.097 C 
HETATM    3  C2  UNL     1      -5.904   0.062   1.118  1.00  0.00     0.049 C 
HETATM    4  C3  UNL     1      -6.153   1.355   1.019  1.00  0.00     0.137 C 
HETATM    5  N2  UNL     1      -5.847   2.114  -0.155  1.00  0.00    -0.248 NA
HETATM    6  C4  UNL     1      -5.694   1.694  -1.375  1.00  0.00     0.250 C 
HETATM    7  O1  UNL     1      -5.803   0.378  -1.774  1.00  0.00    -0.344 OA
HETATM    8  C5  UNL     1      -5.986  -0.851  -1.145  1.00  0.00     0.190 C 
HETATM    9  C6  UNL     1      -5.318  -0.937   0.219  1.00  0.00     0.079 C 
ENDROOT
BRANCH   9  10
HETATM   10  C7  UNL     1      -3.845  -0.770   0.085  1.00  0.00     0.002 C 
HETATM   11  C8  UNL     1      -2.951  -0.530  -0.857  1.00  0.00     0.088 C 
BRANCH  11  12
HETATM   12  N3  UNL     1      -1.562  -0.381  -0.936  1.00  0.00    -0.334 N 
HETATM   13  C9  UNL     1      -0.721  -0.491   0.195  1.00  0.00     0.244 C 
HETATM   14  O2  UNL     1      -1.136  -0.727   1.345  1.00  0.00    -0.268 OA
HETATM   15  H8  UNL     1      -1.197  -0.184  -1.872  1.00  0.00     0.168 HD
BRANCH  13  16
HETATM   16  C10 UNL     1       0.716  -0.335   0.075  1.00  0.00     0.072 C 
HETATM   17  C11 UNL     1       1.484  -0.091  -0.958  1.00  0.00    -0.002 C 
BRANCH  17  18
HETATM   18  C12 UNL     1       2.864   0.113  -1.392  1.00  0.00     0.144 C 
BRANCH  18  19
HETATM   19  N4  UNL     1       3.870   0.048  -0.400  1.00  0.00    -0.409 N 
HETATM   20  C13 UNL     1       3.909   1.087   0.571  1.00  0.00     0.119 C 
HETATM   21  C14 UNL     1       5.383   1.506   0.682  1.00  0.00     0.051 C 
HETATM   22  C15 UNL     1       6.215   0.279   0.471  1.00  0.00     0.121 C 
HETATM   23  C16 UNL     1       5.539  -1.007   0.890  1.00  0.00     0.051 C 
HETATM   24  C17 UNL     1       4.272  -1.240   0.052  1.00  0.00     0.119 C 
BRANCH  22  25
HETATM   25  O3  UNL     1       7.425   0.353   1.162  1.00  0.00    -0.395 OA
HETATM   26  H18 UNL     1       8.070   0.948   0.700  1.00  0.00     0.210 HD
ENDBRANCH  22  25
ENDBRANCH  18  19
ENDBRANCH  17  18
ENDBRANCH  13  16
ENDBRANCH  11  12
ENDBRANCH   9  10
TORSDOF 6
