REMARK  6 active torsions:
REMARK  status: ('A' for Active; 'I' for Inactive)
REMARK    1  A    between atoms: C2_2  and  O1_3 
REMARK    2  A    between atoms: O1_3  and  C3_4 
REMARK    3  A    between atoms: C8_9  and  N1_10 
REMARK       I    between atoms: N1_10  and  C9_11 
REMARK    4  A    between atoms: C9_11  and  C10_13 
REMARK    5  A    between atoms: C11_14  and  C12_15 
REMARK    6  A    between atoms: C12_15  and  N2_16 
ROOT
HETATM    1  C3  UNL     1      -2.525  -0.223   0.235  1.00  0.00     0.094 A 
HETATM    2  C4  UNL     1      -3.833  -0.290  -0.293  1.00  0.00     0.070 A 
HETATM    3  C5  UNL     1      -4.579   0.709  -0.952  1.00  0.00     0.058 A 
HETATM    4  C6  UNL     1      -3.664   1.697  -0.908  1.00  0.00    -0.021 A 
HETATM    5  C7  UNL     1      -2.366   2.146  -0.517  1.00  0.00     0.064 A 
HETATM    6  C8  UNL     1      -1.812   0.987   0.117  1.00  0.00     0.061 A 
HETATM    7  C15 UNL     1      -3.423   2.996  -1.255  1.00  0.00     0.038 A 
HETATM    8  C16 UNL     1      -4.846   2.818  -1.791  1.00  0.00     0.166 A 
HETATM    9  N3  UNL     1      -5.332   1.506  -1.544  1.00  0.00    -0.288 NA
ENDROOT
BRANCH   6  10
HETATM   10  N1  UNL     1      -0.519   1.122   0.615  1.00  0.00    -0.324 N 
HETATM   11  C9  UNL     1       0.582   0.808  -0.232  1.00  0.00     0.245 C 
HETATM   12  O2  UNL     1       0.298   0.419  -1.404  1.00  0.00    -0.268 OA
HETATM   13  H7  UNL     1      -0.296   1.448   1.597  1.00  0.00     0.169 HD
BRANCH  11  14
HETATM   14  C10 UNL     1       1.979   0.916   0.191  1.00  0.00     0.072 C 
HETATM   15  C11 UNL     1       3.056   0.639  -0.547  1.00  0.00     0.008 C 
BRANCH  15  16
HETATM   16  C12 UNL     1       4.435   0.775  -0.042  1.00  0.00     0.299 C 
BRANCH  16  17
HETATM   17  N2  UNL     1       5.109  -0.518  -0.098  1.00  0.00     0.083 N 
HETATM   18  C13 UNL     1       6.469  -0.303   0.418  1.00  0.00     0.309 C 
HETATM   19  C14 UNL     1       4.426  -1.417   0.836  1.00  0.00     0.309 C 
ENDBRANCH  16  17
ENDBRANCH  15  16
ENDBRANCH  11  14
ENDBRANCH   6  10
BRANCH   1  20
HETATM   20  O1  UNL     1      -2.009  -1.327   0.833  1.00  0.00    -0.349 OA
BRANCH  20  21
HETATM   21  C2  UNL     1      -2.645  -2.560   0.994  1.00  0.00     0.171 C 
HETATM   22  C1  UNL     1      -3.905  -2.539   1.789  1.00  0.00     0.034 C 
ENDBRANCH  20  21
ENDBRANCH   1  20
TORSDOF 6
