REMARK  5 active torsions:
REMARK  status: ('A' for Active; 'I' for Inactive)
REMARK    1  A    between atoms: C2_2  and  O1_3 
REMARK    2  A    between atoms: O1_3  and  C3_4 
REMARK       I    between atoms: N2_12  and  C10_13 
REMARK    3  A    between atoms: C10_13  and  C11_15 
REMARK    4  A    between atoms: C12_16  and  C13_17 
REMARK    5  A    between atoms: C13_17  and  N3_18 
ROOT
HETATM    1  C3  UNL     1      -2.240   0.785   0.587  1.00  0.00     0.091 C 
HETATM    2  C4  UNL     1      -2.652  -0.359   0.068  1.00  0.00     0.068 A 
HETATM    3  N1  UNL     1      -3.819  -0.580  -0.705  1.00  0.00    -0.383 N 
HETATM    4  C5  UNL     1      -3.830  -1.990  -1.036  1.00  0.00     0.154 A 
HETATM    5  C6  UNL     1      -2.621  -2.562  -0.420  1.00  0.00    -0.056 A 
HETATM    6  C7  UNL     1      -2.260  -4.000  -0.528  1.00  0.00     0.046 C 
HETATM    7  C8  UNL     1      -1.941  -1.622   0.217  1.00  0.00    -0.008 A 
HETATM    8  C9  UNL     1      -0.686  -1.611   0.996  1.00  0.00     0.167 C 
HETATM    9  N2  UNL     1      -0.070  -0.310   0.828  1.00  0.00    -0.338 N 
HETATM   10  C10 UNL     1       1.203  -0.173   0.219  1.00  0.00     0.243 C 
HETATM   11  O2  UNL     1       1.568  -1.331  -0.077  1.00  0.00    -0.268 OA
HETATM   12  C16 UNL     1      -0.953   0.695   1.362  1.00  0.00     0.193 C 
HETATM   13  H6  UNL     1      -4.527   0.116  -0.983  1.00  0.00     0.160 HD
ENDROOT
BRANCH  10  14
HETATM   14  C11 UNL     1       1.843   1.113   0.036  1.00  0.00     0.072 C 
HETATM   15  C12 UNL     1       3.022   1.288  -0.523  1.00  0.00     0.008 C 
BRANCH  15  16
HETATM   16  C13 UNL     1       4.011   0.349  -1.102  1.00  0.00     0.299 C 
BRANCH  16  17
HETATM   17  N3  UNL     1       5.253   0.480  -0.361  1.00  0.00     0.083 N 
HETATM   18  C14 UNL     1       6.286  -0.386  -0.835  1.00  0.00     0.309 C 
HETATM   19  C15 UNL     1       5.042   0.461   1.054  1.00  0.00     0.309 C 
ENDBRANCH  16  17
ENDBRANCH  15  16
ENDBRANCH  10  14
BRANCH   1  20
HETATM   20  O1  UNL     1      -2.766   2.028   0.548  1.00  0.00    -0.352 OA
BRANCH  20  21
HETATM   21  C2  UNL     1      -3.948   2.516   0.025  1.00  0.00     0.171 C 
HETATM   22  C1  UNL     1      -4.129   4.008   0.252  1.00  0.00     0.034 C 
ENDBRANCH  20  21
ENDBRANCH   1  20
TORSDOF 5
