REMARK  5 active torsions:
REMARK  status: ('A' for Active; 'I' for Inactive)
REMARK    1  A    between atoms: C6_8  and  N3_9 
REMARK    2  A    between atoms: N3_9  and  C7_10 
REMARK    3  A    between atoms: C10_13  and  O1_14 
REMARK    4  A    between atoms: O1_14  and  C11_15 
REMARK    5  A    between atoms: C11_15  and  C12_16 
ROOT
HETATM    1  N1  UNL     1      -2.326   4.582  -0.524  1.00  0.00    -0.191 NA
HETATM    2  C1  UNL     1      -3.030   3.722  -0.197  1.00  0.00     0.103 C 
HETATM    3  C2  UNL     1      -3.892   2.649   0.184  1.00  0.00     0.089 A 
HETATM    4  C3  UNL     1      -4.999   3.010   0.944  1.00  0.00     0.142 A 
HETATM    5  N2  UNL     1      -5.886   2.109   1.368  1.00  0.00    -0.259 NA
HETATM    6  C4  UNL     1      -5.722   0.828   1.064  1.00  0.00     0.065 A 
HETATM    7  C5  UNL     1      -4.637   0.436   0.313  1.00  0.00     0.002 A 
HETATM    8  C6  UNL     1      -3.695   1.333  -0.146  1.00  0.00     0.064 A 
HETATM    9  C20 UNL     1      -4.718  -1.038   0.136  1.00  0.00     0.070 A 
HETATM   10  C21 UNL     1      -5.947  -1.449   0.853  1.00  0.00    -0.020 A 
HETATM   11  C22 UNL     1      -6.511  -0.369   1.380  1.00  0.00     0.028 A 
ENDROOT
BRANCH   8  12
HETATM   12  N3  UNL     1      -2.566   0.997  -0.917  1.00  0.00    -0.354 N 
HETATM   13  H2  UNL     1      -2.922   1.073  -1.895  1.00  0.00     0.166 HD
BRANCH  12  14
HETATM   14  C7  UNL     1      -1.228   0.628  -0.612  1.00  0.00     0.034 A 
HETATM   15  C8  UNL     1      -0.380   0.365  -1.667  1.00  0.00     0.032 A 
HETATM   16  C9  UNL     1       0.907   0.012  -1.317  1.00  0.00     0.041 A 
HETATM   17  C10 UNL     1       1.358  -0.085  -0.014  1.00  0.00     0.091 A 
HETATM   18  C18 UNL     1       0.460   0.191   0.973  1.00  0.00     0.069 A 
HETATM   19 CL1  UNL     1       0.983   0.083   2.634  1.00  0.00    -0.081 Cl
HETATM   20  C19 UNL     1      -0.855   0.554   0.714  1.00  0.00     0.056 A 
BRANCH  17  21
HETATM   21  O1  UNL     1       2.676  -0.450   0.184  1.00  0.00    -0.345 OA
BRANCH  21  22
HETATM   22  C11 UNL     1       3.557  -0.722  -0.869  1.00  0.00     0.214 C 
BRANCH  22  23
HETATM   23  C12 UNL     1       4.919  -1.094  -0.411  1.00  0.00    -0.034 A 
HETATM   24  C13 UNL     1       5.878  -0.098  -0.225  1.00  0.00     0.009 A 
HETATM   25  C14 UNL     1       7.165  -0.418   0.204  1.00  0.00     0.001 A 
HETATM   26  C15 UNL     1       7.473  -1.740   0.444  1.00  0.00     0.000 A 
HETATM   27  C16 UNL     1       6.563  -2.762   0.276  1.00  0.00     0.001 A 
HETATM   28  C17 UNL     1       5.297  -2.407  -0.151  1.00  0.00     0.009 A 
ENDBRANCH  22  23
ENDBRANCH  21  22
ENDBRANCH  17  21
ENDBRANCH  12  14
ENDBRANCH   8  12
TORSDOF 5
