REMARK  2 active torsions:
REMARK  status: ('A' for Active; 'I' for Inactive)
REMARK    1  A    between atoms: C8_11  and  S1_12 
REMARK    2  A    between atoms: C10_15  and  C11_16 
ROOT
HETATM    1  C1  UNL     1      -0.789   0.878   3.040  1.00  0.00     0.066 C 
HETATM    2  C2  UNL     1      -0.588   0.573   1.776  1.00  0.00     0.051 C 
HETATM    3  N1  UNL     1       0.584  -0.230   2.122  1.00  0.00    -0.344 N 
HETATM    4  C3  UNL     1       0.238  -1.409   1.362  1.00  0.00     0.121 A 
HETATM    5  N2  UNL     1      -0.331  -2.180   2.344  1.00  0.00    -0.227 NA
HETATM    6  C4  UNL     1      -0.993  -3.303   1.919  1.00  0.00     0.235 A 
HETATM    7  N3  UNL     1      -0.923  -3.375   0.588  1.00  0.00    -0.249 NA
HETATM    8  C5  UNL     1      -0.270  -2.422  -0.039  1.00  0.00     0.038 A 
HETATM    9  C6  UNL     1      -0.135  -1.962  -1.318  1.00  0.00     0.075 A 
HETATM   10  C7  UNL     1       0.586  -0.817  -1.324  1.00  0.00     0.032 A 
HETATM   11  C8  UNL     1       1.301   0.297  -1.229  1.00  0.00    -0.015 A 
HETATM   12  C10 UNL     1       1.143  -0.181  -0.008  1.00  0.00     0.063 A 
HETATM   13  C11 UNL     1       0.436  -1.303  -0.023  1.00  0.00     0.076 A 
HETATM   14  C12 UNL     1      -0.085  -0.419  -2.577  1.00  0.00    -0.009 C 
HETATM   15  C13 UNL     1      -1.032   0.405  -2.012  1.00  0.00     0.024 C 
HETATM   16  C14 UNL     1      -1.579   0.990  -0.786  1.00  0.00     0.074 C 
HETATM   17 CL1  UNL     1      -2.978   2.017  -1.172  1.00  0.00    -0.081 Cl
HETATM   18  C15 UNL     1      -1.290   0.944   0.528  1.00  0.00     0.160 C 
HETATM   19  F1  UNL     1      -2.197   1.724   1.206  1.00  0.00    -0.202 F 
HETATM   20  H3  UNL     1       1.418   0.019   2.708  1.00  0.00     0.167 HD
ENDROOT
BRANCH  11  21
HETATM   21  S1  UNL     1       1.968   1.474  -1.960  1.00  0.00    -0.088 SA
HETATM   22  N4  UNL     1       3.395   1.798  -2.581  1.00  0.00    -0.174 NA
HETATM   23  C9  UNL     1       2.466   2.898  -2.730  1.00  0.00     0.207 A 
ENDBRANCH  11  21
TORSDOF 2
