REMARK  3 active torsions:
REMARK  status: ('A' for Active; 'I' for Inactive)
REMARK    1  A    between atoms: C2_2  and  C3_3 
REMARK    2  A    between atoms: N1_5  and  C5_6 
REMARK    3  A    between atoms: C15_18  and  C16_19 
ROOT
HETATM    1  C5  UNL     1       0.021  -0.099   0.245  1.00  0.00     0.049 C 
HETATM    2  C6  UNL     1       0.576  -1.283   0.329  1.00  0.00     0.009 C 
HETATM    3  C7  UNL     1       1.963  -1.728   0.460  1.00  0.00     0.066 C 
HETATM    4  C8  UNL     1       2.995  -0.705   0.249  1.00  0.00    -0.048 C 
HETATM    5  C9  UNL     1       4.118  -1.302  -0.207  1.00  0.00    -0.019 C 
HETATM    6  C10 UNL     1       5.398  -0.596  -0.543  1.00  0.00     0.054 C 
HETATM    7  C11 UNL     1       5.241   0.902  -0.416  1.00  0.00     0.172 C 
HETATM    8  O1  UNL     1       3.914   1.215  -0.696  1.00  0.00    -0.377 OA
HETATM    9  C12 UNL     1       3.145   0.770   0.393  1.00  0.00     0.175 C 
HETATM   10  C13 UNL     1       1.887   1.514   0.315  1.00  0.00     0.035 C 
HETATM   11  C14 UNL     1       0.633   1.196   0.256  1.00  0.00     0.059 C 
HETATM   12 CL1  UNL     1      -0.431   2.583   0.178  1.00  0.00    -0.082 Cl
ENDROOT
BRANCH   1  13
HETATM   13  N1  UNL     1      -1.392  -0.157   0.128  1.00  0.00    -0.365 N 
HETATM   14  C4  UNL     1      -2.384   0.503   0.950  1.00  0.00     0.155 C 
HETATM   15  C3  UNL     1      -3.619  -0.307   1.174  1.00  0.00     0.147 C 
HETATM   16  N2  UNL     1      -3.522  -1.650   0.707  1.00  0.00    -0.293 NA
HETATM   17  C18 UNL     1      -2.780  -2.022  -0.262  1.00  0.00     0.113 C 
HETATM   18  C15 UNL     1      -1.959  -0.979  -0.951  1.00  0.00     0.147 C 
BRANCH  15  19
HETATM   19  C2  UNL     1      -4.828   0.315   0.519  1.00  0.00    -0.008 C 
HETATM   20  C1  UNL     1      -4.864   1.594   0.912  1.00  0.00     0.009 C 
ENDBRANCH  15  19
BRANCH  18  21
HETATM   21  C16 UNL     1      -2.787  -0.212  -1.888  1.00  0.00    -0.007 C 
HETATM   22  C17 UNL     1      -2.220   0.786  -2.523  1.00  0.00     0.009 C 
ENDBRANCH  18  21
ENDBRANCH   1  13
TORSDOF 3
