REMARK  5 active torsions:
REMARK  status: ('A' for Active; 'I' for Inactive)
REMARK    1  A    between atoms: C2_2  and  O1_3 
REMARK    2  A    between atoms: O1_3  and  C3_4 
REMARK    3  A    between atoms: C4_5  and  C5_6 
REMARK    4  A    between atoms: C5_6  and  C6_7 
REMARK    5  A    between atoms: C12_14  and  N1_15 
ROOT
HETATM    1  C3  UNL     1      -1.746   0.502  -0.642  1.00  0.00     0.206 C 
HETATM    2  C4  UNL     1      -1.497  -0.935  -0.194  1.00  0.00    -0.039 C 
HETATM    3  C7  UNL     1      -0.659  -1.942  -0.335  1.00  0.00     0.008 C 
HETATM    4  C8  UNL     1      -0.260  -3.289  -0.012  1.00  0.00     0.025 C 
HETATM    5  C9  UNL     1       0.827  -3.288  -0.809  1.00  0.00     0.013 C 
HETATM    6  C10 UNL     1       1.891  -2.943  -1.760  1.00  0.00     0.088 C 
HETATM    7  C11 UNL     1       1.915  -1.510  -2.203  1.00  0.00     0.029 C 
HETATM    8  C12 UNL     1       1.552  -0.202  -2.256  1.00  0.00     0.117 C 
HETATM    9  N2  UNL     1       0.692   0.673  -1.702  1.00  0.00    -0.236 NA
HETATM   10  C13 UNL     1      -0.371   0.954  -1.172  1.00  0.00     0.066 C 
HETATM   11  C14 UNL     1      -0.222   2.439  -1.017  1.00  0.00     0.187 C 
HETATM   12  N3  UNL     1       0.196   2.826   0.329  1.00  0.00    -0.337 N 
HETATM   13  C15 UNL     1      -0.611   3.626   1.102  1.00  0.00     0.112 A 
HETATM   14  C16 UNL     1      -0.146   3.944   2.350  1.00  0.00     0.136 A 
HETATM   15  N4  UNL     1       1.024   3.291   2.327  1.00  0.00    -0.244 NA
HETATM   16  C17 UNL     1       1.244   2.641   1.174  1.00  0.00     0.130 A 
HETATM   17  C18 UNL     1       2.557   1.963   1.164  1.00  0.00     0.247 C 
HETATM   18  O3  UNL     1       2.595   0.970   2.189  1.00  0.00    -0.365 OA
HETATM   19  C19 UNL     1       2.164  -0.319   1.930  1.00  0.00     0.116 A 
HETATM   20  C20 UNL     1       2.939  -0.723   0.818  1.00  0.00     0.003 A 
HETATM   21  C21 UNL     1       2.068  -1.711   1.195  1.00  0.00     0.112 A 
HETATM   22  C22 UNL     1       1.634  -2.979   0.903  1.00  0.00     0.019 A 
HETATM   23  C23 UNL     1       0.902  -2.523   2.026  1.00  0.00     0.029 A 
HETATM   24  C24 UNL     1       1.282  -1.251   2.369  1.00  0.00     0.106 A 
HETATM   25 CL1  UNL     1       0.542  -0.450   3.707  1.00  0.00    -0.110 Cl
HETATM   26  N5  UNL     1       1.497  -4.241   0.129  1.00  0.00    -0.362 N 
HETATM   27  H24 UNL     1       1.924  -5.029   0.653  1.00  0.00     0.165 HD
ENDROOT
BRANCH   1  28
HETATM   28  O1  UNL     1      -2.209   1.277   0.394  1.00  0.00    -0.348 OA
BRANCH  28  29
HETATM   29  C2  UNL     1      -3.385   2.032   0.137  1.00  0.00     0.126 C 
HETATM   30  C1  UNL     1      -4.461   2.376  -0.583  1.00  0.00     0.037 C 
ENDBRANCH  28  29
ENDBRANCH   1  28
BRANCH   2  31
HETATM   31  C5  UNL     1      -2.723  -1.278   0.616  1.00  0.00     0.106 C 
BRANCH  31  32
HETATM   32  C6  UNL     1      -3.950  -1.080  -0.233  1.00  0.00     0.235 C 
HETATM   33  O2  UNL     1      -4.944  -1.321   0.468  1.00  0.00    -0.307 OA
ENDBRANCH  31  32
ENDBRANCH   2  31
BRANCH   8  34
HETATM   34  N1  UNL     1       2.095   0.856  -3.067  1.00  0.00    -0.384 N 
HETATM   35  H13 UNL     1       1.817   1.192  -4.017  1.00  0.00     0.157 HD
HETATM   36  H14 UNL     1       2.906   1.506  -2.848  1.00  0.00     0.157 HD
ENDBRANCH   8  34
TORSDOF 5
