REMARK  7 active torsions:
REMARK  status: ('A' for Active; 'I' for Inactive)
REMARK    1  A    between atoms: C2_2  and  O1_3 
REMARK    2  A    between atoms: O1_3  and  C3_4 
REMARK    3  A    between atoms: C12_15  and  N3_16 
REMARK       I    between atoms: N3_16  and  C13_17 
REMARK    4  A    between atoms: C13_17  and  C14_19 
REMARK    5  A    between atoms: C15_20  and  C16_21 
REMARK    6  A    between atoms: C16_21  and  C17_22 
REMARK    7  A    between atoms: C17_22  and  N4_23 
ROOT
HETATM    1  C3  UNL     1      -2.201  -0.588  -0.414  1.00  0.00     0.097 A 
HETATM    2  C4  UNL     1      -3.276  -0.436   0.468  1.00  0.00     0.071 A 
HETATM    3  C5  UNL     1      -3.489   0.758   1.136  1.00  0.00     0.069 A 
HETATM    4  N1  UNL     1      -4.526   0.884   1.977  1.00  0.00    -0.259 NA
HETATM    5  C6  UNL     1      -4.736   2.043   2.628  1.00  0.00     0.140 A 
HETATM    6  C7  UNL     1      -3.886   3.126   2.442  1.00  0.00     0.063 A 
HETATM    7  C8  UNL     1      -4.128   4.353   3.146  1.00  0.00     0.101 C 
HETATM    8  N2  UNL     1      -4.310   5.350   3.713  1.00  0.00    -0.191 NA
HETATM    9  C9  UNL     1      -2.806   2.994   1.565  1.00  0.00     0.038 A 
HETATM   10  C10 UNL     1      -2.610   1.783   0.902  1.00  0.00    -0.004 A 
HETATM   11  C11 UNL     1      -1.541   1.652   0.034  1.00  0.00     0.046 A 
HETATM   12  C12 UNL     1      -1.327   0.464  -0.632  1.00  0.00     0.069 A 
ENDROOT
BRANCH  12  13
HETATM   13  N3  UNL     1      -0.263   0.223  -1.543  1.00  0.00    -0.321 N 
HETATM   14  C13 UNL     1       0.995  -0.294  -1.101  1.00  0.00     0.245 C 
HETATM   15  O2  UNL     1       0.992  -0.483   0.142  1.00  0.00    -0.268 OA
HETATM   16  H10 UNL     1      -0.412   0.433  -2.573  1.00  0.00     0.169 HD
BRANCH  14  17
HETATM   17  C14 UNL     1       2.102  -0.551  -2.008  1.00  0.00     0.070 C 
HETATM   18  C15 UNL     1       3.271  -1.021  -1.669  1.00  0.00    -0.019 C 
BRANCH  18  19
HETATM   19  C16 UNL     1       3.874  -1.432  -0.390  1.00  0.00     0.057 C 
BRANCH  19  20
HETATM   20  C17 UNL     1       5.112  -0.615  -0.058  1.00  0.00     0.272 C 
BRANCH  20  21
HETATM   21  N4  UNL     1       4.749   0.768   0.035  1.00  0.00     0.079 N 
HETATM   22  C18 UNL     1       5.874   1.631   0.351  1.00  0.00     0.306 C 
HETATM   23  H17 UNL     1       3.918   0.960   0.646  1.00  0.00     0.315 HD
ENDBRANCH  20  21
ENDBRANCH  19  20
ENDBRANCH  18  19
ENDBRANCH  14  17
ENDBRANCH  12  13
BRANCH   1  24
HETATM   24  O1  UNL     1      -2.065  -1.817  -1.038  1.00  0.00    -0.349 OA
BRANCH  24  25
HETATM   25  C2  UNL     1      -2.976  -2.897  -0.804  1.00  0.00     0.171 C 
HETATM   26  C1  UNL     1      -2.580  -4.092  -1.612  1.00  0.00     0.034 C 
ENDBRANCH  24  25
ENDBRANCH   1  24
TORSDOF 7
