REMARK  3 active torsions:
REMARK  status: ('A' for Active; 'I' for Inactive)
REMARK    1  A    between atoms: C4_6  and  S1_7 
REMARK    2  A    between atoms: S1_7  and  C5_8 
REMARK    3  A    between atoms: C6_9  and  C7_10 
ROOT
HETATM    1  C7  UNL     1       0.239  -0.927  -0.294  1.00  0.00     0.030 C 
HETATM    2  C8  UNL     1       1.498  -0.574  -0.426  1.00  0.00     0.034 A 
HETATM    3  C9  UNL     1       2.263  -0.738  -1.657  1.00  0.00     0.054 A 
HETATM    4  C10 UNL     1       3.531  -0.393  -1.818  1.00  0.00     0.049 A 
HETATM    5 CL1  UNL     1       4.398  -0.615  -3.324  1.00  0.00    -0.083 Cl
HETATM    6  C11 UNL     1       4.204   0.197  -0.669  1.00  0.00     0.027 A 
HETATM    7  C12 UNL     1       3.608   0.392   0.496  1.00  0.00     0.043 A 
HETATM    8  C13 UNL     1       4.510   1.004   1.492  1.00  0.00     0.206 A 
HETATM    9  N3  UNL     1       5.745   1.150   0.757  1.00  0.00    -0.295 NA
HETATM   10  C14 UNL     1       5.550   0.698  -0.432  1.00  0.00     0.126 A 
HETATM   11  N4  UNL     1       2.246   0.009   0.633  1.00  0.00    -0.357 N 
HETATM   12  H13 UNL     1       1.753   0.159   1.561  1.00  0.00     0.166 HD
ENDROOT
BRANCH   1  13
HETATM   13  C6  UNL     1      -0.535  -1.517  -1.347  1.00  0.00     0.009 C 
HETATM   14  C5  UNL     1      -1.821  -1.854  -1.142  1.00  0.00     0.053 C 
BRANCH  14  15
HETATM   15  S1  UNL     1      -2.211  -1.419   0.553  1.00  0.00    -0.064 SA
BRANCH  15  16
HETATM   16  C4  UNL     1      -3.141   0.109   0.536  1.00  0.00     0.172 A 
HETATM   17  N1  UNL     1      -4.464   0.351   0.458  1.00  0.00    -0.339 N 
HETATM   18  C1  UNL     1      -5.426  -0.732   0.366  1.00  0.00     0.158 C 
HETATM   19  C2  UNL     1      -4.602   1.687   0.486  1.00  0.00     0.112 A 
HETATM   20  C3  UNL     1      -3.347   2.268   0.583  1.00  0.00     0.136 A 
HETATM   21  N2  UNL     1      -2.453   1.265   0.612  1.00  0.00    -0.235 NA
ENDBRANCH  15  16
ENDBRANCH  14  15
ENDBRANCH   1  13
TORSDOF 3
