REMARK  4 active torsions:
REMARK  status: ('A' for Active; 'I' for Inactive)
REMARK    1  A    between atoms: C2_2  and  N1_3 
REMARK       I    between atoms: N1_3  and  C3_4 
REMARK    2  A    between atoms: C3_4  and  C4_6 
REMARK    3  A    between atoms: C5_7  and  C6_8 
REMARK    4  A    between atoms: C6_8  and  N2_9 
ROOT
HETATM    1  N2  UNL     1       0.153   1.082  -0.304  1.00  0.00    -0.353 N 
HETATM    2  C7  UNL     1       0.448   1.189   1.140  1.00  0.00     0.115 C 
HETATM    3  C8  UNL     1      -0.571   2.119   1.095  1.00  0.00     0.055 C 
HETATM    4  C9  UNL     1      -0.075   3.534   0.729  1.00  0.00     0.330 C 
HETATM    5  N3  UNL     1      -0.025   3.343  -0.785  1.00  0.00     0.114 N 
HETATM    6  C10 UNL     1      -0.803   2.036  -0.949  1.00  0.00     0.350 C 
HETATM    7  C11 UNL     1      -2.034   2.262  -0.202  1.00  0.00     0.186 C 
HETATM    8  C12 UNL     1      -3.324   1.787  -0.757  1.00  0.00     0.039 C 
HETATM    9 CL1  UNL     1      -3.564   1.936  -2.479  1.00  0.00    -0.087 Cl
HETATM   10  C13 UNL     1      -4.297   1.256   0.006  1.00  0.00     0.023 C 
HETATM   11  C14 UNL     1      -4.157   1.073   1.445  1.00  0.00     0.019 C 
HETATM   12  C15 UNL     1      -3.006   1.396   2.051  1.00  0.00     0.092 C 
HETATM   13  N4  UNL     1      -1.966   1.875   1.188  1.00  0.00    -0.344 N 
HETATM   14  H12 UNL     1       0.923   3.088  -1.062  1.00  0.00     0.319 HD
ENDROOT
BRANCH   1  15
HETATM   15  C6  UNL     1       0.747   0.060  -1.220  1.00  0.00     0.152 C 
BRANCH  15  16
HETATM   16  C5  UNL     1       0.279  -1.289  -0.940  1.00  0.00    -0.002 C 
HETATM   17  C4  UNL     1       0.841  -2.435  -0.592  1.00  0.00     0.072 C 
BRANCH  17  18
HETATM   18  C3  UNL     1       2.268  -2.188  -0.491  1.00  0.00     0.244 C 
HETATM   19  N1  UNL     1       2.751  -3.521  -0.105  1.00  0.00    -0.337 N 
HETATM   20  H4  UNL     1       2.318  -4.493   0.088  1.00  0.00     0.168 HD
HETATM   21  O1  UNL     1       3.443  -1.795  -0.455  1.00  0.00    -0.268 OA
BRANCH  19  22
HETATM   22  C2  UNL     1       4.000  -4.180   0.200  1.00  0.00     0.064 C 
HETATM   23  C1  UNL     1       4.778  -5.188   0.538  1.00  0.00     0.049 C 
ENDBRANCH  19  22
ENDBRANCH  17  18
ENDBRANCH  15  16
ENDBRANCH   1  15
TORSDOF 4
