REMARK  0 active torsions:
REMARK  status: ('A' for Active; 'I' for Inactive)
ROOT
HETATM    1  C1  UNL     1       3.159  -0.151  -0.839  1.00  0.00     0.158 C 
HETATM    2  N1  UNL     1       2.779  -0.132   0.559  1.00  0.00    -0.329 N 
HETATM    3  C2  UNL     1       2.889   0.896   1.420  1.00  0.00     0.055 A 
HETATM    4  C3  UNL     1       2.399   0.452   2.648  1.00  0.00     0.149 A 
HETATM    5  N2  UNL     1       2.003  -0.845   2.491  1.00  0.00    -0.234 NA
HETATM    6  C4  UNL     1       2.244  -1.182   1.208  1.00  0.00     0.170 A 
HETATM    7  S1  UNL     1       1.957  -2.737   0.389  1.00  0.00    -0.070 SA
HETATM    8  C5  UNL     1       0.254  -3.222   0.339  1.00  0.00     0.081 A 
HETATM    9 CL1  UNL     1       0.219  -1.645   1.157  1.00  0.00    -0.195 Cl
HETATM   10  C6  UNL     1      -1.044  -3.131   0.534  1.00  0.00     0.204 A 
HETATM   11  C7  UNL     1      -2.490  -3.484   0.521  1.00  0.00     0.209 C 
HETATM   12  C8  UNL     1      -2.947  -3.765  -0.828  1.00  0.00     0.086 C 
HETATM   13  N3  UNL     1      -3.315  -3.978  -1.904  1.00  0.00    -0.195 NA
HETATM   14  N4  UNL     1      -3.252  -2.375   1.114  1.00  0.00    -0.381 N 
HETATM   15  C9  UNL     1      -3.034  -1.254   0.274  1.00  0.00     0.082 C 
HETATM   16  C10 UNL     1      -2.666  -0.008   0.057  1.00  0.00     0.014 C 
HETATM   17  C11 UNL     1      -2.363   1.281  -0.606  1.00  0.00     0.061 A 
HETATM   18  B1  UNL     1      -2.512   1.285  -2.334  1.00  0.00     0.256 B 
HETATM   19  C12 UNL     1      -4.156   2.546  -1.700  1.00  0.00    -0.009 A 
HETATM   20  N5  UNL     1      -3.498   2.195  -0.667  1.00  0.00    -0.300 NA
HETATM   21  C13 UNL     1      -1.118   1.923  -0.060  1.00  0.00     0.202 C 
HETATM   22  O1  UNL     1      -0.419   2.552  -1.129  1.00  0.00    -0.343 OA
HETATM   23  C14 UNL     1       0.749   3.258  -0.852  1.00  0.00     0.250 C 
HETATM   24  N6  UNL     1       1.640   2.504  -0.302  1.00  0.00    -0.249 NA
HETATM   25  C15 UNL     1       2.928   3.029   0.070  1.00  0.00     0.121 C 
HETATM   26  C16 UNL     1       3.459   2.165   0.918  1.00  0.00     0.050 C 
HETATM   27  H7  UNL     1      -3.837  -1.700   1.652  1.00  0.00     0.160 HD
ENDROOT
TORSDOF 0
