REMARK  8 active torsions:
REMARK  status: ('A' for Active; 'I' for Inactive)
REMARK    1  A    between atoms: C2_2  and  N1_3 
REMARK    2  A    between atoms: C3_4  and  C4_5 
REMARK    3  A    between atoms: C4_5  and  C5_6 
REMARK    4  A    between atoms: C5_6  and  C6_7 
REMARK    5  A    between atoms: C5_6  and  N3_10 
REMARK    6  A    between atoms: N3_10  and  C8_11 
REMARK    7  A    between atoms: C11_14  and  S1_15 
REMARK    8  A    between atoms: S1_15  and  C12_16 
ROOT
HETATM    1  C6  UNL     1       2.877  -2.373  -0.512  1.00  0.00     0.180 C 
HETATM    2  C7  UNL     1       3.276  -2.956   0.751  1.00  0.00     0.065 C 
HETATM    3  N2  UNL     1       3.594  -3.438   1.754  1.00  0.00    -0.197 NA
ENDROOT
BRANCH   1   4
HETATM    4  C5  UNL     1       3.021  -0.877  -0.478  1.00  0.00     0.024 C 
BRANCH   4   5
HETATM    5  C4  UNL     1       3.776  -0.121  -1.201  1.00  0.00     0.045 C 
BRANCH   5   6
HETATM    6  C3  UNL     1       4.527   0.889  -1.886  1.00  0.00     0.118 C 
HETATM    7  N1  UNL     1       4.491   2.148  -1.684  1.00  0.00    -0.274 NA
BRANCH   7   8
HETATM    8  C2  UNL     1       3.721   2.859  -0.755  1.00  0.00     0.106 C 
HETATM    9  C1  UNL     1       4.584   2.766   0.201  1.00  0.00     0.032 C 
ENDBRANCH   7   8
ENDBRANCH   5   6
ENDBRANCH   4   5
BRANCH   4  10
HETATM   10  N3  UNL     1       2.242  -0.111   0.475  1.00  0.00    -0.359 N 
HETATM   11  H8  UNL     1       2.734   0.623   1.040  1.00  0.00     0.166 HD
BRANCH  10  12
HETATM   12  C8  UNL     1       0.859  -0.517   0.456  1.00  0.00     0.034 A 
HETATM   13  C9  UNL     1       0.169  -0.799   1.645  1.00  0.00     0.031 A 
HETATM   14  C10 UNL     1      -1.148  -1.166   1.536  1.00  0.00     0.023 A 
HETATM   15  C11 UNL     1      -1.773  -1.255   0.309  1.00  0.00     0.030 A 
HETATM   16  C16 UNL     1      -1.085  -0.974  -0.870  1.00  0.00     0.053 A 
HETATM   17 CL1  UNL     1      -1.873  -1.067  -2.458  1.00  0.00    -0.083 Cl
HETATM   18  C17 UNL     1       0.233  -0.604  -0.787  1.00  0.00     0.054 A 
BRANCH  15  19
HETATM   19  S1  UNL     1      -3.484  -1.694   0.099  1.00  0.00    -0.051 SA
BRANCH  19  20
HETATM   20  C12 UNL     1      -4.539  -0.273  -0.142  1.00  0.00     0.172 A 
HETATM   21  N4  UNL     1      -4.640  -0.034  -1.482  1.00  0.00    -0.235 NA
HETATM   22  C13 UNL     1      -5.440   1.040  -1.616  1.00  0.00     0.136 A 
HETATM   23  C14 UNL     1      -5.826   1.453  -0.365  1.00  0.00     0.112 A 
HETATM   24  N5  UNL     1      -5.253   0.621   0.549  1.00  0.00    -0.339 N 
HETATM   25  C15 UNL     1      -5.258   0.524   1.987  1.00  0.00     0.158 C 
ENDBRANCH  19  20
ENDBRANCH  15  19
ENDBRANCH  10  12
ENDBRANCH   4  10
ENDBRANCH   1   4
TORSDOF 8
