REMARK  7 active torsions:
REMARK  status: ('A' for Active; 'I' for Inactive)
REMARK    1  A    between atoms: C8_11  and  C9_12 
REMARK    2  A    between atoms: C11_14  and  O2_15 
REMARK    3  A    between atoms: O2_15  and  C12_16 
REMARK    4  A    between atoms: C12_16  and  C13_17 
REMARK    5  A    between atoms: C13_17  and  C14_18 
REMARK    6  A    between atoms: C14_18  and  C15_19 
REMARK    7  A    between atoms: C15_19  and  N3_20 
ROOT
HETATM    1  C1  UNL     1       8.535   1.727  -2.350  1.00  0.00     0.050 C 
HETATM    2  C2  UNL     1       7.546   1.210  -1.616  1.00  0.00     0.073 C 
HETATM    3  N1  UNL     1       6.559   0.619  -0.761  1.00  0.00    -0.299 N 
HETATM    4  C3  UNL     1       5.194   0.815  -1.212  1.00  0.00     0.235 C 
HETATM    5  O1  UNL     1       5.187   0.888  -2.474  1.00  0.00    -0.272 OA
HETATM    6  C4  UNL     1       3.855   0.952  -0.654  1.00  0.00     0.119 C 
HETATM    7  C5  UNL     1       3.881   1.157   0.880  1.00  0.00     0.074 C 
HETATM    8  C6  UNL     1       4.214  -0.329   0.884  1.00  0.00     0.042 C 
HETATM    9  N2  UNL     1       5.157  -0.832   1.700  1.00  0.00    -0.265 NA
HETATM   10  C7  UNL     1       6.610  -0.710   1.369  1.00  0.00     0.142 C 
HETATM   11  C8  UNL     1       7.187  -0.040   0.335  1.00  0.00     0.036 C 
HETATM   12  C11 UNL     1       3.147  -0.322  -0.196  1.00  0.00     0.182 C 
ENDROOT
BRANCH  11  13
HETATM   13  C9  UNL     1       8.637  -0.055   0.425  1.00  0.00     0.055 C 
HETATM   14  C10 UNL     1       9.170  -0.860   1.585  1.00  0.00     0.011 C 
ENDBRANCH  11  13
BRANCH  12  15
HETATM   15  O2  UNL     1       1.910   0.047   0.297  1.00  0.00    -0.376 OA
BRANCH  15  16
HETATM   16  C12 UNL     1       0.912  -0.814  -0.199  1.00  0.00     0.196 C 
BRANCH  16  17
HETATM   17  C13 UNL     1      -0.396  -0.377   0.380  1.00  0.00    -0.003 C 
BRANCH  17  18
HETATM   18  C14 UNL     1      -1.489  -0.525   1.079  1.00  0.00     0.001 C 
BRANCH  18  19
HETATM   19  C15 UNL     1      -2.664  -0.779   1.871  1.00  0.00     0.299 C 
BRANCH  19  20
HETATM   20  N3  UNL     1      -3.884  -0.637   0.982  1.00  0.00     0.096 NA
HETATM   21  C16 UNL     1      -4.922  -0.974   1.886  1.00  0.00     0.299 C 
HETATM   22  C17 UNL     1      -6.355  -0.820   1.581  1.00  0.00     0.198 C 
HETATM   23  O3  UNL     1      -7.030  -1.335   0.669  1.00  0.00    -0.387 OA
HETATM   24  C18 UNL     1      -7.704  -1.874  -0.239  1.00  0.00     0.193 C 
HETATM   25  C19 UNL     1      -8.275  -0.667  -1.127  1.00  0.00     0.193 C 
HETATM   26  O4  UNL     1      -7.191  -0.018  -1.578  1.00  0.00    -0.387 OA
HETATM   27  C20 UNL     1      -7.165   1.129  -2.253  1.00  0.00     0.193 C 
HETATM   28  C21 UNL     1      -5.763   1.619  -2.595  1.00  0.00     0.193 C 
HETATM   29  O5  UNL     1      -4.950   1.829  -1.480  1.00  0.00    -0.387 OA
HETATM   30  C22 UNL     1      -4.705   0.664  -0.802  1.00  0.00     0.198 C 
HETATM   31  C23 UNL     1      -3.886   0.734   0.475  1.00  0.00     0.299 C 
ENDBRANCH  19  20
ENDBRANCH  18  19
ENDBRANCH  17  18
ENDBRANCH  16  17
ENDBRANCH  15  16
ENDBRANCH  12  15
TORSDOF 7
