REMARK  4 active torsions:
REMARK  status: ('A' for Active; 'I' for Inactive)
REMARK    1  A    between atoms: C4_6  and  S1_7 
REMARK    2  A    between atoms: S1_7  and  C5_8 
REMARK    3  A    between atoms: C8_11  and  N3_12 
REMARK    4  A    between atoms: N3_12  and  C9_13 
ROOT
HETATM    1  C5  UNL     1       0.941  -0.896  -1.068  1.00  0.00     0.030 A 
HETATM    2  C6  UNL     1       0.263  -1.957  -1.633  1.00  0.00     0.023 A 
HETATM    3  C7  UNL     1      -1.099  -2.122  -1.547  1.00  0.00     0.030 A 
HETATM    4  C8  UNL     1      -1.834  -1.157  -0.847  1.00  0.00     0.030 A 
HETATM    5  C13 UNL     1      -1.156  -0.099  -0.284  1.00  0.00     0.054 A 
HETATM    6  C14 UNL     1       0.211   0.050  -0.380  1.00  0.00     0.053 A 
HETATM    7 CL1  UNL     1       1.171   1.339   0.289  1.00  0.00    -0.083 Cl
ENDROOT
BRANCH   1   8
HETATM    8  S1  UNL     1       2.693  -0.980  -1.361  1.00  0.00    -0.051 SA
BRANCH   8   9
HETATM    9  C4  UNL     1       3.519   0.399  -0.629  1.00  0.00     0.172 A 
HETATM   10  N1  UNL     1       4.041   0.550   0.609  1.00  0.00    -0.339 N 
HETATM   11  C1  UNL     1       3.993  -0.493   1.628  1.00  0.00     0.158 C 
HETATM   12  C2  UNL     1       4.604   1.783   0.769  1.00  0.00     0.112 A 
HETATM   13  C3  UNL     1       4.406   2.405  -0.448  1.00  0.00     0.136 A 
HETATM   14  N2  UNL     1       3.760   1.564  -1.259  1.00  0.00    -0.235 NA
ENDBRANCH   8   9
ENDBRANCH   1   8
BRANCH   4  15
HETATM   15  N3  UNL     1      -3.236  -1.182  -0.672  1.00  0.00    -0.377 N 
HETATM   16  H8  UNL     1      -3.650  -2.040  -1.155  1.00  0.00     0.160 HD
BRANCH  15  17
HETATM   17  C9  UNL     1      -4.209  -0.371  -0.029  1.00  0.00     0.147 A 
HETATM   18  C10 UNL     1      -4.045  -0.229   1.441  1.00  0.00     0.022 A 
HETATM   19  C11 UNL     1      -3.965   1.071   1.775  1.00  0.00     0.114 A 
HETATM   20  N4  UNL     1      -4.066   1.867   0.575  1.00  0.00    -0.275 NA
HETATM   21  C12 UNL     1      -4.204   1.053  -0.444  1.00  0.00     0.118 A 
ENDBRANCH  15  17
ENDBRANCH   4  15
TORSDOF 4
