REMARK  7 active torsions:
REMARK  status: ('A' for Active; 'I' for Inactive)
REMARK    1  A    between atoms: C3_3  and  O1_4 
REMARK    2  A    between atoms: O1_4  and  C4_5 
REMARK    3  A    between atoms: N2_12  and  C10_13 
REMARK    4  A    between atoms: C10_13  and  C11_14 
REMARK    5  A    between atoms: C12_15  and  C13_17 
REMARK    6  A    between atoms: C13_17  and  O2_18 
REMARK    7  A    between atoms: O2_18  and  C14_19 
ROOT
HETATM    1  C1  UNL     1      -1.716   0.359  -1.971  1.00  0.00     0.024 C 
HETATM    2  C2  UNL     1      -2.098   0.671  -0.737  1.00  0.00     0.005 C 
HETATM    3  C3  UNL     1      -3.383   1.294  -0.358  1.00  0.00     0.078 C 
HETATM    4  C6  UNL     1      -3.289   1.827   0.849  1.00  0.00     0.066 C 
HETATM    5  C7  UNL     1      -1.931   1.609   1.386  1.00  0.00     0.069 C 
HETATM    6  N1  UNL     1      -1.295   2.221   2.355  1.00  0.00    -0.290 NA
HETATM    7  C8  UNL     1       0.057   1.712   2.597  1.00  0.00     0.179 C 
HETATM    8  C9  UNL     1       0.656   1.488   1.216  1.00  0.00     0.296 C 
HETATM    9  N2  UNL     1       0.026   0.462   0.463  1.00  0.00     0.108 N 
HETATM   10  C16 UNL     1      -1.400   0.504   0.574  1.00  0.00     0.309 C 
ENDROOT
BRANCH   9  11
HETATM   11  C10 UNL     1       0.560  -0.868   0.646  1.00  0.00     0.302 C 
BRANCH  11  12
HETATM   12  C11 UNL     1       1.915  -1.073   0.123  1.00  0.00     0.024 C 
HETATM   13  C12 UNL     1       2.378  -1.908  -0.801  1.00  0.00     0.033 C 
HETATM   14 CL1  UNL     1       1.260  -2.991  -1.587  1.00  0.00    -0.087 Cl
BRANCH  13  15
HETATM   15  C13 UNL     1       3.839  -1.839  -1.082  1.00  0.00     0.218 C 
BRANCH  15  16
HETATM   16  O2  UNL     1       4.356  -0.865  -0.258  1.00  0.00    -0.386 OA
BRANCH  16  17
HETATM   17  C14 UNL     1       5.714  -0.659  -0.380  1.00  0.00     0.163 C 
HETATM   18  C15 UNL     1       6.568  -1.847  -0.081  1.00  0.00     0.033 C 
ENDBRANCH  16  17
ENDBRANCH  15  16
ENDBRANCH  13  15
ENDBRANCH  11  12
ENDBRANCH   9  11
BRANCH   3  19
HETATM   19  O1  UNL     1      -4.511   1.290  -1.200  1.00  0.00    -0.351 OA
BRANCH  19  20
HETATM   20  C4  UNL     1      -5.646   0.579  -0.746  1.00  0.00     0.171 C 
HETATM   21  C5  UNL     1      -6.790   0.561  -1.701  1.00  0.00     0.034 C 
ENDBRANCH  19  20
ENDBRANCH   3  19
TORSDOF 7
