REMARK  1 active torsions:
REMARK  status: ('A' for Active; 'I' for Inactive)
REMARK    1  A    between atoms: N1_2  and  C2_3 
ROOT
HETATM    1  C2  UNL     1       3.738  -0.107   0.291  1.00  0.00     0.722 A 
HETATM    2  N2  UNL     1       3.246   1.119   0.058  1.00  0.00    -0.074 NA
HETATM    3  C3  UNL     1       1.940   1.394  -0.035  1.00  0.00     0.149 A 
HETATM    4  C4  UNL     1       0.989   0.409   0.106  1.00  0.00     0.009 A 
HETATM    5  C5  UNL     1       1.501  -0.845   0.346  1.00  0.00     0.072 A 
HETATM    6  N3  UNL     1       2.808  -1.075   0.431  1.00  0.00    -0.066 NA
HETATM    7  C6  UNL     1       0.579  -2.017   0.571  1.00  0.00     0.144 C 
HETATM    8  C7  UNL     1      -0.810  -1.649   0.306  1.00  0.00     0.166 C 
HETATM    9  O1  UNL     1      -1.462  -2.717   0.311  1.00  0.00    -0.292 OA
HETATM   10  C8  UNL     1      -1.397  -0.329   0.068  1.00  0.00     0.025 C 
HETATM   11  C9  UNL     1      -2.786  -0.065  -0.159  1.00  0.00     0.021 A 
HETATM   12  C10 UNL     1      -3.238   0.992  -0.919  1.00  0.00     0.046 A 
HETATM   13 CL1  UNL     1      -2.175   2.046  -1.867  1.00  0.00    -0.083 Cl
HETATM   14  C11 UNL     1      -4.541   1.368  -1.109  1.00  0.00     0.025 A 
HETATM   15  C12 UNL     1      -5.542   0.645  -0.499  1.00  0.00     0.003 A 
HETATM   16  C13 UNL     1      -5.175  -0.440   0.287  1.00  0.00     0.025 A 
HETATM   17  C14 UNL     1      -3.825  -0.746   0.423  1.00  0.00     0.046 A 
HETATM   18 CL2  UNL     1      -3.636  -2.087   1.517  1.00  0.00    -0.083 Cl
HETATM   19  C15 UNL     1      -0.446   0.566  -0.011  1.00  0.00     0.031 C 
ENDROOT
BRANCH   1  20
HETATM   20  N1  UNL     1       5.142  -0.312   0.374  1.00  0.00    -0.227 N 
HETATM   21  C1  UNL     1       5.982   0.845   0.198  1.00  0.00     0.165 C 
HETATM   22  H4  UNL     1       5.458  -1.300   0.559  1.00  0.00     0.177 HD
ENDBRANCH   1  20
TORSDOF 1
