REMARK  6 active torsions:
REMARK  status: ('A' for Active; 'I' for Inactive)
REMARK    1  A    between atoms: N1_1  and  N2_2 
REMARK    2  A    between atoms: N2_2  and  C1_3 
REMARK    3  A    between atoms: C4_8  and  C5_9 
REMARK    4  A    between atoms: C8_12  and  O1_13 
REMARK    5  A    between atoms: O1_13  and  C9_14 
REMARK    6  A    between atoms: C9_14  and  C10_15 
ROOT
HETATM    1  C5  UNL     1      -1.845   0.173  -1.090  1.00  0.00    -0.006 A 
HETATM    2  C6  UNL     1      -1.073  -0.707  -1.820  1.00  0.00     0.014 A 
HETATM    3  C7  UNL     1       0.280  -0.893  -1.691  1.00  0.00     0.037 A 
HETATM    4  C8  UNL     1       0.930  -0.118  -0.732  1.00  0.00     0.070 A 
HETATM    5  C14 UNL     1       0.196   0.770   0.016  1.00  0.00     0.061 A 
HETATM    6  C15 UNL     1      -1.168   0.923  -0.150  1.00  0.00     0.045 A 
HETATM    7 CL1  UNL     1      -2.060   2.067   0.826  1.00  0.00    -0.084 Cl
ENDROOT
BRANCH   1   8
HETATM    8  C4  UNL     1      -3.307   0.278  -1.329  1.00  0.00     0.197 C 
HETATM    9  C1  UNL     1      -4.107   0.309  -0.087  1.00  0.00     0.067 C 
HETATM   10  C2  UNL     1      -4.920   1.359   0.110  1.00  0.00     0.147 C 
HETATM   11  N3  UNL     1      -5.000   2.397  -0.849  1.00  0.00    -0.236 NA
HETATM   12  C3  UNL     1      -4.523   2.225  -2.007  1.00  0.00     0.193 C 
HETATM   13  N4  UNL     1      -3.614   1.378  -2.218  1.00  0.00    -0.252 NA
BRANCH   9  14
HETATM   14  N2  UNL     1      -3.930  -0.798   0.789  1.00  0.00    -0.324 N 
HETATM   15  H3  UNL     1      -4.614  -1.450   0.347  1.00  0.00     0.180 HD
BRANCH  14  16
HETATM   16  N1  UNL     1      -3.229  -1.244   1.906  1.00  0.00    -0.250 NA
HETATM   17  H1  UNL     1      -2.785  -2.173   1.659  1.00  0.00     0.143 HD
HETATM   18  H2  UNL     1      -3.903  -1.481   2.689  1.00  0.00     0.143 HD
ENDBRANCH  14  16
ENDBRANCH   9  14
ENDBRANCH   1   8
BRANCH   4  19
HETATM   19  O1  UNL     1       2.299  -0.325  -0.621  1.00  0.00    -0.345 OA
BRANCH  19  20
HETATM   20  C9  UNL     1       3.017   0.427   0.331  1.00  0.00     0.240 C 
BRANCH  20  21
HETATM   21  C10 UNL     1       4.462   0.070   0.304  1.00  0.00     0.076 A 
HETATM   22  C11 UNL     1       5.041  -0.938   1.079  1.00  0.00     0.037 A 
HETATM   23  C12 UNL     1       6.372  -0.896   0.718  1.00  0.00     0.027 A 
HETATM   24  C13 UNL     1       6.558   0.094  -0.226  1.00  0.00     0.142 A 
HETATM   25  O2  UNL     1       5.389   0.627  -0.426  1.00  0.00    -0.325 OA
ENDBRANCH  20  21
ENDBRANCH  19  20
ENDBRANCH   4  19
TORSDOF 6
