REMARK  7 active torsions:
REMARK  status: ('A' for Active; 'I' for Inactive)
REMARK    1  A    between atoms: C2_2  and  O1_3 
REMARK    2  A    between atoms: O1_3  and  C3_4 
REMARK    3  A    between atoms: C12_14  and  N2_15 
REMARK    4  A    between atoms: N2_15  and  C13_16 
REMARK    5  A    between atoms: C13_16  and  C14_17 
REMARK    6  A    between atoms: C15_19  and  O3_20 
REMARK    7  A    between atoms: O3_20  and  C16_21 
ROOT
HETATM    1  C3  UNL     1      -0.930   0.632   0.631  1.00  0.00     0.099 C 
HETATM    2  C4  UNL     1       0.035   1.699   0.490  1.00  0.00     0.145 C 
HETATM    3  C5  UNL     1       1.483   1.154   0.259  1.00  0.00    -0.053 C 
HETATM    4  C6  UNL     1       2.577   0.274   0.674  1.00  0.00    -0.011 C 
HETATM    5  C7  UNL     1       2.162  -0.601  -0.447  1.00  0.00     0.004 C 
HETATM    6  C8  UNL     1       1.107  -1.218   0.172  1.00  0.00     0.072 C 
HETATM    7  C9  UNL     1       1.018  -0.753   1.497  1.00  0.00    -0.003 C 
HETATM    8  C10 UNL     1       0.060  -1.077   2.316  1.00  0.00     0.083 C 
HETATM    9  N1  UNL     1      -0.463  -1.796   1.233  1.00  0.00    -0.363 N 
HETATM   10  C11 UNL     1      -0.083  -3.134   0.851  1.00  0.00     0.151 C 
HETATM   11  C12 UNL     1      -1.466  -0.831   0.710  1.00  0.00     0.351 C 
HETATM   12  C15 UNL     1       3.260  -0.086  -1.350  1.00  0.00     0.156 C 
HETATM   13  C17 UNL     1       3.168   1.393  -1.380  1.00  0.00     0.006 C 
HETATM   14  C18 UNL     1       1.928   1.814  -1.014  1.00  0.00     0.006 C 
ENDROOT
BRANCH  11  15
HETATM   15  N2  UNL     1      -1.955  -1.217  -0.531  1.00  0.00     0.115 N 
HETATM   16  H15 UNL     1      -1.292  -1.384  -1.301  1.00  0.00     0.319 HD
BRANCH  15  17
HETATM   17  C13 UNL     1      -3.054  -0.481  -1.084  1.00  0.00     0.341 C 
BRANCH  17  18
HETATM   18  C14 UNL     1      -4.288  -0.710  -0.249  1.00  0.00     0.261 C 
HETATM   19  O2  UNL     1      -5.439  -0.321  -0.301  1.00  0.00    -0.305 OA
ENDBRANCH  17  18
ENDBRANCH  15  17
ENDBRANCH  11  15
BRANCH   1  20
HETATM   20  O1  UNL     1      -2.192   1.289   0.825  1.00  0.00    -0.381 OA
BRANCH  20  21
HETATM   21  C2  UNL     1      -2.272   2.667   0.666  1.00  0.00     0.164 C 
HETATM   22  C1  UNL     1      -3.627   3.237   1.025  1.00  0.00     0.033 C 
ENDBRANCH  20  21
ENDBRANCH   1  20
BRANCH  12  23
HETATM   23  O3  UNL     1       4.488  -0.577  -0.932  1.00  0.00    -0.353 OA
BRANCH  23  24
HETATM   24  C16 UNL     1       4.956  -1.349  -2.016  1.00  0.00     0.392 C 
HETATM   25  F1  UNL     1       6.178  -1.897  -1.710  1.00  0.00    -0.227 F 
ENDBRANCH  23  24
ENDBRANCH  12  23
TORSDOF 7
