REMARK  6 active torsions:
REMARK  status: ('A' for Active; 'I' for Inactive)
REMARK    1  A    between atoms: C2_2  and  O1_3 
REMARK    2  A    between atoms: O1_3  and  C3_4 
REMARK    3  A    between atoms: N2_10  and  S1_11 
REMARK    4  A    between atoms: S1_11  and  C8_14 
REMARK    5  A    between atoms: C19_26  and  C20_27 
REMARK    6  A    between atoms: C20_27  and  N4_28 
ROOT
HETATM    1  C3  UNL     1      -1.097   3.690  -0.238  1.00  0.00     0.066 C 
HETATM    2  C4  UNL     1      -0.039   3.243  -0.956  1.00  0.00     0.066 C 
HETATM    3  C5  UNL     1       0.237   1.873  -0.937  1.00  0.00     0.074 A 
HETATM    4  N1  UNL     1       1.296   2.573   0.098  1.00  0.00    -0.204 NA
HETATM    5  C6  UNL     1       1.801   1.365   0.334  1.00  0.00     0.013 A 
HETATM    6  C7  UNL     1       2.151   0.481   0.488  1.00  0.00     0.117 A 
HETATM    7  N2  UNL     1       2.557  -0.596   0.657  1.00  0.00    -0.249 N 
HETATM    8  C14 UNL     1       1.317  -0.598  -0.412  1.00  0.00     0.195 A 
HETATM    9  C15 UNL     1       0.366   0.325  -1.079  1.00  0.00    -0.015 A 
HETATM   10  C16 UNL     1      -0.563  -0.503  -1.946  1.00  0.00     0.090 C 
HETATM   11  C17 UNL     1      -1.648  -1.121  -1.141  1.00  0.00     0.040 C 
HETATM   12  C18 UNL     1      -1.985  -2.428  -1.734  1.00  0.00     0.096 C 
HETATM   13  N3  UNL     1      -2.258  -3.474  -2.231  1.00  0.00    -0.192 NA
HETATM   14  C19 UNL     1      -2.510  -0.886  -0.127  1.00  0.00     0.054 C 
HETATM   15  C23 UNL     1      -2.745   0.438   0.497  1.00  0.00     0.251 C 
HETATM   16  O4  UNL     1      -3.476   0.913   1.447  1.00  0.00    -0.268 OA
HETATM   17  N5  UNL     1      -2.445   1.810   0.516  1.00  0.00    -0.351 N 
HETATM   18  C24 UNL     1      -2.208   3.214   0.612  1.00  0.00     0.187 C 
HETATM   19  H23 UNL     1      -1.926   1.520  -0.320  1.00  0.00     0.163 HD
ENDROOT
BRANCH  14  20
HETATM   20  C20 UNL     1      -3.553  -1.646   0.590  1.00  0.00     0.317 C 
BRANCH  20  21
HETATM   21  N4  UNL     1      -3.654  -3.034   0.258  1.00  0.00     0.084 N 
HETATM   22  C21 UNL     1      -2.498  -3.705   0.889  1.00  0.00     0.309 C 
HETATM   23  C22 UNL     1      -4.846  -3.649   0.798  1.00  0.00     0.309 C 
ENDBRANCH  20  21
ENDBRANCH  14  20
BRANCH   7  24
HETATM   24  S1  UNL     1       3.131  -2.122   0.896  1.00  0.00     0.266 S 
HETATM   25  O2  UNL     1       2.333  -3.125   0.059  1.00  0.00    -0.200 OA
HETATM   26  O3  UNL     1       2.950  -2.553   2.332  1.00  0.00    -0.200 OA
BRANCH  24  27
HETATM   27  C8  UNL     1       4.803  -2.306   0.392  1.00  0.00     0.080 A 
HETATM   28  C9  UNL     1       5.871  -2.046   1.231  1.00  0.00     0.025 A 
HETATM   29  C10 UNL     1       7.180  -2.206   0.816  1.00  0.00     0.002 A 
HETATM   30  C11 UNL     1       7.407  -2.638  -0.473  1.00  0.00     0.000 A 
HETATM   31  C12 UNL     1       6.383  -2.913  -1.355  1.00  0.00     0.002 A 
HETATM   32  C13 UNL     1       5.086  -2.738  -0.899  1.00  0.00     0.025 A 
ENDBRANCH  24  27
ENDBRANCH   7  24
BRANCH   1  33
HETATM   33  O1  UNL     1      -1.157   5.053  -0.381  1.00  0.00    -0.354 OA
BRANCH  33  34
HETATM   34  C2  UNL     1      -2.212   5.915  -0.131  1.00  0.00     0.171 C 
HETATM   35  C1  UNL     1      -1.717   7.366  -0.224  1.00  0.00     0.034 C 
ENDBRANCH  33  34
ENDBRANCH   1  33
TORSDOF 6
