REMARK  6 active torsions:
REMARK  status: ('A' for Active; 'I' for Inactive)
REMARK    1  A    between atoms: C2_3  and  C3_4 
REMARK    2  A    between atoms: C3_4  and  N2_5 
REMARK    3  A    between atoms: C3_4  and  C4_6 
REMARK    4  A    between atoms: C7_9  and  O1_10 
REMARK    5  A    between atoms: O1_10  and  C8_11 
REMARK    6  A    between atoms: C8_11  and  C9_12 
ROOT
HETATM    1  N1  UNL     1      -6.994   0.892   0.835  1.00  0.00    -0.197 NA
HETATM    2  C1  UNL     1      -5.968   0.348   0.695  1.00  0.00     0.061 C 
HETATM    3  C2  UNL     1      -4.661  -0.327   0.499  1.00  0.00     0.164 C 
ENDROOT
BRANCH   3   4
HETATM    4  C3  UNL     1      -3.675   0.702   0.007  1.00  0.00     0.263 C 
BRANCH   4   5
HETATM    5  N2  UNL     1      -3.540   1.768   0.982  1.00  0.00     0.088 N 
HETATM    6  H4  UNL     1      -4.028   1.535   1.879  1.00  0.00     0.313 HD
HETATM    7  H5  UNL     1      -2.518   1.944   1.183  1.00  0.00     0.313 HD
ENDBRANCH   4   5
BRANCH   4   8
HETATM    8  C4  UNL     1      -2.366   0.118  -0.347  1.00  0.00    -0.023 A 
HETATM    9  C5  UNL     1      -1.369   1.040  -0.589  1.00  0.00     0.012 A 
HETATM   10  C6  UNL     1      -0.122   0.596  -0.924  1.00  0.00     0.039 A 
HETATM   11  C7  UNL     1       0.217  -0.734  -1.039  1.00  0.00     0.090 A 
HETATM   12  C15 UNL     1      -0.823  -1.648  -0.786  1.00  0.00     0.068 A 
HETATM   13 CL1  UNL     1      -0.741  -3.419  -0.843  1.00  0.00    -0.081 Cl
HETATM   14  C16 UNL     1      -2.112  -1.231  -0.441  1.00  0.00     0.036 A 
BRANCH  11  15
HETATM   15  O1  UNL     1       1.317  -1.449  -1.341  1.00  0.00    -0.345 OA
BRANCH  15  16
HETATM   16  C8  UNL     1       2.610  -1.135  -1.669  1.00  0.00     0.214 C 
BRANCH  16  17
HETATM   17  C9  UNL     1       3.317  -0.385  -0.609  1.00  0.00    -0.034 A 
HETATM   18  C10 UNL     1       3.918  -1.153   0.395  1.00  0.00     0.009 A 
HETATM   19  C11 UNL     1       4.632  -0.664   1.463  1.00  0.00     0.001 A 
HETATM   20  C12 UNL     1       4.780   0.702   1.570  1.00  0.00     0.000 A 
HETATM   21  C13 UNL     1       4.207   1.497   0.607  1.00  0.00     0.001 A 
HETATM   22  C14 UNL     1       3.498   0.970  -0.449  1.00  0.00     0.009 A 
ENDBRANCH  16  17
ENDBRANCH  15  16
ENDBRANCH  11  15
ENDBRANCH   4   8
ENDBRANCH   3   4
TORSDOF 6
