REMARK  3 active torsions:
REMARK  status: ('A' for Active; 'I' for Inactive)
REMARK    1  A    between atoms: N1_2  and  C2_3 
REMARK    2  A    between atoms: C14_20  and  N5_21 
REMARK    3  A    between atoms: N5_21  and  C15_22 
ROOT
HETATM    1  C2  UNL     1       3.046  -0.629  -0.003  1.00  0.00     0.073 A 
HETATM    2  C3  UNL     1       3.575  -1.890  -0.092  1.00  0.00     0.147 A 
HETATM    3  N2  UNL     1       2.867  -3.005  -0.224  1.00  0.00    -0.270 NA
HETATM    4  C4  UNL     1       1.546  -2.959  -0.280  1.00  0.00     0.130 A 
HETATM    5  C5  UNL     1       0.845  -1.778  -0.205  1.00  0.00     0.013 A 
HETATM    6  C6  UNL     1       1.671  -0.655  -0.067  1.00  0.00     0.072 A 
HETATM    7  N3  UNL     1       1.268   0.724   0.059  1.00  0.00    -0.355 N 
HETATM    8  C7  UNL     1       0.079   1.439  -0.366  1.00  0.00     0.037 C 
HETATM    9  C8  UNL     1       0.465   2.426   0.466  1.00  0.00     0.028 C 
HETATM   10  C9  UNL     1      -0.371   3.399   1.205  1.00  0.00     0.009 C 
HETATM   11  C10 UNL     1      -1.646   3.397   1.646  1.00  0.00     0.052 C 
HETATM   12  S1  UNL     1      -2.795   2.026   1.951  1.00  0.00    -0.076 SA
HETATM   13  C11 UNL     1      -3.242   1.278   0.364  1.00  0.00     0.127 A 
HETATM   14  N4  UNL     1      -4.393   1.521  -0.164  1.00  0.00    -0.247 NA
HETATM   15  C12 UNL     1      -4.621   0.890  -1.388  1.00  0.00     0.124 A 
HETATM   16  C13 UNL     1      -3.712   0.108  -1.944  1.00  0.00     0.059 A 
HETATM   17  S2  UNL     1      -2.270   0.211  -0.610  1.00  0.00    -0.112 SA
HETATM   18  C14 UNL     1      -1.692  -1.350  -0.119  1.00  0.00     0.066 C 
HETATM   19  C16 UNL     1      -0.573  -2.034  -0.293  1.00  0.00     0.051 C 
HETATM   20  C17 UNL     1      -0.994   1.102  -1.301  1.00  0.00     0.191 C 
HETATM   21 CL1  UNL     1      -1.564   2.539  -2.175  1.00  0.00    -0.107 Cl
HETATM   22  H7  UNL     1       1.992   1.276   0.564  1.00  0.00     0.166 HD
ENDROOT
BRANCH  18  23
HETATM   23  N5  UNL     1      -2.664  -2.025   0.669  1.00  0.00    -0.329 N 
HETATM   24  H13 UNL     1      -3.612  -1.603   0.793  1.00  0.00     0.168 HD
BRANCH  23  25
HETATM   25  C15 UNL     1      -2.583  -3.255   1.365  1.00  0.00     0.353 C 
HETATM   26  O1  UNL     1      -1.511  -3.890   1.322  1.00  0.00    -0.283 OA
ENDBRANCH  23  25
ENDBRANCH  18  23
BRANCH   1  27
HETATM   27  N1  UNL     1       3.809   0.556   0.116  1.00  0.00    -0.391 N 
HETATM   28  C1  UNL     1       5.230   0.292   0.169  1.00  0.00     0.146 C 
HETATM   29  H4  UNL     1       3.718   1.572   0.174  1.00  0.00     0.159 HD
ENDBRANCH   1  27
TORSDOF 3
