REMARK  10 active torsions:
REMARK  status: ('A' for Active; 'I' for Inactive)
REMARK    1  A    between atoms: C2_2  and  S1_3 
REMARK    2  A    between atoms: S1_3  and  N1_6 
REMARK    3  A    between atoms: N1_6  and  C3_7 
REMARK    4  A    between atoms: C4_8  and  O3_9 
REMARK    5  A    between atoms: O3_9  and  C5_10 
REMARK    6  A    between atoms: C10_15  and  N2_16 
REMARK    7  A    between atoms: N2_16  and  C11_17 
REMARK    8  A    between atoms: C14_20  and  O4_21 
REMARK    9  A    between atoms: O4_21  and  C15_22 
REMARK   10  A    between atoms: C15_22  and  C16_23 
ROOT
HETATM    1  N2  UNL     1      -0.754   0.072  -0.229  1.00  0.00    -0.383 N 
HETATM    2  H17 UNL     1      -1.074  -0.369  -1.135  1.00  0.00     0.160 HD
ENDROOT
BRANCH   1   3
HETATM    3  C10 UNL     1      -1.754   0.050   0.827  1.00  0.00     0.112 C 
HETATM    4  C3  UNL     1      -3.111  -0.377   0.227  1.00  0.00     0.172 C 
HETATM    5  C4  UNL     1      -3.085  -1.851   0.241  1.00  0.00     0.068 C 
HETATM    6  C7  UNL     1      -2.250  -2.761   0.720  1.00  0.00     0.008 C 
HETATM    7  C8  UNL     1      -1.025  -2.243   1.428  1.00  0.00     0.032 C 
HETATM    8  C9  UNL     1      -1.398  -0.890   1.957  1.00  0.00     0.031 C 
BRANCH   4   9
HETATM    9  N1  UNL     1      -4.105   0.229   1.007  1.00  0.00    -0.303 N 
HETATM   10  H4  UNL     1      -3.924   0.332   2.022  1.00  0.00     0.173 HD
BRANCH   9  11
HETATM   11  S1  UNL     1      -5.045   1.430   0.272  1.00  0.00     0.248 S 
HETATM   12  O1  UNL     1      -6.068   2.028   1.193  1.00  0.00    -0.201 OA
HETATM   13  O2  UNL     1      -5.655   0.870  -0.969  1.00  0.00    -0.201 OA
BRANCH  11  14
HETATM   14  C2  UNL     1      -3.973   2.736  -0.205  1.00  0.00     0.121 C 
HETATM   15  C1  UNL     1      -3.835   3.823   0.583  1.00  0.00     0.025 C 
ENDBRANCH  11  14
ENDBRANCH   9  11
ENDBRANCH   4   9
BRANCH   5  16
HETATM   16  O3  UNL     1      -4.246  -2.203  -0.429  1.00  0.00    -0.354 OA
BRANCH  16  17
HETATM   17  C5  UNL     1      -5.404  -2.669   0.217  1.00  0.00     0.171 C 
HETATM   18  C6  UNL     1      -6.493  -2.939  -0.781  1.00  0.00     0.034 C 
ENDBRANCH  16  17
ENDBRANCH   5  16
ENDBRANCH   1   3
BRANCH   1  19
HETATM   19  C11 UNL     1       0.579   0.587  -0.236  1.00  0.00     0.030 A 
HETATM   20  C12 UNL     1       1.361   0.443  -1.360  1.00  0.00     0.032 A 
HETATM   21  C13 UNL     1       2.620   0.954  -1.361  1.00  0.00     0.041 A 
HETATM   22  C14 UNL     1       3.195   1.618  -0.312  1.00  0.00     0.091 A 
HETATM   23  C22 UNL     1       2.395   1.764   0.837  1.00  0.00     0.069 A 
HETATM   24 CL1  UNL     1       2.807   2.556   2.358  1.00  0.00    -0.081 Cl
HETATM   25  C23 UNL     1       1.094   1.251   0.873  1.00  0.00     0.056 A 
BRANCH  22  26
HETATM   26  O4  UNL     1       4.373   2.215  -0.026  1.00  0.00    -0.345 OA
BRANCH  26  27
HETATM   27  C15 UNL     1       5.493   2.333  -0.826  1.00  0.00     0.214 C 
BRANCH  27  28
HETATM   28  C16 UNL     1       6.125   1.057  -1.231  1.00  0.00    -0.034 A 
HETATM   29  C17 UNL     1       6.069   0.252  -2.343  1.00  0.00     0.009 A 
HETATM   30  C18 UNL     1       6.773  -0.927  -2.432  1.00  0.00     0.001 A 
HETATM   31  C19 UNL     1       7.583  -1.381  -1.413  1.00  0.00     0.000 A 
HETATM   32  C20 UNL     1       7.665  -0.593  -0.272  1.00  0.00     0.001 A 
HETATM   33  C21 UNL     1       6.953   0.587  -0.198  1.00  0.00     0.009 A 
ENDBRANCH  27  28
ENDBRANCH  26  27
ENDBRANCH  22  26
ENDBRANCH   1  19
TORSDOF 10
