REMARK  7 active torsions:
REMARK  status: ('A' for Active; 'I' for Inactive)
REMARK    1  A    between atoms: P1_2  and  C2_3 
REMARK    2  A    between atoms: C5_7  and  O1_8 
REMARK    3  A    between atoms: O1_8  and  C6_9 
REMARK    4  A    between atoms: C10_13  and  N2_14 
REMARK    5  A    between atoms: N2_14  and  C11_15 
REMARK    6  A    between atoms: N3_18  and  C14_19 
REMARK    7  A    between atoms: C15_20  and  C16_21 
ROOT
HETATM    1  C2  UNL     1      -1.163  -1.846  -0.080  1.00  0.00     0.192 C 
HETATM    2  N1  UNL     1      -1.646  -2.051   1.274  1.00  0.00    -0.285 NA
HETATM    3  C3  UNL     1      -2.642  -1.476   1.870  1.00  0.00     0.114 C 
HETATM    4  C4  UNL     1      -3.677  -0.480   1.611  1.00  0.00     0.051 C 
HETATM    5  C5  UNL     1      -3.643   0.536   0.759  1.00  0.00     0.051 C 
HETATM    6  C8  UNL     1      -2.841   1.251  -0.261  1.00  0.00     0.093 C 
HETATM    7  C9  UNL     1      -1.493   0.684  -0.364  1.00  0.00     0.007 C 
HETATM    8  C10 UNL     1      -0.774  -0.418  -0.316  1.00  0.00     0.036 C 
ENDROOT
BRANCH   8   9
HETATM    9  N2  UNL     1       0.626  -0.256  -0.521  1.00  0.00    -0.359 N 
HETATM   10  H14 UNL     1       0.961  -0.077  -1.473  1.00  0.00     0.165 HD
BRANCH   9  11
HETATM   11  C11 UNL     1       1.531  -0.340   0.571  1.00  0.00     0.043 A 
HETATM   12  C12 UNL     1       1.337  -0.564   1.917  1.00  0.00     0.038 A 
HETATM   13  C13 UNL     1       2.697  -0.469   2.108  1.00  0.00     0.119 A 
HETATM   14  N3  UNL     1       3.976  -0.281   1.644  1.00  0.00    -0.351 N 
HETATM   15  C19 UNL     1       2.896  -0.239   0.727  1.00  0.00     0.141 A 
BRANCH  14  16
HETATM   16  C14 UNL     1       5.375  -0.165   1.709  1.00  0.00     0.088 C 
HETATM   17  C15 UNL     1       6.191   0.074   0.695  1.00  0.00     0.017 C 
BRANCH  17  18
HETATM   18  C16 UNL     1       5.699   0.250  -0.661  1.00  0.00    -0.003 C 
HETATM   19  C17 UNL     1       6.568   0.490  -1.651  1.00  0.00    -0.031 C 
HETATM   20  C18 UNL     1       8.011   0.560  -1.277  1.00  0.00     0.036 C 
ENDBRANCH  17  18
ENDBRANCH  14  16
ENDBRANCH   9  11
ENDBRANCH   8   9
BRANCH   1  21
HETATM   21  P1  UNL     1      -2.369  -2.460  -1.335  1.00  0.00    -0.037 P 
HETATM   22  C1  UNL     1      -2.821  -1.655  -2.697  1.00  0.00     0.026 C 
ENDBRANCH   1  21
BRANCH   5  23
HETATM   23  O1  UNL     1      -4.824   1.278   0.787  1.00  0.00    -0.355 OA
BRANCH  23  24
HETATM   24  C6  UNL     1      -5.837   0.897  -0.125  1.00  0.00     0.170 C 
HETATM   25  C7  UNL     1      -7.055   1.790  -0.016  1.00  0.00     0.034 C 
ENDBRANCH  23  24
ENDBRANCH   5  23
TORSDOF 7
