REMARK  9 active torsions:
REMARK  status: ('A' for Active; 'I' for Inactive)
REMARK    1  A    between atoms: C2_2  and  C3_3 
REMARK    2  A    between atoms: C3_3  and  C4_4 
REMARK    3  A    between atoms: C4_4  and  N3_14 
REMARK    4  A    between atoms: C5_5  and  C6_6 
REMARK       I    between atoms: N3_14  and  C12_15 
REMARK    5  A    between atoms: C12_15  and  B1_17 
REMARK    6  A    between atoms: B1_17  and  C13_18 
REMARK    7  A    between atoms: C14_19  and  C15_20 
REMARK    8  A    between atoms: C15_20  and  N4_21 
REMARK    9  A    between atoms: O2_23  and  C17_24 
ROOT
HETATM    1  C6  UNL     1      -3.025   1.387  -0.060  1.00  0.00    -0.015 A 
HETATM    2  C7  UNL     1      -4.205   1.457  -0.784  1.00  0.00     0.127 A 
HETATM    3  N1  UNL     1      -4.838   2.657  -0.864  1.00  0.00    -0.271 NA
HETATM    4  C8  UNL     1      -4.296   3.737  -0.235  1.00  0.00     0.138 A 
HETATM    5  C9  UNL     1      -3.132   3.734   0.497  1.00  0.00     0.062 A 
HETATM    6  C10 UNL     1      -2.663   4.954   1.127  1.00  0.00     0.101 C 
HETATM    7  N2  UNL     1      -2.293   5.908   1.643  1.00  0.00    -0.191 NA
HETATM    8  C11 UNL     1      -2.491   2.514   0.577  1.00  0.00     0.037 A 
ENDROOT
BRANCH   1   9
HETATM    9  C5  UNL     1      -2.330   0.110   0.063  1.00  0.00     0.038 C 
HETATM   10  C4  UNL     1      -1.023  -0.192  -0.064  1.00  0.00     0.015 C 
BRANCH  10  11
HETATM   11  C3  UNL     1      -0.338  -1.516   0.071  1.00  0.00     0.091 C 
BRANCH  11  12
HETATM   12  C2  UNL     1      -1.224  -2.612   0.463  1.00  0.00    -0.071 A 
HETATM   13  C1  UNL     1      -0.907  -3.099   1.632  1.00  0.00     0.039 A 
HETATM   14  O2  UNL     1      -2.108  -3.604   0.701  1.00  0.00     0.000 OA
BRANCH  14  15
HETATM   15  C17 UNL     1      -3.018  -4.088  -0.283  1.00  0.00    -0.005 C 
HETATM   16  C18 UNL     1      -3.803  -5.252   0.221  1.00  0.00     0.005 C 
ENDBRANCH  14  15
ENDBRANCH  11  12
ENDBRANCH  10  11
BRANCH  10  17
HETATM   17  N3  UNL     1      -0.013   0.788  -0.367  1.00  0.00    -0.341 N 
HETATM   18  C12 UNL     1       0.720   0.591  -1.595  1.00  0.00     0.167 C 
HETATM   19  O1  UNL     1       0.776  -0.217  -2.583  1.00  0.00    -0.288 OA
HETATM   20  H9  UNL     1       0.365   1.652   0.078  1.00  0.00     0.167 HD
BRANCH  18  21
HETATM   21  B1  UNL     1       1.881   1.534  -2.120  1.00  0.00     0.294 B 
HETATM   22  H10 UNL     1       1.536   2.673  -2.308  1.00  0.00    -0.011 HD
BRANCH  21  23
HETATM   23  C13 UNL     1       3.222   1.366  -1.291  1.00  0.00    -0.074 C 
HETATM   24  C14 UNL     1       3.985   2.191  -0.602  1.00  0.00    -0.012 C 
BRANCH  24  25
HETATM   25  C15 UNL     1       5.247   1.828   0.129  1.00  0.00     0.295 C 
BRANCH  25  26
HETATM   26  N4  UNL     1       5.450   0.398  -0.062  1.00  0.00     0.082 N 
HETATM   27  C16 UNL     1       6.687   0.037   0.610  1.00  0.00     0.307 C 
HETATM   28  H15 UNL     1       4.641  -0.135   0.360  1.00  0.00     0.315 HD
ENDBRANCH  25  26
ENDBRANCH  24  25
ENDBRANCH  21  23
ENDBRANCH  18  21
ENDBRANCH  10  17
ENDBRANCH   1   9
TORSDOF 9
