REMARK  7 active torsions:
REMARK  status: ('A' for Active; 'I' for Inactive)
REMARK    1  A    between atoms: C2_3  and  C5_8 
REMARK    2  A    between atoms: C3_4  and  N2_5 
REMARK    3  A    between atoms: C5_8  and  N3_9 
REMARK    4  A    between atoms: N3_9  and  C6_10 
REMARK    5  A    between atoms: C9_13  and  O1_14 
REMARK    6  A    between atoms: O1_14  and  C10_15 
REMARK    7  A    between atoms: C10_15  and  C11_16 
ROOT
HETATM    1  N1  UNL     1       6.125  -1.791  -2.778  1.00  0.00    -0.192 NA
HETATM    2  C1  UNL     1       5.723  -1.453  -1.747  1.00  0.00     0.098 C 
HETATM    3  C2  UNL     1       5.229  -1.057  -0.461  1.00  0.00     0.057 C 
HETATM    4  C3  UNL     1       6.056  -1.182   0.591  1.00  0.00     0.131 C 
ENDROOT
BRANCH   3   5
HETATM    5  C5  UNL     1       3.879  -0.529  -0.254  1.00  0.00     0.171 C 
BRANCH   5   6
HETATM    6  N3  UNL     1       2.834  -1.435  -0.637  1.00  0.00    -0.385 N 
HETATM    7  H5  UNL     1       3.125  -2.363  -1.017  1.00  0.00     0.160 HD
BRANCH   6   8
HETATM    8  C6  UNL     1       1.456  -1.103  -0.510  1.00  0.00     0.029 A 
HETATM    9  C7  UNL     1       1.125   0.147   0.002  1.00  0.00     0.032 A 
HETATM   10  C8  UNL     1      -0.248   0.401   0.096  1.00  0.00     0.041 A 
HETATM   11  C9  UNL     1      -1.237  -0.496  -0.282  1.00  0.00     0.091 A 
HETATM   12  C16 UNL     1      -0.839  -1.715  -0.781  1.00  0.00     0.069 A 
HETATM   13 CL1  UNL     1      -2.051  -2.881  -1.271  1.00  0.00    -0.081 Cl
HETATM   14  C17 UNL     1       0.500  -2.019  -0.896  1.00  0.00     0.056 A 
BRANCH  11  15
HETATM   15  O1  UNL     1      -2.569  -0.160  -0.154  1.00  0.00    -0.345 OA
BRANCH  15  16
HETATM   16  C10 UNL     1      -3.019   1.081   0.354  1.00  0.00     0.215 C 
BRANCH  16  17
HETATM   17  C11 UNL     1      -4.502   1.111   0.355  1.00  0.00    -0.017 A 
HETATM   18  C12 UNL     1      -5.202   1.583  -0.755  1.00  0.00     0.012 A 
HETATM   19  C13 UNL     1      -6.587   1.645  -0.837  1.00  0.00     0.020 A 
HETATM   20  C14 UNL     1      -7.293   1.199   0.280  1.00  0.00     0.116 A 
HETATM   21  N4  UNL     1      -6.632   0.736   1.370  1.00  0.00    -0.272 NA
HETATM   22  C15 UNL     1      -5.285   0.692   1.412  1.00  0.00     0.125 A 
ENDBRANCH  16  17
ENDBRANCH  15  16
ENDBRANCH  11  15
ENDBRANCH   6   8
ENDBRANCH   5   6
ENDBRANCH   3   5
BRANCH   4  23
HETATM   23  N2  UNL     1       5.626  -0.807   1.891  1.00  0.00    -0.281 NA
HETATM   24  C4  UNL     1       5.592   0.400   2.326  1.00  0.00     0.322 C 
HETATM   25 BR1  UNL     1       6.067   2.014   1.453  1.00  0.00    -0.172 Br
ENDBRANCH   4  23
TORSDOF 7
