REMARK  5 active torsions:
REMARK  status: ('A' for Active; 'I' for Inactive)
REMARK    1  A    between atoms: N1_2  and  C2_3 
REMARK    2  A    between atoms: C2_3  and  C3_4 
REMARK    3  A    between atoms: C4_5  and  N2_6 
REMARK       I    between atoms: N2_6  and  C5_7 
REMARK       I    between atoms: C5_7  and  N3_9 
REMARK    4  A    between atoms: N3_9  and  C6_10 
REMARK    5  A    between atoms: C14_20  and  O2_21 
ROOT
HETATM    1  C6  UNL     1      -1.583  -0.408  -0.456  1.00  0.00     0.011 C 
HETATM    2  C7  UNL     1      -2.181   0.670  -0.939  1.00  0.00     0.014 C 
HETATM    3  C8  UNL     1      -3.449   1.412  -0.813  1.00  0.00     0.107 A 
HETATM    4  C9  UNL     1      -3.326   2.800  -0.362  1.00  0.00     0.053 A 
HETATM    5  C10 UNL     1      -2.610   3.926  -0.890  1.00  0.00     0.097 C 
HETATM    6  N4  UNL     1      -2.040   4.833  -1.327  1.00  0.00    -0.192 NA
HETATM    7  C11 UNL     1      -4.057   2.921   0.756  1.00  0.00     0.136 A 
HETATM    8  N5  UNL     1      -4.702   1.698   1.144  1.00  0.00    -0.263 NA
HETATM    9  C12 UNL     1      -4.346   0.823   0.231  1.00  0.00     0.049 A 
HETATM   10  C13 UNL     1      -4.912  -0.521   0.471  1.00  0.00     0.060 C 
HETATM   11  C14 UNL     1      -4.378  -1.752   0.363  1.00  0.00     0.045 C 
HETATM   12  C15 UNL     1      -3.058  -2.373  -0.016  1.00  0.00     0.070 C 
HETATM   13  C16 UNL     1      -1.966  -1.447   0.523  1.00  0.00     0.063 C 
ENDROOT
BRANCH   1  14
HETATM   14  N3  UNL     1      -0.280  -0.675  -0.956  1.00  0.00    -0.313 N 
HETATM   15  C5  UNL     1       0.788  -0.702  -0.018  1.00  0.00     0.324 C 
HETATM   16  N2  UNL     1       2.067  -0.981  -0.580  1.00  0.00    -0.319 N 
HETATM   17  O1  UNL     1       0.678  -0.505   1.208  1.00  0.00    -0.247 OA
HETATM   18  H9  UNL     1       2.288  -1.164  -1.584  1.00  0.00     0.170 HD
HETATM   19  H10 UNL     1      -0.136  -0.846  -1.995  1.00  0.00     0.170 HD
BRANCH  16  20
HETATM   20  C4  UNL     1       3.370  -1.103  -0.061  1.00  0.00     0.090 C 
HETATM   21  C3  UNL     1       4.485  -0.431  -0.337  1.00  0.00     0.020 C 
BRANCH  21  22
HETATM   22  C2  UNL     1       5.735  -0.773   0.372  1.00  0.00     0.297 C 
BRANCH  22  23
HETATM   23  N1  UNL     1       6.181   0.421   1.085  1.00  0.00     0.082 N 
HETATM   24  C1  UNL     1       6.592   1.395   0.089  1.00  0.00     0.307 C 
HETATM   25  H4  UNL     1       7.029   0.234   1.672  1.00  0.00     0.315 HD
ENDBRANCH  22  23
ENDBRANCH  21  22
ENDBRANCH  16  20
ENDBRANCH   1  14
BRANCH  11  26
HETATM   26  O2  UNL     1      -5.330  -2.707   0.704  1.00  0.00    -0.365 OA
HETATM   27  H15 UNL     1      -5.851  -2.633   1.567  1.00  0.00     0.217 HD
ENDBRANCH  11  26
TORSDOF 5
