REMARK  5 active torsions:
REMARK  status: ('A' for Active; 'I' for Inactive)
REMARK    1  A    between atoms: N1_2  and  O1_4 
REMARK    2  A    between atoms: O1_4  and  N2_5 
REMARK    3  A    between atoms: N2_5  and  C4_7 
REMARK    4  A    between atoms: C4_7  and  C5_8 
REMARK    5  A    between atoms: C10_15  and  N5_16 
ROOT
HETATM    1  C5  UNL     1      -0.468  -1.383  -0.789  1.00  0.00    -0.042 A 
HETATM    2  C6  UNL     1      -0.757  -2.717  -0.482  1.00  0.00     0.011 A 
HETATM    3  C7  UNL     1       0.140  -3.527   0.197  1.00  0.00     0.033 A 
HETATM    4  C8  UNL     1       1.385  -3.040   0.608  1.00  0.00     0.072 A 
HETATM    5  N3  UNL     1       2.302  -3.741   1.268  1.00  0.00    -0.241 NA
HETATM    6  C9  UNL     1       3.471  -3.140   1.613  1.00  0.00     0.236 A 
HETATM    7  N4  UNL     1       3.730  -1.841   1.303  1.00  0.00    -0.223 NA
HETATM    8  C10 UNL     1       2.801  -1.104   0.625  1.00  0.00     0.143 A 
HETATM    9  C16 UNL     1       1.619  -1.723   0.281  1.00  0.00     0.039 A 
HETATM   10  C17 UNL     1       0.758  -0.897  -0.386  1.00  0.00     0.026 A 
ENDROOT
BRANCH   1  11
HETATM   11  C4  UNL     1      -1.457  -0.577  -1.508  1.00  0.00     0.160 C 
BRANCH  11  12
HETATM   12  N2  UNL     1      -2.358   0.106  -0.606  1.00  0.00    -0.177 NA
HETATM   13  C3  UNL     1      -3.106  -0.847   0.215  1.00  0.00     0.146 C 
BRANCH  12  14
HETATM   14  O1  UNL     1      -3.258   0.841  -1.298  1.00  0.00    -0.208 OA
BRANCH  14  15
HETATM   15  N1  UNL     1      -4.201   1.273  -0.446  1.00  0.00    -0.185 NA
HETATM   16  C1  UNL     1      -5.314   1.898  -1.140  1.00  0.00     0.145 C 
HETATM   17  C2  UNL     1      -3.695   2.159   0.588  1.00  0.00     0.145 C 
ENDBRANCH  14  15
ENDBRANCH  12  14
ENDBRANCH  11  12
ENDBRANCH   1  11
BRANCH   8  18
HETATM   18  N5  UNL     1       3.291   0.208   0.384  1.00  0.00    -0.338 N 
HETATM   19  C11 UNL     1       3.327   0.924   1.638  1.00  0.00     0.093 A 
HETATM   20  C12 UNL     1       3.723   2.176   1.777  1.00  0.00     0.017 A 
HETATM   21  C13 UNL     1       4.168   2.931   0.598  1.00  0.00    -0.001 A 
HETATM   22  C14 UNL     1       4.123   2.232  -0.546  1.00  0.00    -0.007 A 
HETATM   23  C15 UNL     1       3.709   0.859  -0.815  1.00  0.00     0.157 A 
ENDBRANCH   8  18
TORSDOF 5
