REMARK  9 active torsions:
REMARK  status: ('A' for Active; 'I' for Inactive)
REMARK    1  A    between atoms: C3_3  and  C4_4 
REMARK    2  A    between atoms: C5_5  and  N1_6 
REMARK    3  A    between atoms: C5_5  and  S1_25 
REMARK    4  A    between atoms: C6_7  and  C7_8 
REMARK    5  A    between atoms: C7_8  and  C8_10 
REMARK    6  A    between atoms: C11_14  and  N4_15 
REMARK    7  A    between atoms: N4_15  and  C12_16 
REMARK    8  A    between atoms: C12_16  and  C13_17 
REMARK    9  A    between atoms: C13_17  and  C14_18 
ROOT
HETATM    1  C8  UNL     1      -0.187  -0.418  -0.890  1.00  0.00     0.106 A 
HETATM    2  C9  UNL     1      -0.387  -1.742  -0.569  1.00  0.00     0.054 A 
HETATM    3  C10 UNL     1       0.585  -2.685  -0.470  1.00  0.00     0.139 A 
HETATM    4  N3  UNL     1       1.851  -2.303  -0.704  1.00  0.00    -0.075 NA
HETATM    5  C11 UNL     1       2.116  -1.018  -1.023  1.00  0.00     0.722 A 
HETATM    6  N6  UNL     1       1.106  -0.138  -1.103  1.00  0.00    -0.061 NA
ENDROOT
BRANCH   1   7
HETATM    7  C7  UNL     1      -1.205   0.616  -1.003  1.00  0.00     0.095 C 
HETATM    8  N2  UNL     1      -0.762   1.812  -1.325  1.00  0.00    -0.297 NA
HETATM    9  H8  UNL     1      -1.409   2.615  -1.429  1.00  0.00     0.187 HD
BRANCH   7  10
HETATM   10  C6  UNL     1      -2.643   0.378  -0.781  1.00  0.00     0.151 C 
HETATM   11  N1  UNL     1      -3.261  -0.682  -0.469  1.00  0.00    -0.252 NA
BRANCH  11  12
HETATM   12  C5  UNL     1      -4.668  -0.674  -0.306  1.00  0.00     0.092 C 
HETATM   13  C4  UNL     1      -5.245  -0.079   0.721  1.00  0.00     0.038 C 
BRANCH  13  14
HETATM   14  C3  UNL     1      -4.387   0.571   1.686  1.00  0.00    -0.002 C 
HETATM   15  C2  UNL     1      -5.101   1.117   2.648  1.00  0.00    -0.031 C 
HETATM   16  C1  UNL     1      -6.582   1.007   2.626  1.00  0.00     0.036 C 
ENDBRANCH  13  14
BRANCH  12  17
HETATM   17  S1  UNL     1      -4.617  -1.598  -1.811  1.00  0.00    -0.115 SA
HETATM   18  C19 UNL     1      -6.308  -2.025  -2.333  1.00  0.00     0.097 C 
ENDBRANCH  12  17
ENDBRANCH  11  12
ENDBRANCH   7  10
ENDBRANCH   1   7
BRANCH   5  19
HETATM   19  N4  UNL     1       3.463  -0.561  -1.282  1.00  0.00    -0.222 N 
HETATM   20  H11 UNL     1       4.194  -1.300  -1.210  1.00  0.00     0.177 HD
BRANCH  19  21
HETATM   21  C12 UNL     1       3.676   0.829  -1.609  1.00  0.00     0.142 C 
BRANCH  21  22
HETATM   22  C13 UNL     1       5.131   1.131  -1.828  1.00  0.00     0.060 C 
BRANCH  22  23
HETATM   23  C14 UNL     1       5.891   0.831  -0.602  1.00  0.00    -0.039 A 
HETATM   24  C15 UNL     1       6.552  -0.288  -0.192  1.00  0.00     0.010 A 
HETATM   25  C16 UNL     1       7.180  -0.308   1.029  1.00  0.00     0.020 A 
HETATM   26  C17 UNL     1       7.161   0.805   1.876  1.00  0.00     0.116 A 
HETATM   27  N5  UNL     1       6.511   1.910   1.476  1.00  0.00    -0.273 NA
HETATM   28  C18 UNL     1       5.890   1.925   0.267  1.00  0.00     0.123 A 
ENDBRANCH  22  23
ENDBRANCH  21  22
ENDBRANCH  19  21
ENDBRANCH   5  19
TORSDOF 9
