REMARK  5 active torsions:
REMARK  status: ('A' for Active; 'I' for Inactive)
REMARK    1  A    between atoms: C2_2  and  C3_3 
REMARK    2  A    between atoms: C3_3  and  C4_4 
REMARK    3  A    between atoms: C7_9  and  C8_10 
REMARK    4  A    between atoms: C8_10  and  C9_11 
REMARK    5  A    between atoms: C14_16  and  N3_17 
ROOT
HETATM    1  C4  UNL     1       3.029  -0.621   0.593  1.00  0.00     0.208 C 
HETATM    2  N1  UNL     1       2.903  -0.157  -0.754  1.00  0.00    -0.278 NA
HETATM    3  C5  UNL     1       1.920  -0.555  -1.466  1.00  0.00     0.107 C 
HETATM    4  C6  UNL     1       0.742  -1.445  -1.307  1.00  0.00     0.195 C 
HETATM    5  N2  UNL     1      -0.480  -0.800  -1.589  1.00  0.00    -0.291 NA
HETATM    6  C7  UNL     1      -0.989   0.209  -0.998  1.00  0.00     0.031 C 
HETATM    7  C15 UNL     1      -0.629   1.115   0.133  1.00  0.00     0.204 C 
HETATM    8  N4  UNL     1       0.690   0.759   0.567  1.00  0.00    -0.279 NA
HETATM    9  C16 UNL     1       1.336   1.114   1.588  1.00  0.00     0.198 C 
HETATM   10  N5  UNL     1       2.602   0.432   1.482  1.00  0.00    -0.362 N 
HETATM   11  H21 UNL     1       3.297   0.785   2.178  1.00  0.00     0.162 HD
ENDROOT
BRANCH   6  12
HETATM   12  C8  UNL     1      -2.300   0.661  -1.529  1.00  0.00     0.097 C 
BRANCH  12  13
HETATM   13  C9  UNL     1      -3.392   0.615  -0.520  1.00  0.00    -0.027 A 
HETATM   14  C10 UNL     1      -3.969   1.679   0.171  1.00  0.00     0.010 A 
HETATM   15  C11 UNL     1      -4.980   1.424   1.074  1.00  0.00     0.001 A 
HETATM   16  C12 UNL     1      -5.463   0.182   1.342  1.00  0.00     0.002 A 
HETATM   17  C13 UNL     1      -4.918  -0.883   0.681  1.00  0.00     0.029 A 
HETATM   18  C14 UNL     1      -3.902  -0.656  -0.231  1.00  0.00     0.032 A 
BRANCH  18  19
HETATM   19  N3  UNL     1      -3.378  -1.813  -0.886  1.00  0.00    -0.399 N 
HETATM   20  H16 UNL     1      -4.012  -1.904  -1.704  1.00  0.00     0.156 HD
HETATM   21  H17 UNL     1      -2.563  -2.380  -0.574  1.00  0.00     0.156 HD
ENDBRANCH  18  19
ENDBRANCH  12  13
ENDBRANCH   6  12
BRANCH   1  22
HETATM   22  C3  UNL     1       4.465  -1.013   0.903  1.00  0.00     0.074 C 
BRANCH  22  23
HETATM   23  C2  UNL     1       5.374   0.144   0.730  1.00  0.00    -0.033 C 
HETATM   24  C1  UNL     1       6.418   0.320  -0.074  1.00  0.00     0.007 C 
ENDBRANCH  22  23
ENDBRANCH   1  22
TORSDOF 5
