REMARK  5 active torsions:
REMARK  status: ('A' for Active; 'I' for Inactive)
REMARK    1  A    between atoms: C2_2  and  C3_3 
REMARK    2  A    between atoms: C4_4  and  C5_5 
REMARK    3  A    between atoms: C7_8  and  C8_9 
REMARK    4  A    between atoms: C11_13  and  N3_14 
REMARK    5  A    between atoms: N3_14  and  C12_15 
ROOT
HETATM    1  C12 UNL     1       3.948   0.083   0.965  1.00  0.00     0.166 A 
HETATM    2  C13 UNL     1       4.220   1.100  -0.115  1.00  0.00     0.061 A 
HETATM    3  C14 UNL     1       5.660   1.138  -0.457  1.00  0.00    -0.005 A 
HETATM    4  C15 UNL     1       6.726   0.486  -0.027  1.00  0.00     0.114 A 
HETATM    5  N4  UNL     1       6.411  -0.470   1.001  1.00  0.00    -0.253 NA
HETATM    6  C16 UNL     1       5.169  -0.603   1.397  1.00  0.00     0.137 A 
HETATM    7  C17 UNL     1       4.989  -1.601   2.439  1.00  0.00     0.117 C 
HETATM    8  N5  UNL     1       4.850  -2.397   3.292  1.00  0.00    -0.190 NA
ENDROOT
BRANCH   1   9
HETATM    9  N3  UNL     1       2.903  -0.848   0.563  1.00  0.00    -0.211 N 
HETATM   10  H11 UNL     1       3.100  -1.864   0.503  1.00  0.00     0.178 HD
BRANCH   9  11
HETATM   11  C11 UNL     1       1.630  -0.291   0.266  1.00  0.00     0.723 A 
HETATM   12  N2  UNL     1       1.466   1.041   0.371  1.00  0.00    -0.075 NA
HETATM   13  C10 UNL     1       0.260   1.616   0.095  1.00  0.00     0.139 A 
HETATM   14  C9  UNL     1      -0.733   0.721  -0.288  1.00  0.00     0.054 A 
HETATM   15  C8  UNL     1      -0.556  -0.636  -0.392  1.00  0.00     0.106 A 
HETATM   16  N6  UNL     1       0.648  -1.137  -0.108  1.00  0.00    -0.061 NA
BRANCH  15  17
HETATM   17  C7  UNL     1      -1.650  -1.524  -0.803  1.00  0.00     0.089 A 
HETATM   18  C5  UNL     1      -3.012  -1.351  -1.169  1.00  0.00     0.003 A 
HETATM   19  C6  UNL     1      -3.157  -2.778  -1.373  1.00  0.00     0.191 A 
HETATM   20  N1  UNL     1      -1.766  -2.791  -0.980  1.00  0.00    -0.282 NA
BRANCH  18  21
HETATM   21  C4  UNL     1      -3.823  -0.308  -1.279  1.00  0.00    -0.019 C 
HETATM   22  C3  UNL     1      -4.701   0.607  -0.947  1.00  0.00    -0.014 C 
BRANCH  22  23
HETATM   23  C2  UNL     1      -5.324   0.755   0.384  1.00  0.00     0.023 C 
HETATM   24  C1  UNL     1      -6.734   1.332   0.202  1.00  0.00     0.009 C 
ENDBRANCH  22  23
ENDBRANCH  18  21
ENDBRANCH  15  17
ENDBRANCH   9  11
ENDBRANCH   1   9
TORSDOF 5
