REMARK  0 active torsions:
REMARK  status: ('A' for Active; 'I' for Inactive)
ROOT
HETATM    1  C1  UNL     1      -2.381   1.930  -1.866  1.00  0.00     0.040 C 
HETATM    2  C2  UNL     1      -2.702   1.146  -0.860  1.00  0.00    -0.061 C 
HETATM    3  C3  UNL     1      -1.841   1.640   0.154  1.00  0.00     0.119 C 
HETATM    4  N1  UNL     1      -1.008   2.214   0.892  1.00  0.00    -0.273 NA
HETATM    5  C4  UNL     1      -0.146   3.250   0.547  1.00  0.00     0.117 C 
HETATM    6  C5  UNL     1       0.854   3.550  -0.220  1.00  0.00     0.032 C 
HETATM    7  C6  UNL     1       1.584   2.809  -1.177  1.00  0.00    -0.015 A 
HETATM    8  C7  UNL     1       2.123   2.893  -2.413  1.00  0.00     0.013 A 
HETATM    9  C8  UNL     1       2.836   1.920  -3.063  1.00  0.00     0.003 A 
HETATM   10  C9  UNL     1       3.111   0.685  -2.535  1.00  0.00     0.033 A 
HETATM   11  C10 UNL     1       2.635   0.385  -1.239  1.00  0.00     0.075 A 
HETATM   12  N2  UNL     1       2.829  -0.761  -0.711  1.00  0.00    -0.243 NA
HETATM   13  C11 UNL     1       2.242  -0.893   0.565  1.00  0.00     0.100 A 
HETATM   14  S1  UNL     1       1.476   0.531   0.953  1.00  0.00    -0.070 SA
HETATM   15  C12 UNL     1       1.916   1.423  -0.639  1.00  0.00     0.045 A 
HETATM   16  C13 UNL     1       2.169  -1.983   1.568  1.00  0.00     0.204 C 
HETATM   17  C14 UNL     1       3.042  -3.103   1.189  1.00  0.00     0.077 C 
HETATM   18  N3  UNL     1       3.712  -3.993   0.893  1.00  0.00    -0.196 NA
HETATM   19  C15 UNL     1       0.757  -2.431   1.681  1.00  0.00     0.079 A 
HETATM   20  C16 UNL     1       0.608  -3.576   2.409  1.00  0.00     0.049 A 
HETATM   21  C17 UNL     1      -0.686  -4.046   2.555  1.00  0.00     0.138 A 
HETATM   22  N4  UNL     1      -1.783  -3.428   2.020  1.00  0.00    -0.075 NA
HETATM   23  C18 UNL     1      -1.543  -2.285   1.309  1.00  0.00     0.722 A 
HETATM   24  N5  UNL     1      -0.293  -1.812   1.151  1.00  0.00    -0.066 NA
HETATM   25  N6  UNL     1      -2.491  -1.433   0.644  1.00  0.00    -0.222 N 
HETATM   26  C19 UNL     1      -3.011  -1.275  -0.686  1.00  0.00     0.142 C 
HETATM   27  C20 UNL     1      -3.679   0.052  -0.931  1.00  0.00     0.056 C 
HETATM   28  H12 UNL     1      -2.701  -0.953   1.557  1.00  0.00     0.177 HD
ENDROOT
TORSDOF 0
