REMARK  5 active torsions:
REMARK  status: ('A' for Active; 'I' for Inactive)
REMARK    1  A    between atoms: C2_3  and  C3_4 
REMARK    2  A    between atoms: C2_3  and  C10_13 
REMARK    3  A    between atoms: C14_18  and  C15_19 
REMARK    4  A    between atoms: C15_19  and  N4_20 
REMARK    5  A    between atoms: N4_20  and  C16_21 
ROOT
HETATM    1  N1  UNL     1      -0.303  -2.668   1.762  1.00  0.00    -0.196 NA
HETATM    2  C1  UNL     1       0.073  -1.888   1.012  1.00  0.00     0.077 C 
HETATM    3  C2  UNL     1       0.522  -0.911   0.080  1.00  0.00     0.204 C 
ENDROOT
BRANCH   3   4
HETATM    4  C3  UNL     1       2.055  -0.911   0.075  1.00  0.00     0.100 A 
HETATM    5  N2  UNL     1       2.824  -0.104   0.458  1.00  0.00    -0.243 NA
HETATM    6  C4  UNL     1       4.137  -0.171   0.424  1.00  0.00     0.074 A 
HETATM    7  C5  UNL     1       5.063   0.766   0.868  1.00  0.00     0.033 A 
HETATM    8  C9  UNL     1       4.692  -1.307  -0.119  1.00  0.00     0.035 A 
HETATM    9  C6  UNL     1       6.400   0.544   0.762  1.00  0.00     0.002 A 
HETATM   10  C7  UNL     1       6.958  -0.613   0.212  1.00  0.00     0.002 A 
HETATM   11  C8  UNL     1       6.057  -1.569  -0.244  1.00  0.00     0.021 A 
HETATM   12  S1  UNL     1       3.221  -2.207  -0.546  1.00  0.00    -0.071 SA
ENDBRANCH   3   4
BRANCH   3  13
HETATM   13  C10 UNL     1       0.177   0.499   0.342  1.00  0.00     0.066 A 
HETATM   14  N3  UNL     1       0.976   1.200   1.190  1.00  0.00    -0.263 NA
HETATM   15  C11 UNL     1       0.776   2.512   1.439  1.00  0.00     0.117 A 
HETATM   16  C12 UNL     1      -0.228   3.200   0.862  1.00  0.00     0.020 A 
HETATM   17  C13 UNL     1      -1.105   2.577  -0.020  1.00  0.00     0.012 A 
HETATM   18  C14 UNL     1      -0.867   1.235  -0.249  1.00  0.00    -0.014 A 
BRANCH  18  19
HETATM   19  C15 UNL     1      -1.794   0.465  -1.099  1.00  0.00     0.162 C 
BRANCH  19  20
HETATM   20  N4  UNL     1      -2.902  -0.152  -0.431  1.00  0.00    -0.368 N 
HETATM   21  H11 UNL     1      -2.209  -0.400   0.326  1.00  0.00     0.161 HD
BRANCH  20  22
HETATM   22  C16 UNL     1      -3.972  -0.767   0.251  1.00  0.00     0.160 A 
HETATM   23  N5  UNL     1      -4.135  -1.385   1.421  1.00  0.00    -0.192 NA
HETATM   24  S2  UNL     1      -5.613  -1.949   1.938  1.00  0.00     0.001 SA
HETATM   25  C17 UNL     1      -6.874  -1.647   0.806  1.00  0.00     0.072 A 
HETATM   26  C18 UNL     1      -6.409  -0.976  -0.345  1.00  0.00     0.043 A 
HETATM   27  C19 UNL     1      -5.119  -0.596  -0.574  1.00  0.00     0.094 A 
HETATM   28  N6  UNL     1      -5.150  -0.040  -1.769  1.00  0.00    -0.296 NA
HETATM   29  H14 UNL     1      -4.313   0.341  -2.250  1.00  0.00     0.187 HD
ENDBRANCH  20  22
ENDBRANCH  19  20
ENDBRANCH  18  19
ENDBRANCH   3  13
TORSDOF 5
