REMARK  2 active torsions:
REMARK  status: ('A' for Active; 'I' for Inactive)
REMARK    1  A    between atoms: C2_2  and  C3_3 
REMARK    2  A    between atoms: C7_9  and  C8_10 
ROOT
HETATM    1  C3  UNL     1       4.872  -1.268   1.037  1.00  0.00     0.008 C 
HETATM    2  C4  UNL     1       3.928  -0.917   0.199  1.00  0.00    -0.038 C 
HETATM    3  C5  UNL     1       2.541  -1.474   0.352  1.00  0.00     0.138 C 
HETATM    4  N1  UNL     1       1.576  -1.182  -0.395  1.00  0.00    -0.221 NA
HETATM    5  N2  UNL     1       0.291  -1.648  -0.310  1.00  0.00    -0.231 NA
HETATM    6  C6  UNL     1      -0.621  -0.937  -0.970  1.00  0.00     0.304 C 
HETATM    7  C7  UNL     1      -0.335   0.307  -1.777  1.00  0.00     0.144 C 
HETATM    8  N4  UNL     1       1.013   0.716  -1.736  1.00  0.00    -0.277 NA
HETATM    9  C18 UNL     1       1.829   0.287  -2.623  1.00  0.00     0.196 C 
HETATM   10  N5  UNL     1       3.109   0.193  -3.230  1.00  0.00    -0.385 N 
HETATM   11  C19 UNL     1       3.662  -0.707  -2.201  1.00  0.00     0.125 C 
HETATM   12  C20 UNL     1       3.873   0.059  -0.942  1.00  0.00     0.060 C 
HETATM   13  H21 UNL     1       3.407   0.665  -4.105  1.00  0.00     0.160 HD
ENDROOT
BRANCH   7  14
HETATM   14  C8  UNL     1      -1.210   1.413  -1.267  1.00  0.00     0.076 C 
HETATM   15  C9  UNL     1      -2.626   0.970  -1.545  1.00  0.00    -0.008 C 
HETATM   16  C10 UNL     1      -3.796   0.668  -1.007  1.00  0.00     0.039 C 
HETATM   17  S1  UNL     1      -5.403   0.236  -0.476  1.00  0.00    -0.160 SA
HETATM   18  C11 UNL     1      -6.349   1.519  -0.711  1.00  0.00     0.061 C 
HETATM   19  C12 UNL     1      -5.487  -0.313   1.203  1.00  0.00     0.038 C 
HETATM   20  C13 UNL     1      -4.917  -0.398   2.406  1.00  0.00    -0.016 C 
HETATM   21  C14 UNL     1      -3.812  -0.139   3.328  1.00  0.00     0.056 C 
HETATM   22  C15 UNL     1      -2.632   0.524   2.647  1.00  0.00    -0.004 C 
HETATM   23  C16 UNL     1      -1.318   0.598   2.304  1.00  0.00     0.112 C 
HETATM   24  N3  UNL     1      -0.800   1.671   1.506  1.00  0.00    -0.277 NA
HETATM   25  C17 UNL     1      -0.966   1.598   0.205  1.00  0.00     0.100 C 
ENDBRANCH   7  14
BRANCH   1  26
HETATM   26  C2  UNL     1       6.189  -0.704   0.847  1.00  0.00    -0.010 C 
HETATM   27  C1  UNL     1       7.123  -1.073   1.698  1.00  0.00     0.011 C 
ENDBRANCH   1  26
TORSDOF 2
