REMARK  0 active torsions:
REMARK  status: ('A' for Active; 'I' for Inactive)
ROOT
HETATM    1  C1  UNL     1      -4.061   0.772   0.488  1.00  0.00     0.057 C 
HETATM    2  C2  UNL     1      -3.176   1.343  -0.279  1.00  0.00    -0.016 C 
HETATM    3  C3  UNL     1      -2.064   0.439  -0.024  1.00  0.00     0.071 C 
HETATM    4  C4  UNL     1      -2.305  -0.676   0.970  1.00  0.00     0.126 C 
HETATM    5  N1  UNL     1      -1.163  -1.555   1.069  1.00  0.00    -0.384 N 
HETATM    6  C5  UNL     1       0.168  -1.610   1.474  1.00  0.00     0.203 C 
HETATM    7  N2  UNL     1       1.252  -2.244   1.386  1.00  0.00    -0.246 NA
HETATM    8  C6  UNL     1       2.460  -1.839   2.067  1.00  0.00     0.070 C 
HETATM    9  C7  UNL     1       2.420  -1.590   3.339  1.00  0.00     0.122 C 
HETATM   10  C8  UNL     1       3.344  -1.175   4.372  1.00  0.00     0.090 C 
HETATM   11  N3  UNL     1       4.083  -0.854   5.178  1.00  0.00    -0.192 NA
HETATM   12  C9  UNL     1       3.573  -1.818   1.006  1.00  0.00     0.204 C 
HETATM   13  C10 UNL     1       3.996  -3.210   0.792  1.00  0.00     0.077 C 
HETATM   14  N4  UNL     1       4.319  -4.328   0.624  1.00  0.00    -0.196 NA
HETATM   15  C11 UNL     1       2.948  -1.370  -0.287  1.00  0.00     0.100 A 
HETATM   16  N5  UNL     1       2.557  -1.364  -1.439  1.00  0.00    -0.243 NA
HETATM   17  C12 UNL     1       1.821  -0.353  -1.938  1.00  0.00     0.075 A 
HETATM   18  C13 UNL     1       1.206  -0.269  -3.162  1.00  0.00     0.033 A 
HETATM   19  C14 UNL     1       0.376   0.829  -3.375  1.00  0.00     0.010 A 
HETATM   20  C15 UNL     1       0.090   1.877  -2.478  1.00  0.00    -0.050 A 
HETATM   21  C16 UNL     1       0.743   1.789  -1.214  1.00  0.00     0.029 A 
HETATM   22  C17 UNL     1       1.538   0.682  -1.071  1.00  0.00     0.036 A 
HETATM   23  S1  UNL     1       2.276   0.290   0.436  1.00  0.00    -0.071 SA
HETATM   24  C18 UNL     1      -0.847   3.052  -2.456  1.00  0.00     0.103 C 
HETATM   25  C19 UNL     1      -2.068   2.904  -1.831  1.00  0.00     0.071 C 
HETATM   26  N6  UNL     1      -3.283   2.490  -1.114  1.00  0.00    -0.395 N 
HETATM   27  H7  UNL     1      -1.223  -2.544   0.757  1.00  0.00     0.160 HD
HETATM   28  H16 UNL     1      -4.201   2.942  -1.156  1.00  0.00     0.159 HD
ENDROOT
TORSDOF 0
