REMARK  8 active torsions:
REMARK  status: ('A' for Active; 'I' for Inactive)
REMARK    1  A    between atoms: C2_2  and  N1_3 
REMARK    2  A    between atoms: N1_3  and  C3_4 
REMARK    3  A    between atoms: N1_3  and  C5_6 
REMARK    4  A    between atoms: C5_6  and  C6_7 
REMARK    5  A    between atoms: C7_8  and  C8_9 
REMARK       I    between atoms: C8_9  and  N2_11 
REMARK    6  A    between atoms: N2_11  and  C9_12 
REMARK    7  A    between atoms: C14_19  and  N5_20 
REMARK    8  A    between atoms: N5_20  and  C15_21 
ROOT
HETATM    1  C9  UNL     1      -1.342   1.763   0.564  1.00  0.00     0.124 A 
HETATM    2  C10 UNL     1      -2.293   0.898   0.862  1.00  0.00     0.069 A 
HETATM    3  C11 UNL     1      -3.637   1.267   1.340  1.00  0.00     0.061 A 
HETATM    4  C12 UNL     1      -3.884   2.624   1.473  1.00  0.00     0.157 A 
HETATM    5  N3  UNL     1      -5.103   3.016   1.912  1.00  0.00    -0.222 NA
HETATM    6  C13 UNL     1      -6.042   2.068   2.205  1.00  0.00     0.237 A 
HETATM    7  N4  UNL     1      -5.794   0.733   2.072  1.00  0.00    -0.223 NA
HETATM    8  C14 UNL     1      -4.591   0.307   1.638  1.00  0.00     0.143 A 
HETATM    9  N6  UNL     1      -2.904   3.606   1.169  1.00  0.00    -0.282 N 
HETATM   10  N7  UNL     1      -1.657   3.163   0.722  1.00  0.00    -0.284 N 
HETATM   11  H20 UNL     1      -3.051   4.626   1.256  1.00  0.00     0.188 HD
HETATM   12  H21 UNL     1      -0.909   3.865   0.489  1.00  0.00     0.188 HD
ENDROOT
BRANCH   1  13
HETATM   13  N2  UNL     1      -0.036   1.356   0.099  1.00  0.00    -0.301 N 
HETATM   14  C8  UNL     1       1.052   1.750   0.961  1.00  0.00     0.302 C 
HETATM   15  O1  UNL     1       0.866   2.403   2.044  1.00  0.00    -0.258 OA
HETATM   16  H13 UNL     1       0.291   0.828  -0.766  1.00  0.00     0.171 HD
BRANCH  14  17
HETATM   17  C7  UNL     1       2.420   1.423   0.640  1.00  0.00    -0.004 C 
HETATM   18  C6  UNL     1       3.591   1.161   0.378  1.00  0.00    -0.077 C 
BRANCH  18  19
HETATM   19  C5  UNL     1       4.986   0.869   0.084  1.00  0.00     0.212 C 
BRANCH  19  20
HETATM   20  N1  UNL     1       5.168  -0.461  -0.330  1.00  0.00    -0.403 N 
BRANCH  20  21
HETATM   21  C2  UNL     1       4.715  -0.891  -1.590  1.00  0.00     0.113 C 
HETATM   22  C1  UNL     1       3.357  -0.333  -1.912  1.00  0.00     0.026 C 
ENDBRANCH  20  21
BRANCH  20  23
HETATM   23  C3  UNL     1       6.451  -1.026   0.055  1.00  0.00     0.113 C 
HETATM   24  C4  UNL     1       7.599  -0.548  -0.768  1.00  0.00     0.026 C 
ENDBRANCH  20  23
ENDBRANCH  19  20
ENDBRANCH  18  19
ENDBRANCH  14  17
ENDBRANCH   1  13
BRANCH   8  25
HETATM   25  N5  UNL     1      -4.171  -1.036   1.445  1.00  0.00    -0.340 N 
HETATM   26  H16 UNL     1      -3.728  -1.453   2.299  1.00  0.00     0.167 HD
BRANCH  25  27
HETATM   27  C15 UNL     1      -4.318  -1.769   0.238  1.00  0.00     0.035 A 
HETATM   28  C16 UNL     1      -4.933  -1.212  -0.854  1.00  0.00     0.032 A 
HETATM   29  C17 UNL     1      -5.093  -1.887  -2.041  1.00  0.00     0.046 A 
HETATM   30  C18 UNL     1      -4.602  -3.186  -2.109  1.00  0.00     0.138 A 
HETATM   31  F1  UNL     1      -4.746  -3.876  -3.271  1.00  0.00    -0.204 F 
HETATM   32  C19 UNL     1      -3.990  -3.721  -1.000  1.00  0.00     0.074 A 
HETATM   33 CL1  UNL     1      -3.363  -5.355  -1.063  1.00  0.00    -0.081 Cl
HETATM   34  C20 UNL     1      -3.818  -3.061   0.204  1.00  0.00     0.056 A 
ENDBRANCH  25  27
ENDBRANCH   8  25
TORSDOF 8
