REMARK  7 active torsions:
REMARK  status: ('A' for Active; 'I' for Inactive)
REMARK    1  A    between atoms: C2_2  and  N1_3 
REMARK    2  A    between atoms: N1_3  and  C4_5 
REMARK    3  A    between atoms: C4_5  and  C5_6 
REMARK    4  A    between atoms: C6_7  and  C7_8 
REMARK       I    between atoms: C7_8  and  N2_10 
REMARK    5  A    between atoms: N2_10  and  C8_11 
REMARK    6  A    between atoms: C11_14  and  N3_15 
REMARK    7  A    between atoms: N3_15  and  C12_16 
ROOT
HETATM    1  C8  UNL     1      -0.212  -1.597   0.160  1.00  0.00     0.131 A 
HETATM    2  C9  UNL     1      -1.511  -1.150   0.069  1.00  0.00     0.068 A 
HETATM    3  C10 UNL     1      -2.596  -1.988   0.133  1.00  0.00     0.044 A 
HETATM    4  C11 UNL     1      -3.920  -1.611   0.073  1.00  0.00     0.142 A 
HETATM    5  N4  UNL     1      -4.894  -2.509   0.168  1.00  0.00    -0.224 NA
HETATM    6  C18 UNL     1      -4.631  -3.839   0.327  1.00  0.00     0.236 A 
HETATM    7  N5  UNL     1      -3.359  -4.247   0.389  1.00  0.00    -0.240 NA
HETATM    8  C19 UNL     1      -2.379  -3.339   0.294  1.00  0.00     0.089 A 
HETATM    9  C20 UNL     1      -1.048  -3.730   0.377  1.00  0.00     0.151 A 
HETATM   10  N6  UNL     1       0.020  -2.893   0.314  1.00  0.00    -0.241 NA
ENDROOT
BRANCH   1  11
HETATM   11  N2  UNL     1       0.848  -0.651   0.121  1.00  0.00    -0.301 N 
HETATM   12  C7  UNL     1       2.230  -0.900   0.212  1.00  0.00     0.302 C 
HETATM   13  O1  UNL     1       2.591  -2.100   0.339  1.00  0.00    -0.258 OA
HETATM   14  H11 UNL     1       0.613   0.382   0.007  1.00  0.00     0.171 HD
BRANCH  12  15
HETATM   15  C6  UNL     1       3.186   0.181   0.167  1.00  0.00    -0.004 C 
HETATM   16  C5  UNL     1       3.980   1.105   0.123  1.00  0.00    -0.077 C 
BRANCH  16  17
HETATM   17  C4  UNL     1       4.945   2.228   0.044  1.00  0.00     0.211 C 
BRANCH  17  18
HETATM   18  N1  UNL     1       6.138   1.676  -0.506  1.00  0.00    -0.407 N 
HETATM   19  C3  UNL     1       6.949   2.571  -1.272  1.00  0.00     0.144 C 
BRANCH  18  20
HETATM   20  C2  UNL     1       6.833   0.755   0.333  1.00  0.00     0.113 C 
HETATM   21  C1  UNL     1       7.555  -0.239  -0.549  1.00  0.00     0.026 C 
ENDBRANCH  18  20
ENDBRANCH  17  18
ENDBRANCH  16  17
ENDBRANCH  12  15
ENDBRANCH   1  11
BRANCH   4  22
HETATM   22  N3  UNL     1      -4.197  -0.233  -0.130  1.00  0.00    -0.340 N 
HETATM   23  H13 UNL     1      -3.480   0.490  -0.339  1.00  0.00     0.167 HD
BRANCH  22  24
HETATM   24  C12 UNL     1      -5.361   0.592  -0.140  1.00  0.00     0.035 A 
HETATM   25  C13 UNL     1      -6.102   0.551   1.033  1.00  0.00     0.032 A 
HETATM   26  C14 UNL     1      -7.255   1.334   1.069  1.00  0.00     0.046 A 
HETATM   27  C15 UNL     1      -7.647   2.110  -0.000  1.00  0.00     0.138 A 
HETATM   28  F1  UNL     1      -8.751   2.889  -0.023  1.00  0.00    -0.204 F 
HETATM   29  C16 UNL     1      -6.914   2.151  -1.164  1.00  0.00     0.074 A 
HETATM   30 CL1  UNL     1      -7.235   3.052  -2.631  1.00  0.00    -0.081 Cl
HETATM   31  C17 UNL     1      -5.758   1.377  -1.221  1.00  0.00     0.056 A 
ENDBRANCH  22  24
ENDBRANCH   4  22
TORSDOF 7
