REMARK  3 active torsions:
REMARK  status: ('A' for Active; 'I' for Inactive)
REMARK    1  A    between atoms: C2_2  and  C3_3 
REMARK    2  A    between atoms: C3_3  and  C4_4 
REMARK    3  A    between atoms: C4_4  and  C5_5 
ROOT
HETATM    1  C5  UNL     1       2.165   0.171  -0.114  1.00  0.00    -0.054 C 
HETATM    2  C6  UNL     1       0.864  -0.013  -0.040  1.00  0.00    -0.026 C 
HETATM    3  C7  UNL     1       0.231  -1.366  -0.207  1.00  0.00     0.068 C 
HETATM    4  C8  UNL     1      -0.488  -1.400  -1.510  1.00  0.00    -0.022 C 
HETATM    5  C9  UNL     1      -1.780  -1.514  -1.578  1.00  0.00    -0.006 C 
HETATM    6  C10 UNL     1      -2.643  -1.622  -0.442  1.00  0.00     0.002 C 
HETATM    7  C11 UNL     1      -3.813  -1.712   0.122  1.00  0.00     0.082 C 
HETATM    8  C12 UNL     1      -5.264  -1.791   0.403  1.00  0.00     0.119 C 
HETATM    9  S1  UNL     1      -5.789  -0.404  -0.692  1.00  0.00    -0.096 SA
HETATM   10  C13 UNL     1      -4.116   0.027  -1.246  1.00  0.00     0.060 A 
HETATM   11  N1  UNL     1      -4.376  -1.273  -1.115  1.00  0.00    -0.208 NA
HETATM   12  C14 UNL     1      -3.483   1.313  -1.504  1.00  0.00     0.165 C 
HETATM   13  C15 UNL     1      -4.506   2.391  -1.420  1.00  0.00     0.072 C 
HETATM   14  N2  UNL     1      -5.298   3.235  -1.356  1.00  0.00    -0.196 NA
HETATM   15  C16 UNL     1      -2.346   1.758  -0.655  1.00  0.00     0.174 C 
HETATM   16  N3  UNL     1      -1.185   0.961  -0.639  1.00  0.00    -0.292 NA
HETATM   17  C17 UNL     1      -0.261   0.969   0.199  1.00  0.00     0.037 C 
HETATM   18  C18 UNL     1      -0.137   1.848   1.414  1.00  0.00     0.078 C 
HETATM   19  C19 UNL     1       1.187   2.564   1.433  1.00  0.00     0.120 C 
HETATM   20  N4  UNL     1       1.896   2.528   0.177  1.00  0.00    -0.417 N 
HETATM   21  C20 UNL     1       2.852   1.479   0.043  1.00  0.00     0.149 C 
HETATM   22  H22 UNL     1       1.323   2.713  -0.656  1.00  0.00     0.153 HD
ENDROOT
BRANCH   1  23
HETATM   23  C4  UNL     1       3.058  -0.918  -0.363  1.00  0.00     0.040 C 
BRANCH  23  24
HETATM   24  C3  UNL     1       4.036  -1.066   0.811  1.00  0.00     0.030 C 
BRANCH  24  25
HETATM   25  C2  UNL     1       4.929  -2.226   0.475  1.00  0.00    -0.037 C 
HETATM   26  C1  UNL     1       6.239  -2.069   0.368  1.00  0.00     0.007 C 
ENDBRANCH  24  25
ENDBRANCH  23  24
ENDBRANCH   1  23
TORSDOF 3
