REMARK  1 active torsions:
REMARK  status: ('A' for Active; 'I' for Inactive)
REMARK    1  A    between atoms: C2_3  and  C3_4 
ROOT
HETATM    1  C3  UNL     1       2.089   0.059  -0.590  1.00  0.00    -0.032 C 
HETATM    2  C4  UNL     1       0.993  -0.006  -1.268  1.00  0.00    -0.028 C 
HETATM    3  C5  UNL     1       0.612   1.264  -0.710  1.00  0.00     0.125 C 
HETATM    4  N2  UNL     1      -0.548   1.326  -1.176  1.00  0.00    -0.259 NA
HETATM    5  C6  UNL     1      -1.576   2.237  -1.087  1.00  0.00     0.073 A 
HETATM    6  C7  UNL     1      -2.350   3.241  -1.570  1.00  0.00     0.033 A 
HETATM    7  C8  UNL     1      -3.399   3.766  -0.849  1.00  0.00     0.002 A 
HETATM    8  C9  UNL     1      -3.651   3.239   0.399  1.00  0.00     0.002 A 
HETATM    9  C10 UNL     1      -2.860   2.206   0.904  1.00  0.00     0.021 A 
HETATM   10  C11 UNL     1      -1.781   1.643   0.204  1.00  0.00     0.031 A 
HETATM   11  S1  UNL     1      -1.059   0.388   1.275  1.00  0.00    -0.098 SA
HETATM   12  C12 UNL     1      -1.572  -1.273   0.923  1.00  0.00     0.139 C 
HETATM   13  C13 UNL     1      -2.151  -1.816   2.189  1.00  0.00     0.084 C 
HETATM   14  N3  UNL     1      -2.582  -2.240   3.178  1.00  0.00    -0.195 NA
HETATM   15  C14 UNL     1      -2.702  -1.361  -0.071  1.00  0.00     0.187 C 
HETATM   16  N4  UNL     1      -2.218  -1.357  -1.437  1.00  0.00    -0.295 NA
HETATM   17  C15 UNL     1      -0.922  -1.460  -1.610  1.00  0.00     0.013 C 
HETATM   18  C16 UNL     1       0.292  -0.831  -2.251  1.00  0.00     0.095 C 
HETATM   19  C17 UNL     1      -0.485  -2.655  -0.835  1.00  0.00     0.082 C 
HETATM   20  C18 UNL     1      -0.388  -2.168   0.597  1.00  0.00     0.116 C 
HETATM   21  N5  UNL     1       0.824  -1.693   1.034  1.00  0.00    -0.414 N 
HETATM   22  C19 UNL     1       2.115  -1.968   0.639  1.00  0.00     0.119 C 
HETATM   23  C20 UNL     1       2.489  -1.387  -0.724  1.00  0.00     0.060 C 
HETATM   24  H17 UNL     1       0.792  -1.448   2.045  1.00  0.00     0.153 HD
ENDROOT
BRANCH   1  25
HETATM   25  C2  UNL     1       2.859   0.849   0.320  1.00  0.00     0.117 C 
HETATM   26  N1  UNL     1       3.998   0.426   0.733  1.00  0.00    -0.306 NA
HETATM   27  C1  UNL     1       4.761   1.219   1.642  1.00  0.00     0.177 C 
ENDBRANCH   1  25
TORSDOF 1
