REMARK  7 active torsions:
REMARK  status: ('A' for Active; 'I' for Inactive)
REMARK    1  A    between atoms: C3_3  and  C4_4 
REMARK    2  A    between atoms: C6_7  and  C7_8 
REMARK    3  A    between atoms: C7_8  and  C9_11 
REMARK    4  A    between atoms: C12_15  and  N4_16 
REMARK    5  A    between atoms: N4_16  and  C13_17 
REMARK    6  A    between atoms: C13_17  and  C14_18 
REMARK    7  A    between atoms: C14_18  and  C15_19 
ROOT
HETATM    1  C7  UNL     1      -1.944  -2.935  -0.267  1.00  0.00     0.203 C 
HETATM    2  C8  UNL     1      -2.296  -3.859   0.813  1.00  0.00     0.077 C 
HETATM    3  N2  UNL     1      -2.589  -4.597   1.674  1.00  0.00    -0.196 NA
ENDROOT
BRANCH   1   4
HETATM    4  C6  UNL     1      -3.115  -2.110  -0.593  1.00  0.00     0.089 C 
HETATM    5  N1  UNL     1      -3.728  -1.999  -1.692  1.00  0.00    -0.284 NA
HETATM    6  C5  UNL     1      -4.825  -1.152  -1.778  1.00  0.00     0.169 C 
HETATM    7  C4  UNL     1      -4.744  -0.016  -0.782  1.00  0.00     0.096 C 
HETATM    8  S1  UNL     1      -3.965  -1.000   0.575  1.00  0.00    -0.103 SA
BRANCH   7   9
HETATM    9  C3  UNL     1      -6.077   0.465  -0.366  1.00  0.00    -0.014 C 
HETATM   10  C2  UNL     1      -6.403   1.733  -0.139  1.00  0.00    -0.034 C 
HETATM   11  C1  UNL     1      -5.347   2.775  -0.316  1.00  0.00     0.036 C 
ENDBRANCH   7   9
ENDBRANCH   1   4
BRANCH   1  12
HETATM   12  C9  UNL     1      -0.766  -2.141   0.191  1.00  0.00     0.079 A 
HETATM   13  C10 UNL     1      -0.814  -1.358   1.301  1.00  0.00     0.049 A 
HETATM   14  C11 UNL     1       0.256  -0.625   1.734  1.00  0.00     0.138 A 
HETATM   15  N3  UNL     1       1.386  -0.705   1.008  1.00  0.00    -0.075 NA
HETATM   16  C12 UNL     1       1.487  -1.462  -0.094  1.00  0.00     0.722 A 
HETATM   17  N6  UNL     1       0.396  -2.149  -0.452  1.00  0.00    -0.066 NA
BRANCH  16  18
HETATM   18  N4  UNL     1       2.676  -1.533  -0.840  1.00  0.00    -0.222 N 
HETATM   19  H12 UNL     1       2.712  -2.138  -1.697  1.00  0.00     0.177 HD
BRANCH  18  20
HETATM   20  C13 UNL     1       3.858  -0.805  -0.476  1.00  0.00     0.142 C 
BRANCH  20  21
HETATM   21  C14 UNL     1       3.661   0.698  -0.445  1.00  0.00     0.060 C 
BRANCH  21  22
HETATM   22  C15 UNL     1       4.928   1.377  -0.060  1.00  0.00    -0.039 A 
HETATM   23  C16 UNL     1       5.345   1.694   1.198  1.00  0.00     0.010 A 
HETATM   24  C17 UNL     1       6.540   2.324   1.437  1.00  0.00     0.020 A 
HETATM   25  C18 UNL     1       7.353   2.653   0.394  1.00  0.00     0.116 A 
HETATM   26  N5  UNL     1       6.966   2.349  -0.874  1.00  0.00    -0.273 NA
HETATM   27  C19 UNL     1       5.785   1.727  -1.106  1.00  0.00     0.123 A 
ENDBRANCH  21  22
ENDBRANCH  20  21
ENDBRANCH  18  20
ENDBRANCH  16  18
ENDBRANCH   1  12
TORSDOF 7
