REMARK  1 active torsions:
REMARK  status: ('A' for Active; 'I' for Inactive)
REMARK    1  A    between atoms: C8_12  and  C9_13 
ROOT
HETATM    1  N1  UNL     1       2.158  -0.239  -2.917  1.00  0.00    -0.196 NA
HETATM    2  C1  UNL     1       2.254  -0.777  -1.900  1.00  0.00     0.072 C 
HETATM    3  C2  UNL     1       2.385  -1.467  -0.600  1.00  0.00     0.167 C 
HETATM    4  C3  UNL     1       3.769  -1.538  -0.115  1.00  0.00     0.105 C 
HETATM    5  N2  UNL     1       4.569  -0.572   0.119  1.00  0.00    -0.303 NA
HETATM    6  C4  UNL     1       4.548   0.811   0.048  1.00  0.00     0.157 C 
HETATM    7  C5  UNL     1       3.343   1.615   0.074  1.00  0.00     0.091 C 
HETATM    8  S1  UNL     1       1.727   0.902   0.357  1.00  0.00    -0.167 SA
HETATM    9  C6  UNL     1       0.530   2.004   0.174  1.00  0.00     0.055 C 
HETATM   10  C7  UNL     1      -0.923   1.894   0.304  1.00  0.00     0.117 C 
HETATM   11  N3  UNL     1      -1.486   0.796   0.613  1.00  0.00    -0.291 NA
HETATM   12  C8  UNL     1      -2.897   0.677   0.743  1.00  0.00     0.149 C 
HETATM   13  C10 UNL     1      -3.369  -0.728   0.933  1.00  0.00     0.052 C 
HETATM   14  C11 UNL     1      -3.129  -1.660  -0.204  1.00  0.00     0.123 C 
HETATM   15  N5  UNL     1      -1.773  -1.797  -0.633  1.00  0.00    -0.385 N 
HETATM   16  C12 UNL     1      -0.382  -2.124  -0.665  1.00  0.00     0.197 C 
HETATM   17  N6  UNL     1       0.048  -1.189   0.037  1.00  0.00    -0.268 NA
HETATM   18  C13 UNL     1       1.398  -0.923   0.402  1.00  0.00     0.187 C 
HETATM   19  H16 UNL     1      -1.738  -1.366  -1.619  1.00  0.00     0.160 HD
ENDROOT
BRANCH  12  20
HETATM   20  C9  UNL     1      -3.625   1.286  -0.417  1.00  0.00     0.107 C 
HETATM   21  N4  UNL     1      -4.705   1.971  -0.271  1.00  0.00    -0.314 NA
HETATM   22  H11 UNL     1      -5.136   2.144   0.647  1.00  0.00     0.185 HD
ENDBRANCH  12  20
TORSDOF 1
