REMARK  8 active torsions:
REMARK  status: ('A' for Active; 'I' for Inactive)
REMARK    1  A    between atoms: C2_2  and  N1_3 
REMARK    2  A    between atoms: N1_3  and  C3_4 
REMARK    3  A    between atoms: N1_3  and  C5_6 
REMARK    4  A    between atoms: C5_6  and  C6_7 
REMARK    5  A    between atoms: C7_8  and  C8_9 
REMARK       I    between atoms: C8_9  and  N2_11 
REMARK    6  A    between atoms: N2_11  and  C9_12 
REMARK    7  A    between atoms: C12_15  and  N3_16 
REMARK    8  A    between atoms: N3_16  and  C13_17 
ROOT
HETATM    1  C9  UNL     1       0.854   1.670   0.931  1.00  0.00     0.131 A 
HETATM    2  C10 UNL     1       2.016   1.039   0.589  1.00  0.00     0.068 A 
HETATM    3  C11 UNL     1       3.272   1.545   0.840  1.00  0.00     0.044 A 
HETATM    4  C12 UNL     1       4.439   0.904   0.494  1.00  0.00     0.142 A 
HETATM    5  N4  UNL     1       5.548   1.568   0.830  1.00  0.00    -0.224 NA
HETATM    6  C19 UNL     1       5.567   2.753   1.448  1.00  0.00     0.236 A 
HETATM    7  N5  UNL     1       4.410   3.385   1.790  1.00  0.00    -0.240 NA
HETATM    8  C20 UNL     1       3.252   2.761   1.475  1.00  0.00     0.089 A 
HETATM    9  C21 UNL     1       2.115   3.444   1.844  1.00  0.00     0.151 A 
HETATM   10  N6  UNL     1       0.931   2.869   1.556  1.00  0.00    -0.241 NA
ENDROOT
BRANCH   1  11
HETATM   11  N2  UNL     1      -0.458   1.177   0.689  1.00  0.00    -0.301 N 
HETATM   12  C8  UNL     1      -1.507   1.185  -0.271  1.00  0.00     0.302 C 
HETATM   13  O1  UNL     1      -1.361   1.814  -1.341  1.00  0.00    -0.258 OA
HETATM   14  H13 UNL     1      -0.569   0.645   1.603  1.00  0.00     0.171 HD
BRANCH  12  15
HETATM   15  C7  UNL     1      -2.690   0.446   0.074  1.00  0.00    -0.004 C 
HETATM   16  C6  UNL     1      -3.704  -0.163   0.374  1.00  0.00    -0.066 C 
BRANCH  16  17
HETATM   17  C5  UNL     1      -4.928  -0.878   0.751  1.00  0.00     0.366 C 
BRANCH  17  18
HETATM   18  N1  UNL     1      -5.882  -0.693  -0.288  1.00  0.00     0.098 N 
BRANCH  18  19
HETATM   19  C2  UNL     1      -7.142  -1.359  -0.023  1.00  0.00     0.269 C 
HETATM   20  C1  UNL     1      -6.818  -2.769   0.461  1.00  0.00     0.037 C 
ENDBRANCH  18  19
BRANCH  18  21
HETATM   21  C3  UNL     1      -6.055   0.653  -0.751  1.00  0.00     0.269 C 
HETATM   22  C4  UNL     1      -6.602   1.609   0.261  1.00  0.00     0.037 C 
ENDBRANCH  18  21
ENDBRANCH  17  18
ENDBRANCH  16  17
ENDBRANCH  12  15
ENDBRANCH   1  11
BRANCH   4  23
HETATM   23  N3  UNL     1       4.387  -0.344  -0.168  1.00  0.00    -0.340 N 
HETATM   24  H15 UNL     1       3.500  -0.793  -0.433  1.00  0.00     0.167 HD
BRANCH  23  25
HETATM   25  C13 UNL     1       5.486  -1.147  -0.559  1.00  0.00     0.033 A 
HETATM   26  C14 UNL     1       6.773  -0.916  -0.130  1.00  0.00     0.032 A 
HETATM   27  C15 UNL     1       7.840  -1.693  -0.522  1.00  0.00     0.044 A 
HETATM   28  C16 UNL     1       7.690  -2.749  -1.367  1.00  0.00     0.116 A 
HETATM   29  F1  UNL     1       8.682  -3.562  -1.802  1.00  0.00    -0.206 F 
HETATM   30  C17 UNL     1       6.418  -3.024  -1.827  1.00  0.00     0.044 A 
HETATM   31  C18 UNL     1       5.384  -2.223  -1.411  1.00  0.00     0.032 A 
ENDBRANCH  23  25
ENDBRANCH   4  23
TORSDOF 8
