REMARK  7 active torsions:
REMARK  status: ('A' for Active; 'I' for Inactive)
REMARK    1  A    between atoms: C2_2  and  N1_3 
REMARK    2  A    between atoms: N1_3  and  C3_4 
REMARK    3  A    between atoms: N1_3  and  C5_6 
REMARK    4  A    between atoms: C5_6  and  C6_7 
REMARK    5  A    between atoms: C6_7  and  C7_8 
REMARK    6  A    between atoms: C7_8  and  C8_9 
REMARK       I    between atoms: C8_9  and  N2_11 
REMARK    7  A    between atoms: C13_19  and  C14_20 
ROOT
HETATM    1  C8  UNL     1      -1.075   0.010  -0.430  1.00  0.00     0.304 C 
HETATM    2  O1  UNL     1      -1.249   0.955  -1.291  1.00  0.00    -0.258 OA
HETATM    3  N2  UNL     1      -1.542  -1.206   0.223  1.00  0.00    -0.284 N 
HETATM    4  C9  UNL     1      -0.462  -2.021   0.686  1.00  0.00     0.282 C 
HETATM    5  N3  UNL     1      -0.850  -3.382   0.899  1.00  0.00    -0.279 NA
HETATM    6  C10 UNL     1      -2.010  -3.887   0.850  1.00  0.00     0.146 C 
HETATM    7  C11 UNL     1      -3.151  -3.046   0.523  1.00  0.00     0.104 A 
HETATM    8  N4  UNL     1      -4.441  -3.433   0.486  1.00  0.00    -0.238 NA
HETATM    9  C12 UNL     1      -5.418  -2.529   0.184  1.00  0.00     0.234 A 
HETATM   10  N5  UNL     1      -5.119  -1.221  -0.083  1.00  0.00    -0.239 NA
HETATM   11  C13 UNL     1      -3.821  -0.821  -0.049  1.00  0.00     0.098 A 
HETATM   12  C20 UNL     1      -2.852  -1.734   0.245  1.00  0.00     0.099 A 
ENDROOT
BRANCH   1  13
HETATM   13  C7  UNL     1       0.221   0.483   0.065  1.00  0.00    -0.003 C 
BRANCH  13  14
HETATM   14  C6  UNL     1       1.313   0.874   0.504  1.00  0.00    -0.077 C 
BRANCH  14  15
HETATM   15  C5  UNL     1       2.601   1.346   1.006  1.00  0.00     0.212 C 
BRANCH  15  16
HETATM   16  N1  UNL     1       3.699   0.626   0.426  1.00  0.00    -0.403 N 
BRANCH  16  17
HETATM   17  C2  UNL     1       3.848  -0.717   0.771  1.00  0.00     0.113 C 
HETATM   18  C1  UNL     1       5.222  -1.033   1.301  1.00  0.00     0.026 C 
ENDBRANCH  16  17
BRANCH  16  19
HETATM   19  C3  UNL     1       4.336   1.198  -0.678  1.00  0.00     0.113 C 
HETATM   20  C4  UNL     1       5.807   1.338  -0.520  1.00  0.00     0.026 C 
ENDBRANCH  16  19
ENDBRANCH  15  16
ENDBRANCH  14  15
ENDBRANCH  13  14
ENDBRANCH   1  13
BRANCH  11  21
HETATM   21  C14 UNL     1      -3.805   0.618  -0.265  1.00  0.00    -0.003 A 
HETATM   22  C15 UNL     1      -3.238   1.405   0.763  1.00  0.00     0.017 A 
HETATM   23  C16 UNL     1      -3.233   2.775   0.612  1.00  0.00     0.045 A 
HETATM   24  C17 UNL     1      -3.784   3.335  -0.541  1.00  0.00     0.138 A 
HETATM   25  F1  UNL     1      -3.814   4.660  -0.755  1.00  0.00    -0.204 F 
HETATM   26  C18 UNL     1      -4.331   2.547  -1.529  1.00  0.00     0.073 A 
HETATM   27 CL1  UNL     1      -5.027   3.244  -2.982  1.00  0.00    -0.081 Cl
HETATM   28  C19 UNL     1      -4.364   1.163  -1.432  1.00  0.00     0.041 A 
ENDBRANCH  11  21
TORSDOF 7
