REMARK  7 active torsions:
REMARK  status: ('A' for Active; 'I' for Inactive)
REMARK    1  A    between atoms: C2_2  and  N1_3 
REMARK    2  A    between atoms: N1_3  and  C3_4 
REMARK    3  A    between atoms: N1_3  and  C18_27 
REMARK    4  A    between atoms: C4_5  and  C5_6 
REMARK       I    between atoms: C5_6  and  N2_8 
REMARK    5  A    between atoms: N2_8  and  N3_9 
REMARK    6  A    between atoms: C10_15  and  N5_16 
REMARK    7  A    between atoms: N5_16  and  C11_17 
ROOT
HETATM    1  N3  UNL     1       0.030  -0.668  -0.508  1.00  0.00    -0.240 N 
HETATM    2  C6  UNL     1       0.625  -1.636  -1.224  1.00  0.00     0.233 C 
HETATM    3  N4  UNL     1       1.475  -1.470  -2.249  1.00  0.00    -0.254 NA
HETATM    4  C7  UNL     1       2.797  -1.326  -2.084  1.00  0.00     0.118 C 
HETATM    5  C8  UNL     1       4.107  -1.043  -1.678  1.00  0.00     0.023 C 
HETATM    6  C9  UNL     1       4.198   0.252  -1.143  1.00  0.00     0.052 C 
HETATM    7  C10 UNL     1       3.346   0.413  -0.077  1.00  0.00     0.129 C 
HETATM    8  N6  UNL     1       2.178   0.560  -0.663  1.00  0.00    -0.225 NA
HETATM    9  C17 UNL     1       1.075   0.053  -0.083  1.00  0.00     0.236 C 
ENDROOT
BRANCH   1  10
HETATM   10  N2  UNL     1      -1.282  -0.331  -0.179  1.00  0.00    -0.251 N 
HETATM   11  C5  UNL     1      -2.391  -1.090  -0.617  1.00  0.00     0.317 C 
HETATM   12  O1  UNL     1      -2.220  -2.110  -1.331  1.00  0.00    -0.256 OA
HETATM   13  H6  UNL     1      -1.403   0.515   0.410  1.00  0.00     0.191 HD
BRANCH  11  14
HETATM   14  C4  UNL     1      -3.693  -0.621  -0.196  1.00  0.00     0.019 C 
HETATM   15  C3  UNL     1      -4.780  -0.236   0.145  1.00  0.00     0.018 C 
BRANCH  15  16
HETATM   16  N1  UNL     1      -6.051   0.211   0.566  1.00  0.00    -0.342 N 
BRANCH  16  17
HETATM   17  C2  UNL     1      -6.342   1.598   0.874  1.00  0.00     0.128 C 
HETATM   18  C1  UNL     1      -6.624   1.759   2.346  1.00  0.00     0.027 C 
ENDBRANCH  16  17
BRANCH  16  19
HETATM   19  C18 UNL     1      -7.171  -0.709   0.712  1.00  0.00     0.128 C 
HETATM   20  C19 UNL     1      -8.170  -0.376  -0.359  1.00  0.00     0.027 C 
ENDBRANCH  16  19
ENDBRANCH  15  16
ENDBRANCH  11  14
ENDBRANCH   1  10
BRANCH   7  21
HETATM   21  N5  UNL     1       4.381   0.299   0.865  1.00  0.00    -0.341 N 
HETATM   22  H11 UNL     1       3.701   0.258   1.655  1.00  0.00     0.167 HD
BRANCH  21  23
HETATM   23  C11 UNL     1       5.766   0.273   0.642  1.00  0.00     0.035 A 
HETATM   24  C12 UNL     1       6.577  -0.717   1.135  1.00  0.00     0.032 A 
HETATM   25  C13 UNL     1       7.936  -0.628   0.887  1.00  0.00     0.046 A 
HETATM   26  C14 UNL     1       8.477   0.433   0.157  1.00  0.00     0.138 A 
HETATM   27  F1  UNL     1       9.806   0.554  -0.109  1.00  0.00    -0.204 F 
HETATM   28  C15 UNL     1       7.665   1.432  -0.341  1.00  0.00     0.074 A 
HETATM   29 CL1  UNL     1       8.304   2.798  -1.266  1.00  0.00    -0.081 Cl
HETATM   30  C16 UNL     1       6.309   1.332  -0.086  1.00  0.00     0.056 A 
ENDBRANCH  21  23
ENDBRANCH   7  21
TORSDOF 7
