REMARK  3 active torsions:
REMARK  status: ('A' for Active; 'I' for Inactive)
REMARK       I    between atoms: C3_3  and  N1_5 
REMARK    1  A    between atoms: N1_5  and  C4_6 
REMARK    2  A    between atoms: C9_13  and  B1_14 
REMARK    3  A    between atoms: B1_14  and  C10_15 
ROOT
HETATM    1  C1  UNL     1      -5.344   3.126   2.368  1.00  0.00     0.022 C 
HETATM    2  C2  UNL     1      -4.924   2.142   1.796  1.00  0.00    -0.016 C 
HETATM    3  C3  UNL     1      -4.407   0.993   1.118  1.00  0.00     0.300 C 
HETATM    4  O1  UNL     1      -5.186   0.037   1.001  1.00  0.00    -0.258 OA
HETATM    5  N1  UNL     1      -3.098   0.896   0.594  1.00  0.00    -0.316 N 
HETATM    6  H2  UNL     1      -2.559   1.775   0.768  1.00  0.00     0.170 HD
ENDROOT
BRANCH   5   7
HETATM    7  C4  UNL     1      -2.484  -0.180  -0.089  1.00  0.00     0.036 A 
HETATM    8  C5  UNL     1      -3.034  -1.387  -0.397  1.00  0.00     0.032 A 
HETATM    9  C6  UNL     1      -2.382  -2.398  -1.066  1.00  0.00     0.035 A 
HETATM   10  C7  UNL     1      -1.079  -2.204  -1.465  1.00  0.00     0.069 A 
HETATM   11  N2  UNL     1      -0.442  -3.195  -2.120  1.00  0.00    -0.241 NA
HETATM   12  C15 UNL     1      -0.505  -0.994  -1.164  1.00  0.00     0.008 A 
HETATM   13  C8  UNL     1       0.841  -2.921  -2.477  1.00  0.00     0.232 A 
HETATM   14  N3  UNL     1       1.467  -1.759  -2.216  1.00  0.00    -0.258 NA
HETATM   15  C9  UNL     1       0.799  -0.773  -1.551  1.00  0.00     0.005 A 
HETATM   16  C16 UNL     1      -1.186  -0.026  -0.502  1.00  0.00     0.044 A 
BRANCH  15  17
HETATM   17  B1  UNL     1       1.541   0.556  -1.262  1.00  0.00     0.257 B 
HETATM   18  H6  UNL     1       0.969   1.580  -1.498  1.00  0.00    -0.014 HD
BRANCH  17  19
HETATM   19  C10 UNL     1       2.792   0.681  -0.343  1.00  0.00    -0.079 A 
HETATM   20  C11 UNL     1       2.679   0.754   1.031  1.00  0.00    -0.003 A 
HETATM   21  C12 UNL     1       3.765   0.866   1.899  1.00  0.00     0.001 A 
HETATM   22  C13 UNL     1       5.093   0.921   1.524  1.00  0.00     0.020 A 
HETATM   23  C14 UNL     1       5.617   0.877   0.247  1.00  0.00     0.024 A 
HETATM   24 BR1  UNL     1       7.487   0.966  -0.067  1.00  0.00    -0.050 Br
HETATM   25  P1  UNL     1       4.408   0.735  -1.017  1.00  0.00    -0.020 P 
ENDBRANCH  17  19
ENDBRANCH  15  17
ENDBRANCH   5   7
TORSDOF 3
