REMARK  3 active torsions:
REMARK  status: ('A' for Active; 'I' for Inactive)
REMARK    1  A    between atoms: C3_3  and  C4_4 
REMARK       I    between atoms: C4_4  and  N1_6 
REMARK    2  A    between atoms: C10_15  and  N4_16 
REMARK    3  A    between atoms: N4_16  and  C11_17 
ROOT
HETATM    1  C1  UNL     1       5.520  -2.305   0.492  1.00  0.00     0.112 C 
HETATM    2  C2  UNL     1       4.274  -1.615   0.779  1.00  0.00    -0.101 C 
HETATM    3  C3  UNL     1       3.190  -1.001   1.012  1.00  0.00    -0.006 C 
ENDROOT
BRANCH   3   4
HETATM    4  C4  UNL     1       1.923  -0.272   1.262  1.00  0.00     0.301 C 
HETATM    5  O1  UNL     1       2.287   0.195   2.360  1.00  0.00    -0.258 OA
HETATM    6  N1  UNL     1       1.160  -0.609   0.073  1.00  0.00    -0.304 N 
HETATM    7  C5  UNL     1       1.423  -1.420  -1.108  1.00  0.00     0.156 C 
HETATM    8  C10 UNL     1      -0.210  -0.074  -0.121  1.00  0.00     0.192 A 
HETATM    9  C6  UNL     1       1.401  -0.562  -2.357  1.00  0.00     0.190 C 
HETATM   10  O2  UNL     1       1.062   0.765  -1.986  1.00  0.00    -0.358 OA
HETATM   11  C7  UNL     1      -0.237   0.624  -1.432  1.00  0.00     0.299 A 
HETATM   12  N2  UNL     1      -1.020  -0.039  -2.438  1.00  0.00    -0.246 NA
HETATM   13  C8  UNL     1      -1.689  -1.098  -2.372  1.00  0.00     0.229 A 
HETATM   14  N3  UNL     1      -1.745  -1.847  -1.136  1.00  0.00    -0.254 NA
HETATM   15  C9  UNL     1      -1.051  -1.327  -0.151  1.00  0.00     0.149 A 
BRANCH   8  16
HETATM   16  N4  UNL     1      -0.638   0.701   1.004  1.00  0.00    -0.355 N 
HETATM   17  H11 UNL     1       0.104   0.764   1.767  1.00  0.00     0.162 HD
BRANCH  16  18
HETATM   18  C11 UNL     1      -1.861   1.382   1.262  1.00  0.00     0.030 A 
HETATM   19  C12 UNL     1      -2.901   1.370   0.345  1.00  0.00     0.029 A 
HETATM   20  C13 UNL     1      -4.091   2.051   0.632  1.00  0.00     0.002 A 
HETATM   21  C14 UNL     1      -4.161   2.707   1.836  1.00  0.00     0.000 A 
HETATM   22  C15 UNL     1      -3.162   2.757   2.793  1.00  0.00     0.002 A 
HETATM   23  C16 UNL     1      -2.018   2.065   2.443  1.00  0.00     0.029 A 
ENDBRANCH  16  18
ENDBRANCH   8  16
ENDBRANCH   3   4
TORSDOF 3
