REMARK  5 active torsions:
REMARK  status: ('A' for Active; 'I' for Inactive)
REMARK    1  A    between atoms: C2_2  and  C3_4 
REMARK    2  A    between atoms: C3_4  and  C4_5 
REMARK    3  A    between atoms: N1_6  and  C5_7 
REMARK    4  A    between atoms: C10_14  and  N4_15 
REMARK       I    between atoms: N4_15  and  C11_16 
REMARK    5  A    between atoms: C11_16  and  C12_18 
ROOT
HETATM    1  C12 UNL     1      -4.507   2.037   0.963  1.00  0.00    -0.006 C 
HETATM    2  C13 UNL     1      -5.400   2.870   1.033  1.00  0.00    -0.101 C 
HETATM    3  C14 UNL     1      -6.477   3.877   1.092  1.00  0.00     0.112 C 
ENDROOT
BRANCH   1   4
HETATM    4  C11 UNL     1      -3.435   1.069   0.889  1.00  0.00     0.300 C 
HETATM    5  N4  UNL     1      -2.963   0.560  -0.370  1.00  0.00    -0.316 N 
HETATM    6  H9  UNL     1      -3.435   0.933  -1.244  1.00  0.00     0.170 HD
HETATM    7  O1  UNL     1      -2.983   0.737   2.015  1.00  0.00    -0.258 OA
BRANCH   5   8
HETATM    8  C10 UNL     1      -1.910  -0.380  -0.182  1.00  0.00     0.036 A 
HETATM    9  C9  UNL     1      -2.347  -1.707  -0.061  1.00  0.00     0.032 A 
HETATM   10  C8  UNL     1      -1.447  -2.735   0.129  1.00  0.00     0.035 A 
HETATM   11  C7  UNL     1      -0.102  -2.408   0.194  1.00  0.00     0.072 A 
HETATM   12  N3  UNL     1       0.795  -3.387   0.376  1.00  0.00    -0.241 NA
HETATM   13  C16 UNL     1       0.386  -1.121   0.081  1.00  0.00     0.043 A 
HETATM   14  C6  UNL     1       2.110  -3.091   0.443  1.00  0.00     0.236 A 
HETATM   15  N2  UNL     1       2.574  -1.839   0.334  1.00  0.00    -0.222 NA
HETATM   16  C5  UNL     1       1.733  -0.811   0.149  1.00  0.00     0.162 A 
HETATM   17  C15 UNL     1      -0.538  -0.124  -0.107  1.00  0.00     0.047 A 
BRANCH  16  18
HETATM   18  N1  UNL     1       2.074   0.558   0.015  1.00  0.00    -0.245 NA
HETATM   19  C4  UNL     1       3.283   0.981   0.138  1.00  0.00     0.093 C 
BRANCH  19  20
HETATM   20  C3  UNL     1       4.580   0.366   0.413  1.00  0.00     0.063 C 
BRANCH  20  21
HETATM   21  C2  UNL     1       5.286  -0.137  -0.796  1.00  0.00     0.010 C 
HETATM   22  C1  UNL     1       5.605  -1.449  -0.882  1.00  0.00     0.069 C 
HETATM   23 BR1  UNL     1       5.438   1.468  -1.809  1.00  0.00    -0.090 Br
ENDBRANCH  20  21
ENDBRANCH  19  20
ENDBRANCH  16  18
ENDBRANCH   5   8
ENDBRANCH   1   4
TORSDOF 5
