REMARK  4 active torsions:
REMARK  status: ('A' for Active; 'I' for Inactive)
REMARK    1  A    between atoms: N1_1  and  C1_2 
REMARK    2  A    between atoms: C1_2  and  C2_3 
REMARK    3  A    between atoms: C5_6  and  C6_7 
REMARK    4  A    between atoms: C7_8  and  C8_9 
ROOT
HETATM    1  C2  UNL     1      -2.553   2.305  -0.034  1.00  0.00    -0.035 C 
HETATM    2  C3  UNL     1      -1.204   2.140   0.008  1.00  0.00     0.007 C 
HETATM    3  C4  UNL     1      -0.370   0.949  -0.070  1.00  0.00     0.021 C 
HETATM    4  C5  UNL     1       0.001  -0.290  -0.177  1.00  0.00     0.017 C 
HETATM    5  C12 UNL     1      -0.676  -1.572  -0.412  1.00  0.00     0.016 C 
HETATM    6  C13 UNL     1      -1.595  -2.521  -0.640  1.00  0.00    -0.024 C 
HETATM    7  C14 UNL     1      -3.084  -2.277  -0.815  1.00  0.00     0.043 C 
HETATM    8  C15 UNL     1      -3.245  -0.770  -0.743  1.00  0.00     0.009 A 
HETATM    9  C16 UNL     1      -3.336  -0.253  -1.995  1.00  0.00    -0.017 A 
HETATM   10  C17 UNL     1      -3.184   1.008  -1.495  1.00  0.00    -0.010 A 
HETATM   11  C18 UNL     1      -3.055   0.908  -0.159  1.00  0.00     0.040 A 
HETATM   12  C19 UNL     1      -2.940   0.658   1.165  1.00  0.00     0.013 A 
HETATM   13 CL1  UNL     1      -2.724   1.438   2.685  1.00  0.00    -0.092 Cl
HETATM   14  C20 UNL     1      -3.094  -0.552   0.577  1.00  0.00     0.063 A 
ENDROOT
BRANCH   4  15
HETATM   15  C6  UNL     1       1.478  -0.426  -0.106  1.00  0.00    -0.064 C 
HETATM   16  C7  UNL     1       2.680  -0.535  -0.069  1.00  0.00    -0.057 C 
BRANCH  16  17
HETATM   17  C8  UNL     1       4.117  -0.664  -0.050  1.00  0.00     0.373 C 
HETATM   18  N2  UNL     1       4.560  -1.955  -0.579  1.00  0.00     0.129 N 
HETATM   19  C9  UNL     1       6.011  -1.930  -0.553  1.00  0.00     0.440 C 
HETATM   20  H8  UNL     1       4.265  -2.063  -1.555  1.00  0.00     0.320 HD
HETATM   21  O1  UNL     1       6.535  -1.792   0.723  1.00  0.00    -0.355 OA
HETATM   22  C10 UNL     1       6.188  -0.575   1.299  1.00  0.00     0.251 C 
HETATM   23  C11 UNL     1       4.682  -0.553   1.325  1.00  0.00     0.195 C 
HETATM   24  O2  UNL     1       3.956  -0.457   2.321  1.00  0.00    -0.292 OA
ENDBRANCH  16  17
ENDBRANCH   4  15
BRANCH   1  25
HETATM   25  C1  UNL     1      -3.556   3.359   0.023  1.00  0.00     0.302 C 
BRANCH  25  26
HETATM   26  N1  UNL     1      -4.434   3.126   1.148  1.00  0.00     0.082 N 
HETATM   27  H1  UNL     1      -5.250   2.597   0.810  1.00  0.00     0.313 HD
HETATM   28  H2  UNL     1      -4.726   4.062   1.508  1.00  0.00     0.313 HD
ENDBRANCH  25  26
ENDBRANCH   1  25
TORSDOF 4
