REMARK  9 active torsions:
REMARK  status: ('A' for Active; 'I' for Inactive)
REMARK    1  A    between atoms: C2_2  and  C3_3 
REMARK    2  A    between atoms: C3_3  and  O1_4 
REMARK    3  A    between atoms: O1_4  and  C4_5 
REMARK    4  A    between atoms: C4_5  and  C5_6 
REMARK    5  A    between atoms: C5_6  and  C6_7 
REMARK    6  A    between atoms: C7_8  and  C8_9 
REMARK    7  A    between atoms: C8_9  and  N1_11 
REMARK    8  A    between atoms: N1_11  and  C10_12 
REMARK    9  A    between atoms: C16_18  and  N2_19 
ROOT
HETATM    1  C10 UNL     1       1.758  -1.593  -0.054  1.00  0.00     0.036 A 
HETATM    2  C11 UNL     1       1.062  -2.764   0.365  1.00  0.00     0.011 A 
HETATM    3  C12 UNL     1       1.891  -3.395   1.400  1.00  0.00     0.054 A 
HETATM    4  C13 UNL     1       3.213  -3.343   2.260  1.00  0.00     0.035 A 
HETATM    5  C14 UNL     1       3.211  -2.421   1.555  1.00  0.00     0.166 A 
HETATM    6  C15 UNL     1       2.976  -1.375   0.594  1.00  0.00     0.016 A 
HETATM    7  C16 UNL     1       4.219  -0.625   0.628  1.00  0.00     0.068 C 
HETATM    8  C22 UNL     1       4.934  -1.745   1.029  1.00  0.00     0.063 C 
HETATM    9  N3  UNL     1       4.336  -2.474   1.823  1.00  0.00    -0.262 NA
ENDROOT
BRANCH   1  10
HETATM   10  N1  UNL     1       1.654  -0.525  -0.940  1.00  0.00    -0.375 N 
HETATM   11  H16 UNL     1       2.051   0.307  -1.324  1.00  0.00     0.161 HD
BRANCH  10  12
HETATM   12  C8  UNL     1       0.424  -0.648  -1.664  1.00  0.00     0.157 C 
HETATM   13  C9  UNL     1       0.534  -1.908  -2.524  1.00  0.00     0.046 C 
BRANCH  12  14
HETATM   14  C7  UNL     1      -0.748  -0.675  -0.784  1.00  0.00    -0.082 C 
HETATM   15  C6  UNL     1      -1.726  -0.684  -0.067  1.00  0.00    -0.102 C 
BRANCH  15  16
HETATM   16  C5  UNL     1      -2.930  -0.708   0.787  1.00  0.00     0.120 C 
BRANCH  16  17
HETATM   17  C4  UNL     1      -4.186  -0.540  -0.038  1.00  0.00     0.179 C 
BRANCH  17  18
HETATM   18  O1  UNL     1      -4.229   0.651  -0.748  1.00  0.00    -0.390 OA
BRANCH  18  19
HETATM   19  C3  UNL     1      -4.177   1.779   0.033  1.00  0.00     0.167 C 
BRANCH  19  20
HETATM   20  C2  UNL     1      -5.324   1.861   1.018  1.00  0.00     0.022 C 
HETATM   21  C1  UNL     1      -6.615   1.876   0.239  1.00  0.00     0.007 C 
ENDBRANCH  19  20
ENDBRANCH  18  19
ENDBRANCH  17  18
ENDBRANCH  16  17
ENDBRANCH  15  16
ENDBRANCH  12  14
ENDBRANCH  10  12
ENDBRANCH   1  10
BRANCH   7  22
HETATM   22  N2  UNL     1       3.844   0.712   0.222  1.00  0.00    -0.349 N 
HETATM   23  C17 UNL     1       2.931   1.524   0.936  1.00  0.00     0.118 A 
HETATM   24  C18 UNL     1       2.873   2.703   0.363  1.00  0.00     0.087 A 
HETATM   25 CL1  UNL     1       1.731   3.725   1.251  1.00  0.00    -0.080 Cl
HETATM   26  C19 UNL     1       3.573   3.205  -0.806  1.00  0.00     0.137 A 
HETATM   27  F1  UNL     1       3.336   4.473  -1.199  1.00  0.00    -0.205 F 
HETATM   28  C20 UNL     1       4.409   2.392  -1.428  1.00  0.00     0.037 A 
HETATM   29  C21 UNL     1       4.657   0.998  -0.979  1.00  0.00     0.159 A 
ENDBRANCH   7  22
TORSDOF 9
