REMARK  3 active torsions:
REMARK  status: ('A' for Active; 'I' for Inactive)
REMARK    1  A    between atoms: C2_2  and  O1_3 
REMARK    2  A    between atoms: O1_3  and  C3_4 
REMARK    3  A    between atoms: C12_15  and  C13_16 
REMARK       I    between atoms: C13_16  and  N3_17 
ROOT
HETATM    1  C3  UNL     1       2.463   0.741   0.089  1.00  0.00     0.057 C 
HETATM    2  C4  UNL     1       1.491  -0.203   0.120  1.00  0.00    -0.011 C 
HETATM    3  C5  UNL     1       0.970   0.028   1.516  1.00  0.00     0.158 C 
HETATM    4  N1  UNL     1       0.465   1.410   1.609  1.00  0.00    -0.389 N 
HETATM    5  C6  UNL     1       0.578   2.122   0.383  1.00  0.00     0.007 C 
HETATM    6  C7  UNL     1      -0.162   2.593  -0.573  1.00  0.00    -0.000 C 
HETATM    7  C8  UNL     1      -1.632   2.525  -0.734  1.00  0.00     0.059 C 
HETATM    8  C9  UNL     1      -2.267   1.817   0.406  1.00  0.00     0.273 C 
HETATM    9  N2  UNL     1      -3.624   1.443   0.200  1.00  0.00     0.084 N 
HETATM   10  C10 UNL     1      -3.868   0.430  -0.763  1.00  0.00     0.274 C 
HETATM   11  C11 UNL     1      -3.409  -0.953  -0.477  1.00  0.00     0.073 C 
HETATM   12  C12 UNL     1      -1.970  -1.200  -0.501  1.00  0.00     0.003 C 
HETATM   13  C14 UNL     1      -0.663  -1.195  -0.582  1.00  0.00     0.010 C 
HETATM   14  C15 UNL     1       0.798  -1.290  -0.646  1.00  0.00     0.138 C 
HETATM   15 CL1  UNL     1       1.458  -2.831  -0.090  1.00  0.00    -0.116 Cl
HETATM   16  C16 UNL     1       2.069   2.210   0.181  1.00  0.00     0.121 C 
HETATM   17  H8  UNL     1       0.105   1.654   2.548  1.00  0.00     0.159 HD
HETATM   18  H14 UNL     1      -3.997   1.079   1.122  1.00  0.00     0.315 HD
ENDROOT
BRANCH  12  19
HETATM   19  C13 UNL     1      -1.770  -2.631  -0.153  1.00  0.00     0.224 C 
HETATM   20  N3  UNL     1      -2.790  -3.618   0.160  1.00  0.00    -0.269 NA
HETATM   21  H19 UNL     1      -3.629  -4.205  -0.112  1.00  0.00     0.127 HD
HETATM   22  H20 UNL     1      -3.620  -4.203  -0.100  1.00  0.00     0.127 HD
HETATM   23  O2  UNL     1      -1.151  -3.688   0.076  1.00  0.00    -0.275 OA
ENDBRANCH  12  19
BRANCH   1  24
HETATM   24  O1  UNL     1       3.407  -0.263  -0.023  1.00  0.00    -0.355 OA
BRANCH  24  25
HETATM   25  C2  UNL     1       4.802  -0.015   0.003  1.00  0.00     0.171 C 
HETATM   26  C1  UNL     1       5.494  -1.369  -0.096  1.00  0.00     0.034 C 
ENDBRANCH  24  25
ENDBRANCH   1  24
TORSDOF 3
