REMARK  0 active torsions:
REMARK  status: ('A' for Active; 'I' for Inactive)
ROOT
HETATM    1  F1  UNL     1       1.032   2.407   1.828  1.00  0.00    -0.210 F 
HETATM    2  C1  UNL     1       1.481   1.277   1.143  1.00  0.00     0.108 C 
HETATM    3  C2  UNL     1       2.747   0.907   1.473  1.00  0.00     0.040 C 
HETATM    4  C3  UNL     1       3.936   0.093   1.408  1.00  0.00     0.019 C 
HETATM    5  C4  UNL     1       4.552  -0.951   0.874  1.00  0.00     0.085 C 
HETATM    6  N1  UNL     1       4.143  -1.961  -0.138  1.00  0.00    -0.374 N 
HETATM    7  C5  UNL     1       2.880  -1.693  -0.531  1.00  0.00     0.230 C 
HETATM    8  C6  UNL     1       1.667  -2.212  -1.057  1.00  0.00     0.030 C 
HETATM    9  C7  UNL     1       0.738  -1.351  -0.490  1.00  0.00    -0.031 C 
HETATM   10  C8  UNL     1       1.257  -0.039  -0.902  1.00  0.00    -0.003 C 
HETATM   11  C9  UNL     1       2.063   0.067  -1.930  1.00  0.00     0.091 C 
HETATM   12  N2  UNL     1       3.095  -0.494  -1.354  1.00  0.00    -0.257 NA
HETATM   13  C10 UNL     1       0.627   0.732   0.210  1.00  0.00     0.065 C 
HETATM   14  C11 UNL     1      -0.325   1.784  -0.376  1.00  0.00     0.070 C 
HETATM   15  C12 UNL     1      -1.830   1.204  -0.555  1.00  0.00     0.110 A 
HETATM   16  C13 UNL     1      -2.536   0.724  -2.000  1.00  0.00     0.123 A 
HETATM   17  C14 UNL     1      -1.765   0.295  -1.341  1.00  0.00    -0.001 A 
HETATM   18  C15 UNL     1      -1.157  -0.045  -0.797  1.00  0.00    -0.016 C 
HETATM   19  C16 UNL     1      -0.203  -0.567   0.093  1.00  0.00     0.061 C 
HETATM   20  C17 UNL     1      -1.163  -0.851   1.244  1.00  0.00     0.164 C 
HETATM   21  C18 UNL     1      -1.603   0.482   1.864  1.00  0.00     0.203 C 
HETATM   22  O1  UNL     1      -2.212   1.294   0.882  1.00  0.00    -0.369 OA
HETATM   23  O2  UNL     1      -2.332  -1.310   0.582  1.00  0.00    -0.381 OA
HETATM   24  C19 UNL     1      -3.423  -0.614   0.364  1.00  0.00     0.187 C 
HETATM   25  C20 UNL     1      -4.032   0.271  -0.618  1.00  0.00     0.141 C 
HETATM   26  N3  UNL     1      -3.476   1.493  -1.195  1.00  0.00    -0.402 N 
HETATM   27  H4  UNL     1       4.641  -2.756  -0.540  1.00  0.00     0.161 HD
HETATM   28  H16 UNL     1      -3.855   2.472  -0.926  1.00  0.00     0.154 HD
ENDROOT
TORSDOF 0
