REMARK  10 active torsions:
REMARK  status: ('A' for Active; 'I' for Inactive)
REMARK    1  A    between atoms: C2_2  and  N1_3 
REMARK    2  A    between atoms: N1_3  and  C3_4 
REMARK    3  A    between atoms: N1_3  and  C5_6 
REMARK    4  A    between atoms: C5_6  and  C6_7 
REMARK    5  A    between atoms: C7_8  and  C8_9 
REMARK    6  A    between atoms: C8_9  and  S1_11 
REMARK    7  A    between atoms: S1_11  and  C9_12 
REMARK    8  A    between atoms: S2_15  and  N3_19 
REMARK    9  A    between atoms: N3_19  and  C14_20 
REMARK   10  A    between atoms: N3_19  and  C15_21 
ROOT
HETATM    1  C9  UNL     1       1.632  -0.357  -1.375  1.00  0.00     0.092 C 
HETATM    2  C10 UNL     1       0.566   0.596  -1.083  1.00  0.00    -0.006 C 
HETATM    3  C11 UNL     1       0.675   1.795  -1.507  1.00  0.00     0.015 C 
HETATM    4  S2  UNL     1       3.135   1.948  -2.901  1.00  0.00    -0.227 SA
HETATM    5  C12 UNL     1       4.099   2.031  -3.456  1.00  0.00     0.072 A 
HETATM    6  N2  UNL     1       5.118   2.138  -4.058  1.00  0.00    -0.297 NA
HETATM    7  C13 UNL     1       5.254   0.970  -3.426  1.00  0.00     0.109 A 
HETATM    8  N3  UNL     1       4.093   0.832  -2.739  1.00  0.00     0.000 N 
HETATM    9  C14 UNL     1       2.960   1.929  -2.800  1.00  0.00     0.030 A 
HETATM   10  C15 UNL     1       2.789   0.332  -2.069  1.00  0.00     0.061 A 
HETATM   11  H16 UNL     1       1.887   1.871  -2.196  1.00  0.00     0.109 HD
HETATM   12  H17 UNL     1       4.824   3.060  -4.447  1.00  0.00     0.123 HD
ENDROOT
BRANCH   1  13
HETATM   13  S1  UNL     1       0.897  -1.491  -2.624  1.00  0.00    -0.069 SA
BRANCH  13  14
HETATM   14  C8  UNL     1      -0.459  -2.394  -1.976  1.00  0.00     0.263 C 
HETATM   15  O1  UNL     1      -0.979  -3.079  -2.920  1.00  0.00    -0.271 OA
BRANCH  14  16
HETATM   16  C7  UNL     1      -0.971  -2.423  -0.626  1.00  0.00    -0.015 C 
HETATM   17  C6  UNL     1      -1.400  -2.453   0.494  1.00  0.00    -0.078 C 
BRANCH  17  18
HETATM   18  C5  UNL     1      -1.916  -2.473   1.890  1.00  0.00     0.212 C 
BRANCH  18  19
HETATM   19  N1  UNL     1      -2.317  -1.146   2.186  1.00  0.00    -0.403 N 
BRANCH  19  20
HETATM   20  C2  UNL     1      -1.300  -0.179   2.262  1.00  0.00     0.113 C 
HETATM   21  C1  UNL     1      -1.286   0.748   3.428  1.00  0.00     0.026 C 
ENDBRANCH  19  20
BRANCH  19  22
HETATM   22  C3  UNL     1      -3.645  -0.758   1.959  1.00  0.00     0.113 C 
HETATM   23  C4  UNL     1      -4.331  -0.008   3.042  1.00  0.00     0.026 C 
ENDBRANCH  19  22
ENDBRANCH  18  19
ENDBRANCH  17  18
ENDBRANCH  14  16
ENDBRANCH  13  14
ENDBRANCH   1  13
TORSDOF 10
