REMARK  7 active torsions:
REMARK  status: ('A' for Active; 'I' for Inactive)
REMARK    1  A    between atoms: O1_1  and  C1_2 
REMARK    2  A    between atoms: C1_2  and  C2_3 
REMARK    3  A    between atoms: C1_2  and  N5_24 
REMARK    4  A    between atoms: C2_3  and  N1_4 
REMARK    5  A    between atoms: N1_4  and  C3_5 
REMARK    6  A    between atoms: C8_12  and  N4_13 
REMARK    7  A    between atoms: N4_13  and  C9_14 
ROOT
HETATM    1  C3  UNL     1      -0.398  -0.199   0.883  1.00  0.00     0.029 A 
HETATM    2  C4  UNL     1      -0.835   1.071   1.204  1.00  0.00     0.031 A 
HETATM    3  C5  UNL     1      -0.062   2.211   1.207  1.00  0.00     0.035 A 
HETATM    4  C6  UNL     1       1.249   2.025   0.854  1.00  0.00     0.072 A 
HETATM    5  N2  UNL     1       2.019   3.141   0.853  1.00  0.00    -0.241 NA
HETATM    6  C7  UNL     1       3.303   3.087   0.529  1.00  0.00     0.236 A 
HETATM    7  N3  UNL     1       3.759   1.879   0.214  1.00  0.00    -0.224 NA
HETATM    8  C8  UNL     1       3.108   0.732   0.180  1.00  0.00     0.142 A 
HETATM    9  C15 UNL     1       1.780   0.800   0.517  1.00  0.00     0.041 A 
HETATM   10  C16 UNL     1       0.931  -0.257   0.547  1.00  0.00     0.046 A 
ENDROOT
BRANCH   1  11
HETATM   11  N1  UNL     1      -1.205  -1.345   0.871  1.00  0.00    -0.386 N 
HETATM   12  H5  UNL     1      -0.660  -2.225   0.630  1.00  0.00     0.159 HD
BRANCH  11  13
HETATM   13  C2  UNL     1      -2.552  -1.783   1.069  1.00  0.00     0.184 C 
BRANCH  13  14
HETATM   14  C1  UNL     1      -3.540  -1.365   0.024  1.00  0.00     0.374 C 
BRANCH  14  15
HETATM   15  O1  UNL     1      -4.767  -1.978   0.375  1.00  0.00    -0.366 OA
HETATM   16  H1  UNL     1      -4.570  -2.887   0.751  1.00  0.00     0.212 HD
ENDBRANCH  14  15
BRANCH  14  17
HETATM   17  N5  UNL     1      -3.755   0.070  -0.081  1.00  0.00     0.122 N 
HETATM   18  C17 UNL     1      -4.503   0.246  -1.331  1.00  0.00     0.302 C 
HETATM   19  C18 UNL     1      -5.982   0.284  -1.094  1.00  0.00     0.198 C 
HETATM   20  O2  UNL     1      -6.299   1.511  -0.515  1.00  0.00    -0.388 OA
HETATM   21  C19 UNL     1      -5.443   1.756   0.549  1.00  0.00     0.198 C 
HETATM   22  C20 UNL     1      -4.682   0.514   0.959  1.00  0.00     0.302 C 
ENDBRANCH  14  17
ENDBRANCH  13  14
ENDBRANCH  11  13
ENDBRANCH   1  11
BRANCH   8  23
HETATM   23  N4  UNL     1       3.694  -0.507  -0.173  1.00  0.00    -0.340 N 
HETATM   24  H9  UNL     1       3.152  -1.370  -0.186  1.00  0.00     0.167 HD
BRANCH  23  25
HETATM   25  C9  UNL     1       5.030  -0.793  -0.548  1.00  0.00     0.035 A 
HETATM   26  C10 UNL     1       5.505  -2.063  -0.883  1.00  0.00     0.032 A 
HETATM   27  C11 UNL     1       6.798  -2.331  -1.244  1.00  0.00     0.046 A 
HETATM   28  C12 UNL     1       7.722  -1.318  -1.294  1.00  0.00     0.138 A 
HETATM   29  F1  UNL     1       8.969  -1.680  -1.661  1.00  0.00    -0.204 F 
HETATM   30  C13 UNL     1       7.312  -0.043  -0.975  1.00  0.00     0.074 A 
HETATM   31 CL1  UNL     1       8.549   1.192  -1.063  1.00  0.00    -0.081 Cl
HETATM   32  C14 UNL     1       6.010   0.168  -0.621  1.00  0.00     0.056 A 
ENDBRANCH  23  25
ENDBRANCH   8  23
TORSDOF 7
