REMARK  7 active torsions:
REMARK  status: ('A' for Active; 'I' for Inactive)
REMARK    1  A    between atoms: C2_2  and  C3_3 
REMARK    2  A    between atoms: C2_2  and  C9_11 
REMARK    3  A    between atoms: C4_4  and  C5_5 
REMARK    4  A    between atoms: C5_5  and  N1_6 
REMARK    5  A    between atoms: C12_14  and  N2_15 
REMARK    6  A    between atoms: N2_15  and  C13_16 
REMARK    7  A    between atoms: C22_29  and  O2_30 
ROOT
HETATM    1  C9  UNL     1      -0.093   0.971  -0.456  1.00  0.00    -0.009 A 
HETATM    2  C10 UNL     1       1.274   1.114  -0.204  1.00  0.00     0.029 A 
HETATM    3  C11 UNL     1       2.237   0.710  -1.135  1.00  0.00     0.039 A 
HETATM    4  C12 UNL     1       3.592   0.826  -0.909  1.00  0.00     0.142 A 
HETATM    5  N3  UNL     1       4.371   0.383  -1.905  1.00  0.00    -0.224 NA
HETATM    6  C19 UNL     1       3.914  -0.143  -3.053  1.00  0.00     0.236 A 
HETATM    7  N4  UNL     1       2.582  -0.251  -3.251  1.00  0.00    -0.241 NA
HETATM    8  C20 UNL     1       1.714   0.174  -2.292  1.00  0.00     0.074 A 
HETATM    9  C21 UNL     1       0.379   0.010  -2.591  1.00  0.00     0.069 A 
HETATM   10  C22 UNL     1      -0.525   0.422  -1.640  1.00  0.00     0.075 A 
ENDROOT
BRANCH   1  11
HETATM   11  C2  UNL     1      -1.169   1.394   0.471  1.00  0.00     0.097 C 
HETATM   12  C1  UNL     1      -1.823   2.678  -0.076  1.00  0.00     0.029 C 
BRANCH  11  13
HETATM   13  C3  UNL     1      -2.164   0.349   0.640  1.00  0.00    -0.096 C 
HETATM   14  C4  UNL     1      -3.019  -0.528   0.788  1.00  0.00    -0.075 C 
BRANCH  14  15
HETATM   15  C5  UNL     1      -4.044  -1.566   0.975  1.00  0.00     0.368 C 
BRANCH  15  16
HETATM   16  N1  UNL     1      -5.302  -1.213   0.351  1.00  0.00     0.124 N 
HETATM   17  C6  UNL     1      -6.333  -2.195   0.594  1.00  0.00     0.302 C 
HETATM   18  C7  UNL     1      -7.556  -1.360   0.743  1.00  0.00     0.200 C 
HETATM   19  O1  UNL     1      -7.192  -0.018   0.778  1.00  0.00    -0.361 OA
HETATM   20  C8  UNL     1      -5.809   0.051   0.808  1.00  0.00     0.441 C 
ENDBRANCH  15  16
ENDBRANCH  14  15
ENDBRANCH  11  13
ENDBRANCH   1  11
BRANCH  10  21
HETATM   21  O2  UNL     1      -1.875   0.252  -1.942  1.00  0.00    -0.360 OA
HETATM   22  H20 UNL     1      -2.171  -0.695  -2.240  1.00  0.00     0.217 HD
ENDBRANCH  10  21
BRANCH   4  23
HETATM   23  N2  UNL     1       4.035   1.369   0.336  1.00  0.00    -0.340 N 
HETATM   24  H14 UNL     1       3.755   2.188   0.875  1.00  0.00     0.167 HD
BRANCH  23  25
HETATM   25  C13 UNL     1       5.071   0.443   0.743  1.00  0.00     0.035 A 
HETATM   26  C14 UNL     1       6.240   0.383  -0.016  1.00  0.00     0.032 A 
HETATM   27  C15 UNL     1       7.283  -0.503   0.277  1.00  0.00     0.046 A 
HETATM   28  C16 UNL     1       7.148  -1.360   1.371  1.00  0.00     0.138 A 
HETATM   29  F1  UNL     1       8.161  -2.213   1.639  1.00  0.00    -0.204 F 
HETATM   30  C17 UNL     1       5.967  -1.283   2.117  1.00  0.00     0.074 A 
HETATM   31 CL1  UNL     1       5.838  -2.377   3.468  1.00  0.00    -0.081 Cl
HETATM   32  C18 UNL     1       4.940  -0.415   1.836  1.00  0.00     0.056 A 
ENDBRANCH  23  25
ENDBRANCH   4  23
TORSDOF 7
