REMARK  9 active torsions:
REMARK  status: ('A' for Active; 'I' for Inactive)
REMARK    1  A    between atoms: C2_2  and  N1_3 
REMARK    2  A    between atoms: N1_3  and  C3_4 
REMARK    3  A    between atoms: N1_3  and  C5_6 
REMARK    4  A    between atoms: C5_6  and  C6_7 
REMARK    5  A    between atoms: C6_7  and  C7_8 
REMARK    6  A    between atoms: C7_8  and  C8_9 
REMARK    7  A    between atoms: C8_9  and  C9_11 
REMARK    8  A    between atoms: C14_18  and  N4_19 
REMARK    9  A    between atoms: N4_19  and  C15_20 
ROOT
HETATM    1  C9  UNL     1       0.632  -1.370  -0.204  1.00  0.00     0.018 A 
HETATM    2  C10 UNL     1      -0.070  -2.468  -0.542  1.00  0.00     0.015 A 
HETATM    3  C11 UNL     1       0.709  -3.683  -0.440  1.00  0.00     0.029 A 
HETATM    4  C12 UNL     1       1.928  -3.376  -0.031  1.00  0.00     0.052 A 
HETATM    5  N2  UNL     1       3.109  -4.150   0.231  1.00  0.00    -0.245 NA
HETATM    6  C13 UNL     1       4.230  -3.451   0.172  1.00  0.00     0.235 C 
HETATM    7  N3  UNL     1       4.207  -2.063  -0.094  1.00  0.00    -0.228 NA
HETATM    8  C14 UNL     1       3.169  -1.321  -0.260  1.00  0.00     0.120 C 
HETATM    9  C21 UNL     1       1.921  -1.937   0.160  1.00  0.00     0.145 A 
ENDROOT
BRANCH   1  10
HETATM   10  C8  UNL     1      -0.040  -0.082  -0.268  1.00  0.00     0.232 C 
HETATM   11  O1  UNL     1       0.498   1.004   0.044  1.00  0.00    -0.278 OA
BRANCH  10  12
HETATM   12  C7  UNL     1      -1.397   0.079  -0.697  1.00  0.00    -0.022 C 
BRANCH  12  13
HETATM   13  C6  UNL     1      -2.568   0.211  -1.069  1.00  0.00    -0.079 C 
BRANCH  13  14
HETATM   14  C5  UNL     1      -3.940   0.375  -1.530  1.00  0.00     0.212 C 
BRANCH  14  15
HETATM   15  N1  UNL     1      -4.805   0.773  -0.518  1.00  0.00    -0.403 N 
BRANCH  15  16
HETATM   16  C2  UNL     1      -5.211  -0.046   0.533  1.00  0.00     0.113 C 
HETATM   17  C1  UNL     1      -4.342  -1.222   0.811  1.00  0.00     0.026 C 
ENDBRANCH  15  16
BRANCH  15  18
HETATM   18  C3  UNL     1      -5.627   1.920  -0.817  1.00  0.00     0.113 C 
HETATM   19  C4  UNL     1      -5.518   2.890   0.329  1.00  0.00     0.026 C 
ENDBRANCH  15  18
ENDBRANCH  14  15
ENDBRANCH  13  14
ENDBRANCH  12  13
ENDBRANCH  10  12
ENDBRANCH   1  10
BRANCH   8  20
HETATM   20  N4  UNL     1       3.384   0.035  -0.554  1.00  0.00    -0.343 N 
HETATM   21  H16 UNL     1       2.719   0.417  -1.270  1.00  0.00     0.167 HD
BRANCH  20  22
HETATM   22  C15 UNL     1       4.384   0.837   0.018  1.00  0.00     0.035 A 
HETATM   23  C16 UNL     1       5.276   0.476   0.976  1.00  0.00     0.032 A 
HETATM   24  C17 UNL     1       6.264   1.287   1.515  1.00  0.00     0.046 A 
HETATM   25  C18 UNL     1       6.339   2.574   1.028  1.00  0.00     0.138 A 
HETATM   26  F1  UNL     1       7.306   3.355   1.563  1.00  0.00    -0.204 F 
HETATM   27  C19 UNL     1       5.468   2.983   0.069  1.00  0.00     0.074 A 
HETATM   28 CL1  UNL     1       5.694   4.648  -0.456  1.00  0.00    -0.081 Cl
HETATM   29  C20 UNL     1       4.505   2.156  -0.441  1.00  0.00     0.056 A 
ENDBRANCH  20  22
ENDBRANCH   8  20
TORSDOF 9
