REMARK  6 active torsions:
REMARK  status: ('A' for Active; 'I' for Inactive)
REMARK    1  A    between atoms: N1_3  and  C3_4 
REMARK    2  A    between atoms: C3_4  and  C4_5 
REMARK    3  A    between atoms: C5_6  and  C6_7 
REMARK    4  A    between atoms: C6_7  and  N2_8 
REMARK    5  A    between atoms: C11_15  and  N5_16 
REMARK    6  A    between atoms: N5_16  and  C12_17 
ROOT
HETATM    1  N2  UNL     1       1.028  -0.452   0.175  1.00  0.00     0.103 N 
HETATM    2  C7  UNL     1       1.266  -1.829   0.527  1.00  0.00     0.303 C 
HETATM    3  C8  UNL     1       0.169  -2.488   1.255  1.00  0.00     0.031 C 
HETATM    4  C9  UNL     1      -1.108  -2.166   1.277  1.00  0.00     0.047 A 
HETATM    5  N3  UNL     1      -2.125  -2.844   2.002  1.00  0.00    -0.246 NA
HETATM    6  C10 UNL     1      -3.326  -2.324   1.927  1.00  0.00     0.235 A 
HETATM    7  N4  UNL     1      -3.615  -1.157   1.168  1.00  0.00    -0.228 NA
HETATM    8  C11 UNL     1      -2.675  -0.538   0.492  1.00  0.00     0.117 A 
HETATM    9  C18 UNL     1      -1.284  -0.957   0.410  1.00  0.00     0.135 A 
HETATM   10  C19 UNL     1      -0.239   0.067   0.656  1.00  0.00     0.292 C 
ENDROOT
BRANCH   8  11
HETATM   11  N5  UNL     1      -3.148   0.607  -0.199  1.00  0.00    -0.344 N 
HETATM   12  H13 UNL     1      -2.509   1.458  -0.228  1.00  0.00     0.167 HD
BRANCH  11  13
HETATM   13  C12 UNL     1      -4.389   0.745  -0.868  1.00  0.00     0.035 A 
HETATM   14  C13 UNL     1      -4.751   1.949  -1.475  1.00  0.00     0.032 A 
HETATM   15  C14 UNL     1      -5.943   2.123  -2.139  1.00  0.00     0.046 A 
HETATM   16  C15 UNL     1      -6.852   1.095  -2.236  1.00  0.00     0.138 A 
HETATM   17  F1  UNL     1      -8.006   1.328  -2.902  1.00  0.00    -0.204 F 
HETATM   18  C16 UNL     1      -6.541  -0.136  -1.646  1.00  0.00     0.074 A 
HETATM   19 CL1  UNL     1      -7.688  -1.442  -1.766  1.00  0.00    -0.081 Cl
HETATM   20  C17 UNL     1      -5.334  -0.243  -0.997  1.00  0.00     0.056 A 
ENDBRANCH  11  13
ENDBRANCH   8  11
BRANCH   1  21
HETATM   21  C6  UNL     1       2.051   0.351   0.819  1.00  0.00     0.366 C 
BRANCH  21  22
HETATM   22  C5  UNL     1       3.382   0.146   0.292  1.00  0.00    -0.074 C 
HETATM   23  C4  UNL     1       4.485  -0.031  -0.160  1.00  0.00    -0.083 C 
BRANCH  23  24
HETATM   24  C3  UNL     1       5.835  -0.266  -0.729  1.00  0.00     0.241 C 
BRANCH  24  25
HETATM   25  N1  UNL     1       6.830   0.232   0.201  1.00  0.00    -0.294 NA
HETATM   26  C2  UNL     1       6.942   1.502   0.375  1.00  0.00     0.080 C 
HETATM   27  C1  UNL     1       7.949   2.035   1.318  1.00  0.00     0.057 C 
ENDBRANCH  24  25
ENDBRANCH  23  24
ENDBRANCH  21  22
ENDBRANCH   1  21
TORSDOF 6
