REMARK  9 active torsions:
REMARK  status: ('A' for Active; 'I' for Inactive)
REMARK    1  A    between atoms: C2_2  and  N1_3 
REMARK    2  A    between atoms: N1_3  and  C4_5 
REMARK    3  A    between atoms: C4_5  and  S1_6 
REMARK    4  A    between atoms: S1_6  and  C5_7 
REMARK    5  A    between atoms: C6_8  and  C7_9 
REMARK       I    between atoms: C7_9  and  N2_11 
REMARK    6  A    between atoms: N2_11  and  C8_12 
REMARK    7  A    between atoms: C13_19  and  C14_20 
REMARK    8  A    between atoms: C14_20  and  N5_21 
REMARK    9  A    between atoms: N5_21  and  C15_22 
ROOT
HETATM    1  C8  UNL     1      -1.762  -1.543   0.508  1.00  0.00     0.062 C 
HETATM    2  C9  UNL     1      -1.911  -2.160   1.698  1.00  0.00     0.033 C 
HETATM    3  C10 UNL     1      -3.092  -2.639   2.454  1.00  0.00     0.022 C 
HETATM    4  C11 UNL     1      -4.218  -3.087   1.945  1.00  0.00     0.118 C 
HETATM    5  N3  UNL     1      -4.742  -3.288   0.646  1.00  0.00    -0.254 NA
HETATM    6  C12 UNL     1      -4.612  -2.769  -0.523  1.00  0.00     0.232 C 
HETATM    7  N4  UNL     1      -3.776  -1.683  -0.886  1.00  0.00    -0.242 NA
HETATM    8  C13 UNL     1      -2.657  -1.112  -0.562  1.00  0.00     0.080 C 
ENDROOT
BRANCH   1   9
HETATM    9  N2  UNL     1      -0.395  -1.292   0.231  1.00  0.00    -0.314 N 
HETATM   10  C7  UNL     1       0.769  -0.515   0.036  1.00  0.00     0.301 C 
HETATM   11  O1  UNL     1       0.497   0.698   0.192  1.00  0.00    -0.258 OA
HETATM   12  H11 UNL     1      -0.159  -2.327   0.082  1.00  0.00     0.170 HD
BRANCH  10  13
HETATM   13  C6  UNL     1       2.055  -1.050  -0.290  1.00  0.00     0.007 C 
HETATM   14  C5  UNL     1       3.132  -1.515  -0.571  1.00  0.00    -0.022 C 
BRANCH  14  15
HETATM   15  S1  UNL     1       4.699  -2.202  -1.011  1.00  0.00    -0.048 SA
BRANCH  15  16
HETATM   16  C4  UNL     1       5.916  -1.670   0.248  1.00  0.00     0.359 C 
BRANCH  16  17
HETATM   17  N1  UNL     1       6.043  -0.241   0.099  1.00  0.00     0.093 N 
HETATM   18  C3  UNL     1       6.874   0.322   1.140  1.00  0.00     0.310 C 
BRANCH  17  19
HETATM   19  C2  UNL     1       6.507   0.134  -1.223  1.00  0.00     0.268 C 
HETATM   20  C1  UNL     1       6.319   1.595  -1.489  1.00  0.00     0.037 C 
ENDBRANCH  17  19
ENDBRANCH  16  17
ENDBRANCH  15  16
ENDBRANCH  14  15
ENDBRANCH  10  13
ENDBRANCH   1   9
BRANCH   8  21
HETATM   21  C14 UNL     1      -2.300   0.059  -1.352  1.00  0.00     0.181 C 
BRANCH  21  22
HETATM   22  N5  UNL     1      -2.520   1.343  -0.777  1.00  0.00    -0.384 N 
HETATM   23  H18 UNL     1      -1.690   1.946  -0.581  1.00  0.00     0.160 HD
BRANCH  22  24
HETATM   24  C15 UNL     1      -3.681   2.065  -0.389  1.00  0.00     0.030 A 
HETATM   25  C16 UNL     1      -3.686   3.331   0.209  1.00  0.00     0.032 A 
HETATM   26  C17 UNL     1      -4.835   3.997   0.549  1.00  0.00     0.046 A 
HETATM   27  C18 UNL     1      -6.060   3.462   0.322  1.00  0.00     0.138 A 
HETATM   28  F1  UNL     1      -7.124   4.185   0.685  1.00  0.00    -0.204 F 
HETATM   29  C19 UNL     1      -6.136   2.212  -0.268  1.00  0.00     0.074 A 
HETATM   30 CL1  UNL     1      -7.728   1.563  -0.540  1.00  0.00    -0.081 Cl
HETATM   31  C20 UNL     1      -4.954   1.584  -0.590  1.00  0.00     0.056 A 
ENDBRANCH  22  24
ENDBRANCH  21  22
ENDBRANCH   8  21
TORSDOF 9
