REMARK  7 active torsions:
REMARK  status: ('A' for Active; 'I' for Inactive)
REMARK    1  A    between atoms: C2_2  and  N1_3 
REMARK    2  A    between atoms: N1_3  and  C4_5 
REMARK    3  A    between atoms: C4_5  and  C5_6 
REMARK    4  A    between atoms: C6_7  and  C7_8 
REMARK       I    between atoms: C7_8  and  N2_10 
REMARK    5  A    between atoms: N2_10  and  C8_11 
REMARK    6  A    between atoms: C13_18  and  N5_19 
REMARK    7  A    between atoms: N5_19  and  C14_20 
ROOT
HETATM    1  C8  UNL     1       0.002   1.312   0.223  1.00  0.00     0.036 A 
HETATM    2  C9  UNL     1       0.305   2.639   0.415  1.00  0.00     0.032 A 
HETATM    3  C10 UNL     1      -0.592   3.681   0.354  1.00  0.00     0.035 A 
HETATM    4  C11 UNL     1      -1.888   3.327   0.075  1.00  0.00     0.072 A 
HETATM    5  N3  UNL     1      -2.794   4.347   0.012  1.00  0.00    -0.241 NA
HETATM    6  C12 UNL     1      -4.083   4.074  -0.255  1.00  0.00     0.236 A 
HETATM    7  N4  UNL     1      -4.474   2.814  -0.457  1.00  0.00    -0.224 NA
HETATM    8  C13 UNL     1      -3.620   1.805  -0.402  1.00  0.00     0.142 A 
HETATM    9  C20 UNL     1      -2.291   2.026  -0.133  1.00  0.00     0.041 A 
HETATM   10  C21 UNL     1      -1.321   1.056  -0.051  1.00  0.00     0.047 A 
ENDROOT
BRANCH   1  11
HETATM   11  N2  UNL     1       0.887   0.226   0.282  1.00  0.00    -0.316 N 
HETATM   12  C7  UNL     1       2.277   0.229   0.547  1.00  0.00     0.301 C 
HETATM   13  O1  UNL     1       2.846   1.322   0.763  1.00  0.00    -0.258 OA
HETATM   14  H11 UNL     1       0.559  -0.744   0.123  1.00  0.00     0.170 HD
BRANCH  12  15
HETATM   15  C6  UNL     1       3.115  -0.934   0.591  1.00  0.00    -0.004 C 
HETATM   16  C5  UNL     1       3.818  -1.913   0.608  1.00  0.00    -0.066 C 
BRANCH  16  17
HETATM   17  C4  UNL     1       4.682  -3.121   0.603  1.00  0.00     0.365 C 
BRANCH  17  18
HETATM   18  N1  UNL     1       6.047  -2.722   0.257  1.00  0.00     0.094 N 
HETATM   19  C3  UNL     1       6.036  -1.955  -0.972  1.00  0.00     0.310 C 
BRANCH  18  20
HETATM   20  C2  UNL     1       6.607  -1.928   1.327  1.00  0.00     0.268 C 
HETATM   21  C1  UNL     1       8.075  -1.705   1.063  1.00  0.00     0.037 C 
ENDBRANCH  18  20
ENDBRANCH  17  18
ENDBRANCH  16  17
ENDBRANCH  12  15
ENDBRANCH   1  11
BRANCH   8  22
HETATM   22  N5  UNL     1      -4.062   0.494  -0.619  1.00  0.00    -0.340 N 
HETATM   23  H15 UNL     1      -3.438  -0.317  -0.550  1.00  0.00     0.167 HD
BRANCH  22  24
HETATM   24  C14 UNL     1      -5.348  -0.004  -0.957  1.00  0.00     0.035 A 
HETATM   25  C15 UNL     1      -5.748  -1.345  -0.907  1.00  0.00     0.032 A 
HETATM   26  C16 UNL     1      -6.990  -1.794  -1.246  1.00  0.00     0.046 A 
HETATM   27  C17 UNL     1      -7.952  -0.912  -1.672  1.00  0.00     0.138 A 
HETATM   28  F1  UNL     1      -9.155  -1.433  -1.989  1.00  0.00    -0.204 F 
HETATM   29  C18 UNL     1      -7.620   0.418  -1.742  1.00  0.00     0.074 A 
HETATM   30 CL1  UNL     1      -8.901   1.480  -2.294  1.00  0.00    -0.081 Cl
HETATM   31  C19 UNL     1      -6.363   0.824  -1.393  1.00  0.00     0.056 A 
ENDBRANCH  22  24
ENDBRANCH   8  22
TORSDOF 7
