REMARK  7 active torsions:
REMARK  status: ('A' for Active; 'I' for Inactive)
REMARK    1  A    between atoms: C2_2  and  N1_3 
REMARK    2  A    between atoms: N1_3  and  C3_4 
REMARK    3  A    between atoms: N1_3  and  C5_6 
REMARK    4  A    between atoms: C5_6  and  C6_7 
REMARK    5  A    between atoms: C7_8  and  C8_9 
REMARK    6  A    between atoms: C8_9  and  N2_10 
REMARK    7  A    between atoms: C21_27  and  N5_28 
ROOT
HETATM    1  N2  UNL     1      -0.267   0.858  -0.842  1.00  0.00    -0.369 N 
HETATM    2  C9  UNL     1      -1.055  -0.293  -1.076  1.00  0.00     0.148 C 
HETATM    3  C10 UNL     1      -2.427  -0.170  -0.505  1.00  0.00     0.004 C 
HETATM    4  C11 UNL     1      -3.122   0.906  -0.119  1.00  0.00    -0.002 C 
HETATM    5  C12 UNL     1      -4.441   0.638   0.389  1.00  0.00     0.076 C 
HETATM    6  C13 UNL     1      -5.301  -0.493   0.233  1.00  0.00    -0.005 A 
HETATM    7  C14 UNL     1      -5.331  -1.630  -0.520  1.00  0.00     0.017 A 
HETATM    8  C15 UNL     1      -6.184  -2.697  -0.490  1.00  0.00     0.045 A 
HETATM    9  C16 UNL     1      -7.177  -2.606   0.458  1.00  0.00     0.138 A 
HETATM   10  F1  UNL     1      -8.058  -3.633   0.540  1.00  0.00    -0.204 F 
HETATM   11  C17 UNL     1      -7.295  -1.527   1.300  1.00  0.00     0.073 A 
HETATM   12 CL1  UNL     1      -8.577  -1.497   2.467  1.00  0.00    -0.081 Cl
HETATM   13  C18 UNL     1      -6.366  -0.525   1.159  1.00  0.00     0.041 A 
HETATM   14  N3  UNL     1      -4.811   1.671   1.116  1.00  0.00    -0.241 NA
HETATM   15  C19 UNL     1      -4.003   2.812   1.259  1.00  0.00     0.228 C 
HETATM   16  N4  UNL     1      -2.841   3.072   0.716  1.00  0.00    -0.269 NA
HETATM   17  C20 UNL     1      -2.263   2.091  -0.193  1.00  0.00     0.196 C 
HETATM   18  C21 UNL     1      -0.825   1.833   0.021  1.00  0.00     0.345 C 
ENDROOT
BRANCH   1  19
HETATM   19  C8  UNL     1       0.850   1.135  -1.615  1.00  0.00     0.214 C 
BRANCH  19  20
HETATM   20  C7  UNL     1       1.946   0.197  -1.345  1.00  0.00    -0.085 C 
HETATM   21  C6  UNL     1       2.861  -0.561  -1.113  1.00  0.00    -0.086 C 
BRANCH  21  22
HETATM   22  C5  UNL     1       3.992  -1.471  -0.813  1.00  0.00     0.211 C 
BRANCH  22  23
HETATM   23  N1  UNL     1       4.905  -0.753   0.006  1.00  0.00    -0.403 N 
BRANCH  23  24
HETATM   24  C2  UNL     1       5.573   0.324  -0.648  1.00  0.00     0.113 C 
HETATM   25  C1  UNL     1       5.854   1.427   0.340  1.00  0.00     0.026 C 
ENDBRANCH  23  24
BRANCH  23  26
HETATM   26  C3  UNL     1       5.661  -1.482   0.959  1.00  0.00     0.113 C 
HETATM   27  C4  UNL     1       6.799  -2.293   0.352  1.00  0.00     0.026 C 
ENDBRANCH  23  26
ENDBRANCH  22  23
ENDBRANCH  21  22
ENDBRANCH  19  20
ENDBRANCH   1  19
BRANCH  18  28
HETATM   28  N5  UNL     1      -0.075   3.053  -0.061  1.00  0.00     0.103 N 
HETATM   29  H24 UNL     1      -0.117   3.653   0.781  1.00  0.00     0.315 HD
HETATM   30  H25 UNL     1      -0.359   3.638  -0.876  1.00  0.00     0.315 HD
ENDBRANCH  18  28
TORSDOF 7
