REMARK  10 active torsions:
REMARK  status: ('A' for Active; 'I' for Inactive)
REMARK    1  A    between atoms: C2_3  and  C3_4 
REMARK    2  A    between atoms: C5_8  and  N3_9 
REMARK    3  A    between atoms: N3_9  and  C6_10 
REMARK    4  A    between atoms: C12_18  and  C13_19 
REMARK    5  A    between atoms: C13_19  and  N4_20 
REMARK       I    between atoms: N4_20  and  C14_21 
REMARK    6  A    between atoms: C14_21  and  C15_23 
REMARK    7  A    between atoms: C16_24  and  C17_25 
REMARK    8  A    between atoms: C17_25  and  N5_26 
REMARK    9  A    between atoms: N5_26  and  C18_27 
REMARK   10  A    between atoms: N5_26  and  C20_29 
ROOT
HETATM    1  B1  UNL     1      -0.444   6.099  -1.779  1.00  0.00     0.196 B 
HETATM    2  C1  UNL     1      -0.023   4.378  -1.033  1.00  0.00    -0.234 C 
HETATM    3  C2  UNL     1       0.322   3.078  -0.464  1.00  0.00     0.066 C 
ENDROOT
BRANCH   3   4
HETATM    4  C3  UNL     1       1.633   3.028  -0.351  1.00  0.00     0.079 A 
HETATM    5  N1  UNL     1       2.322   4.114  -0.757  1.00  0.00    -0.241 NA
HETATM    6  C4  UNL     1       3.686   4.104  -0.661  1.00  0.00     0.236 A 
HETATM    7  N2  UNL     1       4.338   3.049  -0.176  1.00  0.00    -0.223 NA
HETATM    8  C5  UNL     1       3.720   1.937   0.247  1.00  0.00     0.143 A 
HETATM    9  C12 UNL     1       2.321   1.947   0.148  1.00  0.00     0.055 A 
BRANCH   8  10
HETATM   10  N3  UNL     1       4.495   0.878   0.745  1.00  0.00    -0.340 N 
HETATM   11  H3  UNL     1       4.515   1.175   1.755  1.00  0.00     0.167 HD
BRANCH  10  12
HETATM   12  C6  UNL     1       5.114  -0.266   0.228  1.00  0.00     0.035 A 
HETATM   13  C7  UNL     1       5.005  -0.520  -1.122  1.00  0.00     0.032 A 
HETATM   14  C8  UNL     1       5.636  -1.667  -1.588  1.00  0.00     0.046 A 
HETATM   15  C9  UNL     1       6.334  -2.495  -0.710  1.00  0.00     0.138 A 
HETATM   16  F1  UNL     1       6.972  -3.628  -1.092  1.00  0.00    -0.204 F 
HETATM   17  C10 UNL     1       6.410  -2.192   0.629  1.00  0.00     0.074 A 
HETATM   18 CL1  UNL     1       7.286  -3.224   1.760  1.00  0.00    -0.081 Cl
HETATM   19  C11 UNL     1       5.790  -1.053   1.131  1.00  0.00     0.056 A 
ENDBRANCH  10  12
ENDBRANCH   8  10
BRANCH   9  20
HETATM   20  C13 UNL     1       1.713   0.885   0.553  1.00  0.00     0.109 C 
BRANCH  20  21
HETATM   21  N4  UNL     1       0.482   0.240   0.743  1.00  0.00    -0.325 N 
HETATM   22  C14 UNL     1       0.072  -1.015   1.241  1.00  0.00     0.300 C 
HETATM   23  O1  UNL     1       1.026  -1.759   1.615  1.00  0.00    -0.258 OA
HETATM   24  H8  UNL     1      -0.313   0.831   0.445  1.00  0.00     0.169 HD
BRANCH  22  25
HETATM   25  C15 UNL     1      -1.314  -1.367   1.299  1.00  0.00    -0.004 C 
HETATM   26  C16 UNL     1      -2.483  -1.647   1.342  1.00  0.00    -0.066 C 
BRANCH  26  27
HETATM   27  C17 UNL     1      -3.925  -1.972   1.408  1.00  0.00     0.366 C 
BRANCH  27  28
HETATM   28  N5  UNL     1      -4.640  -1.299   0.316  1.00  0.00     0.098 N 
BRANCH  28  29
HETATM   29  C18 UNL     1      -4.558   0.128   0.654  1.00  0.00     0.269 C 
HETATM   30  C19 UNL     1      -5.236   1.000  -0.355  1.00  0.00     0.037 C 
ENDBRANCH  28  29
BRANCH  28  31
HETATM   31  C20 UNL     1      -6.051  -1.637   0.507  1.00  0.00     0.269 C 
HETATM   32  C21 UNL     1      -6.354  -3.081   0.266  1.00  0.00     0.037 C 
ENDBRANCH  28  31
ENDBRANCH  27  28
ENDBRANCH  26  27
ENDBRANCH  22  25
ENDBRANCH  20  21
ENDBRANCH   9  20
ENDBRANCH   3   4
TORSDOF 10
