REMARK  6 active torsions:
REMARK  status: ('A' for Active; 'I' for Inactive)
REMARK    1  A    between atoms: C1_2  and  C2_3 
REMARK       I    between atoms: C1_2  and  N2_13 
REMARK    2  A    between atoms: C3_4  and  C4_5 
REMARK    3  A    between atoms: C4_5  and  C5_6 
REMARK    4  A    between atoms: C5_6  and  N1_7 
REMARK    5  A    between atoms: N2_13  and  C10_14 
REMARK    6  A    between atoms: C14_19  and  C15_20 
ROOT
HETATM    1  C10 UNL     1      -3.143   1.151   0.322  1.00  0.00     0.042 A 
HETATM    2  C11 UNL     1      -3.777   1.266   1.530  1.00  0.00     0.143 A 
HETATM    3  N3  UNL     1      -4.779   1.444   2.557  1.00  0.00    -0.284 NA
HETATM    4  C12 UNL     1      -5.644   2.288   2.029  1.00  0.00     0.086 C 
HETATM    5  C13 UNL     1      -5.237   2.699   0.607  1.00  0.00     0.070 C 
HETATM    6  C14 UNL     1      -4.562   1.375   0.210  1.00  0.00     0.068 A 
ENDROOT
BRANCH   1   7
HETATM    7  N2  UNL     1      -1.843   0.926  -0.203  1.00  0.00    -0.320 N 
HETATM    8  C1  UNL     1      -0.701   0.734   0.612  1.00  0.00     0.300 C 
HETATM    9  O1  UNL     1      -0.766   0.752   1.887  1.00  0.00    -0.258 OA
HETATM   10  H13 UNL     1      -1.699   0.896  -1.214  1.00  0.00     0.169 HD
BRANCH   8  11
HETATM   11  C2  UNL     1       0.609   0.507   0.080  1.00  0.00    -0.005 C 
HETATM   12  C3  UNL     1       1.735   0.329  -0.364  1.00  0.00    -0.095 C 
BRANCH  12  13
HETATM   13  C4  UNL     1       3.105   0.125  -0.880  1.00  0.00     0.124 C 
BRANCH  13  14
HETATM   14  C5  UNL     1       4.084   0.158   0.289  1.00  0.00     0.284 C 
BRANCH  14  15
HETATM   15  N1  UNL     1       5.429  -0.041  -0.205  1.00  0.00     0.093 N 
HETATM   16  C6  UNL     1       6.374  -0.010   0.909  1.00  0.00     0.298 C 
HETATM   17  C7  UNL     1       7.754   0.056   0.332  1.00  0.00     0.198 C 
HETATM   18  O2  UNL     1       7.940  -0.785  -0.737  1.00  0.00    -0.388 OA
HETATM   19  C8  UNL     1       7.010  -1.802  -0.852  1.00  0.00     0.198 C 
HETATM   20  C9  UNL     1       5.593  -1.290  -0.885  1.00  0.00     0.298 C 
ENDBRANCH  14  15
ENDBRANCH  13  14
ENDBRANCH  12  13
ENDBRANCH   8  11
ENDBRANCH   1   7
BRANCH   6  21
HETATM   21  C15 UNL     1      -5.469   0.215  -0.032  1.00  0.00    -0.038 A 
HETATM   22  C16 UNL     1      -6.674  -0.196   0.492  1.00  0.00     0.011 A 
HETATM   23  C17 UNL     1      -7.271  -1.350   0.042  1.00  0.00     0.044 A 
HETATM   24  C18 UNL     1      -6.729  -2.158  -0.932  1.00  0.00     0.138 A 
HETATM   25  F1  UNL     1      -7.429  -3.265  -1.275  1.00  0.00    -0.204 F 
HETATM   26  C19 UNL     1      -5.513  -1.754  -1.469  1.00  0.00     0.073 A 
HETATM   27 CL1  UNL     1      -4.872  -2.817  -2.703  1.00  0.00    -0.081 Cl
HETATM   28  C20 UNL     1      -4.904  -0.595  -1.024  1.00  0.00     0.035 A 
ENDBRANCH   6  21
TORSDOF 6
