REMARK  5 active torsions:
REMARK  status: ('A' for Active; 'I' for Inactive)
REMARK    1  A    between atoms: N1_1  and  C1_2 
REMARK    2  A    between atoms: C1_2  and  C2_3 
REMARK    3  A    between atoms: C5_6  and  C6_7 
REMARK    4  A    between atoms: C11_13  and  C12_14 
REMARK    5  A    between atoms: C12_14  and  N3_15 
ROOT
HETATM    1  C6  UNL     1      -1.173   0.225   0.306  1.00  0.00     0.132 C 
HETATM    2  C7  UNL     1      -1.346   0.393   1.817  1.00  0.00     0.012 C 
HETATM    3  C8  UNL     1      -1.219  -0.493   2.808  1.00  0.00     0.000 C 
HETATM    4  C9  UNL     1      -0.866  -1.906   2.697  1.00  0.00     0.017 C 
HETATM    5  C10 UNL     1      -1.017  -2.613   1.591  1.00  0.00     0.085 C 
HETATM    6  N2  UNL     1      -1.535  -2.186   0.311  1.00  0.00    -0.368 N 
HETATM    7  C11 UNL     1      -2.117  -0.926  -0.095  1.00  0.00     0.184 C 
HETATM    8  N4  UNL     1      -2.402  -1.003  -1.463  1.00  0.00    -0.246 NA
HETATM    9  C13 UNL     1      -2.536  -0.625  -2.644  1.00  0.00     0.229 C 
HETATM   10  N5  UNL     1      -2.316   0.699  -3.192  1.00  0.00    -0.253 NA
HETATM   11  C14 UNL     1      -2.120   1.858  -2.583  1.00  0.00     0.136 C 
HETATM   12  C15 UNL     1      -2.062   2.169  -1.156  1.00  0.00     0.131 C 
HETATM   13  N6  UNL     1      -1.685   1.471  -0.160  1.00  0.00    -0.279 NA
HETATM   14  H11 UNL     1      -1.424  -3.006  -0.363  1.00  0.00     0.161 HD
ENDROOT
BRANCH   1  15
HETATM   15  C5  UNL     1       0.187  -0.034   0.021  1.00  0.00     0.104 C 
HETATM   16  C4  UNL     1       1.417  -0.269  -0.237  1.00  0.00    -0.098 C 
HETATM   17  C3  UNL     1       2.306  -0.415  -0.425  1.00  0.00    -0.092 C 
HETATM   18  C2  UNL     1       3.607  -0.596  -0.699  1.00  0.00     0.162 C 
HETATM   19  C18 UNL     1       3.374   1.279  -0.740  1.00  0.00     0.144 C 
HETATM   20  C17 UNL     1       2.141   1.724   0.125  1.00  0.00     0.081 C 
HETATM   21  O1  UNL     1       4.172   1.909  -1.403  1.00  0.00    -0.297 OA
HETATM   22  C16 UNL     1       0.752   1.627  -0.375  1.00  0.00     0.027 C 
BRANCH  18  23
HETATM   23  C1  UNL     1       4.606  -0.514   0.409  1.00  0.00     0.291 C 
BRANCH  23  24
HETATM   24  N1  UNL     1       5.930  -0.738  -0.149  1.00  0.00     0.079 N 
HETATM   25  H1  UNL     1       6.321   0.102  -0.598  1.00  0.00     0.312 HD
HETATM   26  H2  UNL     1       5.967  -1.551  -0.787  1.00  0.00     0.312 HD
ENDBRANCH  23  24
ENDBRANCH  18  23
ENDBRANCH   1  15
BRANCH   7  27
HETATM   27  C12 UNL     1      -3.423  -0.772   0.673  1.00  0.00     0.325 C 
BRANCH  27  28
HETATM   28  N3  UNL     1      -3.992   0.508   0.311  1.00  0.00     0.082 N 
HETATM   29  H14 UNL     1      -4.798   0.450  -0.335  1.00  0.00     0.312 HD
HETATM   30  H15 UNL     1      -4.117   1.158   1.116  1.00  0.00     0.312 HD
ENDBRANCH  27  28
ENDBRANCH   7  27
TORSDOF 5
