REMARK  8 active torsions:
REMARK  status: ('A' for Active; 'I' for Inactive)
REMARK    1  A    between atoms: C2_2  and  C3_3 
REMARK    2  A    between atoms: C3_3  and  C4_4 
REMARK    3  A    between atoms: C3_3  and  C5_6 
REMARK    4  A    between atoms: C9_13  and  N4_14 
REMARK       I    between atoms: N4_14  and  C10_15 
REMARK    5  A    between atoms: C10_15  and  C11_17 
REMARK    6  A    between atoms: C12_18  and  C13_19 
REMARK    7  A    between atoms: C13_19  and  C14_20 
REMARK    8  A    between atoms: C14_20  and  N5_21 
ROOT
HETATM    1  C5  UNL     1       5.739  -0.728  -0.086  1.00  0.00     0.079 A 
HETATM    2  N1  UNL     1       6.748  -1.595  -0.055  1.00  0.00    -0.241 NA
HETATM    3  C6  UNL     1       6.764  -2.792  -0.632  1.00  0.00     0.234 A 
HETATM    4  N2  UNL     1       5.704  -3.227  -1.322  1.00  0.00    -0.240 NA
HETATM    5  C7  UNL     1       4.611  -2.454  -1.433  1.00  0.00     0.088 A 
HETATM    6  C8  UNL     1       3.494  -2.882  -2.111  1.00  0.00     0.151 A 
HETATM    7  N3  UNL     1       2.379  -2.100  -2.190  1.00  0.00    -0.241 NA
HETATM    8  C9  UNL     1       2.407  -0.879  -1.575  1.00  0.00     0.131 A 
HETATM    9  C19 UNL     1       3.546  -0.511  -0.919  1.00  0.00     0.066 A 
HETATM   10  C20 UNL     1       4.702  -1.237  -0.797  1.00  0.00     0.027 A 
ENDROOT
BRANCH   8  11
HETATM   11  N4  UNL     1       1.203  -0.106  -1.686  1.00  0.00    -0.301 N 
HETATM   12  C10 UNL     1       0.419  -0.490  -0.563  1.00  0.00     0.302 C 
HETATM   13  O1  UNL     1       0.915  -1.353   0.214  1.00  0.00    -0.258 OA
HETATM   14  H9  UNL     1       0.754   0.609  -2.301  1.00  0.00     0.171 HD
BRANCH  12  15
HETATM   15  C11 UNL     1      -0.890  -0.001  -0.211  1.00  0.00    -0.005 C 
HETATM   16  C12 UNL     1      -1.989   0.408   0.062  1.00  0.00    -0.095 C 
BRANCH  16  17
HETATM   17  C13 UNL     1      -3.343   0.897   0.407  1.00  0.00     0.114 C 
BRANCH  17  18
HETATM   18  C14 UNL     1      -4.384  -0.173   0.155  1.00  0.00     0.129 C 
BRANCH  18  19
HETATM   19  N5  UNL     1      -5.707   0.236   0.477  1.00  0.00    -0.408 N 
HETATM   20  C15 UNL     1      -6.252   1.244  -0.367  1.00  0.00     0.143 C 
HETATM   21  C16 UNL     1      -7.618   1.714   0.071  1.00  0.00     0.187 C 
HETATM   22  O2  UNL     1      -8.148   0.916   1.080  1.00  0.00    -0.388 OA
HETATM   23  C17 UNL     1      -8.025  -0.430   0.829  1.00  0.00     0.187 C 
HETATM   24  C18 UNL     1      -6.585  -0.824   0.847  1.00  0.00     0.143 C 
ENDBRANCH  18  19
ENDBRANCH  17  18
ENDBRANCH  16  17
ENDBRANCH  12  15
ENDBRANCH   8  11
BRANCH   1  25
HETATM   25  C3  UNL     1       5.839   0.559   0.591  1.00  0.00    -0.004 C 
BRANCH  25  26
HETATM   26  C2  UNL     1       5.216   1.749   0.654  1.00  0.00    -0.019 C 
HETATM   27  C1  UNL     1       4.282   2.827   0.373  1.00  0.00     0.036 C 
ENDBRANCH  25  26
BRANCH  25  28
HETATM   28  C4  UNL     1       6.999   0.464   1.588  1.00  0.00     0.263 C 
HETATM   29  F1  UNL     1       6.691  -0.597   2.421  1.00  0.00    -0.251 F 
ENDBRANCH  25  28
ENDBRANCH   1  25
TORSDOF 8
