REMARK  6 active torsions:
REMARK  status: ('A' for Active; 'I' for Inactive)
REMARK    1  A    between atoms: N1_7  and  C6_8 
REMARK    2  A    between atoms: C6_8  and  C7_9 
REMARK    3  A    between atoms: C8_10  and  C9_11 
REMARK       I    between atoms: C9_11  and  N2_13 
REMARK    4  A    between atoms: N2_13  and  C10_14 
REMARK    5  A    between atoms: C10_14  and  N3_15 
REMARK    6  A    between atoms: C14_22  and  C15_23 
ROOT
HETATM    1  C10 UNL     1      -1.865  -0.609  -2.434  1.00  0.00     0.360 A 
HETATM    2  N4  UNL     1      -1.666  -0.539  -3.866  1.00  0.00    -0.235 NA
HETATM    3  C11 UNL     1      -2.757  -0.129  -4.392  1.00  0.00     0.148 A 
HETATM    4  C12 UNL     1      -3.842   0.145  -3.464  1.00  0.00     0.090 A 
HETATM    5  N5  UNL     1      -5.085   0.582  -3.590  1.00  0.00    -0.240 NA
HETATM    6  C13 UNL     1      -5.856   0.754  -2.476  1.00  0.00     0.234 A 
HETATM    7  N6  UNL     1      -5.310   0.467  -1.283  1.00  0.00    -0.240 NA
HETATM    8  C14 UNL     1      -4.049   0.022  -1.132  1.00  0.00     0.083 A 
HETATM    9  C21 UNL     1      -3.242  -0.161  -2.260  1.00  0.00     0.083 A 
ENDROOT
BRANCH   1  10
HETATM   10  N2  UNL     1      -0.881   0.167  -1.711  1.00  0.00    -0.293 N 
HETATM   11  C9  UNL     1       0.015  -0.510  -0.836  1.00  0.00     0.300 C 
HETATM   12  O2  UNL     1      -0.055  -1.767  -0.700  1.00  0.00    -0.258 OA
HETATM   13  H11 UNL     1      -0.904   1.196  -1.891  1.00  0.00     0.168 HD
BRANCH  11  14
HETATM   14  C8  UNL     1       0.985   0.278  -0.127  1.00  0.00    -0.004 C 
HETATM   15  C7  UNL     1       1.807   0.923   0.474  1.00  0.00    -0.077 C 
BRANCH  15  16
HETATM   16  C6  UNL     1       2.798   1.693   1.226  1.00  0.00     0.217 C 
BRANCH  16  17
HETATM   17  N1  UNL     1       4.022   1.001   1.471  1.00  0.00    -0.373 N 
HETATM   18  C2  UNL     1       4.313  -0.325   1.045  1.00  0.00     0.009 C 
HETATM   19  C1  UNL     1       3.681  -0.743  -0.040  1.00  0.00     0.060 C 
HETATM   20  C3  UNL     1       5.285  -1.116   1.837  1.00  0.00     0.219 C 
HETATM   21  O1  UNL     1       6.211  -0.321   2.486  1.00  0.00    -0.384 OA
HETATM   22  C4  UNL     1       6.340   0.912   1.876  1.00  0.00     0.188 C 
HETATM   23  C5  UNL     1       5.074   1.707   2.224  1.00  0.00     0.149 C 
ENDBRANCH  16  17
ENDBRANCH  15  16
ENDBRANCH  11  14
ENDBRANCH   1  10
BRANCH   1  24
HETATM   24  N3  UNL     1      -1.749  -2.033  -2.112  1.00  0.00     0.135 N 
HETATM   25  H12 UNL     1      -2.637  -2.529  -2.320  1.00  0.00     0.319 HD
HETATM   26  H13 UNL     1      -1.021  -2.453  -2.732  1.00  0.00     0.319 HD
ENDBRANCH   1  24
BRANCH   8  27
HETATM   27  C15 UNL     1      -3.676  -0.184   0.256  1.00  0.00    -0.005 A 
HETATM   28  C16 UNL     1      -3.962   0.902   1.101  1.00  0.00     0.017 A 
HETATM   29  C17 UNL     1      -3.720   0.960   2.461  1.00  0.00     0.045 A 
HETATM   30  C18 UNL     1      -3.153  -0.125   3.060  1.00  0.00     0.138 A 
HETATM   31  F1  UNL     1      -2.861  -0.208   4.375  1.00  0.00    -0.204 F 
HETATM   32  C19 UNL     1      -2.846  -1.226   2.291  1.00  0.00     0.073 A 
HETATM   33 CL1  UNL     1      -2.118  -2.677   2.942  1.00  0.00    -0.081 Cl
HETATM   34  C20 UNL     1      -3.108  -1.231   0.943  1.00  0.00     0.041 A 
ENDBRANCH   8  27
TORSDOF 6
