REMARK  6 active torsions:
REMARK  status: ('A' for Active; 'I' for Inactive)
REMARK    1  A    between atoms: C3_3  and  N1_4 
REMARK       I    between atoms: N1_4  and  C4_5 
REMARK    2  A    between atoms: C4_5  and  C5_7 
REMARK    3  A    between atoms: C6_8  and  C7_9 
REMARK    4  A    between atoms: C7_9  and  C8_10 
REMARK    5  A    between atoms: C8_10  and  N2_11 
REMARK    6  A    between atoms: C16_22  and  C17_23 
ROOT
HETATM    1  N1  UNL     1       1.150  -0.835   0.201  1.00  0.00    -0.319 N 
HETATM    2  C4  UNL     1       0.160  -0.295   1.043  1.00  0.00     0.300 C 
HETATM    3  O1  UNL     1       0.490   0.658   1.755  1.00  0.00    -0.258 OA
HETATM    4  H4  UNL     1       0.632  -1.617  -0.291  1.00  0.00     0.169 HD
ENDROOT
BRANCH   1   5
HETATM    5  C3  UNL     1       2.486  -0.598  -0.090  1.00  0.00     0.025 A 
HETATM    6  C2  UNL     1       3.432   0.230   0.282  1.00  0.00    -0.024 A 
HETATM    7  C1  UNL     1       3.300   1.304   1.275  1.00  0.00     0.051 C 
HETATM    8  C19 UNL     1       4.673  -0.039  -0.420  1.00  0.00     0.025 A 
HETATM    9  C14 UNL     1       4.442  -1.087  -1.255  1.00  0.00     0.054 A 
HETATM   10  C16 UNL     1       5.962   0.407  -0.515  1.00  0.00     0.068 A 
HETATM   11  C13 UNL     1       3.051  -1.535  -1.123  1.00  0.00     0.118 A 
HETATM   12  N3  UNL     1       5.365  -1.605  -2.059  1.00  0.00    -0.245 NA
HETATM   13  C15 UNL     1       6.604  -1.153  -2.129  1.00  0.00     0.234 A 
HETATM   14  N4  UNL     1       6.883  -0.127  -1.332  1.00  0.00    -0.242 NA
BRANCH  10  15
HETATM   15  C17 UNL     1       6.322   1.526   0.330  1.00  0.00     0.070 C 
HETATM   16  C18 UNL     1       7.562   1.969   0.252  1.00  0.00     0.225 C 
HETATM   17 CL1  UNL     1       8.753   1.261  -0.817  1.00  0.00    -0.257 Cl
ENDBRANCH  10  15
ENDBRANCH   1   5
BRANCH   2  18
HETATM   18  C5  UNL     1      -1.205  -0.700   1.199  1.00  0.00    -0.005 C 
HETATM   19  C6  UNL     1      -2.345  -1.053   1.314  1.00  0.00    -0.095 C 
BRANCH  19  20
HETATM   20  C7  UNL     1      -3.742  -1.462   1.465  1.00  0.00     0.124 C 
BRANCH  20  21
HETATM   21  C8  UNL     1      -4.577  -0.199   1.279  1.00  0.00     0.284 C 
BRANCH  21  22
HETATM   22  N2  UNL     1      -4.362   0.372  -0.013  1.00  0.00     0.093 N 
HETATM   23  C9  UNL     1      -5.147   1.586  -0.223  1.00  0.00     0.298 C 
HETATM   24  C10 UNL     1      -6.610   1.287  -0.268  1.00  0.00     0.198 C 
HETATM   25  O2  UNL     1      -6.940  -0.042  -0.358  1.00  0.00    -0.388 OA
HETATM   26  C11 UNL     1      -6.150  -0.800  -1.189  1.00  0.00     0.198 C 
HETATM   27  C12 UNL     1      -4.683  -0.504  -1.110  1.00  0.00     0.298 C 
ENDBRANCH  21  22
ENDBRANCH  20  21
ENDBRANCH  19  20
ENDBRANCH   2  18
TORSDOF 6
