REMARK  9 active torsions:
REMARK  status: ('A' for Active; 'I' for Inactive)
REMARK    1  A    between atoms: N1_2  and  C2_3 
REMARK    2  A    between atoms: N1_2  and  C4_6 
REMARK    3  A    between atoms: C2_3  and  C3_4 
REMARK    4  A    between atoms: C4_6  and  C5_7 
REMARK    5  A    between atoms: C5_7  and  C6_8 
REMARK    6  A    between atoms: C7_9  and  C8_10 
REMARK       I    between atoms: C8_10  and  N2_12 
REMARK    7  A    between atoms: N2_12  and  C9_13 
REMARK    8  A    between atoms: C14_20  and  N5_21 
REMARK    9  A    between atoms: N5_21  and  C15_22 
ROOT
HETATM    1  C9  UNL     1       1.477  -0.098   1.144  1.00  0.00     0.036 A 
HETATM    2  C10 UNL     1       1.468   0.053   2.520  1.00  0.00     0.032 A 
HETATM    3  C11 UNL     1       2.506   0.705   3.177  1.00  0.00     0.035 A 
HETATM    4  C12 UNL     1       3.552   1.199   2.398  1.00  0.00     0.072 A 
HETATM    5  N3  UNL     1       4.590   1.853   2.944  1.00  0.00    -0.241 NA
HETATM    6  C13 UNL     1       5.597   2.342   2.204  1.00  0.00     0.236 A 
HETATM    7  N4  UNL     1       5.563   2.171   0.867  1.00  0.00    -0.224 NA
HETATM    8  C14 UNL     1       4.554   1.525   0.241  1.00  0.00     0.142 A 
HETATM    9  C21 UNL     1       3.538   1.036   1.030  1.00  0.00     0.041 A 
HETATM   10  C22 UNL     1       2.512   0.391   0.375  1.00  0.00     0.047 A 
ENDROOT
BRANCH   1  11
HETATM   11  N2  UNL     1       0.289  -0.795   0.722  1.00  0.00    -0.316 N 
HETATM   12  C8  UNL     1      -0.754   0.127   0.454  1.00  0.00     0.300 C 
HETATM   13  O1  UNL     1      -0.471   1.363   0.623  1.00  0.00    -0.258 OA
HETATM   14  H12 UNL     1       0.018  -1.790   0.571  1.00  0.00     0.170 HD
BRANCH  12  15
HETATM   15  C7  UNL     1      -2.092  -0.180   0.013  1.00  0.00    -0.005 C 
HETATM   16  C6  UNL     1      -3.217  -0.428  -0.342  1.00  0.00    -0.095 C 
BRANCH  16  17
HETATM   17  C5  UNL     1      -4.590  -0.729  -0.748  1.00  0.00     0.114 C 
BRANCH  17  18
HETATM   18  C4  UNL     1      -5.616   0.101   0.035  1.00  0.00     0.128 C 
BRANCH  18  19
HETATM   19  N1  UNL     1      -6.907  -0.263  -0.415  1.00  0.00    -0.414 N 
HETATM   20  C1  UNL     1      -7.285   0.085  -1.730  1.00  0.00     0.143 C 
BRANCH  19  21
HETATM   21  C2  UNL     1      -7.928  -0.440   0.553  1.00  0.00     0.147 C 
BRANCH  21  22
HETATM   22  C3  UNL     1      -8.700  -1.705   0.161  1.00  0.00     0.241 C 
HETATM   23  F1  UNL     1      -9.258  -1.566  -1.097  1.00  0.00    -0.254 F 
ENDBRANCH  21  22
ENDBRANCH  19  21
ENDBRANCH  18  19
ENDBRANCH  17  18
ENDBRANCH  16  17
ENDBRANCH  12  15
ENDBRANCH   1  11
BRANCH   8  24
HETATM   24  N5  UNL     1       4.599   1.394  -1.187  1.00  0.00    -0.340 N 
HETATM   25  H16 UNL     1       4.161   1.802  -2.037  1.00  0.00     0.167 HD
BRANCH  24  26
HETATM   26  C15 UNL     1       5.584   0.353  -1.365  1.00  0.00     0.035 A 
HETATM   27  C16 UNL     1       6.845   0.969  -1.373  1.00  0.00     0.029 A 
HETATM   28  C17 UNL     1       8.012   0.209  -1.528  1.00  0.00     0.004 A 
HETATM   29  C18 UNL     1       7.920  -1.161  -1.675  1.00  0.00     0.024 A 
HETATM   30  C19 UNL     1       6.665  -1.726  -1.662  1.00  0.00     0.036 A 
HETATM   31 CL1  UNL     1       6.414  -3.463  -1.839  1.00  0.00    -0.084 Cl
HETATM   32  C20 UNL     1       5.501  -1.011  -1.511  1.00  0.00     0.053 A 
ENDBRANCH  24  26
ENDBRANCH   8  24
TORSDOF 9
