REMARK  5 active torsions:
REMARK  status: ('A' for Active; 'I' for Inactive)
REMARK    1  A    between atoms: C6_9  and  N4_10 
REMARK       I    between atoms: N4_10  and  C7_11 
REMARK    2  A    between atoms: C7_11  and  C8_13 
REMARK    3  A    between atoms: C9_14  and  C10_15 
REMARK    4  A    between atoms: C10_15  and  C11_16 
REMARK    5  A    between atoms: C11_16  and  N5_17 
ROOT
HETATM    1  N4  UNL     1       1.694  -0.264   0.251  1.00  0.00    -0.301 N 
HETATM    2  C7  UNL     1       0.725   0.706   0.626  1.00  0.00     0.302 C 
HETATM    3  O1  UNL     1       0.887   1.497   1.572  1.00  0.00    -0.258 OA
HETATM    4  H6  UNL     1       1.552  -0.930  -0.549  1.00  0.00     0.171 HD
ENDROOT
BRANCH   1   5
HETATM    5  C6  UNL     1       2.981  -0.741   0.614  1.00  0.00     0.131 A 
HETATM    6  N3  UNL     1       3.249  -1.726   1.493  1.00  0.00    -0.241 NA
HETATM    7  C5  UNL     1       4.509  -2.101   1.765  1.00  0.00     0.151 A 
HETATM    8  C4  UNL     1       5.558  -1.465   1.133  1.00  0.00     0.088 A 
HETATM    9  N2  UNL     1       6.835  -1.830   1.395  1.00  0.00    -0.240 NA
HETATM   10  C17 UNL     1       5.389  -0.450   0.221  1.00  0.00     0.022 A 
HETATM   11  C3  UNL     1       7.861  -1.197   0.767  1.00  0.00     0.234 A 
HETATM   12  N1  UNL     1       7.646  -0.205  -0.120  1.00  0.00    -0.246 NA
HETATM   13  C2  UNL     1       6.412   0.200  -0.422  1.00  0.00     0.044 A 
HETATM   14  C1  UNL     1       6.056   1.285  -1.387  1.00  0.00     0.071 C 
HETATM   15  C16 UNL     1       4.059  -0.111  -0.014  1.00  0.00     0.066 A 
ENDBRANCH   1   5
BRANCH   2  16
HETATM   16  C8  UNL     1      -0.479   0.713  -0.178  1.00  0.00    -0.005 C 
HETATM   17  C9  UNL     1      -1.492   0.699  -0.863  1.00  0.00    -0.095 C 
BRANCH  17  18
HETATM   18  C10 UNL     1      -2.690   0.680  -1.705  1.00  0.00     0.124 C 
BRANCH  18  19
HETATM   19  C11 UNL     1      -3.857   1.111  -0.886  1.00  0.00     0.284 C 
BRANCH  19  20
HETATM   20  N5  UNL     1      -4.153   0.323   0.249  1.00  0.00     0.093 N 
HETATM   21  C12 UNL     1      -4.636  -1.009   0.023  1.00  0.00     0.298 C 
HETATM   22  C13 UNL     1      -6.039  -1.053  -0.535  1.00  0.00     0.198 C 
HETATM   23  O2  UNL     1      -6.660   0.204  -0.549  1.00  0.00    -0.388 OA
HETATM   24  C14 UNL     1      -6.534   0.807   0.677  1.00  0.00     0.198 C 
HETATM   25  C15 UNL     1      -5.094   0.977   1.133  1.00  0.00     0.298 C 
ENDBRANCH  19  20
ENDBRANCH  18  19
ENDBRANCH  17  18
ENDBRANCH   2  16
TORSDOF 5
