REMARK  9 active torsions:
REMARK  status: ('A' for Active; 'I' for Inactive)
REMARK    1  A    between atoms: C1_2  and  C2_3 
REMARK       I    between atoms: C1_2  and  N1_12 
REMARK    2  A    between atoms: C3_4  and  C4_5 
REMARK    3  A    between atoms: C4_5  and  C5_6 
REMARK    4  A    between atoms: C5_6  and  C6_7 
REMARK    5  A    between atoms: N1_12  and  C10_13 
REMARK    6  A    between atoms: C11_14  and  C12_15 
REMARK    7  A    between atoms: C13_16  and  N2_17 
REMARK    8  A    between atoms: N2_17  and  C14_18 
REMARK    9  A    between atoms: C21_29  and  C22_30 
ROOT
HETATM    1  C12 UNL     1      -2.961   1.562   0.317  1.00  0.00     0.042 A 
HETATM    2  C13 UNL     1      -4.301   1.970   0.298  1.00  0.00     0.142 A 
HETATM    3  N3  UNL     1      -4.759   2.834   1.219  1.00  0.00    -0.224 NA
HETATM    4  C20 UNL     1      -3.916   3.318   2.182  1.00  0.00     0.236 A 
HETATM    5  N4  UNL     1      -2.632   2.937   2.216  1.00  0.00    -0.239 NA
HETATM    6  C21 UNL     1      -2.156   2.072   1.301  1.00  0.00     0.098 A 
ENDROOT
BRANCH   1   7
HETATM    7  C11 UNL     1      -2.428   0.624  -0.625  1.00  0.00     0.035 C 
HETATM    8  C10 UNL     1      -1.342   0.074  -1.064  1.00  0.00     0.093 C 
BRANCH   8   9
HETATM    9  N1  UNL     1       0.068   0.029  -0.908  1.00  0.00    -0.326 N 
HETATM   10  C1  UNL     1       1.163  -0.786  -0.552  1.00  0.00     0.300 C 
HETATM   11  O1  UNL     1       0.838  -1.952  -0.235  1.00  0.00    -0.258 OA
HETATM   12  H12 UNL     1       0.242   1.049  -1.186  1.00  0.00     0.169 HD
BRANCH  10  13
HETATM   13  C2  UNL     1       2.467  -0.186  -0.599  1.00  0.00    -0.005 C 
HETATM   14  C3  UNL     1       3.547   0.320  -0.643  1.00  0.00    -0.096 C 
BRANCH  14  15
HETATM   15  C4  UNL     1       4.854   0.960  -0.700  1.00  0.00     0.095 C 
BRANCH  15  16
HETATM   16  C5  UNL     1       5.800   0.259   0.200  1.00  0.00     0.019 C 
BRANCH  16  17
HETATM   17  C6  UNL     1       6.041  -1.188  -0.085  1.00  0.00     0.012 C 
HETATM   18  C7  UNL     1       7.039  -1.688   0.935  1.00  0.00     0.033 C 
HETATM   19  C8  UNL     1       7.772  -2.739   0.133  1.00  0.00     0.168 C 
HETATM   20  O2  UNL     1       7.791  -2.281  -1.171  1.00  0.00    -0.391 OA
HETATM   21  C9  UNL     1       6.698  -1.490  -1.381  1.00  0.00     0.172 C 
ENDBRANCH  16  17
ENDBRANCH  15  16
ENDBRANCH  14  15
ENDBRANCH  10  13
ENDBRANCH   8   9
ENDBRANCH   1   7
BRANCH   2  22
HETATM   22  N2  UNL     1      -5.093   1.408  -0.736  1.00  0.00    -0.340 N 
HETATM   23  H15 UNL     1      -4.780   1.833  -1.622  1.00  0.00     0.167 HD
BRANCH  22  24
HETATM   24  C14 UNL     1      -6.134   0.443  -0.663  1.00  0.00     0.035 A 
HETATM   25  C15 UNL     1      -6.581  -0.030   0.547  1.00  0.00     0.032 A 
HETATM   26  C16 UNL     1      -7.625  -0.971   0.556  1.00  0.00     0.046 A 
HETATM   27  C17 UNL     1      -8.215  -1.437  -0.599  1.00  0.00     0.138 A 
HETATM   28  F1  UNL     1      -9.223  -2.344  -0.583  1.00  0.00    -0.204 F 
HETATM   29  C18 UNL     1      -7.708  -0.913  -1.768  1.00  0.00     0.074 A 
HETATM   30 CL1  UNL     1      -8.409  -1.452  -3.293  1.00  0.00    -0.081 Cl
HETATM   31  C19 UNL     1      -6.686   0.014  -1.858  1.00  0.00     0.056 A 
ENDBRANCH  22  24
ENDBRANCH   2  22
BRANCH   6  32
HETATM   32  C22 UNL     1      -0.735   1.775   1.573  1.00  0.00     0.078 A 
HETATM   33  N5  UNL     1       0.527   1.714   1.687  1.00  0.00    -0.284 NA
HETATM   34  C23 UNL     1      -0.075   0.652   2.332  1.00  0.00     0.210 A 
ENDBRANCH   6  32
TORSDOF 9
