REMARK  12 active torsions:
REMARK  status: ('A' for Active; 'I' for Inactive)
REMARK    1  A    between atoms: C3_3  and  N1_4 
REMARK    2  A    between atoms: N1_4  and  C5_6 
REMARK    3  A    between atoms: C6_7  and  C7_8 
REMARK    4  A    between atoms: C9_13  and  C10_14 
REMARK    5  A    between atoms: C10_14  and  C11_15 
REMARK    6  A    between atoms: C12_16  and  N4_17 
REMARK       I    between atoms: N4_17  and  C13_18 
REMARK    7  A    between atoms: C13_18  and  C14_20 
REMARK    8  A    between atoms: C15_21  and  C16_22 
REMARK    9  A    between atoms: C16_22  and  C17_23 
REMARK   10  A    between atoms: C17_23  and  N5_24 
REMARK   11  A    between atoms: N5_24  and  C18_25 
REMARK   12  A    between atoms: N5_24  and  C20_27 
ROOT
HETATM    1  C11 UNL     1       1.556  -0.276  -1.215  1.00  0.00     0.019 C 
HETATM    2  C12 UNL     1       0.802  -0.291  -0.141  1.00  0.00     0.092 C 
ENDROOT
BRANCH   1   3
HETATM    3  C10 UNL     1       3.004  -0.330  -1.341  1.00  0.00     0.034 C 
BRANCH   3   4
HETATM    4  C9  UNL     1       3.887  -0.404  -0.375  1.00  0.00     0.071 A 
HETATM    5  C2  UNL     1       5.267  -0.459  -0.441  1.00  0.00     0.029 A 
HETATM    6  C1  UNL     1       5.737  -0.422  -1.655  1.00  0.00     0.030 C 
HETATM    7  C3  UNL     1       6.049  -0.525   0.683  1.00  0.00     0.142 A 
HETATM    8  N2  UNL     1       5.430  -0.535   1.873  1.00  0.00    -0.223 NA
HETATM    9  C8  UNL     1       4.090  -0.483   1.949  1.00  0.00     0.236 A 
HETATM   10  N3  UNL     1       3.318  -0.418   0.853  1.00  0.00    -0.241 NA
BRANCH   7  11
HETATM   11  N1  UNL     1       7.462  -0.599   0.582  1.00  0.00    -0.346 N 
HETATM   12  C4  UNL     1       8.074  -1.783   0.018  1.00  0.00     0.157 C 
BRANCH  11  13
HETATM   13  C5  UNL     1       8.411   0.413   0.985  1.00  0.00     0.090 C 
HETATM   14  C6  UNL     1       9.150   0.847  -0.049  1.00  0.00     0.021 C 
BRANCH  14  15
HETATM   15  C7  UNL     1      10.245   1.868  -0.139  1.00  0.00     0.251 C 
HETATM   16  F1  UNL     1      11.405   1.256  -0.598  1.00  0.00    -0.251 F 
ENDBRANCH  14  15
ENDBRANCH  11  13
ENDBRANCH   7  11
ENDBRANCH   3   4
ENDBRANCH   1   3
BRANCH   2  17
HETATM   17  N4  UNL     1      -0.627  -0.228  -0.235  1.00  0.00    -0.326 N 
HETATM   18  C13 UNL     1      -1.509   0.745   0.308  1.00  0.00     0.300 C 
HETATM   19  O1  UNL     1      -1.107   1.718   0.981  1.00  0.00    -0.258 OA
HETATM   20  H14 UNL     1      -1.044  -1.006  -0.774  1.00  0.00     0.169 HD
BRANCH  18  21
HETATM   21  C14 UNL     1      -2.925   0.667   0.110  1.00  0.00    -0.005 C 
HETATM   22  C15 UNL     1      -4.137   0.617  -0.071  1.00  0.00    -0.095 C 
BRANCH  22  23
HETATM   23  C16 UNL     1      -5.603   0.576  -0.309  1.00  0.00     0.114 C 
BRANCH  23  24
HETATM   24  C17 UNL     1      -6.230  -0.160   0.814  1.00  0.00     0.129 C 
BRANCH  24  25
HETATM   25  N5  UNL     1      -7.634  -0.322   0.797  1.00  0.00    -0.412 N 
BRANCH  25  26
HETATM   26  C18 UNL     1      -8.448   0.819   0.976  1.00  0.00     0.112 C 
HETATM   27  C19 UNL     1      -8.460   1.826  -0.119  1.00  0.00     0.026 C 
ENDBRANCH  25  26
BRANCH  25  28
HETATM   28  C20 UNL     1      -8.132  -1.320  -0.099  1.00  0.00     0.112 C 
HETATM   29  C21 UNL     1      -9.643  -1.336   0.002  1.00  0.00     0.026 C 
ENDBRANCH  25  28
ENDBRANCH  24  25
ENDBRANCH  23  24
ENDBRANCH  22  23
ENDBRANCH  18  21
ENDBRANCH   2  17
TORSDOF 12
