REMARK  6 active torsions:
REMARK  status: ('A' for Active; 'I' for Inactive)
REMARK    1  A    between atoms: C2_2  and  C3_3 
REMARK    2  A    between atoms: C2_2  and  N2_12 
REMARK    3  A    between atoms: C4_4  and  C5_5 
REMARK    4  A    between atoms: C5_5  and  C6_6 
REMARK    5  A    between atoms: C6_6  and  N1_7 
REMARK    6  A    between atoms: N2_12  and  C10_13 
ROOT
HETATM    1  N2  UNL     1       1.574   0.020  -0.476  1.00  0.00    -0.360 N 
HETATM    2  H15 UNL     1       0.979  -0.149  -1.335  1.00  0.00     0.162 HD
ENDROOT
BRANCH   1   3
HETATM    3  C2  UNL     1       0.961   0.240   0.817  1.00  0.00     0.159 C 
HETATM    4  C1  UNL     1       1.366  -0.880   1.756  1.00  0.00     0.046 C 
BRANCH   3   5
HETATM    5  C3  UNL     1      -0.487   0.307   0.631  1.00  0.00    -0.082 C 
HETATM    6  C4  UNL     1      -1.688   0.384   0.475  1.00  0.00    -0.103 C 
BRANCH   6   7
HETATM    7  C5  UNL     1      -3.153   0.504   0.279  1.00  0.00     0.124 C 
BRANCH   7   8
HETATM    8  C6  UNL     1      -3.586  -0.603  -0.618  1.00  0.00     0.287 C 
BRANCH   8   9
HETATM    9  N1  UNL     1      -4.998  -0.635  -0.918  1.00  0.00     0.114 N 
HETATM   10  C7  UNL     1      -5.824  -0.963   0.213  1.00  0.00     0.301 C 
HETATM   11  C8  UNL     1      -6.754   0.248   0.273  1.00  0.00     0.200 C 
HETATM   12  O1  UNL     1      -6.884   0.549  -1.082  1.00  0.00    -0.361 OA
HETATM   13  C9  UNL     1      -5.520   0.576  -1.462  1.00  0.00     0.440 C 
ENDBRANCH   8   9
ENDBRANCH   7   8
ENDBRANCH   6   7
ENDBRANCH   3   5
ENDBRANCH   1   3
BRANCH   1  14
HETATM   14  C10 UNL     1       2.989   0.023  -0.636  1.00  0.00     0.125 A 
HETATM   15  C11 UNL     1       3.814   0.274   0.440  1.00  0.00     0.065 A 
HETATM   16  C12 UNL     1       5.193   0.287   0.330  1.00  0.00     0.015 A 
HETATM   17  C13 UNL     1       6.016   0.543   1.423  1.00  0.00     0.132 A 
HETATM   18  C15 UNL     1       5.716   0.032  -0.929  1.00  0.00     0.087 A 
HETATM   19  N3  UNL     1       7.349   0.537   1.231  1.00  0.00    -0.253 NA
HETATM   20  C14 UNL     1       7.870   0.288  -0.001  1.00  0.00     0.233 A 
HETATM   21  N4  UNL     1       7.070   0.038  -1.073  1.00  0.00    -0.240 NA
HETATM   22  C16 UNL     1       4.880  -0.215  -1.987  1.00  0.00     0.151 A 
HETATM   23  N5  UNL     1       3.547  -0.218  -1.835  1.00  0.00    -0.241 NA
ENDBRANCH   1  14
TORSDOF 6
