REMARK  4 active torsions:
REMARK  status: ('A' for Active; 'I' for Inactive)
REMARK       I    between atoms: C3_3  and  N1_5 
REMARK    1  A    between atoms: N1_5  and  C4_6 
REMARK    2  A    between atoms: C7_9  and  N2_10 
REMARK    3  A    between atoms: C8_11  and  C9_12 
REMARK    4  A    between atoms: C10_13  and  C11_14 
ROOT
HETATM    1  C1  UNL     1      -5.141   4.169  -0.677  1.00  0.00     0.022 C 
HETATM    2  C2  UNL     1      -4.815   3.038  -0.367  1.00  0.00    -0.016 C 
HETATM    3  C3  UNL     1      -4.409   1.711   0.007  1.00  0.00     0.301 C 
HETATM    4  O1  UNL     1      -5.211   0.891   0.537  1.00  0.00    -0.258 OA
HETATM    5  N1  UNL     1      -3.053   1.340  -0.240  1.00  0.00    -0.301 N 
HETATM    6  H2  UNL     1      -2.413   2.030  -0.676  1.00  0.00     0.171 HD
ENDROOT
BRANCH   5   7
HETATM    7  C4  UNL     1      -2.538   0.053   0.089  1.00  0.00     0.131 A 
HETATM    8  C5  UNL     1      -1.222  -0.280  -0.161  1.00  0.00     0.068 A 
HETATM    9  C6  UNL     1      -0.740  -1.525   0.162  1.00  0.00     0.046 A 
HETATM   10  C7  UNL     1       0.561  -1.848  -0.087  1.00  0.00     0.163 A 
HETATM   11  C13 UNL     1      -1.574  -2.451   0.740  1.00  0.00     0.089 A 
HETATM   12  N3  UNL     1       1.037  -3.067   0.228  1.00  0.00    -0.222 NA
HETATM   13  C12 UNL     1       0.211  -3.987   0.801  1.00  0.00     0.236 A 
HETATM   14  N4  UNL     1      -1.076  -3.678   1.052  1.00  0.00    -0.240 NA
HETATM   15  C14 UNL     1      -2.888  -2.118   0.989  1.00  0.00     0.151 A 
HETATM   16  N5  UNL     1      -3.316  -0.887   0.656  1.00  0.00    -0.241 NA
BRANCH  10  17
HETATM   17  N2  UNL     1       1.489  -0.929  -0.689  1.00  0.00    -0.241 NA
HETATM   18  C8  UNL     1       2.488  -0.525   0.029  1.00  0.00     0.119 C 
BRANCH  18  19
HETATM   19  C9  UNL     1       3.433   0.406  -0.573  1.00  0.00     0.016 C 
HETATM   20  C10 UNL     1       4.465   0.853   0.098  1.00  0.00    -0.014 C 
BRANCH  20  21
HETATM   21  C11 UNL     1       5.541   1.792  -0.304  1.00  0.00     0.112 C 
HETATM   22 BR1  UNL     1       5.565   3.359   0.845  1.00  0.00    -0.092 Br
ENDBRANCH  20  21
ENDBRANCH  18  19
ENDBRANCH  10  17
ENDBRANCH   5   7
TORSDOF 4
