REMARK  9 active torsions:
REMARK  status: ('A' for Active; 'I' for Inactive)
REMARK    1  A    between atoms: O1_2  and  C2_3 
REMARK    2  A    between atoms: C6_9  and  N3_10 
REMARK    3  A    between atoms: N3_10  and  C7_11 
REMARK    4  A    between atoms: C15_20  and  C16_21 
REMARK    5  A    between atoms: C16_21  and  N4_22 
REMARK    6  A    between atoms: N4_22  and  B1_23 
REMARK    7  A    between atoms: B1_23  and  C17_24 
REMARK    8  A    between atoms: C17_24  and  C18_25 
REMARK    9  A    between atoms: C18_25  and  C20_27 
REMARK       I    between atoms: C20_27  and  N5_28 
ROOT
HETATM    1  C2  UNL     1       0.070   0.840   1.239  1.00  0.00     0.078 A 
HETATM    2  C3  UNL     1      -0.554   0.111   2.256  1.00  0.00     0.070 A 
HETATM    3  C4  UNL     1      -1.635  -0.733   2.038  1.00  0.00     0.074 A 
HETATM    4  N1  UNL     1      -2.195  -1.411   3.052  1.00  0.00    -0.241 NA
HETATM    5  C5  UNL     1      -3.242  -2.227   2.824  1.00  0.00     0.236 A 
HETATM    6  N2  UNL     1      -3.735  -2.370   1.574  1.00  0.00    -0.224 NA
HETATM    7  C6  UNL     1      -3.181  -1.695   0.548  1.00  0.00     0.142 A 
HETATM    8  C13 UNL     1      -2.102  -0.842   0.730  1.00  0.00     0.039 A 
HETATM    9  C14 UNL     1      -1.488  -0.125  -0.277  1.00  0.00     0.029 A 
HETATM   10  C15 UNL     1      -0.429   0.700  -0.050  1.00  0.00    -0.006 A 
ENDROOT
BRANCH  10  11
HETATM   11  C16 UNL     1       0.240   1.472  -1.126  1.00  0.00     0.161 C 
BRANCH  11  12
HETATM   12  N4  UNL     1       1.481   0.900  -1.517  1.00  0.00    -0.395 NA
BRANCH  12  13
HETATM   13  B1  UNL     1       2.922   0.976  -0.635  1.00  0.00     0.298 B 
BRANCH  13  14
HETATM   14  C17 UNL     1       4.513   0.847  -0.046  1.00  0.00    -0.016 C 
BRANCH  14  15
HETATM   15  C18 UNL     1       5.523   0.474  -1.098  1.00  0.00     0.066 C 
HETATM   16  C19 UNL     1       5.223  -0.855  -1.744  1.00  0.00     0.019 C 
BRANCH  15  17
HETATM   17  C20 UNL     1       6.912   0.545  -0.591  1.00  0.00     0.218 C 
HETATM   18  N5  UNL     1       7.404  -0.221   0.506  1.00  0.00    -0.370 N 
HETATM   19  H20 UNL     1       7.779  -1.076   0.036  1.00  0.00     0.159 HD
HETATM   20  H21 UNL     1       7.321   0.146   1.458  1.00  0.00     0.159 HD
HETATM   21  O2  UNL     1       7.820   1.283  -1.062  1.00  0.00    -0.273 OA
ENDBRANCH  15  17
ENDBRANCH  14  15
ENDBRANCH  13  14
ENDBRANCH  12  13
ENDBRANCH  11  12
ENDBRANCH  10  11
BRANCH   1  22
HETATM   22  O1  UNL     1       1.136   1.649   1.569  1.00  0.00    -0.355 OA
HETATM   23  C1  UNL     1       1.641   1.791   2.873  1.00  0.00     0.210 C 
ENDBRANCH   1  22
BRANCH   7  24
HETATM   24  N3  UNL     1      -3.630  -1.774  -0.820  1.00  0.00    -0.340 N 
HETATM   25  H6  UNL     1      -3.333  -2.402  -1.607  1.00  0.00     0.167 HD
BRANCH  24  26
HETATM   26  C7  UNL     1      -4.652  -0.827  -1.133  1.00  0.00     0.036 A 
HETATM   27  C8  UNL     1      -5.157   0.046  -0.181  1.00  0.00     0.029 A 
HETATM   28  C9  UNL     1      -6.147   0.986  -0.420  1.00  0.00     0.005 A 
HETATM   29  C10 UNL     1      -6.670   1.062  -1.692  1.00  0.00     0.042 A 
HETATM   30  C11 UNL     1      -6.201   0.215  -2.673  1.00  0.00     0.118 A 
HETATM   31  F1  UNL     1      -6.766   0.359  -3.879  1.00  0.00    -0.206 F 
HETATM   32  C12 UNL     1      -5.212  -0.703  -2.379  1.00  0.00     0.071 A 
ENDBRANCH  24  26
ENDBRANCH   7  24
TORSDOF 9
