REMARK  5 active torsions:
REMARK  status: ('A' for Active; 'I' for Inactive)
REMARK    1  A    between atoms: C2_2  and  C3_3 
REMARK    2  A    between atoms: C2_2  and  N2_5 
REMARK    3  A    between atoms: C3_3  and  N1_4 
REMARK    4  A    between atoms: N2_5  and  C4_6 
REMARK    5  A    between atoms: C7_12  and  C8_13 
ROOT
HETATM    1  C4  UNL     1       0.664  -0.889   0.601  1.00  0.00     0.396 A 
HETATM    2  N3  UNL     1       1.684  -1.909   0.503  1.00  0.00    -0.243 NA
HETATM    3  C5  UNL     1       1.168  -2.947  -0.048  1.00  0.00     0.212 A 
HETATM    4  N4  UNL     1      -0.203  -2.816  -0.396  1.00  0.00    -0.298 N 
HETATM    5  C6  UNL     1      -1.263  -3.432  -0.943  1.00  0.00     0.216 A 
HETATM    6  N5  UNL     1      -2.295  -2.565  -0.908  1.00  0.00    -0.241 NA
HETATM    7  C7  UNL     1      -1.858  -1.426  -0.341  1.00  0.00     0.095 A 
HETATM    8  C14 UNL     1      -0.517  -1.569  -0.006  1.00  0.00     0.102 A 
ENDROOT
BRANCH   1   9
HETATM    9  N2  UNL     1       1.087   0.244  -0.183  1.00  0.00     0.120 N 
HETATM   10  H9  UNL     1       1.071   0.050  -1.185  1.00  0.00     0.319 HD
BRANCH   9  11
HETATM   11  C2  UNL     1       2.310   0.770   0.319  1.00  0.00     0.247 C 
HETATM   12  C1  UNL     1       3.487  -0.156   0.294  1.00  0.00     0.044 C 
BRANCH  11  13
HETATM   13  C3  UNL     1       2.738   2.036  -0.434  1.00  0.00     0.302 C 
BRANCH  13  14
HETATM   14  N1  UNL     1       3.878   2.566   0.292  1.00  0.00     0.080 N 
HETATM   15  H7  UNL     1       4.015   2.130   1.218  1.00  0.00     0.312 HD
HETATM   16  H8  UNL     1       4.721   2.449  -0.284  1.00  0.00     0.312 HD
ENDBRANCH  13  14
ENDBRANCH  11  13
ENDBRANCH   9  11
ENDBRANCH   1   9
BRANCH   7  17
HETATM   17  C8  UNL     1      -2.669  -0.236  -0.116  1.00  0.00    -0.004 A 
HETATM   18  C9  UNL     1      -2.703   0.512   1.040  1.00  0.00     0.014 A 
HETATM   19  C10 UNL     1      -3.507   1.628   1.157  1.00  0.00     0.002 A 
HETATM   20  C11 UNL     1      -4.278   1.967   0.070  1.00  0.00     0.019 A 
HETATM   21  C12 UNL     1      -4.283   1.246  -1.123  1.00  0.00     0.011 A 
HETATM   22 BR1  UNL     1      -5.371   1.752  -2.612  1.00  0.00    -0.051 Br
HETATM   23  C13 UNL     1      -3.468   0.143  -1.198  1.00  0.00     0.033 A 
ENDBRANCH   7  17
TORSDOF 5
