REMARK  4 active torsions:
REMARK  status: ('A' for Active; 'I' for Inactive)
REMARK    1  A    between atoms: C2_2  and  C3_3 
REMARK    2  A    between atoms: C3_3  and  C4_4 
REMARK    3  A    between atoms: C9_11  and  N3_12 
REMARK    4  A    between atoms: C10_14  and  N4_15 
ROOT
HETATM    1  C4  UNL     1      -3.389  -0.858   0.505  1.00  0.00     0.121 A 
HETATM    2  C5  UNL     1      -3.948  -2.271   0.723  1.00  0.00     0.065 C 
HETATM    3  N1  UNL     1      -3.185  -0.300   1.807  1.00  0.00    -0.268 NA
HETATM    4  C6  UNL     1      -2.023   0.057   2.242  1.00  0.00     0.146 A 
HETATM    5  C7  UNL     1      -0.763  -0.057   1.476  1.00  0.00     0.095 A 
HETATM    6  N2  UNL     1       0.218   0.373   2.163  1.00  0.00    -0.280 NA
HETATM    7  C8  UNL     1       1.614   0.467   1.858  1.00  0.00     0.205 A 
HETATM    8  C9  UNL     1       2.011  -0.014   0.517  1.00  0.00     0.013 A 
HETATM    9  C14 UNL     1       1.507  -0.537  -0.583  1.00  0.00     0.027 A 
HETATM   10  C15 UNL     1       0.079  -0.812  -0.711  1.00  0.00     0.033 A 
HETATM   11  C16 UNL     1      -0.913  -0.620   0.143  1.00  0.00     0.060 A 
HETATM   12  N5  UNL     1      -2.202  -0.992  -0.279  1.00  0.00    -0.361 N 
HETATM   13  H21 UNL     1      -2.306  -1.395  -1.234  1.00  0.00     0.162 HD
ENDROOT
BRANCH   8  14
HETATM   14  N3  UNL     1       3.401   0.191   0.487  1.00  0.00    -0.429 N 
HETATM   15  B1  UNL     1       4.223   1.740   0.098  1.00  0.00     0.332 B 
HETATM   16  C10 UNL     1       5.734   1.161  -0.965  1.00  0.00    -0.018 C 
HETATM   17  C11 UNL     1       5.851  -0.275  -1.190  1.00  0.00     0.039 C 
HETATM   18 CL1  UNL     1       6.853  -0.714  -2.557  1.00  0.00    -0.084 Cl
HETATM   19  C12 UNL     1       5.238  -1.150  -0.408  1.00  0.00     0.016 C 
HETATM   20  C13 UNL     1       4.387  -0.773   0.753  1.00  0.00     0.133 C 
BRANCH  16  21
HETATM   21  N4  UNL     1       6.593   2.172  -1.433  1.00  0.00    -0.313 NA
HETATM   22  H14 UNL     1       6.699   2.495  -2.418  1.00  0.00     0.123 HD
HETATM   23  H15 UNL     1       6.303   2.079  -2.437  1.00  0.00     0.123 HD
ENDBRANCH  16  21
ENDBRANCH   8  14
BRANCH   1  24
HETATM   24  C3  UNL     1      -4.485  -0.093  -0.177  1.00  0.00     0.055 C 
BRANCH  24  25
HETATM   25  C2  UNL     1      -4.148   1.337  -0.490  1.00  0.00    -0.000 C 
HETATM   26  C1  UNL     1      -5.374   1.938  -1.174  1.00  0.00     0.005 C 
ENDBRANCH  24  25
ENDBRANCH   1  24
TORSDOF 4
