REMARK  7 active torsions:
REMARK  status: ('A' for Active; 'I' for Inactive)
REMARK    1  A    between atoms: C2_2  and  C3_3 
REMARK    2  A    between atoms: N1_4  and  C4_5 
REMARK    3  A    between atoms: C4_5  and  N4_17 
REMARK    4  A    between atoms: C5_6  and  C6_7 
REMARK       I    between atoms: N4_17  and  C12_18 
REMARK    5  A    between atoms: C12_18  and  C13_20 
REMARK    6  A    between atoms: C14_21  and  C15_22 
REMARK    7  A    between atoms: C15_22  and  C16_23 
ROOT
HETATM    1  C4  UNL     1      -0.395  -0.556  -0.012  1.00  0.00     0.132 C 
HETATM    2  C5  UNL     1      -1.181  -1.313   0.733  1.00  0.00     0.084 C 
ENDROOT
BRANCH   1   3
HETATM    3  N1  UNL     1      -0.331   0.382  -1.054  1.00  0.00    -0.247 NA
HETATM    4  C3  UNL     1      -0.507   1.648  -0.820  1.00  0.00     0.091 C 
BRANCH   4   5
HETATM    5  C2  UNL     1      -0.358   2.272  -2.177  1.00  0.00     0.042 C 
HETATM    6  C1  UNL     1      -0.481   3.769  -1.975  1.00  0.00     0.010 C 
ENDBRANCH   4   5
ENDBRANCH   1   3
BRANCH   1   7
HETATM    7  N4  UNL     1       1.009  -0.600   0.201  1.00  0.00    -0.301 N 
HETATM    8  C12 UNL     1       2.053   0.261   0.574  1.00  0.00     0.302 C 
HETATM    9  O1  UNL     1       1.791   1.465   0.821  1.00  0.00    -0.258 OA
HETATM   10  H13 UNL     1       1.300  -1.605   0.004  1.00  0.00     0.171 HD
BRANCH   8  11
HETATM   11  C13 UNL     1       3.410  -0.222   0.674  1.00  0.00    -0.005 C 
HETATM   12  C14 UNL     1       4.542  -0.624   0.776  1.00  0.00    -0.096 C 
BRANCH  12  13
HETATM   13  C15 UNL     1       5.917  -1.093   0.905  1.00  0.00     0.094 C 
BRANCH  13  14
HETATM   14  C16 UNL     1       6.828   0.113   0.745  1.00  0.00     0.007 C 
HETATM   15  C17 UNL     1       6.644   0.771  -0.605  1.00  0.00     0.006 C 
ENDBRANCH  13  14
ENDBRANCH  12  13
ENDBRANCH   8  11
ENDBRANCH   1   7
BRANCH   2  16
HETATM   16  C6  UNL     1      -2.626  -1.449   0.697  1.00  0.00     0.083 C 
HETATM   17  N2  UNL     1      -3.107  -2.267   1.565  1.00  0.00    -0.179 NA
HETATM   18  N3  UNL     1      -4.389  -2.699   1.889  1.00  0.00    -0.310 N 
HETATM   19  C7  UNL     1      -5.702  -2.742   1.297  1.00  0.00     0.170 C 
HETATM   20  H8  UNL     1      -4.370  -3.119   2.865  1.00  0.00     0.182 HD
HETATM   21  C8  UNL     1      -6.212  -1.423   0.863  1.00  0.00     0.021 C 
HETATM   22  C9  UNL     1      -5.789  -0.390   0.125  1.00  0.00     0.070 C 
HETATM   23 CL1  UNL     1      -6.846   1.011  -0.089  1.00  0.00    -0.081 Cl
HETATM   24  C10 UNL     1      -4.529  -0.192  -0.586  1.00  0.00     0.140 C 
HETATM   25  F1  UNL     1      -4.662   0.574  -1.696  1.00  0.00    -0.204 F 
HETATM   26  C11 UNL     1      -3.284  -0.625  -0.338  1.00  0.00     0.077 C 
ENDBRANCH   2  16
TORSDOF 7
