REMARK  5 active torsions:
REMARK  status: ('A' for Active; 'I' for Inactive)
REMARK    1  A    between atoms: C2_2  and  C3_3 
REMARK    2  A    between atoms: C4_4  and  C5_5 
REMARK       I    between atoms: C5_5  and  N1_7 
REMARK    3  A    between atoms: N1_7  and  C6_8 
REMARK    4  A    between atoms: C9_11  and  N2_12 
REMARK    5  A    between atoms: N2_12  and  C10_13 
ROOT
HETATM    1  C6  UNL     1      -1.409  -1.183   1.139  1.00  0.00     0.131 A 
HETATM    2  C7  UNL     1      -0.169  -0.746   0.756  1.00  0.00     0.068 A 
HETATM    3  C8  UNL     1       1.022  -1.136   1.313  1.00  0.00     0.044 A 
HETATM    4  C9  UNL     1       2.268  -0.697   0.928  1.00  0.00     0.142 A 
HETATM    5  N3  UNL     1       3.288  -1.201   1.600  1.00  0.00    -0.224 NA
HETATM    6  C16 UNL     1       3.203  -2.082   2.599  1.00  0.00     0.236 A 
HETATM    7  N4  UNL     1       1.978  -2.500   2.962  1.00  0.00    -0.240 NA
HETATM    8  C17 UNL     1       0.896  -2.042   2.338  1.00  0.00     0.089 A 
HETATM    9  C18 UNL     1      -0.329  -2.513   2.761  1.00  0.00     0.151 A 
HETATM   10  N5  UNL     1      -1.480  -2.085   2.164  1.00  0.00    -0.241 NA
ENDROOT
BRANCH   4  11
HETATM   11  N2  UNL     1       2.351   0.240  -0.135  1.00  0.00    -0.340 N 
HETATM   12  H8  UNL     1       1.522   0.590  -0.612  1.00  0.00     0.167 HD
BRANCH  11  13
HETATM   13  C10 UNL     1       3.485   0.853  -0.732  1.00  0.00     0.035 A 
HETATM   14  C11 UNL     1       3.472   1.766  -1.766  1.00  0.00     0.032 A 
HETATM   15  C12 UNL     1       4.605   2.323  -2.300  1.00  0.00     0.046 A 
HETATM   16  C13 UNL     1       5.853   1.997  -1.823  1.00  0.00     0.138 A 
HETATM   17  F1  UNL     1       6.883   2.613  -2.432  1.00  0.00    -0.204 F 
HETATM   18  C14 UNL     1       5.915   1.089  -0.790  1.00  0.00     0.074 A 
HETATM   19 CL1  UNL     1       7.525   0.708  -0.220  1.00  0.00    -0.081 Cl
HETATM   20  C15 UNL     1       4.751   0.553  -0.283  1.00  0.00     0.056 A 
ENDBRANCH  11  13
ENDBRANCH   4  11
BRANCH   1  21
HETATM   21  N1  UNL     1      -2.610  -0.738   0.518  1.00  0.00    -0.301 N 
HETATM   22  C5  UNL     1      -3.427   0.389   0.876  1.00  0.00     0.302 C 
HETATM   23  O1  UNL     1      -3.086   1.108   1.851  1.00  0.00    -0.258 OA
HETATM   24  H6  UNL     1      -2.852  -1.368  -0.286  1.00  0.00     0.171 HD
BRANCH  22  25
HETATM   25  C4  UNL     1      -4.604   0.639   0.091  1.00  0.00    -0.005 C 
HETATM   26  C3  UNL     1      -5.598   0.833  -0.566  1.00  0.00    -0.097 C 
BRANCH  26  27
HETATM   27  C2  UNL     1      -6.799   1.093  -1.370  1.00  0.00     0.090 C 
HETATM   28  C1  UNL     1      -6.873   0.015  -2.436  1.00  0.00     0.018 C 
ENDBRANCH  26  27
ENDBRANCH  22  25
ENDBRANCH   1  21
TORSDOF 5
