REMARK  3 active torsions:
REMARK  status: ('A' for Active; 'I' for Inactive)
REMARK    1  A    between atoms: N1_1  and  C1_2 
REMARK    2  A    between atoms: C6_9  and  N4_10 
REMARK    3  A    between atoms: N4_10  and  C7_11 
ROOT
HETATM    1  C1  UNL     1      -0.557   2.094   0.879  1.00  0.00     0.212 C 
HETATM    2  C2  UNL     1      -0.639   0.788   0.539  1.00  0.00     0.172 C 
HETATM    3  C3  UNL     1       0.411  -0.117   0.859  1.00  0.00     0.026 A 
HETATM    4  C4  UNL     1      -0.322  -1.387   1.057  1.00  0.00     0.085 A 
HETATM    5  N2  UNL     1      -0.182  -2.605   1.363  1.00  0.00    -0.240 NA
HETATM    6  C5  UNL     1       1.177  -2.885   1.608  1.00  0.00     0.236 A 
HETATM    7  N3  UNL     1       2.105  -1.942   1.498  1.00  0.00    -0.224 NA
HETATM    8  C6  UNL     1       1.669  -0.674   1.146  1.00  0.00     0.138 A 
HETATM    9  C13 UNL     1      -1.825  -1.343   0.773  1.00  0.00     0.142 C 
HETATM   10  N5  UNL     1      -2.417  -1.957  -0.164  1.00  0.00    -0.299 NA
HETATM   11  C14 UNL     1      -3.649  -2.115  -0.721  1.00  0.00     0.149 C 
HETATM   12  C15 UNL     1      -4.298  -1.048  -1.414  1.00  0.00     0.034 C 
HETATM   13  C16 UNL     1      -4.815   0.249  -0.975  1.00  0.00     0.096 C 
HETATM   14  C17 UNL     1      -3.777   1.084  -0.469  1.00  0.00    -0.098 C 
HETATM   15  C18 UNL     1      -2.966   1.714  -0.069  1.00  0.00    -0.027 C 
HETATM   16  C19 UNL     1      -1.953   2.494   0.458  1.00  0.00     0.236 C 
HETATM   17  O1  UNL     1      -2.621   3.537   0.454  1.00  0.00    -0.281 OA
ENDROOT
BRANCH   8  18
HETATM   18  N4  UNL     1       2.499   0.506   0.935  1.00  0.00    -0.340 N 
HETATM   19  H5  UNL     1       2.519   1.334   1.545  1.00  0.00     0.167 HD
BRANCH  18  20
HETATM   20  C7  UNL     1       3.257   0.252  -0.269  1.00  0.00     0.035 A 
HETATM   21  C8  UNL     1       3.140  -0.818  -1.131  1.00  0.00     0.032 A 
HETATM   22  C9  UNL     1       3.960  -0.916  -2.205  1.00  0.00     0.046 A 
HETATM   23  C10 UNL     1       4.907   0.056  -2.422  1.00  0.00     0.138 A 
HETATM   24  F1  UNL     1       5.736  -0.056  -3.502  1.00  0.00    -0.204 F 
HETATM   25  C11 UNL     1       5.087   1.174  -1.592  1.00  0.00     0.074 A 
HETATM   26 CL1  UNL     1       6.338   2.333  -1.998  1.00  0.00    -0.081 Cl
HETATM   27  C12 UNL     1       4.203   1.209  -0.502  1.00  0.00     0.056 A 
ENDBRANCH  18  20
ENDBRANCH   8  18
BRANCH   1  28
HETATM   28  N1  UNL     1      -0.270   3.451   1.334  1.00  0.00     0.092 NA
HETATM   29  H1  UNL     1       0.311   3.367   2.180  1.00  0.00     0.313 HD
HETATM   30  H2  UNL     1       0.326   3.527   2.207  1.00  0.00     0.313 HD
ENDBRANCH   1  28
TORSDOF 3
