REMARK  4 active torsions:
REMARK  status: ('A' for Active; 'I' for Inactive)
REMARK    1  A    between atoms: C1_2  and  N1_3 
REMARK    2  A    between atoms: N1_3  and  C2_4 
REMARK    3  A    between atoms: C5_7  and  N2_8 
REMARK    4  A    between atoms: N2_8  and  C6_9 
ROOT
HETATM    1  C2  UNL     1       2.720  -0.699   0.828  1.00  0.00     0.129 C 
HETATM    2  C3  UNL     1       1.425  -0.787   0.368  1.00  0.00     0.054 C 
HETATM    3  C4  UNL     1       0.572  -0.272  -0.583  1.00  0.00     0.054 C 
HETATM    4  C5  UNL     1      -0.130   0.890  -0.813  1.00  0.00     0.129 C 
HETATM    5  N3  UNL     1       0.845   1.743  -1.157  1.00  0.00    -0.225 NA
HETATM    6  C12 UNL     1       1.212   2.790  -0.372  1.00  0.00     0.234 C 
HETATM    7  N4  UNL     1       2.070   3.122   0.639  1.00  0.00    -0.253 NA
HETATM    8  C13 UNL     1       3.265   2.469   0.697  1.00  0.00     0.137 C 
HETATM    9  C14 UNL     1       3.853   1.262   0.316  1.00  0.00     0.138 C 
HETATM   10  N5  UNL     1       3.240   0.471   1.246  1.00  0.00    -0.242 NA
ENDROOT
BRANCH   4  11
HETATM   11  N2  UNL     1      -1.478   1.231  -0.745  1.00  0.00    -0.341 N 
HETATM   12  H5  UNL     1      -1.697   2.219  -0.994  1.00  0.00     0.167 HD
BRANCH  11  13
HETATM   13  C6  UNL     1      -2.564   0.403  -0.383  1.00  0.00     0.035 A 
HETATM   14  C7  UNL     1      -3.877   0.892  -0.389  1.00  0.00     0.032 A 
HETATM   15  C8  UNL     1      -4.956   0.118  -0.043  1.00  0.00     0.046 A 
HETATM   16  C9  UNL     1      -4.793  -1.181   0.326  1.00  0.00     0.138 A 
HETATM   17  F1  UNL     1      -5.868  -1.930   0.664  1.00  0.00    -0.204 F 
HETATM   18  C10 UNL     1      -3.529  -1.712   0.349  1.00  0.00     0.074 A 
HETATM   19 CL1  UNL     1      -3.304  -3.397   0.827  1.00  0.00    -0.081 Cl
HETATM   20  C11 UNL     1      -2.470  -0.913  -0.002  1.00  0.00     0.056 A 
ENDBRANCH  11  13
ENDBRANCH   4  11
BRANCH   1  21
HETATM   21  N1  UNL     1       3.506  -1.842   0.859  1.00  0.00    -0.319 N 
HETATM   22  H2  UNL     1       4.513  -1.828   1.208  1.00  0.00     0.169 HD
BRANCH  21  23
HETATM   23  C1  UNL     1       3.096  -3.129   0.450  1.00  0.00     0.354 C 
HETATM   24  O1  UNL     1       1.953  -3.319   0.018  1.00  0.00    -0.283 OA
ENDBRANCH  21  23
ENDBRANCH   1  21
TORSDOF 4
