REMARK  6 active torsions:
REMARK  status: ('A' for Active; 'I' for Inactive)
REMARK    1  A    between atoms: N1_7  and  C6_8 
REMARK    2  A    between atoms: C6_8  and  C7_9 
REMARK    3  A    between atoms: C7_9  and  O2_10 
REMARK    4  A    between atoms: O2_10  and  C8_11 
REMARK    5  A    between atoms: C10_13  and  N2_14 
REMARK    6  A    between atoms: C18_23  and  O3_24 
ROOT
HETATM    1  C8  UNL     1      -0.601  -1.683   0.203  1.00  0.00     0.100 A 
HETATM    2  C9  UNL     1      -1.525  -0.837   0.655  1.00  0.00     0.048 A 
HETATM    3  C10 UNL     1      -3.000  -0.668   0.635  1.00  0.00     0.256 A 
HETATM    4  C16 UNL     1      -3.606  -1.796  -0.128  1.00  0.00     0.070 A 
HETATM    5  C17 UNL     1      -2.531  -2.697  -0.599  1.00  0.00     0.015 A 
HETATM    6  C18 UNL     1      -1.214  -2.799  -0.550  1.00  0.00     0.097 A 
ENDROOT
BRANCH   1   7
HETATM    7  O2  UNL     1       0.775  -1.662   0.334  1.00  0.00    -0.347 OA
BRANCH   7   8
HETATM    8  C7  UNL     1       1.554  -0.508   0.052  1.00  0.00     0.195 C 
BRANCH   8   9
HETATM    9  C6  UNL     1       2.996  -0.803   0.283  1.00  0.00     0.149 C 
BRANCH   9  10
HETATM   10  N1  UNL     1       3.886   0.295   0.032  1.00  0.00    -0.382 N 
HETATM   11  C2  UNL     1       3.705   1.631  -0.391  1.00  0.00     0.009 C 
HETATM   12  C1  UNL     1       2.446   1.899  -0.678  1.00  0.00     0.060 C 
HETATM   13  C3  UNL     1       4.826   2.572  -0.482  1.00  0.00     0.219 C 
HETATM   14  O1  UNL     1       5.928   2.157   0.264  1.00  0.00    -0.384 OA
HETATM   15  C4  UNL     1       6.291   0.865  -0.025  1.00  0.00     0.187 C 
HETATM   16  C5  UNL     1       5.237  -0.169   0.301  1.00  0.00     0.149 C 
ENDBRANCH   9  10
ENDBRANCH   8   9
ENDBRANCH   7   8
ENDBRANCH   1   7
BRANCH   6  17
HETATM   17  O3  UNL     1      -0.518  -3.831  -1.136  1.00  0.00    -0.353 OA
HETATM   18  C19 UNL     1       0.022  -4.922  -0.409  1.00  0.00     0.210 C 
ENDBRANCH   6  17
BRANCH   3  19
HETATM   19  N2  UNL     1      -3.376   0.651   0.188  1.00  0.00     0.134 N 
HETATM   20  C11 UNL     1      -4.796   0.804   0.189  1.00  0.00     0.304 C 
HETATM   21  C12 UNL     1      -5.183   2.113  -0.462  1.00  0.00    -0.001 C 
HETATM   22  C13 UNL     1      -4.470   3.094   0.134  1.00  0.00    -0.024 C 
HETATM   23  C14 UNL     1      -3.486   2.896   1.233  1.00  0.00     0.096 C 
HETATM   24  C15 UNL     1      -2.745   1.612   1.075  1.00  0.00     0.409 C 
HETATM   25  F1  UNL     1      -2.639   1.065   2.363  1.00  0.00    -0.216 F 
ENDBRANCH   3  19
TORSDOF 6
