REMARK  8 active torsions:
REMARK  status: ('A' for Active; 'I' for Inactive)
REMARK    1  A    between atoms: O1_2  and  C2_3 
REMARK    2  A    between atoms: C5_6  and  N1_7 
REMARK    3  A    between atoms: N1_7  and  C6_8 
REMARK    4  A    between atoms: C13_17  and  O2_18 
REMARK    5  A    between atoms: O2_18  and  C14_19 
REMARK    6  A    between atoms: C14_19  and  C15_20 
REMARK    7  A    between atoms: C15_20  and  C16_21 
REMARK    8  A    between atoms: C16_21  and  N2_22 
ROOT
HETATM    1  C2  UNL     1       0.427  -1.222  -0.052  1.00  0.00     0.124 C 
HETATM    2  C3  UNL     1       1.755  -1.369  -0.356  1.00  0.00     0.051 C 
HETATM    3  C4  UNL     1       2.603  -0.120  -0.681  1.00  0.00     0.120 C 
HETATM    4  C5  UNL     1       3.045   0.068   0.813  1.00  0.00     0.153 C 
HETATM    5  C12 UNL     1       1.690   0.224   1.461  1.00  0.00     0.068 C 
HETATM    6  C13 UNL     1       0.481  -0.222   1.067  1.00  0.00     0.104 C 
HETATM    7  N3  UNL     1       3.740  -1.144   1.136  1.00  0.00    -0.248 NA
HETATM    8  C21 UNL     1       3.590  -2.316   0.571  1.00  0.00     0.204 C 
HETATM    9  N4  UNL     1       2.481  -2.644  -0.337  1.00  0.00    -0.352 N 
HETATM   10  H26 UNL     1       1.978  -3.337  -0.927  1.00  0.00     0.166 HD
ENDROOT
BRANCH   4  11
HETATM   11  N1  UNL     1       3.864   1.192   0.997  1.00  0.00    -0.358 N 
HETATM   12  H6  UNL     1       3.429   1.963   1.588  1.00  0.00     0.162 HD
BRANCH  11  13
HETATM   13  C6  UNL     1       5.164   1.461   0.529  1.00  0.00     0.032 A 
HETATM   14  C7  UNL     1       5.788   2.685   0.800  1.00  0.00     0.032 A 
HETATM   15  C8  UNL     1       7.053   3.029   0.395  1.00  0.00     0.046 A 
HETATM   16  C9  UNL     1       7.735   2.078  -0.331  1.00  0.00     0.138 A 
HETATM   17  F1  UNL     1       8.987   2.403  -0.739  1.00  0.00    -0.204 F 
HETATM   18  C10 UNL     1       7.212   0.831  -0.657  1.00  0.00     0.074 A 
HETATM   19 CL1  UNL     1       8.124  -0.345  -1.585  1.00  0.00    -0.081 Cl
HETATM   20  C11 UNL     1       5.948   0.597  -0.203  1.00  0.00     0.056 A 
ENDBRANCH  11  13
ENDBRANCH   4  11
BRANCH   6  21
HETATM   21  O2  UNL     1      -0.813   0.033   1.466  1.00  0.00    -0.348 OA
BRANCH  21  22
HETATM   22  C14 UNL     1      -1.814   0.536   0.605  1.00  0.00     0.177 C 
BRANCH  22  23
HETATM   23  C15 UNL     1      -3.093   0.716   1.432  1.00  0.00     0.057 C 
BRANCH  23  24
HETATM   24  C16 UNL     1      -4.153   1.253   0.494  1.00  0.00     0.274 C 
BRANCH  24  25
HETATM   25  N2  UNL     1      -4.410   0.351  -0.603  1.00  0.00     0.092 N 
HETATM   26  C17 UNL     1      -5.418   0.918  -1.447  1.00  0.00     0.298 C 
HETATM   27  C18 UNL     1      -6.808   0.444  -1.078  1.00  0.00     0.198 C 
HETATM   28  O3  UNL     1      -6.931   0.177   0.283  1.00  0.00    -0.388 OA
HETATM   29  C19 UNL     1      -6.051  -0.803   0.711  1.00  0.00     0.198 C 
HETATM   30  C20 UNL     1      -4.840  -0.946  -0.161  1.00  0.00     0.298 C 
ENDBRANCH  24  25
ENDBRANCH  23  24
ENDBRANCH  22  23
ENDBRANCH  21  22
ENDBRANCH   6  21
BRANCH   1  31
HETATM   31  O1  UNL     1      -0.346  -2.021  -0.862  1.00  0.00    -0.351 OA
HETATM   32  C1  UNL     1      -0.995  -3.194  -0.434  1.00  0.00     0.210 C 
ENDBRANCH   1  31
TORSDOF 8
