REMARK  7 active torsions:
REMARK  status: ('A' for Active; 'I' for Inactive)
REMARK    1  A    between atoms: O1_2  and  C2_3 
REMARK    2  A    between atoms: C6_9  and  N3_10 
REMARK    3  A    between atoms: N3_10  and  C7_11 
REMARK    4  A    between atoms: C15_21  and  O2_22 
REMARK    5  A    between atoms: O2_22  and  C16_23 
REMARK    6  A    between atoms: C16_23  and  C17_24 
REMARK    7  A    between atoms: C17_24  and  N4_25 
ROOT
HETATM    1  C2  UNL     1       0.182  -2.511  -2.164  1.00  0.00     0.103 A 
HETATM    2  C3  UNL     1       1.397  -3.103  -2.439  1.00  0.00     0.072 A 
HETATM    3  C4  UNL     1       2.477  -2.813  -1.645  1.00  0.00     0.075 A 
HETATM    4  N1  UNL     1       3.683  -3.372  -1.880  1.00  0.00    -0.241 NA
HETATM    5  C5  UNL     1       4.730  -3.078  -1.092  1.00  0.00     0.236 A 
HETATM    6  N2  UNL     1       4.620  -2.220  -0.043  1.00  0.00    -0.224 NA
HETATM    7  C6  UNL     1       3.432  -1.627   0.243  1.00  0.00     0.142 A 
HETATM    8  C13 UNL     1       2.361  -1.934  -0.571  1.00  0.00     0.042 A 
HETATM    9  C14 UNL     1       1.132  -1.333  -0.289  1.00  0.00     0.057 A 
HETATM   10  C15 UNL     1       0.031  -1.629  -1.100  1.00  0.00     0.103 A 
ENDROOT
BRANCH   7  11
HETATM   11  N3  UNL     1       3.312  -0.730   1.339  1.00  0.00    -0.340 N 
HETATM   12  H6  UNL     1       3.039  -1.203   2.211  1.00  0.00     0.167 HD
BRANCH  11  13
HETATM   13  C7  UNL     1       3.549   0.667   1.217  1.00  0.00     0.035 A 
HETATM   14  C8  UNL     1       3.920   1.156  -0.017  1.00  0.00     0.032 A 
HETATM   15  C9  UNL     1       4.149   2.534  -0.111  1.00  0.00     0.046 A 
HETATM   16  C10 UNL     1       3.993   3.323   1.019  1.00  0.00     0.138 A 
HETATM   17  F1  UNL     1       4.207   4.667   0.961  1.00  0.00    -0.204 F 
HETATM   18  C11 UNL     1       3.619   2.804   2.244  1.00  0.00     0.074 A 
HETATM   19 CL1  UNL     1       3.418   3.780   3.677  1.00  0.00    -0.081 Cl
HETATM   20  C12 UNL     1       3.392   1.448   2.346  1.00  0.00     0.056 A 
ENDBRANCH  11  13
ENDBRANCH   7  11
BRANCH  10  21
HETATM   21  O2  UNL     1      -1.245  -1.121  -0.954  1.00  0.00    -0.347 OA
BRANCH  21  22
HETATM   22  C16 UNL     1      -1.683  -0.225   0.019  1.00  0.00     0.195 C 
BRANCH  22  23
HETATM   23  C17 UNL     1      -3.166   0.085  -0.175  1.00  0.00     0.143 C 
BRANCH  23  24
HETATM   24  N4  UNL     1      -3.707   0.987   0.764  1.00  0.00    -0.406 N 
HETATM   25  C18 UNL     1      -3.256   2.327   0.707  1.00  0.00     0.143 C 
HETATM   26  C19 UNL     1      -3.984   3.289   1.581  1.00  0.00     0.187 C 
HETATM   27  O3  UNL     1      -5.294   2.973   1.861  1.00  0.00    -0.388 OA
HETATM   28  C20 UNL     1      -5.317   1.658   2.376  1.00  0.00     0.187 C 
HETATM   29  C21 UNL     1      -5.048   0.776   1.174  1.00  0.00     0.143 C 
ENDBRANCH  23  24
ENDBRANCH  22  23
ENDBRANCH  21  22
ENDBRANCH  10  21
BRANCH   1  30
HETATM   30  O1  UNL     1      -0.869  -2.836  -2.992  1.00  0.00    -0.353 OA
HETATM   31  C1  UNL     1      -0.689  -3.732  -4.064  1.00  0.00     0.210 C 
ENDBRANCH   1  30
TORSDOF 7
