REMARK  8 active torsions:
REMARK  status: ('A' for Active; 'I' for Inactive)
REMARK    1  A    between atoms: O1_2  and  C2_3 
REMARK    2  A    between atoms: C6_9  and  N3_10 
REMARK    3  A    between atoms: N3_10  and  C7_11 
REMARK    4  A    between atoms: C15_21  and  O2_22 
REMARK    5  A    between atoms: O2_22  and  C16_23 
REMARK    6  A    between atoms: C16_23  and  C17_24 
REMARK    7  A    between atoms: C17_24  and  C18_25 
REMARK    8  A    between atoms: C18_25  and  N4_26 
ROOT
HETATM    1  C2  UNL     1       0.164  -0.582  -3.081  1.00  0.00     0.103 A 
HETATM    2  C3  UNL     1       1.381  -0.698  -3.715  1.00  0.00     0.072 A 
HETATM    3  C4  UNL     1       2.527  -0.625  -2.997  1.00  0.00     0.075 A 
HETATM    4  N1  UNL     1       3.709  -0.745  -3.668  1.00  0.00    -0.241 NA
HETATM    5  C5  UNL     1       4.868  -0.677  -2.979  1.00  0.00     0.236 A 
HETATM    6  N2  UNL     1       4.884  -0.495  -1.659  1.00  0.00    -0.224 NA
HETATM    7  C6  UNL     1       3.783  -0.370  -0.940  1.00  0.00     0.142 A 
HETATM    8  C13 UNL     1       2.602  -0.437  -1.625  1.00  0.00     0.042 A 
HETATM    9  C14 UNL     1       1.358  -0.328  -1.053  1.00  0.00     0.057 A 
HETATM   10  C15 UNL     1       0.152  -0.393  -1.719  1.00  0.00     0.103 A 
ENDROOT
BRANCH   7  11
HETATM   11  N3  UNL     1       3.770  -0.185   0.445  1.00  0.00    -0.340 N 
HETATM   12  H6  UNL     1       2.890  -0.110   0.994  1.00  0.00     0.167 HD
BRANCH  11  13
HETATM   13  C7  UNL     1       4.877  -0.068   1.319  1.00  0.00     0.035 A 
HETATM   14  C8  UNL     1       6.150   0.145   0.895  1.00  0.00     0.032 A 
HETATM   15  C9  UNL     1       7.259   0.253   1.697  1.00  0.00     0.046 A 
HETATM   16  C10 UNL     1       7.116   0.141   3.077  1.00  0.00     0.138 A 
HETATM   17  F1  UNL     1       8.123   0.227   3.957  1.00  0.00    -0.204 F 
HETATM   18  C11 UNL     1       5.847  -0.075   3.566  1.00  0.00     0.074 A 
HETATM   19 CL1  UNL     1       5.597  -0.226   5.286  1.00  0.00    -0.081 Cl
HETATM   20  C12 UNL     1       4.789  -0.172   2.702  1.00  0.00     0.056 A 
ENDBRANCH  11  13
ENDBRANCH   7  11
BRANCH  10  21
HETATM   21  O2  UNL     1      -1.063  -0.277  -1.093  1.00  0.00    -0.348 OA
BRANCH  21  22
HETATM   22  C16 UNL     1      -1.259  -0.077   0.288  1.00  0.00     0.177 C 
BRANCH  22  23
HETATM   23  C17 UNL     1      -2.752  -0.013   0.512  1.00  0.00     0.046 C 
BRANCH  23  24
HETATM   24  C18 UNL     1      -3.126   0.196   1.939  1.00  0.00     0.119 C 
BRANCH  24  25
HETATM   25  N4  UNL     1      -4.542   0.246   2.064  1.00  0.00    -0.408 N 
HETATM   26  C19 UNL     1      -5.264  -0.952   1.827  1.00  0.00     0.143 C 
HETATM   27  C20 UNL     1      -6.352  -0.631   0.821  1.00  0.00     0.187 C 
HETATM   28  O3  UNL     1      -7.255   0.299   1.316  1.00  0.00    -0.388 OA
HETATM   29  C21 UNL     1      -6.659   1.447   1.801  1.00  0.00     0.187 C 
HETATM   30  C22 UNL     1      -5.161   1.461   1.655  1.00  0.00     0.143 C 
ENDBRANCH  24  25
ENDBRANCH  23  24
ENDBRANCH  22  23
ENDBRANCH  21  22
ENDBRANCH  10  21
BRANCH   1  31
HETATM   31  O1  UNL     1      -1.030  -0.651  -3.780  1.00  0.00    -0.353 OA
HETATM   32  C1  UNL     1      -1.011  -0.844  -5.164  1.00  0.00     0.210 C 
ENDBRANCH   1  31
TORSDOF 8
