REMARK  6 active torsions:
REMARK  status: ('A' for Active; 'I' for Inactive)
REMARK    1  A    between atoms: C2_2  and  C3_3 
REMARK    2  A    between atoms: C2_2  and  C4_5 
REMARK    3  A    between atoms: C4_5  and  C5_6 
REMARK    4  A    between atoms: C5_6  and  C6_7 
REMARK    5  A    between atoms: C6_7  and  C7_8 
REMARK    6  A    between atoms: C10_11  and  N1_12 
ROOT
HETATM    1  C7  UNL     1       1.099  -0.723  -0.623  1.00  0.00     0.035 A 
HETATM    2  C8  UNL     1      -0.275  -0.584  -0.546  1.00  0.00     0.045 A 
HETATM    3  C9  UNL     1      -0.921  -1.329   0.418  1.00  0.00     0.042 A 
HETATM    4  C10 UNL     1      -2.281  -1.192   0.496  1.00  0.00     0.142 A 
HETATM    5  N2  UNL     1      -2.945  -1.911   1.433  1.00  0.00    -0.224 NA
HETATM    6  C16 UNL     1      -2.262  -2.745   2.269  1.00  0.00     0.236 A 
HETATM    7  N3  UNL     1      -0.912  -2.859   2.166  1.00  0.00    -0.240 NA
HETATM    8  C17 UNL     1      -0.207  -2.167   1.254  1.00  0.00     0.089 A 
HETATM    9  C18 UNL     1       1.172  -2.269   1.132  1.00  0.00     0.149 A 
HETATM   10  N4  UNL     1       1.812  -1.536   0.183  1.00  0.00    -0.263 NA
ENDROOT
BRANCH   4  11
HETATM   11  N1  UNL     1      -3.093  -0.361  -0.314  1.00  0.00    -0.330 N 
HETATM   12  C11 UNL     1      -2.950   1.085  -0.393  1.00  0.00     0.156 C 
HETATM   13  C12 UNL     1      -4.216   1.754   0.079  1.00  0.00     0.012 C 
HETATM   14  C13 UNL     1      -5.396   1.146  -0.074  1.00  0.00     0.014 C 
HETATM   15 CL1  UNL     1      -6.961   1.792   0.423  1.00  0.00    -0.089 Cl
HETATM   16  C14 UNL     1      -5.511  -0.192  -0.707  1.00  0.00     0.110 C 
HETATM   17  C15 UNL     1      -4.185  -0.720  -1.197  1.00  0.00     0.278 C 
HETATM   18  F1  UNL     1      -4.321  -2.110  -1.278  1.00  0.00    -0.226 F 
ENDBRANCH   4  11
BRANCH   1  19
HETATM   19  C6  UNL     1       1.897   0.032  -1.624  1.00  0.00     0.059 C 
BRANCH  19  20
HETATM   20  C5  UNL     1       2.360   1.356  -1.108  1.00  0.00     0.007 C 
BRANCH  20  21
HETATM   21  C4  UNL     1       3.228   1.303   0.100  1.00  0.00     0.011 C 
BRANCH  21  22
HETATM   22  C2  UNL     1       4.496   0.560  -0.020  1.00  0.00     0.043 C 
HETATM   23  C1  UNL     1       5.392   1.151  -1.102  1.00  0.00     0.017 C 
BRANCH  22  24
HETATM   24  C3  UNL     1       5.256   0.734   1.253  1.00  0.00     0.235 C 
HETATM   25  O1  UNL     1       5.704  -0.020   2.126  1.00  0.00    -0.306 OA
ENDBRANCH  22  24
ENDBRANCH  21  22
ENDBRANCH  20  21
ENDBRANCH  19  20
ENDBRANCH   1  19
TORSDOF 6
