REMARK  6 active torsions:
REMARK  status: ('A' for Active; 'I' for Inactive)
REMARK    1  A    between atoms: C2_2  and  N1_3 
REMARK    2  A    between atoms: N1_3  and  C4_5 
REMARK    3  A    between atoms: C4_5  and  C5_6 
REMARK    4  A    between atoms: C6_7  and  C7_8 
REMARK       I    between atoms: C7_8  and  N2_10 
REMARK    5  A    between atoms: N2_10  and  N3_11 
REMARK    6  A    between atoms: N3_11  and  C8_12 
ROOT
HETATM    1  N3  UNL     1       1.614  -0.817  -1.781  1.00  0.00    -0.301 N 
HETATM    2  H12 UNL     1       2.212  -1.231  -2.529  1.00  0.00     0.186 HD
ENDROOT
BRANCH   1   3
HETATM    3  N2  UNL     1       0.236  -0.923  -1.651  1.00  0.00    -0.259 N 
HETATM    4  C7  UNL     1      -0.358  -0.267  -0.541  1.00  0.00     0.315 C 
HETATM    5  O1  UNL     1       0.330   0.382   0.289  1.00  0.00    -0.256 OA
HETATM    6  H11 UNL     1      -0.212  -1.484  -2.397  1.00  0.00     0.191 HD
BRANCH   4   7
HETATM    7  C6  UNL     1      -1.800  -0.402  -0.439  1.00  0.00    -0.002 C 
HETATM    8  C5  UNL     1      -3.002  -0.494  -0.361  1.00  0.00    -0.066 C 
BRANCH   8   9
HETATM    9  C4  UNL     1      -4.466  -0.595  -0.289  1.00  0.00     0.365 C 
BRANCH   9  10
HETATM   10  N1  UNL     1      -4.900   0.426   0.613  1.00  0.00     0.094 N 
HETATM   11  C3  UNL     1      -4.535   1.752   0.208  1.00  0.00     0.310 C 
BRANCH  10  12
HETATM   12  C2  UNL     1      -6.346   0.362   0.714  1.00  0.00     0.268 C 
HETATM   13  C1  UNL     1      -6.787  -1.016   1.138  1.00  0.00     0.037 C 
ENDBRANCH  10  12
ENDBRANCH   9  10
ENDBRANCH   8   9
ENDBRANCH   4   7
ENDBRANCH   1   3
BRANCH   1  14
HETATM   14  C8  UNL     1       2.534  -0.130  -0.944  1.00  0.00     0.033 C 
HETATM   15  C9  UNL     1       3.108  -0.698   0.111  1.00  0.00    -0.030 C 
HETATM   16  C10 UNL     1       2.870  -2.091   0.541  1.00  0.00     0.048 C 
HETATM   17  C11 UNL     1       4.010   0.275   0.791  1.00  0.00     0.173 A 
HETATM   18  N4  UNL     1       4.820  -0.266   1.823  1.00  0.00    -0.285 NA
HETATM   19  C14 UNL     1       4.977   0.848  -0.171  1.00  0.00    -0.003 A 
HETATM   20  C12 UNL     1       6.074  -0.095   1.629  1.00  0.00     0.143 A 
HETATM   21  C13 UNL     1       6.314   0.624   0.360  1.00  0.00     0.073 A 
HETATM   22  N5  UNL     1       7.379   1.002  -0.213  1.00  0.00    -0.298 NA
HETATM   23  H18 UNL     1       7.381   1.507  -1.121  1.00  0.00     0.187 HD
HETATM   24  C15 UNL     1       4.403   1.383  -1.244  1.00  0.00    -0.009 C 
HETATM   25  C16 UNL     1       2.888   1.292  -1.258  1.00  0.00     0.086 C 
ENDBRANCH   1  14
TORSDOF 6
