REMARK  7 active torsions:
REMARK  status: ('A' for Active; 'I' for Inactive)
REMARK    1  A    between atoms: C2_2  and  N1_4 
REMARK    2  A    between atoms: N1_4  and  C4_5 
REMARK    3  A    between atoms: C4_5  and  C5_6 
REMARK    4  A    between atoms: C6_7  and  C7_8 
REMARK       I    between atoms: C7_8  and  N2_10 
REMARK    5  A    between atoms: N2_10  and  C8_11 
REMARK    6  A    between atoms: C12_18  and  N6_19 
REMARK    7  A    between atoms: N6_19  and  C13_20 
ROOT
HETATM    1  C8  UNL     1       0.329  -0.880  -0.484  1.00  0.00     0.215 C 
HETATM    2  N3  UNL     1      -0.115  -1.745   0.515  1.00  0.00    -0.273 NA
HETATM    3  C9  UNL     1      -0.923  -2.168   1.400  1.00  0.00     0.145 C 
HETATM    4  C10 UNL     1      -2.209  -1.558   1.770  1.00  0.00     0.089 A 
HETATM    5  N4  UNL     1      -2.842  -2.406   2.590  1.00  0.00    -0.240 NA
HETATM    6  C11 UNL     1      -4.054  -2.121   3.104  1.00  0.00     0.236 A 
HETATM    7  N5  UNL     1      -4.668  -0.959   2.804  1.00  0.00    -0.224 NA
HETATM    8  C12 UNL     1      -4.110  -0.065   2.000  1.00  0.00     0.142 A 
HETATM    9  C19 UNL     1      -2.878  -0.379   1.489  1.00  0.00     0.040 A 
HETATM   10  C20 UNL     1      -2.431   0.746   0.631  1.00  0.00     0.014 C 
HETATM   11  C21 UNL     1      -1.535   0.827  -0.378  1.00  0.00    -0.018 C 
HETATM   12  C22 UNL     1      -0.584   0.045  -1.165  1.00  0.00     0.048 C 
HETATM   13  C23 UNL     1      -1.265  -0.681  -2.326  1.00  0.00     0.018 C 
ENDROOT
BRANCH   1  14
HETATM   14  N2  UNL     1       1.576  -0.258   0.009  1.00  0.00    -0.327 N 
HETATM   15  C7  UNL     1       2.808  -0.774  -0.438  1.00  0.00     0.298 C 
HETATM   16  O1  UNL     1       2.807  -1.771  -1.255  1.00  0.00    -0.258 OA
HETATM   17  H11 UNL     1       1.771   0.530   0.658  1.00  0.00     0.165 HD
BRANCH  15  18
HETATM   18  C6  UNL     1       4.164  -0.415  -0.167  1.00  0.00    -0.004 C 
HETATM   19  C5  UNL     1       5.305  -0.134   0.055  1.00  0.00    -0.066 C 
BRANCH  19  20
HETATM   20  C4  UNL     1       6.709   0.190   0.310  1.00  0.00     0.363 C 
BRANCH  20  21
HETATM   21  N1  UNL     1       7.123   1.310  -0.490  1.00  0.00     0.098 N 
HETATM   22  H8  UNL     1       6.851   1.216  -1.472  1.00  0.00     0.317 HD
BRANCH  21  23
HETATM   23  C2  UNL     1       8.588   1.428  -0.368  1.00  0.00     0.213 C 
HETATM   24  C1  UNL     1       9.212   0.210  -1.076  1.00  0.00     0.042 C 
HETATM   25  C3  UNL     1       9.020   1.448   1.066  1.00  0.00     0.042 C 
ENDBRANCH  21  23
ENDBRANCH  20  21
ENDBRANCH  19  20
ENDBRANCH  15  18
ENDBRANCH   1  14
BRANCH   8  26
HETATM   26  N6  UNL     1      -4.732   1.183   1.657  1.00  0.00    -0.340 N 
HETATM   27  H15 UNL     1      -4.649   2.210   1.805  1.00  0.00     0.167 HD
BRANCH  26  28
HETATM   28  C13 UNL     1      -5.837   0.729   0.835  1.00  0.00     0.032 A 
HETATM   29  C14 UNL     1      -6.054  -0.228  -0.087  1.00  0.00     0.012 A 
HETATM   30  C15 UNL     1      -7.438  -0.261  -0.641  1.00  0.00     0.051 A 
HETATM   31  C16 UNL     1      -7.454   0.026  -2.104  1.00  0.00     0.020 C 
HETATM   32  C17 UNL     1      -8.059   0.859   0.104  1.00  0.00     0.021 A 
HETATM   33 CL1  UNL     1      -9.730   1.308  -0.136  1.00  0.00    -0.088 Cl
HETATM   34  C18 UNL     1      -7.160   1.391   0.913  1.00  0.00     0.049 A 
ENDBRANCH  26  28
ENDBRANCH   8  26
TORSDOF 7
