REMARK  8 active torsions:
REMARK  status: ('A' for Active; 'I' for Inactive)
REMARK    1  A    between atoms: C4_4  and  N1_5 
REMARK    2  A    between atoms: N1_5  and  C5_6 
REMARK    3  A    between atoms: C9_13  and  N5_14 
REMARK       I    between atoms: N5_14  and  C10_15 
REMARK    4  A    between atoms: C10_15  and  C11_17 
REMARK    5  A    between atoms: C12_18  and  C13_19 
REMARK    6  A    between atoms: C13_19  and  N6_20 
REMARK    7  A    between atoms: N6_20  and  C14_21 
REMARK    8  A    between atoms: N6_20  and  C17_24 
ROOT
HETATM    1  C5  UNL     1       4.292   1.344   1.156  1.00  0.00     0.142 A 
HETATM    2  N2  UNL     1       5.271   2.182   1.422  1.00  0.00    -0.224 NA
HETATM    3  C6  UNL     1       5.165   3.391   1.972  1.00  0.00     0.236 A 
HETATM    4  N3  UNL     1       3.933   3.853   2.313  1.00  0.00    -0.240 NA
HETATM    5  C7  UNL     1       2.863   3.060   2.078  1.00  0.00     0.089 A 
HETATM    6  C8  UNL     1       1.665   3.608   2.450  1.00  0.00     0.151 A 
HETATM    7  N4  UNL     1       0.544   2.859   2.238  1.00  0.00    -0.241 NA
HETATM    8  C9  UNL     1       0.619   1.636   1.686  1.00  0.00     0.131 A 
HETATM    9  C20 UNL     1       1.861   1.146   1.334  1.00  0.00     0.068 A 
HETATM   10  C21 UNL     1       3.056   1.834   1.510  1.00  0.00     0.044 A 
ENDROOT
BRANCH   8  11
HETATM   11  N5  UNL     1      -0.548   0.818   1.442  1.00  0.00    -0.301 N 
HETATM   12  C10 UNL     1      -0.943   1.131   0.097  1.00  0.00     0.302 C 
HETATM   13  O1  UNL     1      -0.210   1.994  -0.494  1.00  0.00    -0.258 OA
HETATM   14  H8  UNL     1      -1.181   0.118   1.886  1.00  0.00     0.171 HD
BRANCH  12  15
HETATM   15  C11 UNL     1      -2.093   0.513  -0.552  1.00  0.00    -0.004 C 
HETATM   16  C12 UNL     1      -3.030  -0.013  -1.091  1.00  0.00    -0.066 C 
BRANCH  16  17
HETATM   17  C13 UNL     1      -4.156  -0.664  -1.764  1.00  0.00     0.367 C 
BRANCH  17  18
HETATM   18  N6  UNL     1      -5.179  -0.971  -0.739  1.00  0.00     0.107 N 
BRANCH  18  19
HETATM   19  C14 UNL     1      -5.709   0.300  -0.290  1.00  0.00     0.216 C 
HETATM   20  C15 UNL     1      -6.462   1.067  -1.320  1.00  0.00     0.042 C 
HETATM   21  C16 UNL     1      -6.386   0.165   1.041  1.00  0.00     0.042 C 
ENDBRANCH  18  19
BRANCH  18  22
HETATM   22  C17 UNL     1      -6.165  -1.845  -1.336  1.00  0.00     0.216 C 
HETATM   23  C18 UNL     1      -7.239  -2.295  -0.404  1.00  0.00     0.042 C 
HETATM   24  C19 UNL     1      -5.407  -3.114  -1.754  1.00  0.00     0.042 C 
ENDBRANCH  18  22
ENDBRANCH  17  18
ENDBRANCH  16  17
ENDBRANCH  12  15
ENDBRANCH   8  11
BRANCH   1  25
HETATM   25  N1  UNL     1       4.385   0.069   0.570  1.00  0.00    -0.340 N 
HETATM   26  H5  UNL     1       3.557  -0.531   0.399  1.00  0.00     0.167 HD
BRANCH  25  27
HETATM   27  C4  UNL     1       5.560  -0.588   0.131  1.00  0.00     0.034 A 
HETATM   28  C3  UNL     1       6.831  -0.105   0.337  1.00  0.00     0.039 A 
HETATM   29  C2  UNL     1       7.990  -0.722  -0.088  1.00  0.00    -0.021 A 
HETATM   30  C1  UNL     1       9.332  -0.159   0.158  1.00  0.00     0.051 C 
HETATM   31  C24 UNL     1       7.907  -1.904  -0.769  1.00  0.00     0.122 A 
HETATM   32  C23 UNL     1       6.668  -2.453  -1.015  1.00  0.00     0.045 A 
HETATM   33  F1  UNL     1       8.991  -2.577  -1.223  1.00  0.00    -0.206 F 
HETATM   34  C22 UNL     1       5.562  -1.779  -0.560  1.00  0.00     0.032 A 
ENDBRANCH  25  27
ENDBRANCH   1  25
TORSDOF 8
