REMARK  8 active torsions:
REMARK  status: ('A' for Active; 'I' for Inactive)
REMARK    1  A    between atoms: C2_2  and  N1_3 
REMARK    2  A    between atoms: N1_3  and  C3_4 
REMARK    3  A    between atoms: N1_3  and  C5_6 
REMARK    4  A    between atoms: C5_6  and  C6_7 
REMARK    5  A    between atoms: C7_8  and  C8_9 
REMARK       I    between atoms: C8_9  and  N2_11 
REMARK    6  A    between atoms: N2_11  and  C9_12 
REMARK    7  A    between atoms: C13_18  and  N5_19 
REMARK    8  A    between atoms: N5_19  and  C14_20 
ROOT
HETATM    1  C9  UNL     1       0.839  -0.382  -2.602  1.00  0.00     0.025 A 
HETATM    2  C10 UNL     1       1.016  -0.334  -3.925  1.00  0.00     0.081 A 
HETATM    3  C11 UNL     1       1.920   0.600  -3.885  1.00  0.00     0.048 A 
HETATM    4  N3  UNL     1       2.721   1.768  -4.036  1.00  0.00    -0.248 NA
HETATM    5  C12 UNL     1       3.746   1.910  -3.235  1.00  0.00     0.235 C 
HETATM    6  N4  UNL     1       4.007   0.898  -2.280  1.00  0.00    -0.227 NA
HETATM    7  C13 UNL     1       3.324  -0.182  -2.129  1.00  0.00     0.121 C 
HETATM    8  C20 UNL     1       2.231  -0.565  -3.018  1.00  0.00     0.151 A 
ENDROOT
BRANCH   1   9
HETATM    9  N2  UNL     1      -0.297  -0.260  -1.756  1.00  0.00    -0.321 N 
HETATM   10  C8  UNL     1      -0.238  -0.350  -0.359  1.00  0.00     0.300 C 
HETATM   11  O1  UNL     1       0.866  -0.547   0.172  1.00  0.00    -0.258 OA
HETATM   12  H13 UNL     1      -1.238  -0.094  -2.172  1.00  0.00     0.169 HD
BRANCH  10  13
HETATM   13  C7  UNL     1      -1.335  -0.238   0.553  1.00  0.00    -0.004 C 
HETATM   14  C6  UNL     1      -2.279  -0.143   1.317  1.00  0.00    -0.077 C 
BRANCH  14  15
HETATM   15  C5  UNL     1      -3.414  -0.054   2.228  1.00  0.00     0.212 C 
BRANCH  15  16
HETATM   16  N1  UNL     1      -4.483   0.628   1.588  1.00  0.00    -0.403 N 
BRANCH  16  17
HETATM   17  C2  UNL     1      -5.668   0.766   2.365  1.00  0.00     0.113 C 
HETATM   18  C1  UNL     1      -6.450  -0.521   2.494  1.00  0.00     0.026 C 
ENDBRANCH  16  17
BRANCH  16  19
HETATM   19  C3  UNL     1      -4.631   0.379   0.204  1.00  0.00     0.113 C 
HETATM   20  C4  UNL     1      -5.210   1.535  -0.575  1.00  0.00     0.026 C 
ENDBRANCH  16  19
ENDBRANCH  15  16
ENDBRANCH  14  15
ENDBRANCH  10  13
ENDBRANCH   1   9
BRANCH   7  21
HETATM   21  N5  UNL     1       3.762  -1.063  -1.087  1.00  0.00    -0.343 N 
HETATM   22  H15 UNL     1       3.366  -2.021  -0.945  1.00  0.00     0.167 HD
BRANCH  21  23
HETATM   23  C14 UNL     1       4.791  -0.696  -0.145  1.00  0.00     0.035 A 
HETATM   24  C15 UNL     1       4.259   0.019   0.917  1.00  0.00     0.032 A 
HETATM   25  C16 UNL     1       5.079   0.467   1.948  1.00  0.00     0.046 A 
HETATM   26  C17 UNL     1       6.438   0.205   1.926  1.00  0.00     0.138 A 
HETATM   27  F1  UNL     1       7.292   0.612   2.896  1.00  0.00    -0.204 F 
HETATM   28  C18 UNL     1       6.932  -0.506   0.859  1.00  0.00     0.074 A 
HETATM   29 CL1  UNL     1       8.638  -0.877   0.759  1.00  0.00    -0.081 Cl
HETATM   30  C19 UNL     1       6.141  -0.965  -0.182  1.00  0.00     0.056 A 
ENDBRANCH  21  23
ENDBRANCH   7  21
TORSDOF 8
