REMARK  7 active torsions:
REMARK  status: ('A' for Active; 'I' for Inactive)
REMARK    1  A    between atoms: C2_2  and  N1_4 
REMARK    2  A    between atoms: N1_4  and  C4_5 
REMARK    3  A    between atoms: N1_4  and  C20_29 
REMARK    4  A    between atoms: C4_5  and  C5_6 
REMARK    5  A    between atoms: C6_7  and  C7_8 
REMARK       I    between atoms: C7_8  and  N2_10 
REMARK    6  A    between atoms: C11_17  and  N6_18 
REMARK    7  A    between atoms: N6_18  and  C12_19 
ROOT
HETATM    1  C7  UNL     1       0.471   1.333  -0.456  1.00  0.00     0.300 C 
HETATM    2  O1  UNL     1       1.089   2.199  -1.134  1.00  0.00    -0.258 OA
HETATM    3  N2  UNL     1       1.155   0.310   0.262  1.00  0.00    -0.319 N 
HETATM    4  C8  UNL     1       0.442  -0.683   1.040  1.00  0.00     0.279 C 
HETATM    5  N3  UNL     1       0.835  -1.989   0.597  1.00  0.00    -0.252 NA
HETATM    6  C9  UNL     1       1.967  -2.182   0.028  1.00  0.00     0.136 A 
HETATM    7  N4  UNL     1       2.403  -3.462  -0.430  1.00  0.00    -0.335 N 
HETATM    8  C10 UNL     1       3.670  -3.629  -1.056  1.00  0.00     0.211 A 
HETATM    9  N5  UNL     1       4.457  -2.615  -1.224  1.00  0.00    -0.226 NA
HETATM   10  C11 UNL     1       4.112  -1.299  -0.802  1.00  0.00     0.141 A 
HETATM   11  C18 UNL     1       2.945  -1.125  -0.221  1.00  0.00     0.051 A 
HETATM   12  C19 UNL     1       2.606   0.267   0.208  1.00  0.00     0.175 C 
HETATM   13  H12 UNL     1       1.787  -4.300  -0.307  1.00  0.00     0.168 HD
ENDROOT
BRANCH   1  14
HETATM   14  C6  UNL     1      -0.958   1.452  -0.460  1.00  0.00    -0.004 C 
HETATM   15  C5  UNL     1      -2.169   1.546  -0.456  1.00  0.00    -0.066 C 
BRANCH  15  16
HETATM   16  C4  UNL     1      -3.630   1.677  -0.470  1.00  0.00     0.367 C 
BRANCH  16  17
HETATM   17  N1  UNL     1      -4.321   0.447  -0.220  1.00  0.00     0.107 N 
BRANCH  17  18
HETATM   18  C2  UNL     1      -4.207  -0.530  -1.227  1.00  0.00     0.216 C 
HETATM   19  C1  UNL     1      -4.772  -0.110  -2.559  1.00  0.00     0.042 C 
HETATM   20  C3  UNL     1      -4.674  -1.906  -0.826  1.00  0.00     0.042 C 
ENDBRANCH  17  18
BRANCH  17  21
HETATM   21  C20 UNL     1      -5.618   0.718   0.311  1.00  0.00     0.216 C 
HETATM   22  C21 UNL     1      -6.598   1.361  -0.599  1.00  0.00     0.042 C 
HETATM   23  C22 UNL     1      -5.461   1.573   1.546  1.00  0.00     0.042 C 
ENDBRANCH  17  21
ENDBRANCH  16  17
ENDBRANCH  15  16
ENDBRANCH   1  14
BRANCH  10  24
HETATM   24  N6  UNL     1       5.032  -0.240  -1.024  1.00  0.00    -0.340 N 
HETATM   25  H14 UNL     1       5.052   0.242  -1.946  1.00  0.00     0.167 HD
BRANCH  24  26
HETATM   26  C12 UNL     1       5.936   0.177  -0.001  1.00  0.00     0.035 A 
HETATM   27  C13 UNL     1       5.947  -0.432   1.230  1.00  0.00     0.032 A 
HETATM   28  C14 UNL     1       6.829  -0.010   2.204  1.00  0.00     0.046 A 
HETATM   29  C15 UNL     1       7.697   1.024   1.932  1.00  0.00     0.138 A 
HETATM   30  F1  UNL     1       8.588   1.475   2.872  1.00  0.00    -0.204 F 
HETATM   31  C16 UNL     1       7.724   1.662   0.722  1.00  0.00     0.074 A 
HETATM   32 CL1  UNL     1       8.830   2.971   0.397  1.00  0.00    -0.081 Cl
HETATM   33  C17 UNL     1       6.822   1.210  -0.233  1.00  0.00     0.056 A 
ENDBRANCH  24  26
ENDBRANCH  10  24
TORSDOF 7
