REMARK  10 active torsions:
REMARK  status: ('A' for Active; 'I' for Inactive)
REMARK    1  A    between atoms: C2_2  and  N1_3 
REMARK    2  A    between atoms: N1_3  and  C3_4 
REMARK    3  A    between atoms: N1_3  and  C5_7 
REMARK    4  A    between atoms: C3_4  and  C4_5 
REMARK    5  A    between atoms: C4_5  and  N2_6 
REMARK    6  A    between atoms: C5_7  and  C6_8 
REMARK    7  A    between atoms: C6_8  and  C7_9 
REMARK    8  A    between atoms: C7_9  and  C8_11 
REMARK    9  A    between atoms: C13_18  and  N5_19 
REMARK   10  A    between atoms: N5_19  and  C14_20 
ROOT
HETATM    1  C8  UNL     1       0.114   0.252   1.576  1.00  0.00     0.011 A 
HETATM    2  C9  UNL     1      -0.030   1.387   2.356  1.00  0.00     0.017 A 
HETATM    3  C10 UNL     1       0.875   2.426   2.285  1.00  0.00     0.033 A 
HETATM    4  C11 UNL     1       1.932   2.341   1.435  1.00  0.00     0.072 A 
HETATM    5  N3  UNL     1       2.771   3.401   1.424  1.00  0.00    -0.241 NA
HETATM    6  C12 UNL     1       3.838   3.377   0.600  1.00  0.00     0.236 A 
HETATM    7  N4  UNL     1       4.025   2.306  -0.173  1.00  0.00    -0.224 NA
HETATM    8  C13 UNL     1       3.235   1.227  -0.211  1.00  0.00     0.142 A 
HETATM    9  C20 UNL     1       2.153   1.250   0.622  1.00  0.00     0.040 A 
HETATM   10  C21 UNL     1       1.219   0.256   0.741  1.00  0.00     0.032 A 
ENDROOT
BRANCH   1  11
HETATM   11  C7  UNL     1      -0.817  -0.902   1.600  1.00  0.00     0.161 C 
HETATM   12  O1  UNL     1      -0.553  -1.854   0.818  1.00  0.00    -0.292 OA
BRANCH  11  13
HETATM   13  C6  UNL     1      -1.985  -0.915   2.499  1.00  0.00     0.114 C 
BRANCH  13  14
HETATM   14  C5  UNL     1      -3.198  -0.244   2.027  1.00  0.00     0.280 C 
BRANCH  14  15
HETATM   15  N1  UNL     1      -3.899  -0.623   0.870  1.00  0.00     0.090 N 
BRANCH  15  16
HETATM   16  C2  UNL     1      -4.617  -1.844   0.859  1.00  0.00     0.268 C 
HETATM   17  C1  UNL     1      -3.846  -3.125   0.959  1.00  0.00     0.037 C 
ENDBRANCH  15  16
BRANCH  15  18
HETATM   18  C3  UNL     1      -4.789   0.522   0.608  1.00  0.00     0.291 C 
BRANCH  18  19
HETATM   19  C4  UNL     1      -5.339   0.561  -0.764  1.00  0.00     0.141 C 
BRANCH  19  20
HETATM   20  N2  UNL     1      -4.407   0.643  -1.837  1.00  0.00    -0.428 N 
HETATM   21  H10 UNL     1      -3.410   0.738  -1.589  1.00  0.00     0.149 HD
HETATM   22  H11 UNL     1      -4.705   1.254  -2.626  1.00  0.00     0.149 HD
ENDBRANCH  19  20
ENDBRANCH  18  19
ENDBRANCH  15  18
ENDBRANCH  14  15
ENDBRANCH  13  14
ENDBRANCH  11  13
ENDBRANCH   1  11
BRANCH   8  23
HETATM   23  N5  UNL     1       3.460   0.119  -1.030  1.00  0.00    -0.340 N 
HETATM   24  H19 UNL     1       2.837  -0.701  -1.022  1.00  0.00     0.167 HD
BRANCH  23  25
HETATM   25  C14 UNL     1       4.482  -0.143  -1.979  1.00  0.00     0.035 A 
HETATM   26  C15 UNL     1       4.745  -1.349  -2.605  1.00  0.00     0.032 A 
HETATM   27  C16 UNL     1       5.725  -1.595  -3.522  1.00  0.00     0.046 A 
HETATM   28  C17 UNL     1       6.545  -0.534  -3.866  1.00  0.00     0.138 A 
HETATM   29  F1  UNL     1       7.525  -0.802  -4.788  1.00  0.00    -0.204 F 
HETATM   30  C18 UNL     1       6.348   0.699  -3.287  1.00  0.00     0.074 A 
HETATM   31 CL1  UNL     1       7.464   1.923  -3.824  1.00  0.00    -0.081 Cl
HETATM   32  C19 UNL     1       5.324   0.877  -2.356  1.00  0.00     0.056 A 
ENDBRANCH  23  25
ENDBRANCH   8  23
TORSDOF 10
