REMARK  3 active torsions:
REMARK  status: ('A' for Active; 'I' for Inactive)
REMARK    1  A    between atoms: C3_3  and  C4_4 
REMARK       I    between atoms: C4_4  and  N1_6 
REMARK    2  A    between atoms: N1_6  and  C5_7 
REMARK    3  A    between atoms: C8_10  and  C9_11 
ROOT
HETATM    1  C1  UNL     1       5.834  -3.671  -0.724  1.00  0.00     0.112 C 
HETATM    2  C2  UNL     1       4.894  -2.678  -0.176  1.00  0.00    -0.101 C 
HETATM    3  C3  UNL     1       4.128  -1.850   0.292  1.00  0.00    -0.006 C 
ENDROOT
BRANCH   3   4
HETATM    4  C4  UNL     1       3.242  -0.874   0.863  1.00  0.00     0.302 C 
HETATM    5  O1  UNL     1       3.106  -0.771   2.118  1.00  0.00    -0.258 OA
HETATM    6  N1  UNL     1       2.538  -0.041  -0.064  1.00  0.00    -0.301 N 
HETATM    7  H4  UNL     1       2.658  -0.134  -1.098  1.00  0.00     0.171 HD
BRANCH   6   8
HETATM    8  C5  UNL     1       1.595   1.017   0.068  1.00  0.00     0.131 A 
HETATM    9  C6  UNL     1       0.229   0.883   0.114  1.00  0.00     0.067 A 
HETATM   10  C7  UNL     1      -0.661   1.923   0.240  1.00  0.00     0.027 A 
HETATM   11  C8  UNL     1      -1.981   1.589   0.307  1.00  0.00     0.081 A 
HETATM   12  C15 UNL     1      -0.087   3.161   0.328  1.00  0.00     0.088 A 
HETATM   13  N2  UNL     1      -2.760   2.689   0.495  1.00  0.00    -0.240 NA
HETATM   14  C14 UNL     1      -2.267   3.925   0.592  1.00  0.00     0.234 A 
HETATM   15  N3  UNL     1      -0.953   4.201   0.514  1.00  0.00    -0.240 NA
HETATM   16  C16 UNL     1       1.276   3.342   0.287  1.00  0.00     0.151 A 
HETATM   17  N4  UNL     1       2.122   2.276   0.157  1.00  0.00    -0.241 NA
BRANCH  11  18
HETATM   18  C9  UNL     1      -2.640   0.327   0.044  1.00  0.00    -0.005 A 
HETATM   19  C10 UNL     1      -3.835   0.216   0.665  1.00  0.00     0.021 A 
HETATM   20  C11 UNL     1      -4.811  -0.862   0.666  1.00  0.00     0.055 A 
HETATM   21  S1  UNL     1      -4.385  -2.145  -0.244  1.00  0.00    -0.078 SA
HETATM   22 CL1  UNL     1      -5.576  -3.839  -0.440  1.00  0.00    -0.047 Cl
HETATM   23  C12 UNL     1      -2.795  -1.941  -1.058  1.00  0.00     0.055 A 
HETATM   24  C13 UNL     1      -2.224  -0.792  -0.785  1.00  0.00     0.021 A 
ENDBRANCH  11  18
ENDBRANCH   6   8
ENDBRANCH   3   4
TORSDOF 3
