REMARK  6 active torsions:
REMARK  status: ('A' for Active; 'I' for Inactive)
REMARK    1  A    between atoms: O1_2  and  C2_3 
REMARK    2  A    between atoms: C6_9  and  N3_10 
REMARK    3  A    between atoms: N3_10  and  C7_11 
REMARK    4  A    between atoms: C14_19  and  C15_20 
REMARK    5  A    between atoms: C15_20  and  N4_21 
REMARK    6  A    between atoms: C18_24  and  C19_25 
REMARK       I    between atoms: C19_25  and  N5_26 
ROOT
HETATM    1  C2  UNL     1      -0.327  -1.902  -1.572  1.00  0.00     0.078 A 
HETATM    2  C3  UNL     1       0.869  -2.584  -1.476  1.00  0.00     0.070 A 
HETATM    3  C4  UNL     1       2.023  -2.013  -1.035  1.00  0.00     0.074 A 
HETATM    4  N1  UNL     1       3.204  -2.658  -0.931  1.00  0.00    -0.241 NA
HETATM    5  C5  UNL     1       4.297  -2.012  -0.483  1.00  0.00     0.236 A 
HETATM    6  N2  UNL     1       4.271  -0.703  -0.118  1.00  0.00    -0.224 NA
HETATM    7  C6  UNL     1       3.107  -0.030  -0.209  1.00  0.00     0.142 A 
HETATM    8  C12 UNL     1       1.974  -0.672  -0.667  1.00  0.00     0.039 A 
HETATM    9  C13 UNL     1       0.810   0.057  -0.742  1.00  0.00     0.029 A 
HETATM   10  C14 UNL     1      -0.365  -0.552  -1.199  1.00  0.00     0.004 A 
ENDROOT
BRANCH  10  11
HETATM   11  C15 UNL     1      -1.693   0.136  -1.325  1.00  0.00     0.313 C 
BRANCH  11  12
HETATM   12  N4  UNL     1      -2.584  -0.249  -0.244  1.00  0.00     0.093 N 
HETATM   13  C16 UNL     1      -3.817   0.476  -0.489  1.00  0.00     0.273 C 
HETATM   14  C17 UNL     1      -3.702   1.718   0.385  1.00  0.00     0.046 C 
HETATM   15  C18 UNL     1      -3.208   1.030   1.665  1.00  0.00     0.107 C 
HETATM   16  C20 UNL     1      -2.087   0.189   1.042  1.00  0.00     0.286 C 
BRANCH  15  17
HETATM   17  C19 UNL     1      -4.283   0.150   2.136  1.00  0.00     0.221 C 
HETATM   18  N5  UNL     1      -5.477   0.883   2.420  1.00  0.00    -0.370 N 
HETATM   19  H17 UNL     1      -6.518   0.898   2.350  1.00  0.00     0.159 HD
HETATM   20  H18 UNL     1      -6.086   1.661   2.772  1.00  0.00     0.159 HD
HETATM   21  O2  UNL     1      -4.476  -1.078   2.370  1.00  0.00    -0.273 OA
ENDBRANCH  15  17
ENDBRANCH  11  12
ENDBRANCH  10  11
BRANCH   1  22
HETATM   22  O1  UNL     1      -1.486  -2.517  -2.027  1.00  0.00    -0.355 OA
HETATM   23  C1  UNL     1      -1.613  -3.842  -2.433  1.00  0.00     0.210 C 
ENDBRANCH   1  22
BRANCH   7  24
HETATM   24  N3  UNL     1       3.123   1.319   0.179  1.00  0.00    -0.339 N 
HETATM   25  H6  UNL     1       2.403   2.043   0.206  1.00  0.00     0.167 HD
BRANCH  24  26
HETATM   26  C7  UNL     1       4.320   1.904   0.645  1.00  0.00     0.046 C 
HETATM   27  C8  UNL     1       4.628   1.465   1.850  1.00  0.00     0.005 C 
HETATM   28  C9  UNL     1       5.836   1.837   2.242  1.00  0.00     0.038 C 
HETATM   29  C10 UNL     1       6.286   2.808   1.224  1.00  0.00     0.037 C 
HETATM   30 CL1  UNL     1       7.682   3.847   1.036  1.00  0.00    -0.084 Cl
HETATM   31  C11 UNL     1       5.366   2.852   0.249  1.00  0.00     0.054 C 
ENDBRANCH  24  26
ENDBRANCH   7  24
TORSDOF 6
