REMARK  7 active torsions:
REMARK  status: ('A' for Active; 'I' for Inactive)
REMARK    1  A    between atoms: N1_2  and  C2_3 
REMARK    2  A    between atoms: C2_3  and  C3_4 
REMARK    3  A    between atoms: C4_5  and  C5_6 
REMARK    4  A    between atoms: C7_9  and  N3_10 
REMARK    5  A    between atoms: N3_10  and  C8_11 
REMARK    6  A    between atoms: C8_11  and  C9_12 
REMARK    7  A    between atoms: C10_13  and  C11_15 
ROOT
HETATM    1  C5  UNL     1       1.143  -0.822  -0.592  1.00  0.00     0.199 C 
HETATM    2  N2  UNL     1       0.474   0.191  -1.402  1.00  0.00    -0.258 NA
HETATM    3  C6  UNL     1      -0.780   0.235  -1.088  1.00  0.00     0.123 C 
HETATM    4  C7  UNL     1      -1.068  -0.753  -0.036  1.00  0.00     0.273 C 
HETATM    5  C12 UNL     1       0.245  -0.886   0.666  1.00  0.00     0.111 C 
HETATM    6  C13 UNL     1       0.299  -2.256   1.258  1.00  0.00    -0.001 C 
HETATM    7  C14 UNL     1      -0.047  -3.211   0.445  1.00  0.00    -0.013 C 
HETATM    8  C15 UNL     1       0.588  -3.308  -0.688  1.00  0.00     0.098 C 
HETATM    9  N4  UNL     1       1.176  -2.112  -1.237  1.00  0.00    -0.360 N 
HETATM   10  H18 UNL     1       1.680  -2.077  -2.155  1.00  0.00     0.162 HD
ENDROOT
BRANCH   4  11
HETATM   11  N3  UNL     1      -2.203  -0.468   0.786  1.00  0.00     0.097 N 
HETATM   12  H9  UNL     1      -2.110   0.401   1.334  1.00  0.00     0.317 HD
BRANCH  11  13
HETATM   13  C8  UNL     1      -3.316  -0.402  -0.184  1.00  0.00     0.299 C 
BRANCH  13  14
HETATM   14  C9  UNL     1      -4.625  -0.235   0.445  1.00  0.00     0.024 C 
HETATM   15  C10 UNL     1      -5.699   0.533   0.546  1.00  0.00     0.038 C 
HETATM   16 CL1  UNL     1      -7.094   0.195   1.553  1.00  0.00    -0.087 Cl
BRANCH  15  17
HETATM   17  C11 UNL     1      -5.912   1.807  -0.176  1.00  0.00     0.273 C 
HETATM   18  F1  UNL     1      -4.790   2.038  -0.951  1.00  0.00    -0.250 F 
ENDBRANCH  15  17
ENDBRANCH  13  14
ENDBRANCH  11  13
ENDBRANCH   4  11
BRANCH   1  19
HETATM   19  C4  UNL     1       2.423  -0.304  -0.193  1.00  0.00    -0.048 C 
HETATM   20  C3  UNL     1       3.497   0.141   0.128  1.00  0.00    -0.072 C 
BRANCH  20  21
HETATM   21  C2  UNL     1       4.805   0.710   0.521  1.00  0.00     0.362 C 
BRANCH  21  22
HETATM   22  N1  UNL     1       4.871   2.077  -0.009  1.00  0.00     0.089 N 
HETATM   23  C1  UNL     1       6.152   2.651   0.414  1.00  0.00     0.307 C 
HETATM   24  H4  UNL     1       4.880   2.048  -1.069  1.00  0.00     0.316 HD
ENDBRANCH  21  22
ENDBRANCH  20  21
ENDBRANCH   1  19
TORSDOF 7
