REMARK  10 active torsions:
REMARK  status: ('A' for Active; 'I' for Inactive)
REMARK    1  A    between atoms: C2_2  and  N1_3 
REMARK    2  A    between atoms: N1_3  and  C3_4 
REMARK    3  A    between atoms: N1_3  and  C5_6 
REMARK    4  A    between atoms: C5_6  and  C6_7 
REMARK    5  A    between atoms: C7_8  and  C8_9 
REMARK       I    between atoms: C8_9  and  N2_11 
REMARK    6  A    between atoms: N2_11  and  C9_12 
REMARK    7  A    between atoms: C13_16  and  C15_18 
REMARK    8  A    between atoms: C15_18  and  N3_19 
REMARK    9  A    between atoms: N3_19  and  C16_20 
REMARK   10  A    between atoms: C22_29  and  S1_30 
ROOT
HETATM    1  C9  UNL     1      -0.699  -1.784  -0.579  1.00  0.00     0.033 A 
HETATM    2  C10 UNL     1      -0.532  -3.144  -0.622  1.00  0.00     0.027 A 
HETATM    3  C11 UNL     1      -1.730  -3.867  -0.830  1.00  0.00    -0.001 A 
HETATM    4  C12 UNL     1      -3.117  -3.820  -1.026  1.00  0.00     0.070 A 
HETATM    5  C13 UNL     1      -3.217  -2.078  -0.957  1.00  0.00     0.100 A 
HETATM    6  C14 UNL     1      -1.933  -1.237  -0.730  1.00  0.00     0.029 A 
HETATM    7  S1  UNL     1      -4.248  -2.928  -1.143  1.00  0.00    -0.131 SA
ENDROOT
BRANCH   1   8
HETATM    8  N2  UNL     1       0.560  -1.289  -0.371  1.00  0.00    -0.317 N 
HETATM    9  C8  UNL     1       0.967  -1.135   0.961  1.00  0.00     0.301 C 
HETATM   10  O1  UNL     1       0.250  -1.414   1.954  1.00  0.00    -0.258 OA
HETATM   11  H13 UNL     1       1.097  -1.075  -1.237  1.00  0.00     0.170 HD
BRANCH   9  12
HETATM   12  C7  UNL     1       2.310  -0.620   1.198  1.00  0.00    -0.004 C 
HETATM   13  C6  UNL     1       3.426  -0.215   1.391  1.00  0.00    -0.077 C 
BRANCH  13  14
HETATM   14  C5  UNL     1       4.809   0.268   1.628  1.00  0.00     0.212 C 
BRANCH  14  15
HETATM   15  N1  UNL     1       5.282   0.807   0.404  1.00  0.00    -0.403 N 
BRANCH  15  16
HETATM   16  C2  UNL     1       4.644   2.005  -0.028  1.00  0.00     0.113 C 
HETATM   17  C1  UNL     1       4.544   2.150  -1.536  1.00  0.00     0.026 C 
ENDBRANCH  15  16
BRANCH  15  18
HETATM   18  C3  UNL     1       6.673   0.687   0.133  1.00  0.00     0.113 C 
HETATM   19  C4  UNL     1       7.169  -0.643   0.674  1.00  0.00     0.026 C 
ENDBRANCH  15  18
ENDBRANCH  14  15
ENDBRANCH  13  14
ENDBRANCH   9  12
ENDBRANCH   1   8
BRANCH   5  20
HETATM   20  C15 UNL     1      -4.248  -0.658  -1.035  1.00  0.00     0.199 A 
HETATM   21  N4  UNL     1      -5.873  -1.534  -1.304  1.00  0.00    -0.242 NA
HETATM   22  C22 UNL     1      -5.098  -2.219  -1.228  1.00  0.00     0.114 A 
BRANCH  20  23
HETATM   23  N3  UNL     1      -3.861   0.728  -0.932  1.00  0.00    -0.355 N 
HETATM   24  H17 UNL     1      -2.972   0.757  -1.453  1.00  0.00     0.162 HD
BRANCH  23  25
HETATM   25  C16 UNL     1      -4.982   1.214  -0.158  1.00  0.00     0.032 A 
HETATM   26  C17 UNL     1      -4.969   1.306   1.214  1.00  0.00     0.032 A 
HETATM   27  C18 UNL     1      -6.103   1.792   1.811  1.00  0.00     0.046 A 
HETATM   28  C19 UNL     1      -7.153   2.148   1.014  1.00  0.00     0.138 A 
HETATM   29  F1  UNL     1      -8.259   2.629   1.638  1.00  0.00    -0.204 F 
HETATM   30  C20 UNL     1      -7.215   2.077  -0.348  1.00  0.00     0.074 A 
HETATM   31 CL1  UNL     1      -8.591   2.546  -1.320  1.00  0.00    -0.081 Cl
HETATM   32  C21 UNL     1      -6.067   1.583  -0.962  1.00  0.00     0.056 A 
ENDBRANCH  23  25
ENDBRANCH  20  23
ENDBRANCH   5  20
TORSDOF 10
