REMARK  6 active torsions:
REMARK  status: ('A' for Active; 'I' for Inactive)
REMARK    1  A    between atoms: C2_2  and  N1_3 
REMARK    2  A    between atoms: N1_3  and  C3_4 
REMARK    3  A    between atoms: N1_3  and  C5_6 
REMARK    4  A    between atoms: C5_6  and  C6_7 
REMARK    5  A    between atoms: C7_8  and  C8_9 
REMARK       I    between atoms: C8_9  and  N2_11 
REMARK    6  A    between atoms: N2_11  and  C9_12 
ROOT
HETATM    1  C8  UNL     1      -0.761   1.057  -0.521  1.00  0.00     0.301 C 
HETATM    2  O1  UNL     1      -1.108   2.288  -0.449  1.00  0.00    -0.258 OA
HETATM    3  N2  UNL     1      -1.565  -0.051  -0.219  1.00  0.00    -0.316 N 
HETATM    4  H13 UNL     1      -1.263  -1.019  -0.268  1.00  0.00     0.170 HD
ENDROOT
BRANCH   3   5
HETATM    5  C9  UNL     1      -2.842   0.456   0.177  1.00  0.00     0.041 C 
HETATM    6  C10 UNL     1      -3.818  -0.494   0.525  1.00  0.00     0.004 C 
HETATM    7  C11 UNL     1      -4.690  -1.551   1.023  1.00  0.00     0.047 C 
HETATM    8  C14 UNL     1      -4.895   0.039  -0.338  1.00  0.00     0.274 A 
HETATM    9  C12 UNL     1      -5.650  -0.409   0.856  1.00  0.00     0.240 A 
HETATM   10  N3  UNL     1      -6.756  -1.307   0.462  1.00  0.00    -0.234 NA
HETATM   11  C15 UNL     1      -4.929   0.896   0.993  1.00  0.00     0.089 A 
HETATM   12  N4  UNL     1      -6.232  -0.246  -0.687  1.00  0.00     0.007 N 
HETATM   13  C13 UNL     1      -7.626  -0.473  -0.133  1.00  0.00     0.318 C 
HETATM   14  C16 UNL     1      -3.864   1.605   0.570  1.00  0.00     0.021 C 
HETATM   15  H16 UNL     1      -6.273  -0.272  -1.818  1.00  0.00     0.292 HD
ENDBRANCH   3   5
BRANCH   1  16
HETATM   16  C7  UNL     1       0.585   0.688  -0.950  1.00  0.00    -0.004 C 
HETATM   17  C6  UNL     1       1.710   0.397  -1.320  1.00  0.00    -0.066 C 
BRANCH  17  18
HETATM   18  C5  UNL     1       3.054   0.063  -1.784  1.00  0.00     0.366 C 
BRANCH  18  19
HETATM   19  N1  UNL     1       4.017  -0.109  -0.742  1.00  0.00     0.098 N 
BRANCH  19  20
HETATM   20  C2  UNL     1       4.296   1.117  -0.088  1.00  0.00     0.269 C 
HETATM   21  C1  UNL     1       5.618   1.220   0.598  1.00  0.00     0.037 C 
ENDBRANCH  19  20
BRANCH  19  22
HETATM   22  C3  UNL     1       3.821  -1.253   0.058  1.00  0.00     0.269 C 
HETATM   23  C4  UNL     1       5.058  -1.766   0.774  1.00  0.00     0.037 C 
ENDBRANCH  19  22
ENDBRANCH  18  19
ENDBRANCH  17  18
ENDBRANCH   1  16
TORSDOF 6
