REMARK  1 active torsions:
REMARK  status: ('A' for Active; 'I' for Inactive)
REMARK    1  A    between atoms: C7_11  and  N5_12 
ROOT
HETATM    1  C1  UNL     1       2.449  -0.550   2.097  1.00  0.00     0.038 C 
HETATM    2  C2  UNL     1       2.766  -0.282   0.835  1.00  0.00     0.005 C 
HETATM    3  N1  UNL     1       4.063   0.332   0.672  1.00  0.00    -0.375 N 
HETATM    4  C3  UNL     1       4.925   0.385  -0.491  1.00  0.00     0.269 C 
HETATM    5  N2  UNL     1       4.327   1.209  -1.493  1.00  0.00    -0.280 NA
HETATM    6  C4  UNL     1       3.212   1.654  -1.947  1.00  0.00     0.144 C 
HETATM    7  C5  UNL     1       1.819   1.429  -1.503  1.00  0.00     0.086 A 
HETATM    8  N3  UNL     1       1.123   2.443  -2.011  1.00  0.00    -0.240 NA
HETATM    9  C6  UNL     1      -0.185   2.557  -1.798  1.00  0.00     0.236 A 
HETATM   10  N4  UNL     1      -0.748   1.597  -1.047  1.00  0.00    -0.224 NA
HETATM   11  C7  UNL     1      -0.104   0.548  -0.504  1.00  0.00     0.137 A 
HETATM   12  C15 UNL     1       1.199   0.461  -0.736  1.00  0.00     0.027 A 
HETATM   13  C16 UNL     1       1.641  -0.710  -0.105  1.00  0.00     0.069 C 
HETATM   14  C17 UNL     1       0.997  -1.814   0.481  1.00  0.00     0.021 C 
HETATM   15  H3  UNL     1       4.376   0.793   1.570  1.00  0.00     0.161 HD
ENDROOT
BRANCH  11  16
HETATM   16  N5  UNL     1      -1.122  -0.108   0.226  1.00  0.00    -0.357 N 
HETATM   17  C8  UNL     1      -1.463  -0.090   1.675  1.00  0.00     0.153 C 
HETATM   18  C9  UNL     1      -2.758   0.666   1.809  1.00  0.00     0.013 C 
HETATM   19  C10 UNL     1      -3.677   0.615   0.813  1.00  0.00     0.015 C 
HETATM   20 CL1  UNL     1      -5.230   1.472   0.880  1.00  0.00    -0.089 Cl
HETATM   21  C11 UNL     1      -3.467  -0.176  -0.430  1.00  0.00     0.048 C 
HETATM   22  C12 UNL     1      -3.483   0.621  -1.693  1.00  0.00     0.018 C 
HETATM   23  C13 UNL     1      -2.172  -0.963  -0.368  1.00  0.00     0.091 C 
HETATM   24  C14 UNL     1      -2.473  -2.187   0.456  1.00  0.00     0.033 C 
ENDBRANCH  11  16
TORSDOF 1
