REMARK  7 active torsions:
REMARK  status: ('A' for Active; 'I' for Inactive)
REMARK    1  A    between atoms: C1_2  and  C2_3 
REMARK       I    between atoms: C1_2  and  N2_12 
REMARK    2  A    between atoms: C3_4  and  C4_5 
REMARK    3  A    between atoms: C4_5  and  N1_6 
REMARK    4  A    between atoms: N2_12  and  C9_13 
REMARK    5  A    between atoms: C10_14  and  C11_15 
REMARK    6  A    between atoms: C11_15  and  N3_16 
REMARK    7  A    between atoms: N3_16  and  C12_17 
ROOT
HETATM    1  O1  UNL     1      -0.682   1.561  -1.104  1.00  0.00    -0.258 OA
HETATM    2  C1  UNL     1      -1.108   0.385  -1.193  1.00  0.00     0.300 C 
HETATM    3  N2  UNL     1      -0.282  -0.736  -0.955  1.00  0.00    -0.327 N 
HETATM    4  H11 UNL     1      -0.574  -1.717  -1.015  1.00  0.00     0.169 HD
ENDROOT
BRANCH   3   5
HETATM    5  C9  UNL     1       1.083  -0.626  -0.598  1.00  0.00     0.089 C 
HETATM    6  C10 UNL     1       2.040   0.221  -0.350  1.00  0.00     0.010 C 
BRANCH   6   7
HETATM    7  C11 UNL     1       3.427   0.549   0.013  1.00  0.00     0.148 C 
BRANCH   7   8
HETATM    8  N3  UNL     1       4.219  -0.668   0.213  1.00  0.00    -0.386 N 
HETATM    9  H16 UNL     1       3.880  -1.634   0.105  1.00  0.00     0.160 HD
BRANCH   8  10
HETATM   10  C12 UNL     1       5.558  -0.441   0.586  1.00  0.00     0.029 A 
HETATM   11  C13 UNL     1       6.101   0.813   0.775  1.00  0.00     0.032 A 
HETATM   12  C14 UNL     1       7.393   1.127   1.132  1.00  0.00     0.046 A 
HETATM   13  C15 UNL     1       8.233   0.040   1.317  1.00  0.00     0.138 A 
HETATM   14  F1  UNL     1       9.539   0.245   1.672  1.00  0.00    -0.204 F 
HETATM   15  C16 UNL     1       7.765  -1.266   1.145  1.00  0.00     0.074 A 
HETATM   16 CL1  UNL     1       8.843  -2.620   1.383  1.00  0.00    -0.081 Cl
HETATM   17  C17 UNL     1       6.441  -1.507   0.784  1.00  0.00     0.056 A 
ENDBRANCH   8  10
ENDBRANCH   7   8
ENDBRANCH   6   7
ENDBRANCH   3   5
BRANCH   2  18
HETATM   18  C2  UNL     1      -2.477   0.074  -1.543  1.00  0.00    -0.004 C 
HETATM   19  C3  UNL     1      -3.631  -0.169  -1.829  1.00  0.00    -0.066 C 
BRANCH  19  20
HETATM   20  C4  UNL     1      -5.046  -0.447  -2.169  1.00  0.00     0.366 C 
BRANCH  20  21
HETATM   21  N1  UNL     1      -5.865  -0.210  -0.975  1.00  0.00     0.103 N 
HETATM   22  C5  UNL     1      -5.899   1.183  -0.638  1.00  0.00     0.299 C 
HETATM   23  C6  UNL     1      -6.535   1.389   0.693  1.00  0.00     0.198 C 
HETATM   24  O2  UNL     1      -6.571   0.241   1.497  1.00  0.00    -0.388 OA
HETATM   25  C7  UNL     1      -5.326  -0.392   1.398  1.00  0.00     0.198 C 
HETATM   26  C8  UNL     1      -5.271  -1.047   0.057  1.00  0.00     0.299 C 
ENDBRANCH  20  21
ENDBRANCH  19  20
ENDBRANCH   2  18
TORSDOF 7
