REMARK  5 active torsions:
REMARK  status: ('A' for Active; 'I' for Inactive)
REMARK    1  A    between atoms: C1_2  and  C2_3 
REMARK       I    between atoms: C1_2  and  N2_12 
REMARK    2  A    between atoms: C3_4  and  C4_5 
REMARK    3  A    between atoms: C4_5  and  N1_6 
REMARK    4  A    between atoms: C12_16  and  N3_17 
REMARK    5  A    between atoms: N3_17  and  C13_18 
ROOT
HETATM    1  O1  UNL     1      -1.143  -0.415   2.593  1.00  0.00    -0.256 OA
HETATM    2  C1  UNL     1      -1.415  -0.698   1.396  1.00  0.00     0.323 C 
HETATM    3  N2  UNL     1      -0.329  -0.955   0.482  1.00  0.00    -0.201 N 
HETATM    4  C9  UNL     1       1.029  -0.890   0.949  1.00  0.00     0.136 A 
HETATM    5  C10 UNL     1       1.988  -1.132   0.071  1.00  0.00     0.017 A 
HETATM    6  C11 UNL     1       3.387  -1.085   0.463  1.00  0.00     0.065 A 
HETATM    7  C12 UNL     1       4.327  -1.330  -0.436  1.00  0.00     0.122 A 
HETATM    8  N4  UNL     1       4.013  -1.648  -1.806  1.00  0.00    -0.262 N 
HETATM    9  N5  UNL     1       2.645  -1.690  -2.172  1.00  0.00    -0.171 NA
HETATM   10  C19 UNL     1       1.714  -1.455  -1.319  1.00  0.00     0.107 A 
HETATM   11  C20 UNL     1       0.316  -1.506  -1.730  1.00  0.00     0.173 A 
HETATM   12  N6  UNL     1      -0.597  -1.265  -0.854  1.00  0.00    -0.175 NA
HETATM   13  H17 UNL     1       4.673  -1.853  -2.571  1.00  0.00     0.191 HD
ENDROOT
BRANCH   2  14
HETATM   14  C2  UNL     1      -2.754  -0.780   0.881  1.00  0.00    -0.002 C 
HETATM   15  C3  UNL     1      -3.877  -0.829   0.443  1.00  0.00    -0.066 C 
BRANCH  15  16
HETATM   16  C4  UNL     1      -5.239  -0.865  -0.098  1.00  0.00     0.366 C 
BRANCH  16  17
HETATM   17  N1  UNL     1      -6.075  -0.151   0.852  1.00  0.00     0.103 N 
HETATM   18  C5  UNL     1      -5.755   1.265   0.879  1.00  0.00     0.299 C 
HETATM   19  C6  UNL     1      -5.898   1.903  -0.479  1.00  0.00     0.198 C 
HETATM   20  O2  UNL     1      -7.121   1.686  -1.058  1.00  0.00    -0.388 OA
HETATM   21  C7  UNL     1      -7.618   0.413  -0.967  1.00  0.00     0.198 C 
HETATM   22  C8  UNL     1      -7.451  -0.244   0.376  1.00  0.00     0.299 C 
ENDBRANCH  16  17
ENDBRANCH  15  16
ENDBRANCH   2  14
BRANCH   7  23
HETATM   23  N3  UNL     1       5.734  -1.327  -0.226  1.00  0.00    -0.341 N 
HETATM   24  H13 UNL     1       6.504  -2.029  -0.192  1.00  0.00     0.167 HD
BRANCH  23  25
HETATM   25  C13 UNL     1       6.385  -0.066   0.013  1.00  0.00     0.035 A 
HETATM   26  C14 UNL     1       6.593   0.402   1.281  1.00  0.00     0.032 A 
HETATM   27  C15 UNL     1       7.215   1.615   1.418  1.00  0.00     0.046 A 
HETATM   28  C16 UNL     1       7.647   2.398   0.374  1.00  0.00     0.138 A 
HETATM   29  F1  UNL     1       8.264   3.604   0.578  1.00  0.00    -0.204 F 
HETATM   30  C17 UNL     1       7.423   1.897  -0.910  1.00  0.00     0.074 A 
HETATM   31 CL1  UNL     1       7.966   2.880  -2.269  1.00  0.00    -0.081 Cl
HETATM   32  C18 UNL     1       6.796   0.673  -1.071  1.00  0.00     0.056 A 
ENDBRANCH  23  25
ENDBRANCH   7  23
TORSDOF 5
