REMARK  1 active torsions:
REMARK  status: ('A' for Active; 'I' for Inactive)
REMARK    1  A    between atoms: C4_6  and  C5_7 
ROOT
HETATM    1  O1  UNL     1       0.138   2.316  -0.280  1.00  0.00    -0.237 OA
HETATM    2  C1  UNL     1      -0.513   2.988  -1.107  1.00  0.00     0.380 C 
HETATM    3  O2  UNL     1       0.777   3.466  -1.339  1.00  0.00    -0.303 OA
HETATM    4  C2  UNL     1       1.910   2.923  -0.620  1.00  0.00     0.181 C 
HETATM    5  C3  UNL     1       2.024   1.476  -1.018  1.00  0.00     0.038 C 
HETATM    6  C4  UNL     1       2.491   0.515   0.002  1.00  0.00     0.038 C 
HETATM    7  C6  UNL     1       2.051  -0.888  -0.333  1.00  0.00    -0.022 C 
HETATM    8  C7  UNL     1       1.089  -1.623   0.257  1.00  0.00    -0.011 C 
HETATM    9  C8  UNL     1       0.820  -2.973  -0.231  1.00  0.00     0.143 C 
HETATM   10  N1  UNL     1      -0.456  -3.247  -0.718  1.00  0.00    -0.401 N 
HETATM   11  C9  UNL     1      -1.612  -3.359   0.032  1.00  0.00     0.266 C 
HETATM   12  N2  UNL     1      -2.110  -2.200   0.711  1.00  0.00    -0.264 NA
HETATM   13  C10 UNL     1      -3.394  -1.902   0.708  1.00  0.00     0.223 C 
HETATM   14  N3  UNL     1      -3.964  -0.803   1.337  1.00  0.00    -0.267 NA
HETATM   15  C11 UNL     1      -3.736   0.412   1.369  1.00  0.00     0.114 A 
HETATM   16  C12 UNL     1      -3.213   1.754   1.194  1.00  0.00     0.084 A 
HETATM   17  C13 UNL     1      -2.402   2.558   0.573  1.00  0.00     0.097 A 
HETATM   18  N4  UNL     1      -1.527   2.151  -0.448  1.00  0.00    -0.243 N 
HETATM   19  N5  UNL     1      -1.842   0.730  -0.527  1.00  0.00    -0.243 NA
HETATM   20  C14 UNL     1      -2.731   0.427   0.321  1.00  0.00     0.297 A 
HETATM   21  H12 UNL     1      -0.523  -3.474  -1.740  1.00  0.00     0.155 HD
ENDROOT
BRANCH   6  22
HETATM   22  C5  UNL     1       3.920   0.654   0.348  1.00  0.00     0.230 C 
HETATM   23  F1  UNL     1       4.757   0.464  -0.763  1.00  0.00    -0.255 F 
ENDBRANCH   6  22
TORSDOF 1
