REMARK  1 active torsions:
REMARK  status: ('A' for Active; 'I' for Inactive)
REMARK    1  A    between atoms: C2_2  and  C3_4 
ROOT
HETATM    1  C3  UNL     1      -1.800   0.849   1.232  1.00  0.00     0.179 C 
HETATM    2  F1  UNL     1      -2.613   0.024   1.922  1.00  0.00    -0.201 F 
HETATM    3  C4  UNL     1      -1.109   0.766   0.124  1.00  0.00     0.172 A 
HETATM    4  N1  UNL     1      -0.401   1.955  -0.180  1.00  0.00    -0.227 NA
HETATM    5  C5  UNL     1       0.342   2.070  -1.228  1.00  0.00     0.078 A 
HETATM    6  C6  UNL     1       0.529   1.006  -2.202  1.00  0.00     0.050 A 
HETATM    7  C7  UNL     1      -0.115  -0.120  -1.954  1.00  0.00     0.097 A 
HETATM    8  N2  UNL     1      -0.934  -0.278  -0.812  1.00  0.00    -0.306 N 
HETATM    9  C8  UNL     1      -1.560  -1.581  -0.582  1.00  0.00     0.354 C 
HETATM   10  C9  UNL     1      -2.339  -1.936  -1.820  1.00  0.00     0.225 C 
HETATM   11  O1  UNL     1      -2.735  -3.276  -1.816  1.00  0.00    -0.386 OA
HETATM   12  C10 UNL     1      -2.613  -3.810  -0.553  1.00  0.00     0.198 C 
HETATM   13  C11 UNL     1      -1.167  -3.847  -0.112  1.00  0.00     0.302 C 
HETATM   14  N3  UNL     1      -0.538  -2.572  -0.299  1.00  0.00     0.126 N 
HETATM   15  C12 UNL     1       0.240  -2.279   0.883  1.00  0.00     0.369 C 
HETATM   16  C13 UNL     1       1.194  -1.255   0.739  1.00  0.00    -0.067 C 
HETATM   17  C14 UNL     1       1.976  -0.396   0.603  1.00  0.00    -0.019 C 
HETATM   18  C15 UNL     1       2.900   0.632   0.419  1.00  0.00     0.272 C 
HETATM   19  O2  UNL     1       4.088   0.416   0.768  1.00  0.00    -0.274 OA
HETATM   20  C16 UNL     1       2.503   1.904  -0.157  1.00  0.00     0.204 A 
HETATM   21  N4  UNL     1       3.406   2.776  -0.287  1.00  0.00    -0.268 N 
HETATM   22  C17 UNL     1       4.788   2.693   0.058  1.00  0.00     0.180 C 
HETATM   23  N5  UNL     1       2.130   3.149  -0.717  1.00  0.00    -0.240 N 
HETATM   24  C18 UNL     1       0.997   3.365  -1.318  1.00  0.00     0.150 C 
ENDROOT
BRANCH   1  25
HETATM   25  C2  UNL     1      -1.537   2.196   1.708  1.00  0.00     0.051 A 
HETATM   26  C1  UNL     1      -2.107   2.589   2.834  1.00  0.00     0.156 A 
HETATM   27 CL1  UNL     1      -1.130   3.834   2.151  1.00  0.00    -0.178 Cl
ENDBRANCH   1  25
TORSDOF 1
