REMARK  0 active torsions:
REMARK  status: ('A' for Active; 'I' for Inactive)
ROOT
HETATM    1  F1  UNL     1      -3.950   1.846   1.503  1.00  0.00    -0.187 F 
HETATM    2  C1  UNL     1      -2.703   1.920   1.004  1.00  0.00     0.184 C 
HETATM    3  C2  UNL     1      -1.888   2.811   0.526  1.00  0.00     0.061 C 
HETATM    4  C3  UNL     1      -0.575   2.973  -0.015  1.00  0.00     0.005 C 
HETATM    5  C4  UNL     1       0.502   2.390  -0.328  1.00  0.00     0.015 C 
HETATM    6  C5  UNL     1       1.754   1.784  -0.705  1.00  0.00     0.012 A 
HETATM    7  C6  UNL     1       2.428   2.900  -1.112  1.00  0.00     0.131 A 
HETATM    8  N1  UNL     1       3.728   2.787  -1.552  1.00  0.00    -0.253 NA
HETATM    9  C7  UNL     1       4.282   1.566  -1.562  1.00  0.00     0.233 A 
HETATM   10  N2  UNL     1       3.584   0.500  -1.155  1.00  0.00    -0.240 NA
HETATM   11  C8  UNL     1       2.342   0.558  -0.727  1.00  0.00     0.086 A 
HETATM   12  C9  UNL     1       1.775  -0.704  -0.353  1.00  0.00     0.145 C 
HETATM   13  N3  UNL     1       1.436  -1.898  -0.776  1.00  0.00    -0.270 NA
HETATM   14  C10 UNL     1       0.837  -2.822   0.202  1.00  0.00     0.418 C 
HETATM   15  N4  UNL     1      -0.282  -3.468  -0.475  1.00  0.00     0.113 N 
HETATM   16  C11 UNL     1      -1.228  -3.966   0.569  1.00  0.00     0.365 C 
HETATM   17  C12 UNL     1      -1.758  -2.759   1.149  1.00  0.00    -0.075 C 
HETATM   18  C13 UNL     1      -2.167  -1.792   1.597  1.00  0.00    -0.085 C 
HETATM   19  C14 UNL     1      -2.655  -0.584   2.137  1.00  0.00     0.216 C 
HETATM   20  N5  UNL     1      -2.509   0.534   1.187  1.00  0.00    -0.356 N 
HETATM   21  H9  UNL     1      -0.800  -2.839  -1.105  1.00  0.00     0.319 HD
HETATM   22  H14 UNL     1      -2.114   0.275   0.246  1.00  0.00     0.162 HD
ENDROOT
TORSDOF 0
