REMARK  4 active torsions:
REMARK  status: ('A' for Active; 'I' for Inactive)
REMARK    1  A    between atoms: C4_5  and  N1_6 
REMARK    2  A    between atoms: N1_6  and  C5_7 
REMARK    3  A    between atoms: C8_10  and  N2_11 
REMARK    4  A    between atoms: N2_11  and  C9_12 
ROOT
HETATM    1  C5  UNL     1       0.377  -1.119  -0.435  1.00  0.00     0.129 C 
HETATM    2  C6  UNL     1      -0.450  -0.080  -0.776  1.00  0.00     0.054 C 
HETATM    3  C7  UNL     1      -1.482   0.537  -0.108  1.00  0.00     0.054 C 
HETATM    4  C8  UNL     1      -2.820   0.283   0.079  1.00  0.00     0.124 C 
HETATM    5  N3  UNL     1      -3.333  -0.895  -0.305  1.00  0.00    -0.242 NA
HETATM    6  C10 UNL     1      -3.707  -1.799   0.617  1.00  0.00     0.138 C 
HETATM    7  C11 UNL     1      -3.148  -2.698  -0.299  1.00  0.00     0.137 C 
HETATM    8  N4  UNL     1      -2.227  -3.244  -1.125  1.00  0.00    -0.253 NA
HETATM    9  C12 UNL     1      -1.135  -2.577  -1.560  1.00  0.00     0.234 C 
HETATM   10  N5  UNL     1      -0.491  -2.144  -0.476  1.00  0.00    -0.225 NA
ENDROOT
BRANCH   1  11
HETATM   11  N1  UNL     1       1.747  -1.261  -0.106  1.00  0.00    -0.341 N 
HETATM   12  H3  UNL     1       2.039  -2.222   0.090  1.00  0.00     0.167 HD
BRANCH  11  13
HETATM   13  C4  UNL     1       2.690  -0.209  -0.035  1.00  0.00     0.035 A 
HETATM   14  C3  UNL     1       2.433   1.126  -0.212  1.00  0.00     0.032 A 
HETATM   15  C2  UNL     1       3.376   2.121  -0.139  1.00  0.00     0.046 A 
HETATM   16  C1  UNL     1       4.688   1.753   0.135  1.00  0.00     0.138 A 
HETATM   17  F1  UNL     1       5.685   2.662   0.227  1.00  0.00    -0.204 F 
HETATM   18  C14 UNL     1       5.002   0.426   0.322  1.00  0.00     0.074 A 
HETATM   19  C13 UNL     1       4.018  -0.505   0.235  1.00  0.00     0.056 A 
HETATM   20 CL2  UNL     1       6.667  -0.027   0.669  1.00  0.00    -0.081 Cl
ENDBRANCH  11  13
ENDBRANCH   1  11
BRANCH   4  21
HETATM   21  N2  UNL     1      -3.581   1.308   0.678  1.00  0.00    -0.362 N 
HETATM   22  H6  UNL     1      -4.614   1.112   0.803  1.00  0.00     0.162 HD
BRANCH  21  23
HETATM   23  C9  UNL     1      -3.034   2.574   1.114  1.00  0.00     0.237 C 
HETATM   24 CL1  UNL     1      -1.800   2.380   2.392  1.00  0.00    -0.109 Cl
ENDBRANCH  21  23
ENDBRANCH   4  21
TORSDOF 4
