REMARK  4 active torsions:
REMARK  status: ('A' for Active; 'I' for Inactive)
REMARK    1  A    between atoms: C3_3  and  C4_4 
REMARK    2  A    between atoms: C4_4  and  C5_6 
REMARK    3  A    between atoms: C8_9  and  N1_10 
REMARK    4  A    between atoms: N1_10  and  C9_11 
ROOT
HETATM    1  C1  UNL     1       6.892   1.644   0.033  1.00  0.00     0.112 C 
HETATM    2  C2  UNL     1       5.439   1.635   0.226  1.00  0.00    -0.102 C 
HETATM    3  C3  UNL     1       4.227   1.607   0.388  1.00  0.00    -0.022 C 
ENDROOT
BRANCH   3   4
HETATM    4  C4  UNL     1       2.793   1.588   0.564  1.00  0.00     0.253 C 
HETATM    5  O1  UNL     1       2.253   2.630   0.963  1.00  0.00    -0.276 OA
BRANCH   4   6
HETATM    6  C5  UNL     1       2.102   0.319   0.249  1.00  0.00     0.116 A 
HETATM    7  C6  UNL     1       0.734   0.225   0.392  1.00  0.00     0.054 A 
HETATM    8  C7  UNL     1       0.062  -0.946   0.106  1.00  0.00     0.042 A 
HETATM    9  C8  UNL     1      -1.300  -0.989   0.265  1.00  0.00     0.138 A 
HETATM   10  C15 UNL     1       0.780  -2.037  -0.331  1.00  0.00     0.089 A 
HETATM   11  N2  UNL     1      -1.862  -2.165  -0.037  1.00  0.00    -0.224 NA
HETATM   12  C14 UNL     1      -1.189  -3.234  -0.461  1.00  0.00     0.236 A 
HETATM   13  N3  UNL     1       0.164  -3.196  -0.620  1.00  0.00    -0.240 NA
HETATM   14  C16 UNL     1       2.149  -1.912  -0.464  1.00  0.00     0.150 A 
HETATM   15  N4  UNL     1       2.766  -0.773  -0.181  1.00  0.00    -0.254 NA
BRANCH   9  16
HETATM   16  N1  UNL     1      -2.096   0.097   0.710  1.00  0.00    -0.363 N 
HETATM   17  H5  UNL     1      -1.781   1.046   0.971  1.00  0.00     0.162 HD
BRANCH  16  18
HETATM   18  C9  UNL     1      -3.535  -0.088   0.834  1.00  0.00     0.134 A 
HETATM   19  C10 UNL     1      -4.257   1.094   1.300  1.00  0.00     0.046 A 
HETATM   20  C11 UNL     1      -5.075   1.453   0.326  1.00  0.00     0.136 A 
HETATM   21  F1  UNL     1      -5.857   2.544   0.543  1.00  0.00    -0.205 F 
HETATM   22  C12 UNL     1      -4.973   0.584  -0.816  1.00  0.00     0.070 A 
HETATM   23 CL1  UNL     1      -5.937   0.814  -2.261  1.00  0.00    -0.081 Cl
HETATM   24  C13 UNL     1      -4.071  -0.325  -0.529  1.00  0.00     0.029 A 
ENDBRANCH  16  18
ENDBRANCH   9  16
ENDBRANCH   4   6
ENDBRANCH   3   4
TORSDOF 4
