REMARK  6 active torsions:
REMARK  status: ('A' for Active; 'I' for Inactive)
REMARK    1  A    between atoms: C3_3  and  C4_4 
REMARK    2  A    between atoms: C7_7  and  N1_8 
REMARK    3  A    between atoms: N1_8  and  C8_9 
REMARK    4  A    between atoms: C9_10  and  C10_11 
REMARK    5  A    between atoms: C11_12  and  C12_14 
REMARK    6  A    between atoms: C12_14  and  O1_15 
ROOT
HETATM    1  C1  UNL     1      -6.683   0.647  -1.278  1.00  0.00     0.112 C 
HETATM    2  C2  UNL     1      -5.543   0.289  -0.432  1.00  0.00    -0.104 C 
HETATM    3  C3  UNL     1      -4.611  -0.011   0.270  1.00  0.00    -0.047 C 
ENDROOT
BRANCH   3   4
HETATM    4  C4  UNL     1      -3.509  -0.390   1.112  1.00  0.00     0.110 A 
HETATM    5  C5  UNL     1      -2.206   0.030   0.839  1.00  0.00     0.058 A 
HETATM    6  C6  UNL     1      -1.243  -0.405   1.725  1.00  0.00     0.043 A 
HETATM    7  C7  UNL     1       0.060   0.019   1.446  1.00  0.00     0.141 A 
HETATM    8  C14 UNL     1      -1.482  -1.202   2.826  1.00  0.00     0.089 A 
HETATM    9  N2  UNL     1       1.039  -0.373   2.274  1.00  0.00    -0.224 NA
HETATM   10  C13 UNL     1       0.792  -1.157   3.353  1.00  0.00     0.236 A 
HETATM   11  N3  UNL     1      -0.468  -1.585   3.649  1.00  0.00    -0.240 NA
HETATM   12  C15 UNL     1      -2.805  -1.576   3.027  1.00  0.00     0.150 A 
HETATM   13  N4  UNL     1      -3.766  -1.168   2.180  1.00  0.00    -0.250 NA
BRANCH   7  14
HETATM   14  N1  UNL     1       0.447   0.828   0.367  1.00  0.00    -0.350 N 
HETATM   15  H5  UNL     1      -0.088   1.260  -0.401  1.00  0.00     0.166 HD
BRANCH  14  16
HETATM   16  C8  UNL     1       1.769   1.261   0.079  1.00  0.00     0.090 C 
HETATM   17  C9  UNL     1       2.453   0.867  -0.981  1.00  0.00     0.020 C 
BRANCH  17  18
HETATM   18  C10 UNL     1       3.787   1.385  -1.151  1.00  0.00     0.041 C 
HETATM   19  C11 UNL     1       4.420   0.962  -2.217  1.00  0.00     0.117 C 
HETATM   20  F1  UNL     1       3.511   0.141  -2.793  1.00  0.00    -0.209 F 
BRANCH  19  21
HETATM   21  C12 UNL     1       5.728   1.143  -2.876  1.00  0.00     0.234 C 
BRANCH  21  22
HETATM   22  O1  UNL     1       6.410  -0.076  -2.983  1.00  0.00    -0.394 OA
HETATM   23  H11 UNL     1       6.191  -0.555  -3.820  1.00  0.00     0.209 HD
ENDBRANCH  21  22
ENDBRANCH  19  21
ENDBRANCH  17  18
ENDBRANCH  14  16
ENDBRANCH   7  14
ENDBRANCH   3   4
TORSDOF 6
