REMARK  3 active torsions:
REMARK  status: ('A' for Active; 'I' for Inactive)
REMARK    1  A    between atoms: C3_3  and  C4_4 
REMARK       I    between atoms: C4_4  and  N1_6 
REMARK    2  A    between atoms: N1_6  and  C5_7 
REMARK    3  A    between atoms: N5_17  and  C11_18 
ROOT
HETATM    1  C1  UNL     1       7.624  -0.031   1.319  1.00  0.00     0.112 C 
HETATM    2  C2  UNL     1       6.251  -0.320   0.874  1.00  0.00    -0.101 C 
HETATM    3  C3  UNL     1       5.137  -0.552   0.492  1.00  0.00    -0.006 C 
ENDROOT
BRANCH   3   4
HETATM    4  C4  UNL     1       3.804  -0.804   0.041  1.00  0.00     0.302 C 
HETATM    5  O1  UNL     1       3.572  -1.974  -0.358  1.00  0.00    -0.258 OA
HETATM    6  N1  UNL     1       2.739   0.119   0.001  1.00  0.00    -0.301 N 
HETATM    7  H4  UNL     1       3.068   1.029   0.353  1.00  0.00     0.171 HD
BRANCH   6   8
HETATM    8  C5  UNL     1       1.442  -0.058  -0.416  1.00  0.00     0.130 C 
HETATM    9  C6  UNL     1       0.736   1.118  -0.286  1.00  0.00     0.106 C 
HETATM   10 CL1  UNL     1       1.416   2.673   0.156  1.00  0.00    -0.078 Cl
HETATM   11  C7  UNL     1      -0.753   1.262  -0.531  1.00  0.00     0.081 C 
HETATM   12  C8  UNL     1      -1.136   2.427  -1.155  1.00  0.00     0.023 C 
HETATM   13  N5  UNL     1      -1.779   0.280  -0.215  1.00  0.00    -0.241 N 
HETATM   14  C9  UNL     1      -2.357   1.892  -1.913  1.00  0.00     0.141 C 
HETATM   15  N2  UNL     1      -1.928   0.567  -2.438  1.00  0.00    -0.218 NA
HETATM   16  N3  UNL     1      -1.550  -0.339  -1.447  1.00  0.00    -0.230 N 
HETATM   17  H8  UNL     1      -2.834   0.175  -2.838  1.00  0.00     0.148 HD
HETATM   18  C10 UNL     1      -0.550  -1.245  -1.641  1.00  0.00     0.287 C 
HETATM   19  N4  UNL     1       0.734  -1.218  -0.946  1.00  0.00    -0.356 N 
HETATM   20  H11 UNL     1       1.342  -2.033  -0.724  1.00  0.00     0.162 HD
BRANCH  13  21
HETATM   21  C11 UNL     1      -2.746  -0.152   0.745  1.00  0.00     0.058 A 
HETATM   22  C12 UNL     1      -2.869   0.504   1.949  1.00  0.00     0.031 A 
HETATM   23  C13 UNL     1      -3.813   0.059   2.848  1.00  0.00     0.002 A 
HETATM   24  C14 UNL     1      -4.569  -1.026   2.459  1.00  0.00     0.000 A 
HETATM   25  C15 UNL     1      -4.411  -1.648   1.248  1.00  0.00     0.002 A 
HETATM   26  C16 UNL     1      -3.479  -1.234   0.322  1.00  0.00     0.031 A 
ENDBRANCH  13  21
ENDBRANCH   6   8
ENDBRANCH   3   4
TORSDOF 3
