REMARK  1 active torsions:
REMARK  status: ('A' for Active; 'I' for Inactive)
REMARK    1  A    between atoms: B1_19  and  C11_20 
ROOT
HETATM    1  F1  UNL     1       3.622   0.200  -2.253  1.00  0.00    -0.205 F 
HETATM    2  C1  UNL     1       2.922  -0.322  -1.192  1.00  0.00     0.128 A 
HETATM    3  C2  UNL     1       2.753  -1.441  -0.489  1.00  0.00     0.058 A 
HETATM    4  C3  UNL     1       1.978  -0.223  -0.122  1.00  0.00     0.020 A 
HETATM    5  C4  UNL     1       1.085   0.488   0.611  1.00  0.00     0.021 C 
HETATM    6  N1  UNL     1       0.555  -0.397   1.634  1.00  0.00    -0.349 N 
HETATM    7  C5  UNL     1      -0.691  -1.045   1.455  1.00  0.00     0.160 A 
HETATM    8  N2  UNL     1      -1.134  -1.987   2.305  1.00  0.00    -0.222 NA
HETATM    9  C6  UNL     1      -2.348  -2.585   2.083  1.00  0.00     0.236 A 
HETATM   10  N3  UNL     1      -3.165  -2.282   1.027  1.00  0.00    -0.238 NA
HETATM   11  C7  UNL     1      -2.755  -1.358   0.172  1.00  0.00     0.109 A 
HETATM   12  C8  UNL     1      -3.341  -0.848  -0.955  1.00  0.00     0.170 A 
HETATM   13  N4  UNL     1      -2.786   0.115  -1.735  1.00  0.00    -0.071 NA
HETATM   14  C9  UNL     1      -1.594   0.617  -1.407  1.00  0.00     0.745 A 
HETATM   15  N5  UNL     1      -1.012   0.135  -0.321  1.00  0.00    -0.055 NA
HETATM   16  C10 UNL     1      -1.536  -0.782   0.426  1.00  0.00     0.152 A 
HETATM   17  N6  UNL     1      -0.524   1.503  -1.660  1.00  0.00    -0.110 N 
HETATM   18  O1  UNL     1      -0.039   2.448  -0.831  1.00  0.00    -0.328 OA
HETATM   19  B1  UNL     1       0.955   1.988   0.120  1.00  0.00     0.431 B 
HETATM   20  H2  UNL     1       1.143  -0.521   2.476  1.00  0.00     0.166 HD
HETATM   21  H5  UNL     1      -0.397   1.077  -2.630  1.00  0.00     0.211 HD
ENDROOT
BRANCH  19  22
HETATM   22  C11 UNL     1       2.300   2.875   0.156  1.00  0.00     0.108 C 
HETATM   23 CL1  UNL     1       2.613   3.551  -1.459  1.00  0.00    -0.137 Cl
ENDBRANCH  19  22
TORSDOF 1
