REMARK  10 active torsions:
REMARK  status: ('A' for Active; 'I' for Inactive)
REMARK    1  A    between atoms: C2_2  and  O1_3 
REMARK    2  A    between atoms: C2_2  and  C6_8 
REMARK    3  A    between atoms: O1_3  and  C3_4 
REMARK    4  A    between atoms: C4_5  and  C5_6 
REMARK    5  A    between atoms: C5_6  and  O2_7 
REMARK    6  A    between atoms: C11_15  and  N3_16 
REMARK    7  A    between atoms: N3_16  and  C12_17 
REMARK    8  A    between atoms: C13_18  and  C14_19 
REMARK    9  A    between atoms: C14_19  and  C15_20 
REMARK   10  A    between atoms: C14_19  and  C16_22 
ROOT
HETATM    1  C6  UNL     1      -2.129  -1.610   0.133  1.00  0.00    -0.027 A 
HETATM    2  C7  UNL     1      -2.112  -2.981   0.404  1.00  0.00     0.012 A 
HETATM    3  C8  UNL     1      -1.078  -3.561   1.113  1.00  0.00     0.033 A 
HETATM    4  C9  UNL     1      -0.030  -2.755   1.567  1.00  0.00     0.072 A 
HETATM    5  N1  UNL     1       0.994  -3.283   2.272  1.00  0.00    -0.241 NA
HETATM    6  C10 UNL     1       1.997  -2.511   2.716  1.00  0.00     0.236 A 
HETATM    7  N2  UNL     1       2.010  -1.171   2.468  1.00  0.00    -0.224 NA
HETATM    8  C11 UNL     1       0.997  -0.599   1.761  1.00  0.00     0.141 A 
HETATM    9  C17 UNL     1      -0.029  -1.401   1.309  1.00  0.00     0.039 A 
HETATM   10  C18 UNL     1      -1.088  -0.838   0.588  1.00  0.00     0.027 A 
ENDROOT
BRANCH   8  11
HETATM   11  N3  UNL     1       1.055   0.823   1.523  1.00  0.00    -0.350 N 
HETATM   12  H11 UNL     1       0.552   1.683   1.836  1.00  0.00     0.166 HD
BRANCH  11  13
HETATM   13  C12 UNL     1       2.133   0.892   0.598  1.00  0.00     0.086 C 
HETATM   14  C13 UNL     1       3.442   0.742   0.545  1.00  0.00    -0.002 C 
BRANCH  14  15
HETATM   15  C14 UNL     1       4.472   0.843  -0.490  1.00  0.00     0.052 C 
BRANCH  15  16
HETATM   16  C15 UNL     1       5.563   1.825  -0.132  1.00  0.00     0.231 C 
HETATM   17  F1  UNL     1       6.469   1.832  -1.173  1.00  0.00    -0.255 F 
ENDBRANCH  15  16
BRANCH  15  18
HETATM   18  C16 UNL     1       3.885   1.209  -1.832  1.00  0.00     0.125 C 
HETATM   19 CL1  UNL     1       3.068   2.782  -1.707  1.00  0.00    -0.130 Cl
ENDBRANCH  15  18
ENDBRANCH  14  15
ENDBRANCH  11  13
ENDBRANCH   8  11
BRANCH   1  20
HETATM   20  C2  UNL     1      -3.264  -1.081  -0.610  1.00  0.00     0.169 C 
HETATM   21  C1  UNL     1      -4.176  -2.102  -1.223  1.00  0.00     0.046 C 
BRANCH  20  22
HETATM   22  O1  UNL     1      -2.925  -0.140  -1.622  1.00  0.00    -0.294 OA
BRANCH  22  23
HETATM   23  C3  UNL     1      -3.473   1.134  -1.557  1.00  0.00     0.057 C 
HETATM   24  C4  UNL     1      -3.963   2.234  -1.485  1.00  0.00    -0.051 C 
BRANCH  24  25
HETATM   25  C5  UNL     1      -4.581   3.574  -1.381  1.00  0.00     0.260 C 
BRANCH  25  26
HETATM   26  O2  UNL     1      -4.189   4.216  -0.185  1.00  0.00    -0.389 OA
HETATM   27  H7  UNL     1      -4.055   3.486   0.480  1.00  0.00     0.210 HD
ENDBRANCH  25  26
ENDBRANCH  24  25
ENDBRANCH  22  23
ENDBRANCH  20  22
ENDBRANCH   1  20
TORSDOF 10
