REMARK  5 active torsions:
REMARK  status: ('A' for Active; 'I' for Inactive)
REMARK    1  A    between atoms: C2_3  and  C3_4 
REMARK    2  A    between atoms: C3_4  and  C4_5 
REMARK    3  A    between atoms: N1_15  and  C13_16 
REMARK    4  A    between atoms: C13_16  and  N2_17 
REMARK    5  A    between atoms: N2_17  and  C14_18 
ROOT
HETATM    1  O1  UNL     1      -0.940  -1.697   1.040  1.00  0.00    -0.267 OA
HETATM    2  C1  UNL     1      -0.880  -0.583   0.488  1.00  0.00     0.261 A 
HETATM    3  C2  UNL     1       0.320   0.018   0.154  1.00  0.00     0.035 A 
HETATM    4  C10 UNL     1       0.448   1.253  -0.459  1.00  0.00     0.052 A 
HETATM    5  C11 UNL     1      -0.736   1.905  -0.744  1.00  0.00     0.108 A 
HETATM    6  C12 UNL     1      -1.960   1.345  -0.429  1.00  0.00     0.185 A 
HETATM    7  N1  UNL     1      -1.975   0.131   0.170  1.00  0.00    -0.267 N 
HETATM    8  N3  UNL     1      -3.051   1.979  -0.708  1.00  0.00    -0.127 NA
HETATM    9  N4  UNL     1      -2.950   3.229  -1.327  1.00  0.00    -0.124 NA
HETATM   10  C15 UNL     1      -1.832   3.779  -1.521  1.00  0.00     0.222 C 
HETATM   11  N5  UNL     1      -0.709   3.195  -1.381  1.00  0.00    -0.221 NA
ENDROOT
BRANCH   3  12
HETATM   12  C3  UNL     1       1.436  -0.633   0.440  1.00  0.00     0.030 C 
BRANCH  12  13
HETATM   13  C4  UNL     1       2.847  -0.364   0.264  1.00  0.00    -0.013 A 
HETATM   14  C5  UNL     1       3.593   0.332   1.196  1.00  0.00     0.013 A 
HETATM   15  C6  UNL     1       4.938   0.581   1.017  1.00  0.00     0.001 A 
HETATM   16  C7  UNL     1       5.532   0.115  -0.131  1.00  0.00     0.002 A 
HETATM   17  C8  UNL     1       4.863  -0.590  -1.117  1.00  0.00     0.024 A 
HETATM   18  C9  UNL     1       3.508  -0.814  -0.885  1.00  0.00     0.044 A 
HETATM   19 CL1  UNL     1       2.637  -1.709  -2.127  1.00  0.00    -0.083 Cl
ENDBRANCH  12  13
ENDBRANCH   3  12
BRANCH   7  20
HETATM   20  C13 UNL     1      -3.255  -0.501   0.523  1.00  0.00     0.405 C 
BRANCH  20  21
HETATM   21  N2  UNL     1      -3.739  -1.322  -0.573  1.00  0.00     0.114 N 
HETATM   22  H9  UNL     1      -3.045  -2.005  -0.897  1.00  0.00     0.319 HD
BRANCH  21  23
HETATM   23  C14 UNL     1      -4.988  -1.964  -0.279  1.00  0.00     0.385 C 
HETATM   24 CL2  UNL     1      -6.277  -0.806   0.072  1.00  0.00    -0.098 Cl
ENDBRANCH  21  23
ENDBRANCH  20  21
ENDBRANCH   7  20
TORSDOF 5
