REMARK  6 active torsions:
REMARK  status: ('A' for Active; 'I' for Inactive)
REMARK       I    between atoms: C3_3  and  N1_5 
REMARK    1  A    between atoms: N1_5  and  C4_6 
REMARK    2  A    between atoms: C4_6  and  C6_8 
REMARK    3  A    between atoms: C9_14  and  N4_15 
REMARK    4  A    between atoms: N4_15  and  C10_16 
REMARK    5  A    between atoms: C11_17  and  C12_18 
REMARK    6  A    between atoms: C13_19  and  C14_20 
ROOT
HETATM    1  C1  UNL     1      -4.517  -5.449   0.216  1.00  0.00     0.022 C 
HETATM    2  C2  UNL     1      -4.350  -4.370   0.698  1.00  0.00    -0.016 C 
HETATM    3  C3  UNL     1      -4.131  -3.066   1.295  1.00  0.00     0.299 C 
HETATM    4  O1  UNL     1      -4.687  -2.672   2.383  1.00  0.00    -0.258 OA
HETATM    5  N1  UNL     1      -3.324  -2.041   0.843  1.00  0.00    -0.320 N 
HETATM    6  H2  UNL     1      -2.757  -2.402   0.066  1.00  0.00     0.169 HD
ENDROOT
BRANCH   5   7
HETATM    7  C4  UNL     1      -2.892  -0.755   1.127  1.00  0.00     0.016 C 
HETATM    8  C5  UNL     1      -3.598  -0.645   2.306  1.00  0.00     0.063 C 
BRANCH   7   9
HETATM    9  C6  UNL     1      -1.978   0.084   0.388  1.00  0.00     0.068 C 
HETATM   10  C7  UNL     1      -1.371  -0.206  -0.760  1.00  0.00     0.148 A 
HETATM   11  O2  UNL     1      -1.548  -1.449  -1.467  1.00  0.00    -0.208 OA
HETATM   12  C9  UNL     1      -0.486   0.868  -1.273  1.00  0.00     0.161 A 
HETATM   13  N2  UNL     1      -0.827  -1.501  -2.609  1.00  0.00    -0.121 NA
HETATM   14  C8  UNL     1      -0.070  -0.610  -3.074  1.00  0.00     0.265 A 
HETATM   15  N3  UNL     1       0.164   0.685  -2.421  1.00  0.00    -0.220 NA
BRANCH  12  16
HETATM   16  N4  UNL     1      -0.223   2.176  -0.561  1.00  0.00    -0.371 N 
HETATM   17  H7  UNL     1      -1.229   2.372  -0.550  1.00  0.00     0.161 HD
BRANCH  16  18
HETATM   18  C10 UNL     1       1.273   2.221  -0.438  1.00  0.00     0.072 C 
HETATM   19  C11 UNL     1       2.559   1.808  -0.586  1.00  0.00     0.092 C 
BRANCH  19  20
HETATM   20  C12 UNL     1       3.285   2.905   0.092  1.00  0.00    -0.018 C 
HETATM   21  C13 UNL     1       4.541   2.496  -0.070  1.00  0.00     0.014 C 
BRANCH  21  22
HETATM   22  C14 UNL     1       4.749   1.253  -0.787  1.00  0.00     0.001 C 
HETATM   23  C15 UNL     1       6.010   0.900  -0.942  1.00  0.00     0.032 C 
HETATM   24 BR1  UNL     1       3.917  -0.194  -1.668  1.00  0.00    -0.052 Br
ENDBRANCH  21  22
ENDBRANCH  19  20
ENDBRANCH  16  18
ENDBRANCH  12  16
ENDBRANCH   7   9
ENDBRANCH   5   7
TORSDOF 6
