REMARK  1 active torsions:
REMARK  status: ('A' for Active; 'I' for Inactive)
REMARK    1  A    between atoms: C10_14  and  N4_15 
ROOT
HETATM    1  O1  UNL     1      -0.870   2.266   2.113  1.00  0.00     0.000 OA
HETATM    2  C1  UNL     1       0.312   2.627   2.409  1.00  0.00     0.285 A 
HETATM    3  C2  UNL     1      -0.010   1.761   1.360  1.00  0.00     0.046 A 
HETATM    4  C3  UNL     1      -0.299   1.049   0.498  1.00  0.00    -0.126 C 
HETATM    5  C4  UNL     1      -0.667   0.219  -0.510  1.00  0.00     0.179 C 
HETATM    6  C5  UNL     1      -2.232   0.038  -0.315  1.00  0.00     0.058 C 
HETATM    7  C6  UNL     1      -3.015   0.690   0.600  1.00  0.00     0.030 C 
HETATM    8  C7  UNL     1      -3.398   1.604   1.723  1.00  0.00     0.029 C 
HETATM    9  C8  UNL     1      -2.729   2.447   2.612  1.00  0.00     0.236 C 
HETATM   10  N1  UNL     1      -1.203   2.753   2.772  1.00  0.00     0.129 N 
HETATM   11  N2  UNL     1      -2.845  -1.097  -0.917  1.00  0.00    -0.245 NA
HETATM   12  C9  UNL     1      -2.067  -2.041  -1.397  1.00  0.00     0.235 C 
HETATM   13  N3  UNL     1      -0.664  -1.898  -1.357  1.00  0.00    -0.227 NA
HETATM   14  C10 UNL     1       0.004  -0.905  -0.946  1.00  0.00     0.129 C 
HETATM   15  H5  UNL     1      -1.148   3.445   3.617  1.00  0.00     0.324 HD
ENDROOT
BRANCH  14  16
HETATM   16  N4  UNL     1       1.406  -1.096  -1.000  1.00  0.00    -0.339 N 
HETATM   17  C11 UNL     1       2.011  -2.393  -1.187  1.00  0.00     0.111 A 
HETATM   18  C12 UNL     1       3.265  -2.696  -1.309  1.00  0.00     0.026 A 
HETATM   19 BR1  UNL     1       3.843  -4.481  -1.551  1.00  0.00    -0.050 Br
HETATM   20  C13 UNL     1       4.222  -1.616  -1.231  1.00  0.00     0.018 A 
HETATM   21  C14 UNL     1       3.688  -0.432  -1.038  1.00  0.00    -0.005 A 
HETATM   22  C15 UNL     1       2.298   0.035  -0.879  1.00  0.00     0.157 A 
ENDBRANCH  14  16
TORSDOF 1
