REMARK  3 active torsions:
REMARK  status: ('A' for Active; 'I' for Inactive)
REMARK    1  A    between atoms: N1_1  and  C1_2 
REMARK    2  A    between atoms: C6_9  and  N4_10 
REMARK    3  A    between atoms: N4_10  and  C7_11 
ROOT
HETATM    1  C1  UNL     1       3.726   0.941   0.641  1.00  0.00     0.140 A 
HETATM    2  C2  UNL     1       4.114  -0.317   0.805  1.00  0.00     0.058 A 
HETATM    3  C3  UNL     1       3.256  -1.442   0.459  1.00  0.00     0.037 A 
HETATM    4  C4  UNL     1       2.032  -1.516  -0.036  1.00  0.00     0.074 A 
HETATM    5  N2  UNL     1       1.557  -2.747  -0.228  1.00  0.00    -0.241 NA
HETATM    6  C5  UNL     1       0.308  -2.966  -0.740  1.00  0.00     0.236 A 
HETATM    7  N3  UNL     1      -0.481  -1.930  -1.066  1.00  0.00    -0.223 NA
HETATM    8  C6  UNL     1      -0.047  -0.660  -0.890  1.00  0.00     0.143 A 
HETATM    9  C13 UNL     1       1.216  -0.454  -0.373  1.00  0.00     0.061 A 
HETATM   10  C14 UNL     1       1.392   0.848  -0.308  1.00  0.00     0.162 A 
HETATM   11  O1  UNL     1       2.539   1.493   0.155  1.00  0.00    -0.305 OA
ENDROOT
BRANCH   8  12
HETATM   12  N4  UNL     1      -1.005   0.299  -1.296  1.00  0.00    -0.340 N 
HETATM   13  H6  UNL     1      -0.761   0.964  -2.084  1.00  0.00     0.167 HD
BRANCH  12  14
HETATM   14  C7  UNL     1      -2.276   0.405  -0.692  1.00  0.00     0.035 A 
HETATM   15  C8  UNL     1      -2.682  -0.431   0.327  1.00  0.00     0.029 A 
HETATM   16  C9  UNL     1      -3.941  -0.353   0.937  1.00  0.00     0.004 A 
HETATM   17  C10 UNL     1      -4.831   0.621   0.495  1.00  0.00     0.019 A 
HETATM   18  C11 UNL     1      -4.430   1.447  -0.511  1.00  0.00     0.013 A 
HETATM   19 BR1  UNL     1      -5.587   2.806  -1.177  1.00  0.00    -0.051 Br
HETATM   20  C12 UNL     1      -3.182   1.357  -1.104  1.00  0.00     0.048 A 
ENDBRANCH  12  14
ENDBRANCH   8  12
BRANCH   1  21
HETATM   21  N1  UNL     1       4.658   1.963   1.016  1.00  0.00    -0.380 N 
HETATM   22  H1  UNL     1       5.098   1.758   1.941  1.00  0.00     0.158 HD
HETATM   23  H2  UNL     1       4.931   2.825   0.510  1.00  0.00     0.158 HD
ENDBRANCH   1  21
TORSDOF 3
