REMARK  2 active torsions:
REMARK  status: ('A' for Active; 'I' for Inactive)
REMARK    1  A    between atoms: N1_1  and  O1_2 
REMARK    2  A    between atoms: O1_2  and  C1_3 
ROOT
HETATM    1  C1  UNL     1       2.881  -1.419  -0.411  1.00  0.00     0.224 C 
HETATM    2  C2  UNL     1       2.469  -0.131  -0.704  1.00  0.00    -0.067 C 
HETATM    3  C3  UNL     1       2.118   0.910  -0.930  1.00  0.00    -0.024 C 
HETATM    4  C4  UNL     1       1.661   2.190  -1.198  1.00  0.00     0.426 A 
HETATM    5  O2  UNL     1       0.790   3.036  -1.121  1.00  0.00    -0.134 OA
HETATM    6  N2  UNL     1       0.387   1.897  -0.522  1.00  0.00     0.115 N 
HETATM    7  C5  UNL     1      -0.963   1.721   0.143  1.00  0.00     0.199 A 
HETATM    8  C6  UNL     1      -1.901   2.571  -0.234  1.00  0.00     0.015 C 
HETATM    9  C7  UNL     1      -3.279   2.743   0.125  1.00  0.00     0.018 C 
HETATM   10  C8  UNL     1      -3.969   1.997   0.967  1.00  0.00     0.117 C 
HETATM   11  N3  UNL     1      -4.119   0.926   1.871  1.00  0.00    -0.254 NA
HETATM   12  C9  UNL     1      -3.450  -0.149   1.749  1.00  0.00     0.232 C 
HETATM   13  N4  UNL     1      -2.525  -1.004   1.160  1.00  0.00    -0.250 NA
HETATM   14  C10 UNL     1      -1.266  -0.640   0.931  1.00  0.00     0.021 C 
HETATM   15  C11 UNL     1       0.008  -1.173   0.365  1.00  0.00     0.048 C 
HETATM   16  C12 UNL     1       0.501  -2.281  -0.228  1.00  0.00     0.004 C 
HETATM   17  C13 UNL     1       1.853  -2.524  -0.690  1.00  0.00     0.052 C 
HETATM   18  C14 UNL     1      -1.191   0.752   1.324  1.00  0.00     0.100 C 
HETATM   19  H4  UNL     1      -0.097   1.041  -0.276  1.00  0.00     0.362 HD
ENDROOT
BRANCH   1  20
HETATM   20  O1  UNL     1       4.052  -1.785  -1.072  1.00  0.00    -0.291 OA
BRANCH  20  21
HETATM   21  N1  UNL     1       5.021  -2.181  -0.222  1.00  0.00    -0.214 NA
HETATM   22  H1  UNL     1       5.769  -1.479  -0.143  1.00  0.00     0.150 HD
HETATM   23  H2  UNL     1       4.592  -2.390   0.697  1.00  0.00     0.150 HD
ENDBRANCH  20  21
ENDBRANCH   1  20
TORSDOF 2
