REMARK  3 active torsions:
REMARK  status: ('A' for Active; 'I' for Inactive)
REMARK       I    between atoms: C3_3  and  N1_5 
REMARK    1  A    between atoms: N1_5  and  C4_6 
REMARK    2  A    between atoms: C9_13  and  N4_14 
REMARK    3  A    between atoms: N4_14  and  C10_15 
ROOT
HETATM    1  C1  UNL     1      -5.307  -0.269   3.583  1.00  0.00     0.022 C 
HETATM    2  C2  UNL     1      -4.554  -0.264   2.643  1.00  0.00    -0.016 C 
HETATM    3  C3  UNL     1      -3.667  -0.271   1.503  1.00  0.00     0.300 C 
HETATM    4  O1  UNL     1      -3.785   0.593   0.581  1.00  0.00    -0.258 OA
HETATM    5  N1  UNL     1      -2.614  -1.212   1.310  1.00  0.00    -0.316 N 
HETATM    6  H2  UNL     1      -2.497  -1.940   2.064  1.00  0.00     0.170 HD
ENDROOT
BRANCH   5   7
HETATM    7  C4  UNL     1      -1.977  -0.868   0.056  1.00  0.00     0.036 A 
HETATM    8  C5  UNL     1      -2.560  -1.528  -1.019  1.00  0.00     0.032 A 
HETATM    9  C6  UNL     1      -2.069  -1.308  -2.304  1.00  0.00     0.035 A 
HETATM   10  C7  UNL     1      -1.012  -0.436  -2.462  1.00  0.00     0.072 A 
HETATM   11  N2  UNL     1      -0.472  -0.164  -3.686  1.00  0.00    -0.241 NA
HETATM   12  C16 UNL     1      -0.433   0.219  -1.389  1.00  0.00     0.041 A 
HETATM   13  C8  UNL     1       0.564   0.695  -3.828  1.00  0.00     0.236 A 
HETATM   14  N3  UNL     1       1.123   1.333  -2.754  1.00  0.00    -0.224 NA
HETATM   15  C9  UNL     1       0.626   1.101  -1.509  1.00  0.00     0.142 A 
HETATM   16  C17 UNL     1      -0.918   0.003  -0.113  1.00  0.00     0.047 A 
BRANCH  15  17
HETATM   17  N4  UNL     1       1.174   1.742  -0.358  1.00  0.00    -0.340 N 
HETATM   18  H6  UNL     1       0.880   2.652   0.084  1.00  0.00     0.167 HD
BRANCH  17  19
HETATM   19  C10 UNL     1       2.262   1.050   0.271  1.00  0.00     0.035 A 
HETATM   20  C11 UNL     1       2.713  -0.151  -0.268  1.00  0.00     0.029 A 
HETATM   21  C12 UNL     1       3.769  -0.826   0.338  1.00  0.00     0.004 A 
HETATM   22  C13 UNL     1       4.383  -0.329   1.467  1.00  0.00     0.019 A 
HETATM   23  C14 UNL     1       3.942   0.856   2.003  1.00  0.00     0.013 A 
HETATM   24 BR1  UNL     1       4.805   1.521   3.560  1.00  0.00    -0.051 Br
HETATM   25  C15 UNL     1       2.898   1.519   1.400  1.00  0.00     0.048 A 
ENDBRANCH  17  19
ENDBRANCH  15  17
ENDBRANCH   5   7
TORSDOF 3
