REMARK  0 active torsions:
REMARK  status: ('A' for Active; 'I' for Inactive)
ROOT
HETATM    1  O1  UNL     1      -1.663   0.862  -1.860  1.00  0.00    -0.319 OA
HETATM    2  C1  UNL     1      -1.868   1.949  -1.422  1.00  0.00     0.238 A 
HETATM    3  C2  UNL     1      -1.057   1.116  -0.585  1.00  0.00     0.220 A 
HETATM    4  C3  UNL     1      -0.410   0.467   0.099  1.00  0.00    -0.095 C 
HETATM    5  C4  UNL     1       0.375  -0.302   0.950  1.00  0.00     0.336 A 
HETATM    6  C5  UNL     1      -0.355  -0.176   2.290  1.00  0.00     0.231 A 
HETATM    7  B1  UNL     1      -1.578   0.980   2.618  1.00  0.00     0.228 B 
HETATM    8  C6  UNL     1      -2.398   2.201   1.887  1.00  0.00    -0.024 C 
HETATM    9  C7  UNL     1      -1.957   3.574   1.722  1.00  0.00    -0.020 C 
HETATM   10  C8  UNL     1      -1.745   4.167   0.501  1.00  0.00     0.081 C 
HETATM   11  N1  UNL     1      -1.991   3.249  -0.672  1.00  0.00    -0.361 N 
HETATM   12  N2  UNL     1      -0.294  -1.205   3.298  1.00  0.00    -0.245 NA
HETATM   13  C9  UNL     1       0.312  -2.310   2.914  1.00  0.00     0.325 A 
HETATM   14  N3  UNL     1       0.435  -1.486   1.804  1.00  0.00     0.040 N 
HETATM   15  C10 UNL     1       0.914  -1.570   0.668  1.00  0.00     0.178 A 
HETATM   16  C11 UNL     1       1.497  -1.849  -0.626  1.00  0.00    -0.000 A 
HETATM   17  C12 UNL     1       1.721  -0.844  -1.531  1.00  0.00     0.013 A 
HETATM   18  C13 UNL     1       2.271  -1.162  -2.760  1.00  0.00     0.002 A 
HETATM   19  C14 UNL     1       2.545  -2.520  -2.941  1.00  0.00     0.019 A 
HETATM   20  C15 UNL     1       2.338  -3.556  -2.067  1.00  0.00     0.011 A 
HETATM   21 BR1  UNL     1       2.810  -5.337  -2.558  1.00  0.00    -0.051 Br
HETATM   22  C16 UNL     1       1.780  -3.197  -0.834  1.00  0.00     0.032 A 
HETATM   23  H6  UNL     1      -2.471   3.148  -1.618  1.00  0.00     0.162 HD
ENDROOT
TORSDOF 0
