REMARK  5 active torsions:
REMARK  status: ('A' for Active; 'I' for Inactive)
REMARK    1  A    between atoms: C1_2  and  C2_3 
REMARK    2  A    between atoms: C2_3  and  N1_4 
REMARK    3  A    between atoms: N1_4  and  C3_5 
REMARK    4  A    between atoms: C6_8  and  N2_9 
REMARK    5  A    between atoms: N2_9  and  C7_10 
ROOT
HETATM    1  C3  UNL     1       2.754  -0.339   0.118  1.00  0.00     0.124 A 
HETATM    2  C4  UNL     1       1.389  -0.164   0.041  1.00  0.00     0.068 A 
HETATM    3  C5  UNL     1       0.464  -1.184   0.020  1.00  0.00     0.044 A 
HETATM    4  C6  UNL     1      -0.896  -0.979  -0.057  1.00  0.00     0.142 A 
HETATM    5  N3  UNL     1      -1.574  -2.127  -0.062  1.00  0.00    -0.224 NA
HETATM    6  C13 UNL     1      -1.099  -3.354  -0.004  1.00  0.00     0.236 A 
HETATM    7  N4  UNL     1       0.254  -3.520   0.072  1.00  0.00    -0.240 NA
HETATM    8  C14 UNL     1       1.053  -2.427   0.085  1.00  0.00     0.089 A 
HETATM    9  C15 UNL     1       2.411  -2.627   0.161  1.00  0.00     0.151 A 
HETATM   10  N5  UNL     1       3.248  -1.578   0.177  1.00  0.00    -0.241 NA
ENDROOT
BRANCH   4  11
HETATM   11  N2  UNL     1      -1.423   0.330  -0.116  1.00  0.00    -0.340 N 
HETATM   12  H6  UNL     1      -0.794   1.154  -0.093  1.00  0.00     0.167 HD
BRANCH  11  13
HETATM   13  C7  UNL     1      -2.766   0.705  -0.206  1.00  0.00     0.035 A 
HETATM   14  C8  UNL     1      -3.781  -0.188  -0.323  1.00  0.00     0.032 A 
HETATM   15  C9  UNL     1      -5.116   0.168  -0.410  1.00  0.00     0.046 A 
HETATM   16  C10 UNL     1      -5.500   1.489  -0.382  1.00  0.00     0.138 A 
HETATM   17  F1  UNL     1      -6.768   1.934  -0.460  1.00  0.00    -0.204 F 
HETATM   18  C11 UNL     1      -4.505   2.424  -0.265  1.00  0.00     0.074 A 
HETATM   19 CL1  UNL     1      -4.900   4.128  -0.222  1.00  0.00    -0.081 Cl
HETATM   20  C12 UNL     1      -3.194   2.016  -0.183  1.00  0.00     0.056 A 
ENDBRANCH  11  13
ENDBRANCH   4  11
BRANCH   1  21
HETATM   21  N1  UNL     1       3.652   0.764   0.135  1.00  0.00    -0.368 N 
HETATM   22  H4  UNL     1       3.245   1.744   0.085  1.00  0.00     0.161 HD
BRANCH  21  23
HETATM   23  C2  UNL     1       5.070   0.575   0.216  1.00  0.00     0.190 C 
BRANCH  23  24
HETATM   24  C1  UNL     1       5.753   1.917   0.213  1.00  0.00     0.250 C 
HETATM   25  O1  UNL     1       6.915   2.199   0.267  1.00  0.00    -0.305 OA
ENDBRANCH  23  24
ENDBRANCH  21  23
ENDBRANCH   1  21
TORSDOF 5
