REMARK  1 active torsions:
REMARK  status: ('A' for Active; 'I' for Inactive)
REMARK    1  A    between atoms: O1_1  and  N1_2 
ROOT
HETATM    1  N1  UNL     1       4.960   0.559   1.319  1.00  0.00    -0.197 N 
HETATM    2  C1  UNL     1       3.786  -0.098   1.118  1.00  0.00     0.038 C 
HETATM    3  C2  UNL     1       2.790  -0.634   0.940  1.00  0.00    -0.051 C 
HETATM    4  C3  UNL     1       1.541  -1.279   0.710  1.00  0.00     0.364 C 
HETATM    5  N2  UNL     1       1.743  -2.688   0.446  1.00  0.00     0.094 N 
HETATM    6  C4  UNL     1       0.474  -3.287   0.136  1.00  0.00     0.270 C 
HETATM    7  C5  UNL     1      -0.484  -3.392   1.298  1.00  0.00     0.030 C 
HETATM    8  C6  UNL     1      -1.813  -3.970   0.862  1.00  0.00     0.002 C 
HETATM    9  C7  UNL     1      -2.492  -3.254  -0.216  1.00  0.00     0.000 C 
HETATM   10  C8  UNL     1      -3.037  -1.898  -0.071  1.00  0.00     0.000 C 
HETATM   11  C9  UNL     1      -2.199  -0.764   0.319  1.00  0.00     0.004 C 
HETATM   12  C10 UNL     1      -3.022   0.538   0.260  1.00  0.00     0.027 C 
HETATM   13  C11 UNL     1      -3.440   0.876  -1.099  1.00  0.00    -0.027 C 
HETATM   14  C12 UNL     1      -3.201   1.928  -1.910  1.00  0.00    -0.003 C 
HETATM   15  C13 UNL     1      -2.460   3.180  -1.860  1.00  0.00     0.019 C 
HETATM   16  C14 UNL     1      -1.689   3.850  -1.016  1.00  0.00     0.118 C 
HETATM   17  N3  UNL     1      -1.184   3.685   0.293  1.00  0.00    -0.257 NA
HETATM   18  C15 UNL     1       0.027   3.961   0.602  1.00  0.00     0.192 C 
HETATM   19  N4  UNL     1       1.146   4.459  -0.135  1.00  0.00    -0.398 NA
HETATM   20  C16 UNL     1       2.229   3.770  -0.140  1.00  0.00     0.345 C 
HETATM   21  C17 UNL     1       3.591   3.368  -0.427  1.00  0.00     0.115 C 
HETATM   22  N5  UNL     1       3.728   2.268   0.186  1.00  0.00    -0.281 NA
HETATM   23  C18 UNL     1       4.908   1.463   0.214  1.00  0.00     0.314 C 
HETATM   24  H4  UNL     1       2.354  -2.845  -0.386  1.00  0.00     0.317 HD
ENDROOT
BRANCH   1  25
HETATM   25  O1  UNL     1       5.000  -0.301   2.362  1.00  0.00    -0.278 OA
HETATM   26  H1  UNL     1       5.791  -0.118   2.948  1.00  0.00     0.245 HD
ENDBRANCH   1  25
TORSDOF 1
