REMARK  10 active torsions:
REMARK  status: ('A' for Active; 'I' for Inactive)
REMARK    1  A    between atoms: C2_2  and  C3_3 
REMARK    2  A    between atoms: C3_3  and  C4_4 
REMARK    3  A    between atoms: C4_4  and  C5_5 
REMARK    4  A    between atoms: C5_5  and  C6_6 
REMARK    5  A    between atoms: C6_6  and  C7_7 
REMARK    6  A    between atoms: C7_7  and  C8_8 
REMARK    7  A    between atoms: C8_8  and  C9_9 
REMARK    8  A    between atoms: C9_9  and  N1_10 
REMARK    9  A    between atoms: C9_9  and  C10_11 
REMARK       I    between atoms: C10_11  and  N2_13 
REMARK   10  A    between atoms: N2_13  and  C11_14 
ROOT
HETATM    1  C10 UNL     1      -2.041   0.460  -1.012  1.00  0.00     0.256 C 
HETATM    2  O1  UNL     1      -2.750   0.760  -2.009  1.00  0.00    -0.271 OA
HETATM    3  N2  UNL     1      -2.538  -0.037   0.226  1.00  0.00    -0.310 N 
HETATM    4  H21 UNL     1      -1.922  -0.274   1.029  1.00  0.00     0.170 HD
ENDROOT
BRANCH   1   5
HETATM    5  C9  UNL     1      -0.556   0.646  -1.156  1.00  0.00     0.309 C 
BRANCH   5   6
HETATM    6  C8  UNL     1       0.047  -0.732  -0.918  1.00  0.00     0.045 C 
BRANCH   6   7
HETATM    7  C7  UNL     1       1.561  -0.704  -1.077  1.00  0.00     0.003 C 
BRANCH   7   8
HETATM    8  C6  UNL     1       2.108   0.267  -0.067  1.00  0.00     0.000 C 
BRANCH   8   9
HETATM    9  C5  UNL     1       3.637   0.341  -0.180  1.00  0.00     0.000 C 
BRANCH   9  10
HETATM   10  C4  UNL     1       4.247  -1.001   0.070  1.00  0.00     0.000 C 
BRANCH  10  11
HETATM   11  C3  UNL     1       5.747  -0.884  -0.056  1.00  0.00    -0.000 C 
BRANCH  11  12
HETATM   12  C2  UNL     1       6.307   0.085   0.927  1.00  0.00    -0.005 C 
HETATM   13  C1  UNL     1       7.831   0.161   0.763  1.00  0.00     0.005 C 
ENDBRANCH  11  12
ENDBRANCH  10  11
ENDBRANCH   9  10
ENDBRANCH   8   9
ENDBRANCH   7   8
ENDBRANCH   6   7
ENDBRANCH   5   6
BRANCH   5  14
HETATM   14  N1  UNL     1      -0.284   1.150  -2.470  1.00  0.00     0.092 N 
HETATM   15  H19 UNL     1      -0.891   0.773  -3.210  1.00  0.00     0.313 HD
HETATM   16  H20 UNL     1      -0.257   2.214  -2.450  1.00  0.00     0.313 HD
ENDBRANCH   5  14
ENDBRANCH   1   5
BRANCH   3  17
HETATM   17  C11 UNL     1      -3.940  -0.216   0.372  1.00  0.00     0.129 C 
HETATM   18  C12 UNL     1      -4.830   0.069  -0.629  1.00  0.00     0.055 C 
HETATM   19  C13 UNL     1      -5.759  -0.582  -1.409  1.00  0.00     0.067 C 
HETATM   20  C14 UNL     1      -7.080  -0.495  -0.975  1.00  0.00     0.211 C 
HETATM   21  F1  UNL     1      -7.651  -0.207  -2.184  1.00  0.00    -0.184 F 
HETATM   22  N3  UNL     1      -7.276  -0.706   0.340  1.00  0.00    -0.214 NA
HETATM   23  C15 UNL     1      -7.038   0.249   1.263  1.00  0.00     0.235 C 
HETATM   24  N4  UNL     1      -6.447   1.094   2.144  1.00  0.00    -0.253 NA
HETATM   25  C16 UNL     1      -5.538   0.719   3.051  1.00  0.00     0.137 C 
HETATM   26  C17 UNL     1      -4.378   0.102   2.615  1.00  0.00     0.138 C 
HETATM   27  N5  UNL     1      -4.476  -0.680   1.510  1.00  0.00    -0.242 NA
ENDBRANCH   3  17
TORSDOF 10
