REMARK  6 active torsions:
REMARK  status: ('A' for Active; 'I' for Inactive)
REMARK    1  A    between atoms: C2_2  and  C3_3 
REMARK    2  A    between atoms: C3_3  and  C4_4 
REMARK    3  A    between atoms: C4_4  and  N1_5 
REMARK    4  A    between atoms: C13_19  and  N6_20 
REMARK    5  A    between atoms: N6_20  and  C14_21 
REMARK    6  A    between atoms: C21_30  and  C22_31 
ROOT
HETATM    1  N1  UNL     1       2.559   0.063   0.846  1.00  0.00    -0.402 N 
HETATM    2  C5  UNL     1       3.565   1.060   0.513  1.00  0.00     0.212 C 
HETATM    3  C6  UNL     1       3.234   2.394   0.678  1.00  0.00    -0.077 C 
HETATM    4  C7  UNL     1       2.954   3.478   0.795  1.00  0.00    -0.004 C 
HETATM    5  C8  UNL     1       2.592   4.818   0.919  1.00  0.00     0.297 C 
HETATM    6  O1  UNL     1       3.059   5.875   1.273  1.00  0.00    -0.258 OA
HETATM    7  N2  UNL     1       1.289   5.388   0.580  1.00  0.00    -0.332 N 
HETATM    8  C9  UNL     1      -0.020   5.982   0.243  1.00  0.00     0.273 C 
HETATM    9  N3  UNL     1      -0.973   4.904  -0.158  1.00  0.00    -0.280 NA
HETATM   10  C10 UNL     1      -0.830   3.774   0.530  1.00  0.00     0.144 C 
HETATM   11  C11 UNL     1      -1.519   2.485   0.484  1.00  0.00     0.085 A 
HETATM   12  N4  UNL     1      -2.782   2.811   0.784  1.00  0.00    -0.240 NA
HETATM   13  C12 UNL     1      -3.734   1.866   0.863  1.00  0.00     0.236 A 
HETATM   14  N5  UNL     1      -3.336   0.630   0.629  1.00  0.00    -0.224 NA
HETATM   15  C13 UNL     1      -2.071   0.304   0.329  1.00  0.00     0.138 A 
HETATM   16  C20 UNL     1      -1.031   1.192   0.223  1.00  0.00     0.024 A 
HETATM   17  C21 UNL     1       0.377   0.881  -0.134  1.00  0.00     0.042 C 
HETATM   18  C24 UNL     1       1.250   0.450   0.973  1.00  0.00     0.127 C 
HETATM   19  H12 UNL     1       1.040   4.453   0.234  1.00  0.00     0.165 HD
ENDROOT
BRANCH  15  20
HETATM   20  N6  UNL     1      -1.886  -1.063   0.139  1.00  0.00    -0.340 N 
HETATM   21  H17 UNL     1      -0.922  -1.412   0.178  1.00  0.00     0.167 HD
BRANCH  20  22
HETATM   22  C14 UNL     1      -2.770  -2.146  -0.070  1.00  0.00     0.035 A 
HETATM   23  C15 UNL     1      -2.428  -3.486   0.042  1.00  0.00     0.032 A 
HETATM   24  C16 UNL     1      -3.357  -4.472  -0.196  1.00  0.00     0.046 A 
HETATM   25  C17 UNL     1      -4.648  -4.200  -0.549  1.00  0.00     0.138 A 
HETATM   26  F1  UNL     1      -5.498  -5.215  -0.762  1.00  0.00    -0.204 F 
HETATM   27  C18 UNL     1      -4.990  -2.874  -0.661  1.00  0.00     0.074 A 
HETATM   28 CL1  UNL     1      -6.682  -2.600  -1.122  1.00  0.00    -0.081 Cl
HETATM   29  C19 UNL     1      -4.089  -1.853  -0.431  1.00  0.00     0.056 A 
ENDBRANCH  20  22
ENDBRANCH  15  20
BRANCH  17  30
HETATM   30  C22 UNL     1       0.525   0.244  -1.465  1.00  0.00     0.007 C 
HETATM   31  C23 UNL     1      -0.032   1.200  -2.527  1.00  0.00     0.006 C 
ENDBRANCH  17  30
BRANCH   1  32
HETATM   32  C4  UNL     1       3.012  -1.160   0.312  1.00  0.00     0.117 C 
BRANCH  32  33
HETATM   33  C3  UNL     1       2.166  -2.371   0.561  1.00  0.00     0.019 C 
BRANCH  33  34
HETATM   34  C2  UNL     1       2.852  -3.560  -0.098  1.00  0.00    -0.003 C 
HETATM   35  C1  UNL     1       2.027  -4.819   0.105  1.00  0.00     0.005 C 
ENDBRANCH  33  34
ENDBRANCH  32  33
ENDBRANCH   1  32
TORSDOF 6
