REMARK  7 active torsions:
REMARK  status: ('A' for Active; 'I' for Inactive)
REMARK    1  A    between atoms: O1_2  and  C2_3 
REMARK    2  A    between atoms: C7_8  and  C8_9 
REMARK    3  A    between atoms: C8_9  and  C9_10 
REMARK    4  A    between atoms: C9_10  and  N1_11 
REMARK    5  A    between atoms: C12_14  and  C13_15 
REMARK       I    between atoms: C13_15  and  N2_16 
REMARK    6  A    between atoms: C15_19  and  N3_20 
REMARK    7  A    between atoms: N3_20  and  C16_21 
ROOT
HETATM    1  C2  UNL     1       0.001  -1.253   2.153  1.00  0.00     0.076 A 
HETATM    2  C3  UNL     1       1.039  -1.996   2.445  1.00  0.00     0.067 A 
HETATM    3  C4  UNL     1       2.232  -1.899   1.615  1.00  0.00     0.042 A 
HETATM    4  C5  UNL     1       2.177  -1.047   0.602  1.00  0.00    -0.005 A 
HETATM    5  C6  UNL     1       1.083  -0.168   0.176  1.00  0.00     0.081 A 
HETATM    6  C7  UNL     1      -0.092  -0.323   1.068  1.00  0.00    -0.023 A 
HETATM    7  C15 UNL     1       3.295  -0.820  -0.341  1.00  0.00     0.239 A 
HETATM    8  N4  UNL     1       4.446  -1.634  -0.024  1.00  0.00    -0.255 NA
HETATM    9  C22 UNL     1       4.469  -2.447   0.960  1.00  0.00     0.204 A 
HETATM   10  N5  UNL     1       3.408  -2.664   1.855  1.00  0.00    -0.351 N 
HETATM   11  H25 UNL     1       3.429  -3.318   2.645  1.00  0.00     0.166 HD
ENDROOT
BRANCH   6  12
HETATM   12  C8  UNL     1      -1.134   0.408   0.799  1.00  0.00     0.013 C 
BRANCH  12  13
HETATM   13  C9  UNL     1      -2.483   0.614   1.359  1.00  0.00     0.300 C 
BRANCH  13  14
HETATM   14  N1  UNL     1      -3.452   0.271   0.338  1.00  0.00     0.092 N 
HETATM   15  C10 UNL     1      -3.417   1.221  -0.759  1.00  0.00     0.273 C 
HETATM   16  C11 UNL     1      -4.793   1.116  -1.423  1.00  0.00     0.046 C 
HETATM   17  C12 UNL     1      -5.582   0.264  -0.473  1.00  0.00     0.107 C 
HETATM   18  C14 UNL     1      -4.823   0.489   0.826  1.00  0.00     0.286 C 
BRANCH  17  19
HETATM   19  C13 UNL     1      -7.006   0.654  -0.352  1.00  0.00     0.221 C 
HETATM   20  N2  UNL     1      -7.569   0.527  -1.654  1.00  0.00    -0.370 N 
HETATM   21  H15 UNL     1      -7.806  -0.157  -2.423  1.00  0.00     0.159 HD
HETATM   22  H16 UNL     1      -7.987   0.505  -2.596  1.00  0.00     0.159 HD
HETATM   23  O2  UNL     1      -7.753   1.041   0.590  1.00  0.00    -0.273 OA
ENDBRANCH  17  19
ENDBRANCH  13  14
ENDBRANCH  12  13
ENDBRANCH   6  12
BRANCH   1  24
HETATM   24  O1  UNL     1      -1.037  -1.454   3.017  1.00  0.00    -0.355 OA
HETATM   25  C1  UNL     1      -1.815  -2.637   3.064  1.00  0.00     0.210 C 
ENDBRANCH   1  24
BRANCH   7  26
HETATM   26  N3  UNL     1       3.754   0.560  -0.300  1.00  0.00    -0.361 N 
HETATM   27  H20 UNL     1       3.312   1.245   0.347  1.00  0.00     0.162 HD
BRANCH  26  28
HETATM   28  C16 UNL     1       4.821   1.083  -1.118  1.00  0.00     0.070 A 
HETATM   29  C17 UNL     1       5.474   0.260  -2.012  1.00  0.00     0.032 A 
HETATM   30  C18 UNL     1       6.508   0.684  -2.835  1.00  0.00     0.004 A 
HETATM   31  C19 UNL     1       6.895   1.994  -2.750  1.00  0.00     0.027 A 
HETATM   32  C20 UNL     1       6.260   2.851  -1.861  1.00  0.00     0.074 A 
HETATM   33 CL1  UNL     1       6.676   4.534  -1.674  1.00  0.00    -0.081 Cl
HETATM   34  C21 UNL     1       5.235   2.403  -1.054  1.00  0.00     0.164 A 
HETATM   35  F1  UNL     1       4.585   3.202  -0.171  1.00  0.00    -0.202 F 
ENDBRANCH  26  28
ENDBRANCH   7  26
TORSDOF 7
