REMARK  4 active torsions:
REMARK  status: ('A' for Active; 'I' for Inactive)
REMARK    1  A    between atoms: C1_2  and  C2_3 
REMARK    2  A    between atoms: C5_6  and  N1_7 
REMARK    3  A    between atoms: N1_7  and  P1_8 
REMARK    4  A    between atoms: P1_8  and  C6_9 
ROOT
HETATM    1  C2  UNL     1      -3.301   1.088  -0.830  1.00  0.00     0.095 A 
HETATM    2  C3  UNL     1      -2.140   0.630  -0.244  1.00  0.00     0.052 A 
HETATM    3  C4  UNL     1      -2.310  -0.281   0.799  1.00  0.00     0.044 A 
HETATM    4  C5  UNL     1      -1.155  -0.743   1.390  1.00  0.00     0.163 A 
HETATM    5  N2  UNL     1      -1.238  -1.635   2.415  1.00  0.00    -0.222 NA
HETATM    6  C12 UNL     1      -2.481  -2.033   2.811  1.00  0.00     0.236 A 
HETATM    7  N3  UNL     1      -3.613  -1.586   2.239  1.00  0.00    -0.240 NA
HETATM    8  C13 UNL     1      -3.557  -0.700   1.219  1.00  0.00     0.089 A 
HETATM    9  C14 UNL     1      -4.664  -0.201   0.588  1.00  0.00     0.150 A 
HETATM   10  N4  UNL     1      -4.507   0.669  -0.408  1.00  0.00    -0.256 NA
ENDROOT
BRANCH   4  11
HETATM   11  N1  UNL     1       0.168  -0.394   1.054  1.00  0.00    -0.229 NA
BRANCH  11  12
HETATM   12  P1  UNL     1       0.892  -0.768  -0.348  1.00  0.00     0.101 P 
BRANCH  12  13
HETATM   13  C6  UNL     1       2.623  -0.222  -0.598  1.00  0.00    -0.001 A 
HETATM   14  C7  UNL     1       3.553  -1.066   0.016  1.00  0.00     0.017 A 
HETATM   15  C8  UNL     1       4.922  -0.830  -0.054  1.00  0.00     0.045 A 
HETATM   16  C9  UNL     1       5.344   0.283  -0.759  1.00  0.00     0.138 A 
HETATM   17  F1  UNL     1       6.662   0.564  -0.861  1.00  0.00    -0.204 F 
HETATM   18  C10 UNL     1       4.428   1.119  -1.366  1.00  0.00     0.073 A 
HETATM   19 CL1  UNL     1       4.923   2.549  -2.275  1.00  0.00    -0.081 Cl
HETATM   20  C11 UNL     1       3.069   0.877  -1.293  1.00  0.00     0.041 A 
ENDBRANCH  12  13
ENDBRANCH  11  12
ENDBRANCH   4  11
BRANCH   1  21
HETATM   21  C1  UNL     1      -3.207   2.035  -1.919  1.00  0.00     0.290 C 
HETATM   22  O1  UNL     1      -2.154   2.512  -2.416  1.00  0.00    -0.300 OA
ENDBRANCH   1  21
TORSDOF 4
