REMARK  1 active torsions:
REMARK  status: ('A' for Active; 'I' for Inactive)
REMARK    1  A    between atoms: C2_2  and  N1_4 
ROOT
HETATM    1  N1  UNL     1      -2.815   0.094  -0.809  1.00  0.00    -0.395 N 
HETATM    2  C4  UNL     1      -2.196  -0.696  -1.844  1.00  0.00     0.206 C 
HETATM    3  C5  UNL     1      -1.204  -1.581  -1.336  1.00  0.00    -0.095 C 
HETATM    4  C6  UNL     1      -0.374  -2.299  -0.914  1.00  0.00     0.172 A 
HETATM    5  C7  UNL     1       0.645  -3.150  -0.393  1.00  0.00     0.192 A 
HETATM    6  O1  UNL     1      -0.332  -3.688  -0.274  1.00  0.00    -0.278 OA
HETATM    7  N2  UNL     1       1.922  -2.717  -0.424  1.00  0.00    -0.334 N 
HETATM    8  C8  UNL     1       3.243  -2.270  -0.456  1.00  0.00     0.035 A 
HETATM    9  C9  UNL     1       3.727  -2.895  -1.548  1.00  0.00     0.032 A 
HETATM   10  C10 UNL     1       4.956  -2.239  -1.697  1.00  0.00     0.035 A 
HETATM   11  C11 UNL     1       5.324  -1.250  -0.817  1.00  0.00     0.072 A 
HETATM   12  N3  UNL     1       6.517  -0.560  -0.968  1.00  0.00    -0.241 NA
HETATM   13  C12 UNL     1       6.744   0.412  -0.069  1.00  0.00     0.236 A 
HETATM   14  N4  UNL     1       5.882   0.712   0.919  1.00  0.00    -0.224 NA
HETATM   15  C13 UNL     1       4.716   0.039   1.070  1.00  0.00     0.141 A 
HETATM   16  C14 UNL     1       4.433  -0.971   0.177  1.00  0.00     0.041 A 
HETATM   17  C15 UNL     1       3.240  -1.406   0.564  1.00  0.00     0.047 A 
HETATM   18  N5  UNL     1       4.131   0.726   2.205  1.00  0.00    -0.350 N 
HETATM   19  C16 UNL     1       3.052   1.679   2.263  1.00  0.00     0.086 C 
HETATM   20  C17 UNL     1       1.842   1.944   1.809  1.00  0.00    -0.001 C 
HETATM   21  C18 UNL     1       1.104   3.142   2.189  1.00  0.00     0.153 C 
HETATM   22  C19 UNL     1      -0.085   3.454   1.799  1.00  0.00     0.127 C 
HETATM   23  F1  UNL     1       0.027   4.610   2.552  1.00  0.00    -0.242 F 
HETATM   24  C20 UNL     1      -1.414   3.433   1.241  1.00  0.00     0.043 C 
HETATM   25 CL1  UNL     1      -2.531   4.728   1.139  1.00  0.00    -0.086 Cl
HETATM   26  C21 UNL     1      -2.271   2.644   0.652  1.00  0.00    -0.002 C 
HETATM   27  C22 UNL     1      -3.517   2.235   0.010  1.00  0.00     0.053 C 
HETATM   28  C23 UNL     1      -3.339   1.351  -1.212  1.00  0.00     0.079 C 
HETATM   29  C24 UNL     1      -4.624   1.276  -1.970  1.00  0.00     0.032 C 
HETATM   30  H10 UNL     1       1.983  -3.679   0.058  1.00  0.00     0.168 HD
HETATM   31  H15 UNL     1       4.584   0.525   3.110  1.00  0.00     0.166 HD
ENDROOT
BRANCH   1  32
HETATM   32  C2  UNL     1      -3.595  -0.678   0.097  1.00  0.00     0.072 C 
HETATM   33  C1  UNL     1      -4.512  -1.683  -0.581  1.00  0.00     0.031 C 
HETATM   34  C3  UNL     1      -2.698  -1.329   1.119  1.00  0.00     0.031 C 
ENDBRANCH   1  32
TORSDOF 1
