REMARK  2 active torsions:
REMARK  status: ('A' for Active; 'I' for Inactive)
REMARK    1  A    between atoms: N3_10  and  C7_11 
REMARK    2  A    between atoms: C15_20  and  C16_21 
REMARK       I    between atoms: C16_21  and  N4_22 
ROOT
HETATM    1  C1  UNL     1      -4.469  -2.506   1.397  1.00  0.00     0.000 C 
HETATM    2  O1  UNL     1      -3.623  -1.595   0.703  1.00  0.00     0.000 OA
HETATM    3  C2  UNL     1      -2.423  -2.047   0.139  1.00  0.00     0.019 A 
HETATM    4  C3  UNL     1      -1.627  -3.049  -0.186  1.00  0.00     0.039 C 
HETATM    5  C4  UNL     1      -0.382  -3.531  -0.769  1.00  0.00     0.119 C 
HETATM    6  N1  UNL     1       0.334  -2.562  -1.185  1.00  0.00    -0.255 NA
HETATM    7  C5  UNL     1       1.601  -2.626  -1.804  1.00  0.00     0.228 C 
HETATM    8  N2  UNL     1       2.544  -2.487  -0.939  1.00  0.00    -0.263 NA
HETATM    9  C6  UNL     1       2.377  -2.293   0.461  1.00  0.00     0.275 C 
HETATM   10  N3  UNL     1       2.540  -0.932   0.928  1.00  0.00    -0.359 N 
HETATM   11  C11 UNL     1       1.589  -0.070   1.665  1.00  0.00     0.152 C 
HETATM   12  C12 UNL     1       0.450   0.307   0.874  1.00  0.00    -0.003 C 
HETATM   13  C13 UNL     1      -0.427   1.032   0.243  1.00  0.00    -0.067 C 
HETATM   14  C14 UNL     1      -0.208   2.459   0.322  1.00  0.00     0.049 C 
HETATM   15  C15 UNL     1      -1.510   3.129  -0.084  1.00  0.00     0.083 C 
HETATM   16  C17 UNL     1      -2.183   2.092  -0.906  1.00  0.00     0.034 C 
HETATM   17  C18 UNL     1      -1.604   0.742  -0.579  1.00  0.00     0.082 C 
HETATM   18  S1  UNL     1      -2.804  -0.330   0.205  1.00  0.00    -0.119 SA
ENDROOT
BRANCH  10  19
HETATM   19  C7  UNL     1       3.853  -0.480   0.563  1.00  0.00     0.035 A 
HETATM   20  C8  UNL     1       5.185  -0.575   0.606  1.00  0.00     0.053 A 
HETATM   21  C9  UNL     1       5.357   0.592  -0.266  1.00  0.00     0.038 A 
HETATM   22 CL1  UNL     1       6.898   1.260  -0.796  1.00  0.00    -0.084 Cl
HETATM   23  C10 UNL     1       4.017   0.679  -0.302  1.00  0.00     0.053 A 
ENDBRANCH  10  19
BRANCH  15  24
HETATM   24  C16 UNL     1      -1.177   4.358  -0.813  1.00  0.00     0.219 C 
HETATM   25  N4  UNL     1      -2.469   4.892  -1.146  1.00  0.00    -0.370 N 
HETATM   26  H17 UNL     1      -2.912   4.671  -2.074  1.00  0.00     0.159 HD
HETATM   27  H18 UNL     1      -3.424   5.293  -1.380  1.00  0.00     0.159 HD
HETATM   28  O2  UNL     1      -0.248   5.096  -1.244  1.00  0.00    -0.273 OA
ENDBRANCH  15  24
TORSDOF 2
