REMARK  6 active torsions:
REMARK  status: ('A' for Active; 'I' for Inactive)
REMARK    1  A    between atoms: C4_5  and  N1_6 
REMARK    2  A    between atoms: N1_6  and  C5_7 
REMARK    3  A    between atoms: C8_11  and  N3_12 
REMARK    4  A    between atoms: N3_12  and  C9_13 
REMARK    5  A    between atoms: C9_13  and  C10_14 
REMARK    6  A    between atoms: C11_15  and  C12_16 
ROOT
HETATM    1  C5  UNL     1       3.586   0.292  -0.532  1.00  0.00     0.723 C 
HETATM    2  N2  UNL     1       3.593  -0.024   0.704  1.00  0.00    -0.099 NA
HETATM    3  C6  UNL     1       2.535   0.194   1.612  1.00  0.00     0.229 C 
HETATM    4  C7  UNL     1       1.216  -0.350   1.221  1.00  0.00     0.069 C 
HETATM    5  C8  UNL     1       0.183   0.460   1.103  1.00  0.00     0.112 C 
HETATM    6  N4  UNL     1       1.044  -1.730   0.969  1.00  0.00    -0.261 NA
HETATM    7  C17 UNL     1       1.099  -2.184  -0.238  1.00  0.00     0.136 C 
HETATM    8  C18 UNL     1       1.284  -1.887  -1.678  1.00  0.00     0.137 C 
HETATM    9  N5  UNL     1       1.400  -0.721  -1.201  1.00  0.00    -0.252 NA
HETATM   10  C19 UNL     1       1.636   0.449  -1.932  1.00  0.00     0.252 C 
HETATM   11  N6  UNL     1       2.764   0.894  -1.529  1.00  0.00    -0.056 NA
ENDROOT
BRANCH   5  12
HETATM   12  N3  UNL     1      -1.155   0.259   0.762  1.00  0.00    -0.387 N 
HETATM   13  H7  UNL     1      -1.399  -0.659   1.242  1.00  0.00     0.159 HD
BRANCH  12  14
HETATM   14  C9  UNL     1      -2.020   1.081  -0.045  1.00  0.00     0.213 C 
BRANCH  14  15
HETATM   15  C10 UNL     1      -3.387   0.508  -0.104  1.00  0.00    -0.087 C 
HETATM   16  C11 UNL     1      -4.507   0.042  -0.132  1.00  0.00    -0.098 C 
BRANCH  16  17
HETATM   17  C12 UNL     1      -5.882  -0.513  -0.145  1.00  0.00     0.089 C 
HETATM   18  C13 UNL     1      -6.678   0.243  -1.181  1.00  0.00     0.021 C 
HETATM   19  C14 UNL     1      -7.627   1.163  -0.429  1.00  0.00     0.028 C 
HETATM   20  C15 UNL     1      -8.506   0.287   0.434  1.00  0.00     0.167 C 
HETATM   21  O1  UNL     1      -7.777  -0.436   1.368  1.00  0.00    -0.390 OA
HETATM   22  C16 UNL     1      -6.419  -0.280   1.255  1.00  0.00     0.184 C 
ENDBRANCH  16  17
ENDBRANCH  14  15
ENDBRANCH  12  14
ENDBRANCH   5  12
BRANCH   1  23
HETATM   23  N1  UNL     1       4.851  -0.100  -1.107  1.00  0.00    -0.188 N 
HETATM   24  H3  UNL     1       4.886  -0.529  -2.090  1.00  0.00     0.184 HD
BRANCH  23  25
HETATM   25  C4  UNL     1       6.179   0.003  -0.544  1.00  0.00     0.049 A 
HETATM   26  C3  UNL     1       7.315  -0.530  -1.166  1.00  0.00     0.033 A 
HETATM   27  C2  UNL     1       8.520  -0.355  -0.529  1.00  0.00     0.044 A 
HETATM   28  C1  UNL     1       8.721   0.287   0.650  1.00  0.00     0.116 A 
HETATM   29  F1  UNL     1       9.958   0.404   1.197  1.00  0.00    -0.206 F 
HETATM   30  C21 UNL     1       7.586   0.811   1.256  1.00  0.00     0.044 A 
HETATM   31  C20 UNL     1       6.341   0.663   0.656  1.00  0.00     0.033 A 
ENDBRANCH  23  25
ENDBRANCH   1  23
TORSDOF 6
