REMARK  5 active torsions:
REMARK  status: ('A' for Active; 'I' for Inactive)
REMARK    1  A    between atoms: C2_2  and  N1_3 
REMARK    2  A    between atoms: C9_12  and  N4_13 
REMARK    3  A    between atoms: N4_13  and  C10_14 
REMARK    4  A    between atoms: C15_20  and  P1_21 
REMARK    5  A    between atoms: C18_24  and  C19_25 
REMARK       I    between atoms: C19_25  and  N5_26 
ROOT
HETATM    1  N1  UNL     1      -3.591   0.011  -0.827  1.00  0.00     0.088 N 
HETATM    2  C3  UNL     1      -3.532  -1.114   0.087  1.00  0.00     0.276 C 
HETATM    3  C4  UNL     1      -2.404  -2.072  -0.013  1.00  0.00     0.057 C 
HETATM    4  C5  UNL     1      -2.216  -2.845   1.252  1.00  0.00    -0.023 C 
HETATM    5  C6  UNL     1      -1.018  -2.658   1.784  1.00  0.00     0.028 C 
HETATM    6  C7  UNL     1       0.156  -1.859   1.390  1.00  0.00     0.071 A 
HETATM    7  N2  UNL     1       0.935  -2.903   1.067  1.00  0.00    -0.241 NA
HETATM    8  C8  UNL     1       2.198  -2.866   0.604  1.00  0.00     0.236 A 
HETATM    9  N3  UNL     1       2.765  -1.656   0.439  1.00  0.00    -0.224 NA
HETATM   10  C9  UNL     1       1.949  -0.599   0.777  1.00  0.00     0.142 A 
HETATM   11  C16 UNL     1       0.615  -0.584   1.267  1.00  0.00     0.039 A 
HETATM   12  C17 UNL     1       0.396   0.858   1.379  1.00  0.00     0.030 C 
HETATM   13  C18 UNL     1      -0.559   1.591   0.763  1.00  0.00     0.012 C 
HETATM   14  C20 UNL     1      -1.545   0.796   0.000  1.00  0.00     0.074 C 
HETATM   15  C21 UNL     1      -2.952   1.200  -0.087  1.00  0.00     0.277 C 
ENDROOT
BRANCH  10  16
HETATM   16  N4  UNL     1       2.709   0.609   0.544  1.00  0.00    -0.339 N 
HETATM   17  H13 UNL     1       2.525   1.625   0.664  1.00  0.00     0.167 HD
BRANCH  16  18
HETATM   18  C10 UNL     1       4.025   0.645   0.032  1.00  0.00     0.046 A 
HETATM   19  C11 UNL     1       5.127   1.163   0.720  1.00  0.00     0.030 A 
HETATM   20  C12 UNL     1       6.396   1.188   0.191  1.00  0.00     0.004 A 
HETATM   21  C13 UNL     1       6.618   0.689  -1.067  1.00  0.00     0.025 A 
HETATM   22  C14 UNL     1       5.568   0.164  -1.799  1.00  0.00     0.046 A 
HETATM   23 CL1  UNL     1       5.946  -0.441  -3.380  1.00  0.00    -0.083 Cl
HETATM   24  C15 UNL     1       4.326   0.158  -1.236  1.00  0.00     0.012 A 
BRANCH  24  25
HETATM   25  P1  UNL     1       3.031  -0.551  -2.316  1.00  0.00    -0.102 P 
HETATM   26  H17 UNL     1       2.371   0.509  -3.063  1.00  0.00     0.059 HD
HETATM   27  H18 UNL     1       3.558  -1.578  -3.202  1.00  0.00     0.059 HD
ENDBRANCH  24  25
ENDBRANCH  16  18
ENDBRANCH  10  16
BRANCH  13  28
HETATM   28  C19 UNL     1      -0.719   3.002   0.898  1.00  0.00     0.245 C 
HETATM   29  N5  UNL     1       0.115   3.801   1.702  1.00  0.00    -0.366 N 
HETATM   30  H20 UNL     1       0.271   4.818   1.625  1.00  0.00     0.159 HD
HETATM   31  H21 UNL     1       0.741   3.573   2.526  1.00  0.00     0.159 HD
HETATM   32  O1  UNL     1      -1.633   3.608   0.292  1.00  0.00    -0.268 OA
ENDBRANCH  13  28
BRANCH   1  33
HETATM   33  C2  UNL     1      -5.000   0.537  -0.818  1.00  0.00     0.268 C 
HETATM   34  C1  UNL     1      -5.929  -0.457  -1.441  1.00  0.00     0.037 C 
ENDBRANCH   1  33
TORSDOF 5
