REMARK  3 active torsions:
REMARK  status: ('A' for Active; 'I' for Inactive)
REMARK    1  A    between atoms: B1_1  and  C1_2 
REMARK    2  A    between atoms: C3_4  and  N1_5 
REMARK    3  A    between atoms: N1_5  and  C4_6 
ROOT
HETATM    1  C4  UNL     1       0.511  -0.374   0.238  1.00  0.00     0.192 C 
HETATM    2  C5  UNL     1      -0.373  -1.342   0.455  1.00  0.00     0.044 C 
HETATM    3  C6  UNL     1      -1.598  -0.949   0.783  1.00  0.00    -0.018 C 
HETATM    4  C7  UNL     1      -2.770  -1.729   1.260  1.00  0.00     0.207 C 
HETATM    5  O1  UNL     1      -2.944  -1.202   2.562  1.00  0.00    -0.368 OA
HETATM    6  C8  UNL     1      -3.142   0.144   2.588  1.00  0.00     0.286 C 
HETATM    7  N2  UNL     1      -2.267   0.991   1.886  1.00  0.00    -0.393 N 
HETATM    8  C9  UNL     1      -1.837   0.530   0.656  1.00  0.00     0.116 C 
HETATM    9  C10 UNL     1      -3.122   0.776  -0.215  1.00  0.00     0.088 C 
HETATM   10  C11 UNL     1      -3.141   2.290  -0.400  1.00  0.00     0.153 C 
HETATM   11  N3  UNL     1      -2.206   2.937  -0.038  1.00  0.00    -0.430 NA
HETATM   12  C12 UNL     1      -1.325   3.881   0.264  1.00  0.00     0.337 A 
HETATM   13  N4  UNL     1      -0.919   4.923  -0.641  1.00  0.00    -0.255 NA
HETATM   14  C13 UNL     1       0.304   4.552  -0.488  1.00  0.00     0.146 A 
HETATM   15  C14 UNL     1       0.112   3.447   0.438  1.00  0.00     0.111 A 
HETATM   16  N5  UNL     1       1.084   2.695   0.901  1.00  0.00    -0.228 NA
HETATM   17  C15 UNL     1       0.818   1.594   1.754  1.00  0.00     0.301 C 
HETATM   18  N6  UNL     1       0.680   0.684   0.984  1.00  0.00    -0.380 NA
HETATM   19  H9  UNL     1      -2.520   1.957   2.056  1.00  0.00     0.156 HD
ENDROOT
BRANCH   1  20
HETATM   20  N1  UNL     1       1.109  -0.860  -0.940  1.00  0.00    -0.331 N 
HETATM   21  H4  UNL     1       0.639  -0.579  -1.817  1.00  0.00     0.168 HD
BRANCH  20  22
HETATM   22  C3  UNL     1       2.265  -1.675  -0.982  1.00  0.00     0.034 A 
HETATM   23  C2  UNL     1       2.771  -2.099  -2.177  1.00  0.00     0.026 A 
HETATM   24  C1  UNL     1       3.881  -2.891  -2.380  1.00  0.00    -0.069 A 
HETATM   25  C18 UNL     1       4.488  -3.251  -1.176  1.00  0.00     0.111 A 
HETATM   26  C17 UNL     1       4.075  -2.889   0.088  1.00  0.00     0.044 A 
HETATM   27  F1  UNL     1       5.612  -4.044  -1.229  1.00  0.00    -0.207 F 
HETATM   28  C16 UNL     1       2.954  -2.098   0.125  1.00  0.00     0.032 A 
BRANCH  24  29
HETATM   29  B1  UNL     1       4.392  -3.329  -3.769  1.00  0.00     0.178 B 
HETATM   30  H1  UNL     1       5.279  -2.709  -4.253  1.00  0.00    -0.026 HD
HETATM   31  H2  UNL     1       3.685  -3.949  -4.487  1.00  0.00    -0.026 HD
ENDBRANCH  24  29
ENDBRANCH  20  22
ENDBRANCH   1  20
TORSDOF 3
