REMARK  7 active torsions:
REMARK  status: ('A' for Active; 'I' for Inactive)
REMARK    1  A    between atoms: C1_2  and  C2_3 
REMARK       I    between atoms: C1_2  and  N2_12 
REMARK    2  A    between atoms: C3_4  and  C4_5 
REMARK    3  A    between atoms: C4_5  and  N1_6 
REMARK    4  A    between atoms: N2_12  and  C9_13 
REMARK    5  A    between atoms: C12_16  and  N3_17 
REMARK    6  A    between atoms: N3_17  and  C13_18 
REMARK    7  A    between atoms: C14_19  and  C15_20 
ROOT
HETATM    1  C9  UNL     1       1.505   0.178   1.637  1.00  0.00     0.131 A 
HETATM    2  C10 UNL     1       2.438  -0.706   1.147  1.00  0.00     0.068 A 
HETATM    3  C11 UNL     1       3.723  -0.577   1.583  1.00  0.00     0.044 A 
HETATM    4  C12 UNL     1       4.600  -1.502   1.059  1.00  0.00     0.141 A 
HETATM    5  N4  UNL     1       5.887  -1.428   1.466  1.00  0.00    -0.224 NA
HETATM    6  C16 UNL     1       6.267  -0.485   2.342  1.00  0.00     0.236 A 
HETATM    7  N5  UNL     1       5.409   0.408   2.842  1.00  0.00    -0.240 NA
HETATM    8  C17 UNL     1       4.119   0.388   2.480  1.00  0.00     0.089 A 
HETATM    9  C18 UNL     1       3.166   1.262   2.955  1.00  0.00     0.151 A 
HETATM   10  N6  UNL     1       1.898   1.138   2.529  1.00  0.00    -0.241 NA
ENDROOT
BRANCH   1  11
HETATM   11  N2  UNL     1       0.087   0.393   1.468  1.00  0.00    -0.301 N 
HETATM   12  C1  UNL     1      -0.491   1.234   0.464  1.00  0.00     0.302 C 
HETATM   13  O1  UNL     1       0.219   1.836  -0.352  1.00  0.00    -0.258 OA
HETATM   14  H11 UNL     1      -0.483  -0.150   2.183  1.00  0.00     0.171 HD
BRANCH  12  15
HETATM   15  C2  UNL     1      -1.939   1.365   0.430  1.00  0.00    -0.004 C 
HETATM   16  C3  UNL     1      -3.159   1.477   0.380  1.00  0.00    -0.066 C 
BRANCH  16  17
HETATM   17  C4  UNL     1      -4.612   1.634   0.330  1.00  0.00     0.366 C 
BRANCH  17  18
HETATM   18  N1  UNL     1      -5.014   1.487  -1.043  1.00  0.00     0.103 N 
HETATM   19  C5  UNL     1      -6.450   1.668  -1.214  1.00  0.00     0.299 C 
HETATM   20  C6  UNL     1      -7.216   0.594  -0.456  1.00  0.00     0.198 C 
HETATM   21  O2  UNL     1      -6.819  -0.671  -0.835  1.00  0.00    -0.388 OA
HETATM   22  C7  UNL     1      -5.455  -0.863  -0.837  1.00  0.00     0.198 C 
HETATM   23  C8  UNL     1      -4.681   0.175  -1.572  1.00  0.00     0.299 C 
ENDBRANCH  17  18
ENDBRANCH  16  17
ENDBRANCH  12  15
ENDBRANCH   1  11
BRANCH   4  24
HETATM   24  N3  UNL     1       4.207  -2.487   0.121  1.00  0.00    -0.350 N 
HETATM   25  H13 UNL     1       3.657  -3.344   0.035  1.00  0.00     0.166 HD
BRANCH  24  26
HETATM   26  C13 UNL     1       4.814  -2.089  -1.097  1.00  0.00     0.088 C 
HETATM   27  C14 UNL     1       5.196  -1.314  -2.087  1.00  0.00     0.021 C 
BRANCH  27  28
HETATM   28  C15 UNL     1       5.837  -0.928  -3.358  1.00  0.00     0.251 C 
HETATM   29  F1  UNL     1       6.785   0.042  -3.091  1.00  0.00    -0.251 F 
ENDBRANCH  27  28
ENDBRANCH  24  26
ENDBRANCH   4  24
TORSDOF 7
