REMARK  6 active torsions:
REMARK  status: ('A' for Active; 'I' for Inactive)
REMARK    1  A    between atoms: C7_8  and  C8_9 
REMARK    2  A    between atoms: C8_9  and  C9_10 
REMARK    3  A    between atoms: C9_10  and  N1_12 
REMARK    4  A    between atoms: N1_12  and  C11_13 
REMARK    5  A    between atoms: C14_19  and  N5_20 
REMARK    6  A    between atoms: N5_20  and  C15_21 
ROOT
HETATM    1  C11 UNL     1       1.315   0.029  -0.093  1.00  0.00     0.385 A 
HETATM    2  N2  UNL     1       1.434  -0.737   1.127  1.00  0.00    -0.235 NA
HETATM    3  C12 UNL     1       1.445  -0.027   2.257  1.00  0.00     0.136 C 
HETATM    4  C13 UNL     1       1.410   1.422   2.685  1.00  0.00     0.157 C 
HETATM    5  N3  UNL     1       1.431   2.255   1.603  1.00  0.00    -0.182 NA
HETATM    6  N4  UNL     1       1.557   1.391   0.442  1.00  0.00    -0.215 N 
HETATM    7  C14 UNL     1       2.030   0.954  -0.843  1.00  0.00     0.293 A 
ENDROOT
BRANCH   1   8
HETATM    8  N1  UNL     1      -0.117  -0.166  -0.548  1.00  0.00     0.145 N 
HETATM    9  H18 UNL     1      -0.043  -0.195  -1.620  1.00  0.00     0.322 HD
BRANCH   8  10
HETATM   10  C9  UNL     1      -0.960   0.920  -0.226  1.00  0.00     0.223 C 
HETATM   11  C10 UNL     1      -0.785   2.176  -1.055  1.00  0.00     0.043 C 
BRANCH  10  12
HETATM   12  C8  UNL     1      -2.398   0.459  -0.543  1.00  0.00     0.044 C 
BRANCH  12  13
HETATM   13  C7  UNL     1      -2.797  -0.775   0.188  1.00  0.00     0.020 C 
HETATM   14  C3  UNL     1      -4.205  -1.186  -0.126  1.00  0.00    -0.056 C 
HETATM   15  C2  UNL     1      -4.915  -0.538  -1.032  1.00  0.00    -0.026 C 
HETATM   16  C4  UNL     1      -4.657  -2.343   0.670  1.00  0.00     0.202 C 
HETATM   17  C1  UNL     1      -6.274  -0.654  -1.578  1.00  0.00     0.036 C 
HETATM   18  O1  UNL     1      -3.521  -3.035   1.098  1.00  0.00    -0.387 OA
HETATM   19  C5  UNL     1      -2.695  -3.233  -0.012  1.00  0.00     0.168 C 
HETATM   20  C6  UNL     1      -1.875  -1.943  -0.167  1.00  0.00     0.035 C 
ENDBRANCH  12  13
ENDBRANCH  10  12
ENDBRANCH   8  10
ENDBRANCH   1   8
BRANCH   7  21
HETATM   21  N5  UNL     1       3.453   0.877  -1.148  1.00  0.00    -0.362 N 
HETATM   22  H22 UNL     1       3.585   0.759  -2.207  1.00  0.00     0.162 HD
BRANCH  21  23
HETATM   23  C15 UNL     1       4.744   0.886  -0.564  1.00  0.00     0.031 A 
HETATM   24  C16 UNL     1       5.956   0.778  -1.258  1.00  0.00     0.032 A 
HETATM   25  C17 UNL     1       7.106   0.809  -0.515  1.00  0.00     0.046 A 
HETATM   26  C18 UNL     1       7.145   0.939   0.852  1.00  0.00     0.138 A 
HETATM   27  F1  UNL     1       8.359   0.954   1.449  1.00  0.00    -0.204 F 
HETATM   28  C19 UNL     1       5.959   1.046   1.546  1.00  0.00     0.074 A 
HETATM   29 CL1  UNL     1       6.059   1.209   3.275  1.00  0.00    -0.081 Cl
HETATM   30  C20 UNL     1       4.792   1.016   0.809  1.00  0.00     0.056 A 
ENDBRANCH  21  23
ENDBRANCH   7  21
TORSDOF 6
