REMARK  4 active torsions:
REMARK  status: ('A' for Active; 'I' for Inactive)
REMARK    1  A    between atoms: C5_6  and  C6_7 
REMARK    2  A    between atoms: C7_8  and  C8_9 
REMARK    3  A    between atoms: C9_10  and  C10_12 
REMARK    4  A    between atoms: C12_14  and  N1_15 
ROOT
HETATM    1  B1  UNL     1      -5.509   3.158   4.672  1.00  0.00     0.196 B 
HETATM    2  C1  UNL     1      -4.187   2.173   3.163  1.00  0.00    -0.229 C 
HETATM    3  C2  UNL     1      -3.274   1.529   2.148  1.00  0.00    -0.028 C 
HETATM    4  C3  UNL     1      -2.263   2.164   2.778  1.00  0.00     0.017 C 
HETATM    5  C4  UNL     1      -1.051   1.756   2.022  1.00  0.00     0.033 C 
HETATM    6  C5  UNL     1      -0.438   1.105   1.121  1.00  0.00     0.058 C 
HETATM    7  N2  UNL     1      -1.728   0.466   0.975  1.00  0.00    -0.242 NA
HETATM    8  C13 UNL     1      -1.892  -0.690   1.549  1.00  0.00     0.232 C 
HETATM    9  N3  UNL     1      -3.144  -1.386   1.449  1.00  0.00    -0.258 NA
HETATM   10  C14 UNL     1      -4.176  -0.609   1.473  1.00  0.00     0.096 C 
HETATM   11  C15 UNL     1      -4.457   0.894   1.581  1.00  0.00     0.092 C 
ENDROOT
BRANCH   6  12
HETATM   12  C6  UNL     1       0.894   0.972   0.659  1.00  0.00     0.030 C 
HETATM   13  C7  UNL     1       0.739   0.120  -0.336  1.00  0.00     0.016 C 
BRANCH  13  14
HETATM   14  C8  UNL     1       1.976  -0.187  -1.001  1.00  0.00     0.212 A 
HETATM   15  C9  UNL     1       2.500  -0.841  -1.926  1.00  0.00     0.072 A 
HETATM   16  F1  UNL     1       1.130  -1.017  -1.833  1.00  0.00    -0.360 F 
BRANCH  15  17
HETATM   17  C10 UNL     1       3.759  -1.218  -2.719  1.00  0.00     0.019 C 
HETATM   18  C11 UNL     1       4.650  -0.339  -1.865  1.00  0.00     0.020 C 
HETATM   19  C12 UNL     1       2.865  -1.923  -3.345  1.00  0.00     0.149 C 
BRANCH  19  20
HETATM   20  N1  UNL     1       3.133  -2.793  -4.488  1.00  0.00    -0.423 N 
HETATM   21  H10 UNL     1       3.574  -3.394  -5.262  1.00  0.00     0.150 HD
HETATM   22  H11 UNL     1       2.100  -2.941  -4.748  1.00  0.00     0.150 HD
ENDBRANCH  19  20
ENDBRANCH  15  17
ENDBRANCH  13  14
ENDBRANCH   6  12
TORSDOF 4
