REMARK  0 active torsions:
REMARK  status: ('A' for Active; 'I' for Inactive)
ROOT
HETATM    1  O1  UNL     1      -2.515  -2.958   0.117  1.00  0.00    -0.274 OA
HETATM    2  C1  UNL     1      -2.278  -1.783  -0.240  1.00  0.00     0.220 C 
HETATM    3  C2  UNL     1      -3.013  -0.492   0.076  1.00  0.00     0.114 C 
HETATM    4  C3  UNL     1      -1.957   0.540   0.369  1.00  0.00     0.051 C 
HETATM    5  C4  UNL     1      -2.348   1.959   0.326  1.00  0.00     0.042 C 
HETATM    6  C5  UNL     1      -1.134   2.787  -0.098  1.00  0.00     0.024 C 
HETATM    7  C6  UNL     1       0.155   2.459   0.197  1.00  0.00     0.124 C 
HETATM    8  N1  UNL     1       0.710   2.643   1.549  1.00  0.00    -0.225 NA
HETATM    9  C7  UNL     1       0.368   1.778   2.527  1.00  0.00     0.235 C 
HETATM   10  N2  UNL     1      -0.616   0.681   2.678  1.00  0.00    -0.245 NA
HETATM   11  C8  UNL     1      -1.086   0.135   1.543  1.00  0.00     0.058 C 
HETATM   12  C9  UNL     1      -0.475  -1.234   1.590  1.00  0.00     0.141 C 
HETATM   13  N3  UNL     1       0.420  -1.761   0.770  1.00  0.00    -0.267 NA
HETATM   14  C10 UNL     1       0.223  -1.895  -0.687  1.00  0.00     0.272 C 
HETATM   15  N4  UNL     1      -1.125  -2.260  -0.983  1.00  0.00    -0.332 N 
HETATM   16  P1  UNL     1       1.575  -2.981  -1.268  1.00  0.00     0.143 P 
HETATM   17  F1  UNL     1       1.853  -4.302  -0.206  1.00  0.00    -0.217 F 
HETATM   18  C11 UNL     1       3.077  -1.917  -1.352  1.00  0.00     0.040 C 
HETATM   19  C12 UNL     1       3.664  -0.693  -1.325  1.00  0.00    -0.012 C 
HETATM   20  C13 UNL     1       2.527   0.237  -1.135  1.00  0.00     0.059 C 
HETATM   21  C14 UNL     1       2.331   1.567  -1.016  1.00  0.00     0.072 C 
HETATM   22  N5  UNL     1       0.977   1.892  -0.849  1.00  0.00    -0.354 N 
HETATM   23  H10 UNL     1      -1.219  -2.896  -1.778  1.00  0.00     0.165 HD
HETATM   24  H15 UNL     1       0.443   1.641  -1.738  1.00  0.00     0.166 HD
ENDROOT
TORSDOF 0
