REMARK  4 active torsions:
REMARK  status: ('A' for Active; 'I' for Inactive)
REMARK    1  A    between atoms: C1_2  and  C2_3 
REMARK    2  A    between atoms: C1_2  and  C9_12 
REMARK    3  A    between atoms: C3_4  and  C4_5 
REMARK    4  A    between atoms: C4_5  and  N1_6 
ROOT
HETATM    1  C9  UNL     1       0.970  -0.102  -0.775  1.00  0.00     0.023 C 
HETATM    2  C10 UNL     1       1.121  -0.728   0.354  1.00  0.00     0.017 C 
HETATM    3  C11 UNL     1       2.066  -1.420   1.180  1.00  0.00     0.013 C 
HETATM    4  C12 UNL     1       3.181  -1.522   0.395  1.00  0.00     0.001 C 
HETATM    5  C13 UNL     1       4.035  -1.403  -0.754  1.00  0.00     0.181 C 
HETATM    6  N2  UNL     1       4.970  -0.490  -1.051  1.00  0.00    -0.329 N 
HETATM    7  N3  UNL     1       5.061   0.712  -0.401  1.00  0.00    -0.292 N 
HETATM    8  C14 UNL     1       4.594   1.421  -1.518  1.00  0.00     0.176 C 
HETATM    9  C15 UNL     1       3.133   1.113  -1.757  1.00  0.00    -0.004 C 
HETATM   10  C16 UNL     1       1.821   0.699  -1.735  1.00  0.00     0.014 C 
HETATM   11  C17 UNL     1       5.548   0.606   0.906  1.00  0.00     0.065 A 
HETATM   12  C18 UNL     1       6.126   0.670   2.061  1.00  0.00     0.049 A 
HETATM   13  C19 UNL     1       5.072  -0.386   1.929  1.00  0.00     0.034 A 
HETATM   14  C20 UNL     1       4.048  -1.352   1.681  1.00  0.00     0.137 C 
HETATM   15  F1  UNL     1       3.971  -2.016   2.879  1.00  0.00    -0.204 F 
HETATM   16  H15 UNL     1       5.844  -0.862  -1.424  1.00  0.00     0.180 HD
ENDROOT
BRANCH   1  17
HETATM   17  C1  UNL     1      -0.412   0.378  -1.048  1.00  0.00     0.235 C 
HETATM   18  O1  UNL     1      -0.936   0.991  -1.998  1.00  0.00    -0.278 OA
BRANCH  17  19
HETATM   19  C2  UNL     1      -1.482   0.154  -0.083  1.00  0.00    -0.022 C 
HETATM   20  C3  UNL     1      -2.370  -0.041   0.745  1.00  0.00    -0.068 C 
BRANCH  20  21
HETATM   21  C4  UNL     1      -3.427  -0.250   1.733  1.00  0.00     0.366 C 
BRANCH  21  22
HETATM   22  N1  UNL     1      -4.710   0.016   1.102  1.00  0.00     0.103 N 
HETATM   23  C5  UNL     1      -4.862   1.408   0.784  1.00  0.00     0.299 C 
HETATM   24  C6  UNL     1      -6.096   1.608  -0.051  1.00  0.00     0.198 C 
HETATM   25  O2  UNL     1      -6.920   0.491   0.132  1.00  0.00    -0.388 OA
HETATM   26  C7  UNL     1      -6.319  -0.572  -0.549  1.00  0.00     0.198 C 
HETATM   27  C8  UNL     1      -4.904  -0.827  -0.059  1.00  0.00     0.299 C 
ENDBRANCH  21  22
ENDBRANCH  20  21
ENDBRANCH  17  19
ENDBRANCH   1  17
TORSDOF 4
