REMARK  10 active torsions:
REMARK  status: ('A' for Active; 'I' for Inactive)
REMARK    1  A    between atoms: C2_2  and  N1_3 
REMARK    2  A    between atoms: N1_3  and  C4_5 
REMARK    3  A    between atoms: C4_5  and  N2_6 
REMARK    4  A    between atoms: N2_6  and  C5_7 
REMARK    5  A    between atoms: C5_7  and  O1_8 
REMARK    6  A    between atoms: C5_7  and  N3_9 
REMARK    7  A    between atoms: N3_9  and  C7_11 
REMARK    8  A    between atoms: C7_11  and  C8_12 
REMARK    9  A    between atoms: C14_20  and  N6_21 
REMARK   10  A    between atoms: N6_21  and  C15_22 
ROOT
HETATM    1  C8  UNL     1      -1.291  -2.170  -0.572  1.00  0.00     0.071 A 
HETATM    2  C9  UNL     1      -1.150  -2.847  -1.857  1.00  0.00    -0.071 A 
HETATM    3  C10 UNL     1      -0.043  -3.422  -2.662  1.00  0.00     0.044 C 
HETATM    4  C11 UNL     1      -2.368  -3.012  -2.440  1.00  0.00     0.035 A 
HETATM    5  C12 UNL     1      -3.434  -2.469  -1.609  1.00  0.00     0.069 A 
HETATM    6  N4  UNL     1      -4.787  -2.391  -1.731  1.00  0.00    -0.241 NA
HETATM    7  C13 UNL     1      -5.486  -1.814  -0.739  1.00  0.00     0.235 A 
HETATM    8  N5  UNL     1      -4.878  -1.314   0.364  1.00  0.00    -0.224 NA
HETATM    9  C14 UNL     1      -3.525  -1.392   0.487  1.00  0.00     0.138 A 
HETATM   10  C21 UNL     1      -2.773  -1.976  -0.508  1.00  0.00     0.026 A 
ENDROOT
BRANCH   1  11
HETATM   11  C7  UNL     1      -0.511  -1.002  -0.211  1.00  0.00     0.134 C 
BRANCH  11  12
HETATM   12  N3  UNL     1       0.875  -0.973  -0.133  1.00  0.00    -0.367 N 
HETATM   13  C6  UNL     1       1.465  -1.771   0.927  1.00  0.00     0.147 C 
BRANCH  12  14
HETATM   14  C5  UNL     1       1.730  -1.002  -1.241  1.00  0.00     0.462 C 
BRANCH  14  15
HETATM   15  N2  UNL     1       3.013  -0.395  -0.759  1.00  0.00     0.148 N 
HETATM   16  H11 UNL     1       3.691  -0.367  -1.571  1.00  0.00     0.323 HD
BRANCH  15  17
HETATM   17  C4  UNL     1       2.795   0.982  -0.380  1.00  0.00     0.395 C 
BRANCH  17  18
HETATM   18  N1  UNL     1       4.003   1.542   0.122  1.00  0.00    -0.393 N 
HETATM   19  C3  UNL     1       5.216   1.140  -0.497  1.00  0.00     0.144 C 
BRANCH  18  20
HETATM   20  C2  UNL     1       3.896   2.911   0.498  1.00  0.00     0.113 C 
HETATM   21  C1  UNL     1       4.808   3.327   1.633  1.00  0.00     0.026 C 
ENDBRANCH  18  20
ENDBRANCH  17  18
ENDBRANCH  15  17
ENDBRANCH  14  15
BRANCH  14  22
HETATM   22  O1  UNL     1       1.302  -0.232  -2.332  1.00  0.00    -0.353 OA
HETATM   23  H13 UNL     1       0.776   0.525  -1.989  1.00  0.00     0.214 HD
ENDBRANCH  14  22
ENDBRANCH  12  14
ENDBRANCH  11  12
ENDBRANCH   1  11
BRANCH   9  24
HETATM   24  N6  UNL     1      -3.060  -0.823   1.700  1.00  0.00    -0.338 N 
HETATM   25  H25 UNL     1      -2.627  -1.294   2.520  1.00  0.00     0.167 HD
BRANCH  24  26
HETATM   26  C15 UNL     1      -3.222   0.612   1.786  1.00  0.00     0.074 A 
HETATM   27  C16 UNL     1      -3.797   1.369   0.787  1.00  0.00     0.033 A 
HETATM   28  C17 UNL     1      -3.919   2.742   0.929  1.00  0.00     0.004 A 
HETATM   29  C18 UNL     1      -3.486   3.399   2.036  1.00  0.00     0.027 A 
HETATM   30  C19 UNL     1      -2.906   2.673   3.052  1.00  0.00     0.074 A 
HETATM   31 CL1  UNL     1      -2.329   3.491   4.507  1.00  0.00    -0.081 Cl
HETATM   32  C20 UNL     1      -2.784   1.312   2.916  1.00  0.00     0.164 A 
HETATM   33  F1  UNL     1      -2.207   0.644   3.939  1.00  0.00    -0.202 F 
ENDBRANCH  24  26
ENDBRANCH   9  24
TORSDOF 10
