REMARK  6 active torsions:
REMARK  status: ('A' for Active; 'I' for Inactive)
REMARK    1  A    between atoms: C2_2  and  C3_3 
REMARK    2  A    between atoms: C2_2  and  N1_6 
REMARK    3  A    between atoms: C3_3  and  C4_4 
REMARK    4  A    between atoms: C4_4  and  O1_5 
REMARK    5  A    between atoms: N1_6  and  C5_7 
REMARK    6  A    between atoms: N4_15  and  C11_16 
ROOT
HETATM    1  C5  UNL     1       1.246   0.891   0.076  1.00  0.00     0.024 C 
HETATM    2  C6  UNL     1       1.295   2.140  -0.409  1.00  0.00     0.028 C 
HETATM    3  C7  UNL     1       0.389   3.201  -0.680  1.00  0.00     0.021 C 
HETATM    4  C8  UNL     1      -0.839   3.677  -0.674  1.00  0.00     0.118 C 
HETATM    5  N2  UNL     1      -2.234   3.907  -0.544  1.00  0.00    -0.257 NA
HETATM    6  C9  UNL     1      -3.004   3.080   0.127  1.00  0.00     0.193 C 
HETATM    7  N3  UNL     1      -2.304   2.083   0.612  1.00  0.00    -0.384 NA
HETATM    8  C10 UNL     1      -1.681   1.180   0.961  1.00  0.00     0.424 C 
HETATM    9  N4  UNL     1      -1.047   0.080   0.337  1.00  0.00    -0.349 N 
HETATM   10  C17 UNL     1       0.343  -0.194   0.540  1.00  0.00     0.182 C 
ENDROOT
BRANCH   1  11
HETATM   11  N1  UNL     1       2.571   0.284   0.124  1.00  0.00    -0.377 N 
HETATM   12  H6  UNL     1       2.895   0.204  -0.888  1.00  0.00     0.160 HD
BRANCH  11  13
HETATM   13  C2  UNL     1       3.502  -0.209   1.120  1.00  0.00     0.159 C 
HETATM   14  C1  UNL     1       4.789  -0.696   0.447  1.00  0.00     0.046 C 
BRANCH  13  15
HETATM   15  C3  UNL     1       2.913  -1.370   1.773  1.00  0.00    -0.051 C 
BRANCH  15  16
HETATM   16  C4  UNL     1       2.417  -2.344   2.347  1.00  0.00     0.053 C 
BRANCH  16  17
HETATM   17  O1  UNL     1       1.868  -3.425   2.999  1.00  0.00    -0.314 OA
HETATM   18  H5  UNL     1       1.601  -4.255   2.486  1.00  0.00     0.230 HD
ENDBRANCH  16  17
ENDBRANCH  15  16
ENDBRANCH  13  15
ENDBRANCH  11  13
ENDBRANCH   1  11
BRANCH   9  19
HETATM   19  C11 UNL     1      -1.908  -0.760  -0.461  1.00  0.00     0.033 A 
HETATM   20  C12 UNL     1      -3.126  -0.433  -0.975  1.00  0.00     0.029 A 
HETATM   21  C13 UNL     1      -3.951  -1.240  -1.717  1.00  0.00     0.004 A 
HETATM   22  C14 UNL     1      -3.494  -2.540  -1.974  1.00  0.00     0.019 A 
HETATM   23  C15 UNL     1      -2.252  -2.850  -1.441  1.00  0.00     0.013 A 
HETATM   24 BR1  UNL     1      -1.709  -4.647  -1.834  1.00  0.00    -0.051 Br
HETATM   25  C16 UNL     1      -1.437  -2.024  -0.697  1.00  0.00     0.048 A 
ENDBRANCH   9  19
TORSDOF 6
