REMARK  3 active torsions:
REMARK  status: ('A' for Active; 'I' for Inactive)
REMARK    1  A    between atoms: C3_3  and  C4_4 
REMARK    2  A    between atoms: C7_8  and  C8_9 
REMARK    3  A    between atoms: C8_9  and  N1_10 
ROOT
HETATM    1  C1  UNL     1      -5.992   1.136   0.230  1.00  0.00     0.112 C 
HETATM    2  C2  UNL     1      -4.725   0.798  -0.434  1.00  0.00    -0.109 C 
HETATM    3  C3  UNL     1      -3.688   0.516  -0.996  1.00  0.00    -0.086 C 
ENDROOT
BRANCH   3   4
HETATM    4  C4  UNL     1      -2.439   0.180  -1.683  1.00  0.00     0.154 C 
HETATM    5  B1  UNL     1      -1.237   0.854  -0.869  1.00  0.00     0.232 B 
HETATM    6  C5  UNL     1      -0.225   0.303   0.158  1.00  0.00    -0.063 C 
HETATM    7  H5  UNL     1      -0.994   1.943  -1.190  1.00  0.00    -0.018 HD
HETATM    8  C6  UNL     1       0.001  -0.806   0.841  1.00  0.00     0.005 A 
HETATM    9  C7  UNL     1       1.130  -0.577   1.600  1.00  0.00     0.065 A 
HETATM   10  C15 UNL     1      -0.753  -1.969   0.818  1.00  0.00     0.067 A 
HETATM   11  N2  UNL     1       1.426  -1.666   2.348  1.00  0.00    -0.244 NA
HETATM   12  C14 UNL     1       0.717  -2.802   2.346  1.00  0.00     0.234 A 
HETATM   13  N3  UNL     1      -0.382  -3.002   1.597  1.00  0.00    -0.242 NA
HETATM   14  C16 UNL     1      -1.835  -2.438   0.220  1.00  0.00     0.031 C 
HETATM   15  C17 UNL     1      -2.821  -1.921  -0.765  1.00  0.00     0.198 C 
HETATM   16  O1  UNL     1      -2.255  -1.196  -1.781  1.00  0.00    -0.380 OA
BRANCH   9  17
HETATM   17  C8  UNL     1       1.893   0.654   1.567  1.00  0.00     0.182 C 
BRANCH  17  18
HETATM   18  N1  UNL     1       2.816   0.850   0.477  1.00  0.00    -0.381 N 
HETATM   19  C9  UNL     1       3.427   2.133   0.524  1.00  0.00     0.087 A 
HETATM   20  C10 UNL     1       4.324   2.533  -0.362  1.00  0.00     0.035 A 
HETATM   21  C11 UNL     1       4.722   1.620  -1.456  1.00  0.00     0.010 A 
HETATM   22 BR1  UNL     1       5.976   1.963  -2.832  1.00  0.00    -0.051 Br
HETATM   23  C12 UNL     1       4.147   0.423  -1.495  1.00  0.00     0.012 A 
HETATM   24  C13 UNL     1       3.119  -0.127  -0.540  1.00  0.00     0.151 A 
ENDBRANCH  17  18
ENDBRANCH   9  17
ENDBRANCH   3   4
TORSDOF 3
