REMARK  6 active torsions:
REMARK  status: ('A' for Active; 'I' for Inactive)
REMARK    1  A    between atoms: C5_7  and  C6_8 
REMARK    2  A    between atoms: C6_8  and  C7_9 
REMARK    3  A    between atoms: C8_10  and  C9_11 
REMARK       I    between atoms: C9_11  and  N2_13 
REMARK    4  A    between atoms: N2_13  and  C10_14 
REMARK    5  A    between atoms: C15_21  and  N5_22 
REMARK    6  A    between atoms: N5_22  and  C16_23 
ROOT
HETATM    1  C10 UNL     1      -1.293   0.205  -1.161  1.00  0.00     0.020 C 
HETATM    2  C11 UNL     1      -1.922  -0.585  -1.986  1.00  0.00     0.027 C 
HETATM    3  C12 UNL     1      -3.107  -0.732  -2.784  1.00  0.00     0.021 C 
HETATM    4  C13 UNL     1      -4.115   0.104  -2.952  1.00  0.00     0.118 C 
HETATM    5  N3  UNL     1      -4.981   1.205  -2.893  1.00  0.00    -0.254 NA
HETATM    6  C14 UNL     1      -5.444   1.703  -1.812  1.00  0.00     0.234 C 
HETATM    7  N4  UNL     1      -4.820   0.823  -0.933  1.00  0.00    -0.228 NA
HETATM    8  C15 UNL     1      -3.569   0.859  -0.664  1.00  0.00     0.111 C 
HETATM    9  C22 UNL     1      -2.141   1.359  -0.739  1.00  0.00     0.135 C 
ENDROOT
BRANCH   1  10
HETATM   10  N2  UNL     1      -0.047   0.203  -0.427  1.00  0.00    -0.320 N 
HETATM   11  C9  UNL     1       0.750   1.326  -0.831  1.00  0.00     0.300 C 
HETATM   12  O2  UNL     1       0.351   2.139  -1.698  1.00  0.00    -0.258 OA
HETATM   13  H13 UNL     1       0.273  -0.496   0.305  1.00  0.00     0.169 HD
BRANCH  11  14
HETATM   14  C8  UNL     1       2.050   1.522  -0.219  1.00  0.00    -0.005 C 
HETATM   15  C7  UNL     1       3.138   1.674   0.279  1.00  0.00    -0.094 C 
BRANCH  15  16
HETATM   16  C6  UNL     1       4.472   1.871   0.867  1.00  0.00     0.130 C 
BRANCH  16  17
HETATM   17  C5  UNL     1       5.390   0.889   0.176  1.00  0.00     0.239 C 
HETATM   18  C2  UNL     1       4.856  -0.495   0.444  1.00  0.00     0.039 C 
HETATM   19  C1  UNL     1       4.473  -1.195  -0.835  1.00  0.00     0.014 C 
HETATM   20  C3  UNL     1       5.898  -1.251   1.214  1.00  0.00     0.176 C 
HETATM   21  O1  UNL     1       7.145  -1.248   0.635  1.00  0.00    -0.362 OA
HETATM   22  C4  UNL     1       7.549   0.014   0.214  1.00  0.00     0.438 C 
HETATM   23  N1  UNL     1       6.707   1.062   0.744  1.00  0.00     0.112 N 
HETATM   24  H9  UNL     1       6.636   0.980   1.773  1.00  0.00     0.319 HD
ENDBRANCH  16  17
ENDBRANCH  15  16
ENDBRANCH  11  14
ENDBRANCH   1  10
BRANCH   8  25
HETATM   25  N5  UNL     1      -3.534  -0.259   0.272  1.00  0.00    -0.344 N 
HETATM   26  H18 UNL     1      -2.703  -0.955   0.291  1.00  0.00     0.167 HD
BRANCH  25  27
HETATM   27  C16 UNL     1      -4.507  -0.629   1.290  1.00  0.00     0.035 A 
HETATM   28  C17 UNL     1      -5.600   0.155   1.594  1.00  0.00     0.032 A 
HETATM   29  C18 UNL     1      -6.534  -0.192   2.541  1.00  0.00     0.046 A 
HETATM   30  C19 UNL     1      -6.403  -1.366   3.237  1.00  0.00     0.138 A 
HETATM   31  F1  UNL     1      -7.281  -1.770   4.180  1.00  0.00    -0.204 F 
HETATM   32  C20 UNL     1      -5.323  -2.144   2.939  1.00  0.00     0.074 A 
HETATM   33 CL1  UNL     1      -5.108  -3.644   3.792  1.00  0.00    -0.081 Cl
HETATM   34  C21 UNL     1      -4.409  -1.795   2.005  1.00  0.00     0.056 A 
ENDBRANCH  25  27
ENDBRANCH   8  25
TORSDOF 6
