REMARK  4 active torsions:
REMARK  status: ('A' for Active; 'I' for Inactive)
REMARK    1  A    between atoms: C1_2  and  N1_3 
REMARK    2  A    between atoms: N1_3  and  C2_4 
REMARK    3  A    between atoms: C7_11  and  N4_12 
REMARK    4  A    between atoms: N4_12  and  C8_13 
ROOT
HETATM    1  C2  UNL     1      -2.774   0.850   0.081  1.00  0.00     0.035 A 
HETATM    2  C3  UNL     1      -3.622  -0.081  -0.501  1.00  0.00     0.032 A 
HETATM    3  C4  UNL     1      -3.089  -1.177  -1.189  1.00  0.00     0.035 A 
HETATM    4  C5  UNL     1      -1.721  -1.313  -1.277  1.00  0.00     0.072 A 
HETATM    5  N2  UNL     1      -1.212  -2.360  -1.934  1.00  0.00    -0.241 NA
HETATM    6  C6  UNL     1       0.136  -2.460  -2.000  1.00  0.00     0.235 A 
HETATM    7  N3  UNL     1       0.979  -1.549  -1.431  1.00  0.00    -0.224 NA
HETATM    8  C7  UNL     1       0.511  -0.482  -0.761  1.00  0.00     0.138 A 
HETATM    9  C13 UNL     1      -0.865  -0.397  -0.704  1.00  0.00     0.041 A 
HETATM   10  C14 UNL     1      -1.411   0.675  -0.032  1.00  0.00     0.047 A 
ENDROOT
BRANCH   8  11
HETATM   11  N4  UNL     1       1.425   0.428  -0.192  1.00  0.00    -0.362 N 
HETATM   12  H6  UNL     1       1.211   1.287   0.346  1.00  0.00     0.162 HD
BRANCH  11  13
HETATM   13  C8  UNL     1       2.832   0.128  -0.383  1.00  0.00     0.146 A 
HETATM   14  C9  UNL     1       3.158  -1.211   0.222  1.00  0.00     0.003 A 
HETATM   15  C10 UNL     1       4.038  -1.088   1.204  1.00  0.00    -0.001 A 
HETATM   16  C11 UNL     1       4.387   0.337   1.353  1.00  0.00     0.017 A 
HETATM   17  C12 UNL     1       3.693   1.004   0.445  1.00  0.00     0.015 A 
HETATM   18 BR1  UNL     1       3.828   2.916   0.265  1.00  0.00    -0.053 Br
ENDBRANCH  11  13
ENDBRANCH   8  11
BRANCH   1  19
HETATM   19  N1  UNL     1      -3.339   1.956   0.775  1.00  0.00    -0.334 N 
HETATM   20  H2  UNL     1      -3.427   2.665   0.017  1.00  0.00     0.168 HD
BRANCH  19  21
HETATM   21  C1  UNL     1      -3.740   2.209   2.120  1.00  0.00     0.353 C 
HETATM   22  O1  UNL     1      -3.652   1.383   3.064  1.00  0.00    -0.283 OA
ENDBRANCH  19  21
ENDBRANCH   1  19
TORSDOF 4
