REMARK  4 active torsions:
REMARK  status: ('A' for Active; 'I' for Inactive)
REMARK    1  A    between atoms: C2_2  and  C3_3 
REMARK    2  A    between atoms: C4_4  and  C5_5 
REMARK       I    between atoms: C5_5  and  N1_7 
REMARK    3  A    between atoms: N1_7  and  C6_8 
REMARK    4  A    between atoms: N4_15  and  C11_16 
ROOT
HETATM    1  C6  UNL     1       0.983  -0.848  -0.602  1.00  0.00     0.034 C 
HETATM    2  C7  UNL     1       0.633  -2.113  -0.305  1.00  0.00     0.024 C 
HETATM    3  C8  UNL     1      -0.566  -2.782   0.263  1.00  0.00     0.179 C 
HETATM    4  N2  UNL     1      -1.521  -1.717   0.524  1.00  0.00    -0.279 NA
HETATM    5  C9  UNL     1      -1.579  -1.070   1.609  1.00  0.00     0.228 C 
HETATM    6  N3  UNL     1      -2.275  -0.046   2.253  1.00  0.00    -0.237 NA
HETATM    7  C10 UNL     1      -2.628   1.069   1.732  1.00  0.00     0.211 C 
HETATM    8  N4  UNL     1      -2.148   0.984   0.399  1.00  0.00    -0.338 N 
HETATM    9  C16 UNL     1      -0.838   0.889  -0.103  1.00  0.00     0.095 C 
HETATM   10  C17 UNL     1       0.307   0.434  -0.496  1.00  0.00     0.046 C 
ENDROOT
BRANCH   1  11
HETATM   11  N1  UNL     1       2.320  -0.803  -1.147  1.00  0.00    -0.316 N 
HETATM   12  C5  UNL     1       3.173   0.014  -0.326  1.00  0.00     0.301 C 
HETATM   13  O1  UNL     1       2.720   0.574   0.713  1.00  0.00    -0.258 OA
HETATM   14  H4  UNL     1       2.706  -1.257  -1.997  1.00  0.00     0.170 HD
BRANCH  12  15
HETATM   15  C4  UNL     1       4.562   0.234  -0.634  1.00  0.00    -0.001 C 
HETATM   16  C3  UNL     1       5.734   0.399  -0.894  1.00  0.00    -0.069 C 
BRANCH  16  17
HETATM   17  C2  UNL     1       7.137   0.575  -1.197  1.00  0.00     0.054 C 
HETATM   18  C1  UNL     1       7.988  -0.447  -1.229  1.00  0.00     0.021 C 
ENDBRANCH  16  17
ENDBRANCH  12  15
ENDBRANCH   1  11
BRANCH   8  19
HETATM   19  C11 UNL     1      -3.412   1.053  -0.246  1.00  0.00     0.153 A 
HETATM   20  C12 UNL     1      -4.053   2.382   0.053  1.00  0.00     0.004 A 
HETATM   21  C13 UNL     1      -5.294   2.195   0.531  1.00  0.00    -0.001 A 
HETATM   22  C14 UNL     1      -5.529   0.732   0.567  1.00  0.00     0.017 A 
HETATM   23  C15 UNL     1      -4.433   0.084   0.115  1.00  0.00     0.015 A 
HETATM   24 BR1  UNL     1      -4.929  -1.782   0.223  1.00  0.00    -0.053 Br
ENDBRANCH   8  19
TORSDOF 4
