REMARK  4 active torsions:
REMARK  status: ('A' for Active; 'I' for Inactive)
REMARK    1  A    between atoms: C3_3  and  C4_4 
REMARK       I    between atoms: C4_4  and  N1_6 
REMARK    2  A    between atoms: N1_6  and  C5_7 
REMARK    3  A    between atoms: C10_14  and  N4_15 
REMARK    4  A    between atoms: N4_15  and  C11_16 
ROOT
HETATM    1  C1  UNL     1       6.834  -0.551   2.596  1.00  0.00     0.112 C 
HETATM    2  C2  UNL     1       5.689  -0.308   1.709  1.00  0.00    -0.101 C 
HETATM    3  C3  UNL     1       4.744  -0.123   0.969  1.00  0.00    -0.006 C 
ENDROOT
BRANCH   3   4
HETATM    4  C4  UNL     1       3.630   0.094   0.068  1.00  0.00     0.302 C 
HETATM    5  O1  UNL     1       3.323  -0.866  -0.717  1.00  0.00    -0.258 OA
HETATM    6  N1  UNL     1       2.907   1.333   0.062  1.00  0.00    -0.302 N 
HETATM    7  H4  UNL     1       3.252   2.030   0.743  1.00  0.00     0.171 HD
BRANCH   6   8
HETATM    8  C5  UNL     1       1.808   1.473  -0.865  1.00  0.00     0.105 C 
HETATM    9  C6  UNL     1       1.641   2.348  -1.839  1.00  0.00     0.050 C 
HETATM   10  C7  UNL     1       0.481   2.353  -2.699  1.00  0.00     0.033 C 
HETATM   11  C8  UNL     1      -0.489   1.461  -2.576  1.00  0.00     0.066 C 
HETATM   12  N2  UNL     1      -1.620   1.529  -3.434  1.00  0.00    -0.244 NA
HETATM   13  C17 UNL     1      -0.268   0.381  -1.604  1.00  0.00     0.205 C 
HETATM   14  C9  UNL     1      -2.652   0.778  -3.110  1.00  0.00     0.235 C 
HETATM   15  N3  UNL     1      -2.595  -0.061  -1.970  1.00  0.00    -0.226 NA
HETATM   16  C10 UNL     1      -1.575  -0.186  -1.198  1.00  0.00     0.134 C 
HETATM   17  N5  UNL     1       0.695   0.598  -0.602  1.00  0.00    -0.359 N 
HETATM   18  H14 UNL     1       0.608   0.131   0.329  1.00  0.00     0.162 HD
BRANCH  16  19
HETATM   19  N4  UNL     1      -1.503  -0.996  -0.053  1.00  0.00    -0.342 N 
HETATM   20  H8  UNL     1      -0.673  -1.437   0.393  1.00  0.00     0.167 HD
BRANCH  19  21
HETATM   21  C11 UNL     1      -2.757  -1.269   0.615  1.00  0.00     0.034 A 
HETATM   22  C12 UNL     1      -3.585  -2.322   0.353  1.00  0.00     0.029 A 
HETATM   23  C13 UNL     1      -4.754  -2.434   1.091  1.00  0.00     0.004 A 
HETATM   24  C14 UNL     1      -5.072  -1.494   2.075  1.00  0.00     0.019 A 
HETATM   25  C15 UNL     1      -4.212  -0.421   2.331  1.00  0.00     0.013 A 
HETATM   26 BR1  UNL     1      -4.658   0.866   3.685  1.00  0.00    -0.051 Br
HETATM   27  C16 UNL     1      -3.067  -0.324   1.598  1.00  0.00     0.048 A 
ENDBRANCH  19  21
ENDBRANCH  16  19
ENDBRANCH   6   8
ENDBRANCH   3   4
TORSDOF 4
