REMARK  6 active torsions:
REMARK  status: ('A' for Active; 'I' for Inactive)
REMARK    1  A    between atoms: C1_2  and  C2_3 
REMARK       I    between atoms: C1_2  and  N2_12 
REMARK    2  A    between atoms: C3_4  and  C4_5 
REMARK    3  A    between atoms: C4_5  and  N1_6 
REMARK    4  A    between atoms: N2_12  and  C9_13 
REMARK    5  A    between atoms: C12_16  and  N3_17 
REMARK    6  A    between atoms: N3_17  and  C13_18 
ROOT
HETATM    1  C9  UNL     1      -1.024  -0.074   1.283  1.00  0.00     0.131 A 
HETATM    2  C10 UNL     1      -2.026   0.027   0.345  1.00  0.00     0.068 A 
HETATM    3  C11 UNL     1      -2.934   1.034   0.592  1.00  0.00     0.044 A 
HETATM    4  C12 UNL     1      -3.927   1.148  -0.353  1.00  0.00     0.142 A 
HETATM    5  N4  UNL     1      -4.836   2.141  -0.156  1.00  0.00    -0.224 NA
HETATM    6  C19 UNL     1      -4.755   2.974   0.930  1.00  0.00     0.236 A 
HETATM    7  N5  UNL     1      -3.769   2.829   1.830  1.00  0.00    -0.240 NA
HETATM    8  C20 UNL     1      -2.838   1.862   1.683  1.00  0.00     0.089 A 
HETATM    9  C21 UNL     1      -1.822   1.730   2.602  1.00  0.00     0.151 A 
HETATM   10  N6  UNL     1      -0.942   0.755   2.364  1.00  0.00    -0.241 NA
ENDROOT
BRANCH   1  11
HETATM   11  N2  UNL     1       0.077  -1.009   1.301  1.00  0.00    -0.301 N 
HETATM   12  C1  UNL     1       1.051  -0.312   0.517  1.00  0.00     0.302 C 
HETATM   13  O1  UNL     1       0.698   0.816   0.072  1.00  0.00    -0.258 OA
HETATM   14  H11 UNL     1       0.385  -1.936   1.659  1.00  0.00     0.171 HD
BRANCH  12  15
HETATM   15  C2  UNL     1       2.377  -0.773   0.197  1.00  0.00    -0.004 C 
HETATM   16  C3  UNL     1       3.491  -1.142  -0.057  1.00  0.00    -0.066 C 
BRANCH  16  17
HETATM   17  C4  UNL     1       4.878  -1.580  -0.356  1.00  0.00     0.366 C 
BRANCH  17  18
HETATM   18  N1  UNL     1       5.664  -0.418  -0.731  1.00  0.00     0.103 N 
HETATM   19  C5  UNL     1       5.868   0.484   0.350  1.00  0.00     0.299 C 
HETATM   20  C6  UNL     1       7.292   0.974   0.499  1.00  0.00     0.198 C 
HETATM   21  O2  UNL     1       8.097  -0.166   0.429  1.00  0.00    -0.388 OA
HETATM   22  C7  UNL     1       8.126  -0.630  -0.865  1.00  0.00     0.198 C 
HETATM   23  C8  UNL     1       6.797  -0.713  -1.542  1.00  0.00     0.299 C 
ENDBRANCH  17  18
ENDBRANCH  16  17
ENDBRANCH  12  15
ENDBRANCH   1  11
BRANCH   4  24
HETATM   24  N3  UNL     1      -4.097   0.332  -1.508  1.00  0.00    -0.340 N 
HETATM   25  H13 UNL     1      -3.515   0.279  -2.370  1.00  0.00     0.167 HD
BRANCH  24  26
HETATM   26  C13 UNL     1      -5.286  -0.431  -1.217  1.00  0.00     0.035 A 
HETATM   27  C14 UNL     1      -5.601  -1.445  -0.336  1.00  0.00     0.032 A 
HETATM   28  C15 UNL     1      -6.880  -1.917  -0.311  1.00  0.00     0.046 A 
HETATM   29  C16 UNL     1      -7.902  -1.457  -1.109  1.00  0.00     0.138 A 
HETATM   30  F1  UNL     1      -9.155  -2.001  -0.991  1.00  0.00    -0.204 F 
HETATM   31  C17 UNL     1      -7.625  -0.445  -2.003  1.00  0.00     0.074 A 
HETATM   32 CL1  UNL     1      -8.911   0.142  -3.011  1.00  0.00    -0.081 Cl
HETATM   33  C18 UNL     1      -6.318   0.049  -2.040  1.00  0.00     0.056 A 
ENDBRANCH  24  26
ENDBRANCH   4  24
TORSDOF 6
