REMARK  4 active torsions:
REMARK  status: ('A' for Active; 'I' for Inactive)
REMARK    1  A    between atoms: C2_2  and  C3_4 
REMARK       I    between atoms: N1_7  and  C6_8 
REMARK    2  A    between atoms: C6_8  and  C7_10 
REMARK    3  A    between atoms: C11_14  and  N2_15 
REMARK       I    between atoms: N2_15  and  C12_16 
REMARK    4  A    between atoms: C12_16  and  C13_18 
ROOT
HETATM    1  C13 UNL     1      -4.636  -0.152   1.636  1.00  0.00    -0.006 C 
HETATM    2  C14 UNL     1      -5.803  -0.165   1.755  1.00  0.00    -0.101 C 
HETATM    3  C15 UNL     1      -7.239  -0.197   1.878  1.00  0.00     0.112 C 
ENDROOT
BRANCH   1   4
HETATM    4  C12 UNL     1      -3.238  -0.110   1.496  1.00  0.00     0.300 C 
HETATM    5  N2  UNL     1      -2.763  -1.027   0.456  1.00  0.00    -0.316 N 
HETATM    6  H9  UNL     1      -3.339  -1.739  -0.094  1.00  0.00     0.170 HD
HETATM    7  O2  UNL     1      -2.130   0.319   1.805  1.00  0.00    -0.258 OA
BRANCH   5   8
HETATM    8  C11 UNL     1      -1.364  -1.034   0.092  1.00  0.00     0.036 A 
HETATM    9  C10 UNL     1      -1.565  -0.022  -0.924  1.00  0.00     0.029 A 
HETATM   10  C9  UNL     1      -0.596   0.560  -1.773  1.00  0.00     0.003 A 
HETATM   11  C8  UNL     1       0.663   0.011  -1.505  1.00  0.00     0.017 A 
HETATM   12  C7  UNL     1       0.978  -0.972  -0.552  1.00  0.00     0.034 A 
HETATM   13  C16 UNL     1      -0.080  -1.435   0.195  1.00  0.00     0.046 A 
BRANCH  12  14
HETATM   14  C6  UNL     1       2.322  -1.559  -0.288  1.00  0.00     0.258 C 
HETATM   15  N1  UNL     1       3.212  -0.582  -0.891  1.00  0.00    -0.321 N 
HETATM   16  C5  UNL     1       3.549  -0.664  -2.168  1.00  0.00     0.070 C 
HETATM   17  C3  UNL     1       4.079   0.592  -0.289  1.00  0.00     0.151 C 
HETATM   18  C4  UNL     1       4.239   0.553  -1.664  1.00  0.00     0.037 C 
HETATM   19  O1  UNL     1       2.387  -2.676   0.338  1.00  0.00    -0.267 OA
BRANCH  17  20
HETATM   20  C2  UNL     1       4.820   1.880  -0.056  1.00  0.00     0.058 A 
HETATM   21  C1  UNL     1       4.640   1.861   1.293  1.00  0.00     0.099 A 
HETATM   22 BR1  UNL     1       5.688   3.480   0.598  1.00  0.00    -0.152 Br
ENDBRANCH  17  20
ENDBRANCH  12  14
ENDBRANCH   5   8
ENDBRANCH   1   4
TORSDOF 4
