REMARK  6 active torsions:
REMARK  status: ('A' for Active; 'I' for Inactive)
REMARK    1  A    between atoms: C1_2  and  C2_3 
REMARK       I    between atoms: C1_2  and  N2_13 
REMARK    2  A    between atoms: C3_4  and  C4_5 
REMARK    3  A    between atoms: C4_5  and  C5_6 
REMARK    4  A    between atoms: C5_6  and  N1_7 
REMARK    5  A    between atoms: N2_13  and  C10_14 
REMARK    6  A    between atoms: N3_18  and  C14_19 
ROOT
HETATM    1  O1  UNL     1       2.076  -1.962   1.052  1.00  0.00    -0.258 OA
HETATM    2  C1  UNL     1       1.409  -1.111   0.375  1.00  0.00     0.302 C 
HETATM    3  N2  UNL     1       1.993   0.133  -0.001  1.00  0.00    -0.302 N 
HETATM    4  H13 UNL     1       1.359   0.752  -0.553  1.00  0.00     0.171 HD
ENDROOT
BRANCH   2   5
HETATM    5  C2  UNL     1       0.065  -1.479   0.026  1.00  0.00    -0.005 C 
HETATM    6  C3  UNL     1      -1.064  -1.805  -0.266  1.00  0.00    -0.095 C 
BRANCH   6   7
HETATM    7  C4  UNL     1      -2.443  -2.229  -0.616  1.00  0.00     0.124 C 
BRANCH   7   8
HETATM    8  C5  UNL     1      -3.379  -1.405   0.220  1.00  0.00     0.284 C 
BRANCH   8   9
HETATM    9  N1  UNL     1      -3.297  -0.004   0.030  1.00  0.00     0.093 N 
HETATM   10  C6  UNL     1      -3.754   0.462  -1.256  1.00  0.00     0.298 C 
HETATM   11  C7  UNL     1      -5.032  -0.234  -1.626  1.00  0.00     0.198 C 
HETATM   12  O2  UNL     1      -5.903  -0.153  -0.559  1.00  0.00    -0.388 OA
HETATM   13  C8  UNL     1      -5.587   0.795   0.382  1.00  0.00     0.198 C 
HETATM   14  C9  UNL     1      -4.233   0.582   1.008  1.00  0.00     0.298 C 
ENDBRANCH   8   9
ENDBRANCH   7   8
ENDBRANCH   6   7
ENDBRANCH   2   5
BRANCH   3  15
HETATM   15  C10 UNL     1       3.311   0.517   0.330  1.00  0.00     0.106 A 
HETATM   16  C11 UNL     1       3.641   1.581   1.045  1.00  0.00     0.029 A 
HETATM   17  C12 UNL     1       5.119   1.686   1.203  1.00  0.00     0.109 A 
HETATM   18  C13 UNL     1       5.596   0.492   0.459  1.00  0.00     0.106 A 
HETATM   19  N3  UNL     1       6.877   0.351   0.450  1.00  0.00    -0.246 NA
HETATM   20  N4  UNL     1       4.475  -0.199  -0.063  1.00  0.00    -0.331 N 
HETATM   21  H19 UNL     1       4.622  -1.062  -0.616  1.00  0.00     0.168 HD
BRANCH  19  22
HETATM   22  C14 UNL     1       7.475  -0.754  -0.229  1.00  0.00     0.372 C 
HETATM   23  F1  UNL     1       7.087  -0.860  -1.568  1.00  0.00    -0.232 F 
ENDBRANCH  19  22
ENDBRANCH   3  15
TORSDOF 6
