REMARK  9 active torsions:
REMARK  status: ('A' for Active; 'I' for Inactive)
REMARK    1  A    between atoms: C3_3  and  C4_4 
REMARK    2  A    between atoms: C5_6  and  C6_7 
REMARK    3  A    between atoms: C7_8  and  C8_9 
REMARK    4  A    between atoms: C8_9  and  N1_10 
REMARK    5  A    between atoms: C11_13  and  N2_14 
REMARK       I    between atoms: N2_14  and  C12_15 
REMARK    6  A    between atoms: C12_15  and  C13_17 
REMARK    7  A    between atoms: C14_18  and  C15_19 
REMARK    8  A    between atoms: C15_19  and  C16_20 
REMARK    9  A    between atoms: C16_20  and  N3_21 
ROOT
HETATM    1  N1  UNL     1       3.363  -2.965  -1.331  1.00  0.00    -0.269 NA
HETATM    2  C9  UNL     1       2.340  -2.414  -0.817  1.00  0.00     0.127 A 
HETATM    3  C10 UNL     1       1.259  -2.479   0.132  1.00  0.00     0.098 A 
HETATM    4  C11 UNL     1       0.719  -1.303  -0.149  1.00  0.00     0.113 A 
HETATM    5  N4  UNL     1       1.759  -1.137  -1.126  1.00  0.00    -0.327 N 
HETATM    6  H25 UNL     1       1.840  -0.273  -1.733  1.00  0.00     0.169 HD
ENDROOT
BRANCH   4   7
HETATM    7  N2  UNL     1      -0.433  -0.738   0.465  1.00  0.00    -0.302 N 
HETATM    8  C12 UNL     1      -1.560  -0.426  -0.335  1.00  0.00     0.302 C 
HETATM    9  O1  UNL     1      -1.621  -0.615  -1.579  1.00  0.00    -0.258 OA
HETATM   10  H12 UNL     1      -0.433  -0.560   1.506  1.00  0.00     0.171 HD
BRANCH   8  11
HETATM   11  C13 UNL     1      -2.736   0.147   0.272  1.00  0.00    -0.005 C 
HETATM   12  C14 UNL     1      -3.736   0.621   0.777  1.00  0.00    -0.095 C 
BRANCH  12  13
HETATM   13  C15 UNL     1      -4.940   1.173   1.400  1.00  0.00     0.124 C 
BRANCH  13  14
HETATM   14  C16 UNL     1      -6.076   0.225   1.156  1.00  0.00     0.284 C 
BRANCH  14  15
HETATM   15  N3  UNL     1      -7.320   0.685   1.738  1.00  0.00     0.093 N 
HETATM   16  C17 UNL     1      -8.388  -0.260   1.478  1.00  0.00     0.298 C 
HETATM   17  C18 UNL     1      -9.620   0.148   2.215  1.00  0.00     0.198 C 
HETATM   18  O2  UNL     1      -9.697   1.491   2.479  1.00  0.00    -0.388 OA
HETATM   19  C19 UNL     1      -9.137   2.313   1.507  1.00  0.00     0.198 C 
HETATM   20  C20 UNL     1      -7.669   2.015   1.293  1.00  0.00     0.298 C 
ENDBRANCH  14  15
ENDBRANCH  13  14
ENDBRANCH  12  13
ENDBRANCH   8  11
ENDBRANCH   4   7
BRANCH   1  21
HETATM   21  C8  UNL     1       4.205  -2.441  -2.366  1.00  0.00     0.178 C 
BRANCH  21  22
HETATM   22  C7  UNL     1       5.132  -1.398  -1.880  1.00  0.00    -0.005 C 
HETATM   23  C6  UNL     1       6.455  -1.394  -1.906  1.00  0.00     0.001 C 
BRANCH  23  24
HETATM   24  C5  UNL     1       7.176  -0.243  -1.363  1.00  0.00     0.042 C 
HETATM   25  C4  UNL     1       8.501  -0.246  -1.393  1.00  0.00     0.116 C 
HETATM   26  F1  UNL     1       9.181  -1.281  -1.908  1.00  0.00    -0.206 F 
BRANCH  25  27
HETATM   27  C3  UNL     1       9.262   0.877  -0.864  1.00  0.00     0.038 C 
HETATM   28  C2  UNL     1      10.578   0.910  -0.876  1.00  0.00    -0.028 C 
HETATM   29  C1  UNL     1      11.426   1.995  -0.369  1.00  0.00     0.036 C 
ENDBRANCH  25  27
ENDBRANCH  23  24
ENDBRANCH  21  22
ENDBRANCH   1  21
TORSDOF 9
