REMARK  8 active torsions:
REMARK  status: ('A' for Active; 'I' for Inactive)
REMARK    1  A    between atoms: C3_3  and  C4_4 
REMARK       I    between atoms: C4_4  and  N1_6 
REMARK    2  A    between atoms: N1_6  and  C5_7 
REMARK    3  A    between atoms: C8_10  and  N2_11 
REMARK    4  A    between atoms: N2_11  and  C9_12 
REMARK    5  A    between atoms: C9_12  and  N3_13 
REMARK    6  A    between atoms: C10_14  and  C11_15 
REMARK    7  A    between atoms: C11_15  and  N4_16 
REMARK    8  A    between atoms: N4_16  and  C12_17 
ROOT
HETATM    1  C1  UNL     1      -7.075   2.838  -0.095  1.00  0.00     0.112 C 
HETATM    2  C2  UNL     1      -5.780   2.166  -0.292  1.00  0.00    -0.101 C 
HETATM    3  C3  UNL     1      -4.726   1.603  -0.440  1.00  0.00    -0.006 C 
ENDROOT
BRANCH   3   4
HETATM    4  C4  UNL     1      -3.464   0.901  -0.617  1.00  0.00     0.300 C 
HETATM    5  O1  UNL     1      -2.681   1.216  -1.551  1.00  0.00    -0.258 OA
HETATM    6  N1  UNL     1      -3.203  -0.146   0.334  1.00  0.00    -0.316 N 
HETATM    7  H4  UNL     1      -3.859  -0.396   1.104  1.00  0.00     0.170 HD
BRANCH   6   8
HETATM    8  C5  UNL     1      -1.954  -0.790   0.099  1.00  0.00     0.036 A 
HETATM    9  C6  UNL     1      -2.089  -1.883  -0.752  1.00  0.00     0.032 A 
HETATM   10  C7  UNL     1      -0.977  -2.643  -1.106  1.00  0.00     0.035 A 
HETATM   11  C8  UNL     1       0.261  -2.287  -0.595  1.00  0.00     0.076 A 
HETATM   12  C10 UNL     1       0.363  -1.202   0.244  1.00  0.00    -0.009 A 
HETATM   13  C17 UNL     1      -0.735  -0.442   0.601  1.00  0.00     0.040 A 
BRANCH  11  14
HETATM   14  N2  UNL     1       1.449  -3.022  -0.916  1.00  0.00    -0.188 NA
BRANCH  14  15
HETATM   15  C9  UNL     1       1.462  -4.277  -0.617  1.00  0.00     0.093 C 
BRANCH  15  16
HETATM   16  N3  UNL     1       1.565  -5.429  -0.053  1.00  0.00    -0.241 NA
HETATM   17  H7  UNL     1       0.730  -5.834   0.436  1.00  0.00     0.199 HD
ENDBRANCH  15  16
ENDBRANCH  14  15
ENDBRANCH  11  14
BRANCH  12  18
HETATM   18  C11 UNL     1       1.646  -0.729   0.835  1.00  0.00     0.161 C 
BRANCH  18  19
HETATM   19  N4  UNL     1       2.427  -0.010  -0.185  1.00  0.00    -0.386 N 
HETATM   20  H10 UNL     1       2.037   0.022  -1.161  1.00  0.00     0.160 HD
BRANCH  19  21
HETATM   21  C12 UNL     1       3.679   0.661   0.002  1.00  0.00     0.025 A 
HETATM   22  C13 UNL     1       4.981   0.476   0.115  1.00  0.00     0.007 A 
HETATM   23  C14 UNL     1       5.667   1.778   0.304  1.00  0.00     0.075 A 
HETATM   24  C15 UNL     1       4.554   2.760   0.282  1.00  0.00    -0.006 A 
HETATM   25 BR1  UNL     1       5.112   4.568   0.502  1.00  0.00    -0.055 Br
HETATM   26  C16 UNL     1       3.411   2.108   0.107  1.00  0.00     0.043 A 
ENDBRANCH  19  21
ENDBRANCH  18  19
ENDBRANCH  12  18
ENDBRANCH   6   8
ENDBRANCH   3   4
TORSDOF 8
