REMARK  2 active torsions:
REMARK  status: ('A' for Active; 'I' for Inactive)
REMARK    1  A    between atoms: C16_22  and  N5_23 
REMARK    2  A    between atoms: N5_23  and  C17_24 
ROOT
HETATM    1  O1  UNL     1       1.581   2.690   0.561  1.00  0.00    -0.128 OA
HETATM    2  C1  UNL     1       0.705   2.452   1.398  1.00  0.00     0.433 A 
HETATM    3  C2  UNL     1      -0.597   2.005   1.491  1.00  0.00    -0.026 C 
HETATM    4  C3  UNL     1      -1.640   1.637   1.546  1.00  0.00    -0.100 C 
HETATM    5  C4  UNL     1      -2.978   1.156   1.591  1.00  0.00     0.124 C 
HETATM    6  C5  UNL     1      -3.211   0.511   0.156  1.00  0.00     0.285 C 
HETATM    7  N1  UNL     1      -2.285  -0.554  -0.002  1.00  0.00     0.102 NA
HETATM    8  C6  UNL     1      -3.022  -1.843   0.183  1.00  0.00     0.299 C 
HETATM    9  C7  UNL     1      -3.777  -2.161  -1.064  1.00  0.00     0.198 C 
HETATM   10  O2  UNL     1      -3.037  -2.098  -2.221  1.00  0.00    -0.387 OA
HETATM   11  C8  UNL     1      -2.431  -0.852  -2.328  1.00  0.00     0.208 C 
HETATM   12  C9  UNL     1      -1.476  -0.727  -1.130  1.00  0.00     0.283 C 
HETATM   13  C10 UNL     1      -0.301  -0.016  -1.478  1.00  0.00     0.027 C 
HETATM   14  C11 UNL     1       0.372   0.936  -2.260  1.00  0.00     0.074 C 
HETATM   15  C12 UNL     1       0.595   2.203  -1.630  1.00  0.00     0.265 C 
HETATM   16  N2  UNL     1       0.870   3.378  -2.286  1.00  0.00    -0.233 NA
HETATM   17  C13 UNL     1       2.101   3.541  -2.832  1.00  0.00     0.138 C 
HETATM   18  C14 UNL     1       3.084   2.606  -2.500  1.00  0.00     0.137 C 
HETATM   19  N3  UNL     1       3.436   1.311  -2.500  1.00  0.00    -0.253 NA
HETATM   20  C15 UNL     1       2.848   0.464  -1.642  1.00  0.00     0.234 C 
HETATM   21  N4  UNL     1       2.188  -0.466  -0.982  1.00  0.00    -0.224 NA
HETATM   22  C16 UNL     1       0.865  -0.380  -0.756  1.00  0.00     0.138 C 
HETATM   23  N6  UNL     1       0.594   2.311  -0.122  1.00  0.00     0.149 N 
HETATM   24  H20 UNL     1      -0.369   2.154  -0.626  1.00  0.00     0.332 HD
ENDROOT
BRANCH  22  25
HETATM   25  N5  UNL     1       0.870  -0.815   0.602  1.00  0.00    -0.340 N 
HETATM   26  H16 UNL     1      -0.147  -0.780   0.925  1.00  0.00     0.167 HD
BRANCH  25  27
HETATM   27  C17 UNL     1       1.716  -1.278   1.660  1.00  0.00     0.035 A 
HETATM   28  C18 UNL     1       1.279  -1.291   2.975  1.00  0.00     0.032 A 
HETATM   29  C19 UNL     1       2.141  -1.753   3.916  1.00  0.00     0.046 A 
HETATM   30  C20 UNL     1       3.378  -2.181   3.567  1.00  0.00     0.138 A 
HETATM   31  F1  UNL     1       4.130  -2.613   4.607  1.00  0.00    -0.204 F 
HETATM   32  C21 UNL     1       3.849  -2.186   2.291  1.00  0.00     0.074 A 
HETATM   33 CL1  UNL     1       5.484  -2.773   1.986  1.00  0.00    -0.081 Cl
HETATM   34  C22 UNL     1       2.979  -1.718   1.325  1.00  0.00     0.056 A 
ENDBRANCH  25  27
ENDBRANCH  22  25
TORSDOF 2
