REMARK  7 active torsions:
REMARK  status: ('A' for Active; 'I' for Inactive)
REMARK    1  A    between atoms: C1_2  and  C2_3 
REMARK       I    between atoms: C1_2  and  N2_13 
REMARK    2  A    between atoms: C3_4  and  C4_5 
REMARK    3  A    between atoms: C4_5  and  C5_6 
REMARK    4  A    between atoms: C5_6  and  N1_7 
REMARK    5  A    between atoms: N2_13  and  C10_14 
REMARK    6  A    between atoms: C13_19  and  N5_20 
REMARK    7  A    between atoms: N5_20  and  C14_21 
ROOT
HETATM    1  C10 UNL     1       1.908   0.814   2.409  1.00  0.00     0.357 C 
HETATM    2  N3  UNL     1       2.088   1.823   3.450  1.00  0.00     0.120 N 
HETATM    3  C11 UNL     1       3.502   2.034   3.660  1.00  0.00     0.268 C 
HETATM    4  C12 UNL     1       4.156   2.830   2.518  1.00  0.00     0.127 C 
HETATM    5  N4  UNL     1       4.547   2.671   1.247  1.00  0.00    -0.245 NA
HETATM    6  C13 UNL     1       3.953   1.409   0.741  1.00  0.00     0.133 C 
HETATM    7  C20 UNL     1       3.297   1.005   1.819  1.00  0.00     0.020 C 
HETATM    8  C21 UNL     1       3.961   0.600   3.169  1.00  0.00     0.083 C 
HETATM    9  H15 UNL     1       1.499   2.638   3.395  1.00  0.00     0.320 HD
ENDROOT
BRANCH   1  10
HETATM   10  N2  UNL     1       0.832   0.920   1.549  1.00  0.00    -0.317 N 
HETATM   11  C1  UNL     1      -0.088  -0.172   1.387  1.00  0.00     0.298 C 
HETATM   12  O1  UNL     1       0.115  -1.230   2.052  1.00  0.00    -0.258 OA
HETATM   13  H13 UNL     1       0.609   1.780   0.966  1.00  0.00     0.165 HD
BRANCH  11  14
HETATM   14  C2  UNL     1      -1.210  -0.045   0.483  1.00  0.00    -0.006 C 
HETATM   15  C3  UNL     1      -2.143   0.059  -0.293  1.00  0.00    -0.095 C 
BRANCH  15  16
HETATM   16  C4  UNL     1      -3.277   0.195  -1.212  1.00  0.00     0.124 C 
BRANCH  16  17
HETATM   17  C5  UNL     1      -4.584  -0.047  -0.476  1.00  0.00     0.284 C 
BRANCH  17  18
HETATM   18  N1  UNL     1      -5.699   0.088  -1.390  1.00  0.00     0.093 N 
HETATM   19  C6  UNL     1      -5.698  -0.973  -2.347  1.00  0.00     0.298 C 
HETATM   20  C7  UNL     1      -7.096  -1.512  -2.559  1.00  0.00     0.198 C 
HETATM   21  O2  UNL     1      -7.976  -0.450  -2.717  1.00  0.00    -0.388 OA
HETATM   22  C8  UNL     1      -8.134   0.152  -1.456  1.00  0.00     0.198 C 
HETATM   23  C9  UNL     1      -6.920  -0.063  -0.586  1.00  0.00     0.298 C 
ENDBRANCH  17  18
ENDBRANCH  16  17
ENDBRANCH  15  16
ENDBRANCH  11  14
ENDBRANCH   1  10
BRANCH   6  24
HETATM   24  N5  UNL     1       3.753   0.504  -0.352  1.00  0.00    -0.341 N 
HETATM   25  H18 UNL     1       2.785   0.444  -0.672  1.00  0.00     0.167 HD
BRANCH  24  26
HETATM   26  C14 UNL     1       4.902  -0.179  -0.843  1.00  0.00     0.035 A 
HETATM   27  C15 UNL     1       6.117   0.084  -0.214  1.00  0.00     0.032 A 
HETATM   28  C16 UNL     1       7.261  -0.576  -0.682  1.00  0.00     0.046 A 
HETATM   29  C17 UNL     1       7.216  -1.466  -1.734  1.00  0.00     0.138 A 
HETATM   30  F1  UNL     1       8.311  -2.113  -2.201  1.00  0.00    -0.204 F 
HETATM   31  C18 UNL     1       5.999  -1.705  -2.337  1.00  0.00     0.074 A 
HETATM   32 CL1  UNL     1       5.783  -2.806  -3.680  1.00  0.00    -0.081 Cl
HETATM   33  C19 UNL     1       4.859  -1.066  -1.892  1.00  0.00     0.056 A 
ENDBRANCH  24  26
ENDBRANCH   6  24
TORSDOF 7
