REMARK  7 active torsions:
REMARK  status: ('A' for Active; 'I' for Inactive)
REMARK    1  A    between atoms: N1_2  and  C2_3 
REMARK    2  A    between atoms: C2_3  and  N2_4 
REMARK    3  A    between atoms: N2_4  and  C3_5 
REMARK    4  A    between atoms: C6_8  and  N3_9 
REMARK       I    between atoms: N3_9  and  C7_10 
REMARK    5  A    between atoms: C7_10  and  C8_12 
REMARK    6  A    between atoms: C9_13  and  C10_14 
REMARK    7  A    between atoms: C10_14  and  C11_15 
ROOT
HETATM    1  C3  UNL     1       3.752   1.548   0.429  1.00  0.00     0.033 A 
HETATM    2  C4  UNL     1       2.726   1.549   1.411  1.00  0.00     0.032 A 
HETATM    3  C5  UNL     1       1.477   1.484   0.853  1.00  0.00     0.032 A 
HETATM    4  C6  UNL     1       1.148   1.420  -0.443  1.00  0.00     0.035 A 
HETATM    5  C16 UNL     1       2.079   1.419  -1.455  1.00  0.00     0.032 A 
HETATM    6  C17 UNL     1       3.386   1.484  -0.953  1.00  0.00     0.032 A 
ENDROOT
BRANCH   4   7
HETATM    7  N3  UNL     1      -0.306   1.369  -0.425  1.00  0.00    -0.316 N 
HETATM    8  C7  UNL     1      -0.845  -0.020  -0.258  1.00  0.00     0.300 C 
HETATM    9  O1  UNL     1       0.307  -0.184  -0.279  1.00  0.00    -0.258 OA
HETATM   10  H6  UNL     1      -0.755   2.370  -0.534  1.00  0.00     0.170 HD
BRANCH   8  11
HETATM   11  C8  UNL     1      -2.269   0.064  -0.218  1.00  0.00    -0.005 C 
HETATM   12  C9  UNL     1      -3.442   0.153  -0.196  1.00  0.00    -0.094 C 
BRANCH  12  13
HETATM   13  C10 UNL     1      -4.890   0.286  -0.154  1.00  0.00     0.130 C 
BRANCH  13  14
HETATM   14  C11 UNL     1      -5.555  -0.741  -1.033  1.00  0.00     0.231 C 
HETATM   15  C12 UNL     1      -5.263  -2.140  -0.619  1.00  0.00     0.036 C 
HETATM   16  C13 UNL     1      -6.359  -2.872   0.079  1.00  0.00     0.004 C 
HETATM   17  C14 UNL     1      -7.703  -2.223   0.077  1.00  0.00     0.030 C 
HETATM   18  C15 UNL     1      -7.652  -0.685   0.013  1.00  0.00     0.270 C 
HETATM   19  N4  UNL     1      -6.921  -0.394  -1.188  1.00  0.00     0.088 N 
HETATM   20  H18 UNL     1      -7.055   0.541  -1.570  1.00  0.00     0.316 HD
ENDBRANCH  13  14
ENDBRANCH  12  13
ENDBRANCH   8  11
ENDBRANCH   4   7
BRANCH   1  21
HETATM   21  N2  UNL     1       5.149   1.573   0.420  1.00  0.00    -0.341 N 
HETATM   22  H3  UNL     1       5.220   1.461   1.504  1.00  0.00     0.167 HD
BRANCH  21  23
HETATM   23  C2  UNL     1       6.543   1.597   0.433  1.00  0.00     0.135 C 
HETATM   24  C18 UNL     1       7.282   0.587   0.842  1.00  0.00     0.046 A 
HETATM   25  C19 UNL     1       8.413  -0.339   1.284  1.00  0.00     0.055 A 
HETATM   26  C22 UNL     1       6.370  -0.583   0.979  1.00  0.00     0.202 A 
HETATM   27  C20 UNL     1       7.881  -1.557   1.506  1.00  0.00     0.310 A 
HETATM   28  N5  UNL     1       6.756  -2.473   1.537  1.00  0.00    -0.046 NA
HETATM   29  N6  UNL     1       6.522  -1.903   1.349  1.00  0.00     0.090 N 
HETATM   30  C21 UNL     1       5.607  -1.814   1.168  1.00  0.00     0.384 A 
BRANCH  23  31
HETATM   31  N1  UNL     1       6.418   2.905   0.022  1.00  0.00    -0.270 NA
HETATM   32  C1  UNL     1       6.208   3.264  -1.250  1.00  0.00     0.173 C 
ENDBRANCH  23  31
ENDBRANCH  21  23
ENDBRANCH   1  21
TORSDOF 7
