REMARK  7 active torsions:
REMARK  status: ('A' for Active; 'I' for Inactive)
REMARK    1  A    between atoms: N1_1  and  C1_2 
REMARK    2  A    between atoms: C4_5  and  N2_6 
REMARK    3  A    between atoms: N2_6  and  C5_7 
REMARK    4  A    between atoms: C8_10  and  N3_11 
REMARK       I    between atoms: N3_11  and  C9_12 
REMARK    5  A    between atoms: C9_12  and  C10_14 
REMARK    6  A    between atoms: C10_14  and  C11_15 
REMARK    7  A    between atoms: C11_15  and  N4_16 
ROOT
HETATM    1  C5  UNL     1      -3.176  -1.610   0.557  1.00  0.00     0.034 C 
HETATM    2  C6  UNL     1      -2.199  -0.799   0.944  1.00  0.00    -0.023 C 
HETATM    3  C7  UNL     1      -1.074   0.017   0.373  1.00  0.00     0.060 C 
HETATM    4  C8  UNL     1       0.095  -0.232   1.114  1.00  0.00     0.132 C 
HETATM    5  N5  UNL     1       0.090  -1.393   2.114  1.00  0.00    -0.218 NA
HETATM    6  C16 UNL     1      -1.080  -2.024   2.127  1.00  0.00     0.106 C 
HETATM    7  C17 UNL     1      -2.053  -0.855   2.508  1.00  0.00     0.118 C 
HETATM    8  N6  UNL     1      -1.954  -3.162   1.869  1.00  0.00    -0.372 N 
HETATM    9  C18 UNL     1      -3.369  -2.872   1.426  1.00  0.00     0.178 C 
HETATM   10  H22 UNL     1      -1.164  -3.871   2.101  1.00  0.00     0.161 HD
ENDROOT
BRANCH   1  11
HETATM   11  N2  UNL     1      -3.643  -0.897  -0.634  1.00  0.00    -0.358 N 
HETATM   12  H5  UNL     1      -3.072  -0.980  -1.493  1.00  0.00     0.166 HD
BRANCH  11  13
HETATM   13  C4  UNL     1      -4.862  -0.140  -0.521  1.00  0.00     0.034 A 
HETATM   14  C3  UNL     1      -6.003  -0.857  -0.820  1.00  0.00     0.032 A 
HETATM   15  C2  UNL     1      -7.273  -0.278  -0.760  1.00  0.00     0.033 A 
HETATM   16  C1  UNL     1      -7.288   1.034  -0.387  1.00  0.00     0.047 A 
HETATM   17  C20 UNL     1      -6.190   1.808  -0.075  1.00  0.00     0.062 A 
HETATM   18  C19 UNL     1      -4.942   1.196  -0.146  1.00  0.00     0.055 A 
HETATM   19 CL1  UNL     1      -6.249   3.489   0.400  1.00  0.00    -0.082 Cl
BRANCH  16  20
HETATM   20  N1  UNL     1      -8.568   1.667  -0.312  1.00  0.00    -0.398 N 
HETATM   21  H1  UNL     1      -9.471   1.173  -0.478  1.00  0.00     0.156 HD
HETATM   22  H2  UNL     1      -8.784   2.658  -0.095  1.00  0.00     0.156 HD
ENDBRANCH  16  20
ENDBRANCH  11  13
ENDBRANCH   1  11
BRANCH   4  23
HETATM   23  N3  UNL     1       1.034   0.695   0.693  1.00  0.00    -0.312 N 
HETATM   24  C9  UNL     1       2.206   0.136   0.110  1.00  0.00     0.224 C 
HETATM   25  O1  UNL     1       2.400  -1.099  -0.027  1.00  0.00    -0.273 OA
HETATM   26  H7  UNL     1       0.862   1.714   0.813  1.00  0.00     0.170 HD
BRANCH  24  27
HETATM   27  C10 UNL     1       3.286   1.074  -0.375  1.00  0.00     0.133 C 
BRANCH  27  28
HETATM   28  C11 UNL     1       4.349   0.179  -0.948  1.00  0.00     0.282 C 
BRANCH  28  29
HETATM   29  N4  UNL     1       5.497   0.871  -1.479  1.00  0.00     0.093 N 
HETATM   30  C12 UNL     1       6.250   1.490  -0.421  1.00  0.00     0.298 C 
HETATM   31  C13 UNL     1       7.158   0.511   0.289  1.00  0.00     0.198 C 
HETATM   32  O2  UNL     1       8.063   0.060  -0.672  1.00  0.00    -0.388 OA
HETATM   33  C14 UNL     1       7.359  -0.745  -1.550  1.00  0.00     0.198 C 
HETATM   34  C15 UNL     1       6.269  -0.033  -2.283  1.00  0.00     0.298 C 
ENDBRANCH  28  29
ENDBRANCH  27  28
ENDBRANCH  24  27
ENDBRANCH   4  23
TORSDOF 7
