REMARK  3 active torsions:
REMARK  status: ('A' for Active; 'I' for Inactive)
REMARK       I    between atoms: C3_3  and  N1_5 
REMARK    1  A    between atoms: N1_5  and  C4_6 
REMARK    2  A    between atoms: C5_7  and  C6_8 
REMARK    3  A    between atoms: C6_8  and  C7_9 
ROOT
HETATM    1  C1  UNL     1       4.270  -5.522  -2.985  1.00  0.00     0.022 C 
HETATM    2  C2  UNL     1       3.613  -4.635  -2.506  1.00  0.00    -0.016 C 
HETATM    3  C3  UNL     1       2.815  -3.598  -1.937  1.00  0.00     0.299 C 
HETATM    4  O1  UNL     1       2.470  -2.647  -2.724  1.00  0.00    -0.258 OA
HETATM    5  N1  UNL     1       2.385  -3.548  -0.567  1.00  0.00    -0.327 N 
HETATM    6  H2  UNL     1       2.754  -4.411  -0.061  1.00  0.00     0.169 HD
ENDROOT
BRANCH   5   7
HETATM    7  C4  UNL     1       1.601  -2.574   0.101  1.00  0.00     0.088 C 
HETATM    8  C5  UNL     1       2.032  -1.892   1.152  1.00  0.00     0.002 C 
BRANCH   8   9
HETATM    9  C6  UNL     1       0.946  -1.049   1.493  1.00  0.00     0.073 C 
BRANCH   9  10
HETATM   10  C7  UNL     1       0.092  -0.159   2.017  1.00  0.00     0.052 C 
HETATM   11  N2  UNL     1       0.175   0.782   3.145  1.00  0.00    -0.247 NA
HETATM   12  C8  UNL     1      -0.451   1.951   3.212  1.00  0.00     0.235 C 
HETATM   13  N3  UNL     1      -1.661   2.448   2.522  1.00  0.00    -0.228 NA
HETATM   14  C9  UNL     1      -2.367   1.523   1.809  1.00  0.00     0.113 C 
HETATM   15  C10 UNL     1      -2.546  -0.025   1.878  1.00  0.00     0.190 C 
HETATM   16  N4  UNL     1      -2.670   2.742   1.015  1.00  0.00    -0.354 N 
HETATM   17  C11 UNL     1      -1.267  -0.209   1.215  1.00  0.00     0.094 C 
HETATM   18  O2  UNL     1      -1.018  -0.454  -0.230  1.00  0.00    -0.375 OA
HETATM   19  C12 UNL     1      -0.127   0.580  -0.741  1.00  0.00     0.196 C 
HETATM   20  C13 UNL     1      -0.912   1.793  -1.166  1.00  0.00    -0.001 C 
HETATM   21  C14 UNL     1      -1.549   2.845  -1.667  1.00  0.00    -0.001 C 
HETATM   22  C15 UNL     1      -2.519   3.780  -1.004  1.00  0.00     0.017 C 
HETATM   23  C16 UNL     1      -3.057   3.779   0.232  1.00  0.00     0.089 C 
HETATM   24  H14 UNL     1      -3.425   2.086   0.724  1.00  0.00     0.166 HD
ENDBRANCH   9  10
ENDBRANCH   8   9
ENDBRANCH   5   7
TORSDOF 3
