REMARK  8 active torsions:
REMARK  status: ('A' for Active; 'I' for Inactive)
REMARK    1  A    between atoms: C2_2  and  C3_3 
REMARK    2  A    between atoms: C2_2  and  N3_13 
REMARK    3  A    between atoms: C4_4  and  C5_5 
REMARK    4  A    between atoms: C5_5  and  C6_6 
REMARK    5  A    between atoms: C6_6  and  N1_7 
REMARK    6  A    between atoms: N3_13  and  C11_14 
REMARK    7  A    between atoms: C12_15  and  C13_16 
REMARK    8  A    between atoms: C14_17  and  C15_19 
ROOT
HETATM    1  N3  UNL     1       1.211   0.496  -0.202  1.00  0.00    -0.384 N 
HETATM    2  H18 UNL     1       0.743   1.407  -0.481  1.00  0.00     0.160 HD
ENDROOT
BRANCH   1   3
HETATM    3  C2  UNL     1       0.382  -0.557   0.402  1.00  0.00     0.156 C 
HETATM    4  C1  UNL     1       0.482  -1.761  -0.494  1.00  0.00     0.046 C 
BRANCH   3   5
HETATM    5  C3  UNL     1      -0.995  -0.065   0.538  1.00  0.00    -0.082 C 
HETATM    6  C4  UNL     1      -2.130   0.344   0.629  1.00  0.00    -0.103 C 
BRANCH   6   7
HETATM    7  C5  UNL     1      -3.525   0.851   0.715  1.00  0.00     0.124 C 
BRANCH   7   8
HETATM    8  C6  UNL     1      -4.434   0.074  -0.196  1.00  0.00     0.286 C 
BRANCH   8   9
HETATM    9  N1  UNL     1      -5.789   0.514  -0.164  1.00  0.00     0.119 N 
HETATM   10  C7  UNL     1      -6.508   0.281   1.044  1.00  0.00     0.304 C 
HETATM   11  C8  UNL     1      -7.621  -0.645   0.606  1.00  0.00     0.304 C 
HETATM   12  N2  UNL     1      -7.925  -0.143  -0.721  1.00  0.00     0.114 N 
HETATM   13  C9  UNL     1      -8.497   1.172  -0.579  1.00  0.00     0.312 C 
HETATM   14  C10 UNL     1      -6.574  -0.012  -1.261  1.00  0.00     0.542 C 
ENDBRANCH   8   9
ENDBRANCH   7   8
ENDBRANCH   6   7
ENDBRANCH   3   5
ENDBRANCH   1   3
BRANCH   1  15
HETATM   15  C11 UNL     1       2.597   0.525  -0.497  1.00  0.00     0.084 C 
HETATM   16  C12 UNL     1       3.576   0.184   0.331  1.00  0.00     0.018 C 
BRANCH  16  17
HETATM   17  C13 UNL     1       4.991   0.228  -0.009  1.00  0.00     0.021 C 
HETATM   18  C14 UNL     1       5.891  -0.132   0.886  1.00  0.00     0.021 C 
HETATM   19 BR1  UNL     1       5.234  -0.690   2.583  1.00  0.00    -0.050 Br
BRANCH  18  20
HETATM   20  C15 UNL     1       7.312  -0.113   0.627  1.00  0.00    -0.019 A 
HETATM   21  C16 UNL     1       7.850   0.288  -0.576  1.00  0.00     0.016 A 
HETATM   22  C17 UNL     1       9.201   0.316  -0.849  1.00  0.00     0.043 A 
HETATM   23  C18 UNL     1      10.072  -0.082   0.143  1.00  0.00     0.116 A 
HETATM   24  F1  UNL     1      11.413  -0.071  -0.083  1.00  0.00    -0.206 F 
HETATM   25  C19 UNL     1       9.574  -0.496   1.376  1.00  0.00     0.043 A 
HETATM   26  C20 UNL     1       8.199  -0.503   1.593  1.00  0.00     0.016 A 
ENDBRANCH  18  20
ENDBRANCH  16  17
ENDBRANCH   1  15
TORSDOF 8
