REMARK  8 active torsions:
REMARK  status: ('A' for Active; 'I' for Inactive)
REMARK    1  A    between atoms: N2_5  and  C4_6 
REMARK    2  A    between atoms: C4_6  and  C5_7 
REMARK    3  A    between atoms: C5_7  and  C6_8 
REMARK    4  A    between atoms: C7_9  and  C8_10 
REMARK       I    between atoms: C8_10  and  N3_12 
REMARK    5  A    between atoms: N3_12  and  C9_13 
REMARK    6  A    between atoms: C12_16  and  N4_17 
REMARK    7  A    between atoms: N4_17  and  C13_18 
REMARK    8  A    between atoms: C14_19  and  C15_20 
ROOT
HETATM    1  C15 UNL     1      -7.061   2.513  -1.506  1.00  0.00    -0.065 C 
HETATM    2  C16 UNL     1      -6.490   2.941  -2.472  1.00  0.00    -0.019 C 
HETATM    3 BR1  UNL     1      -5.600   3.645  -3.986  1.00  0.00     0.011 Br
ENDROOT
BRANCH   1   4
HETATM    4  C14 UNL     1      -7.727   2.020  -0.341  1.00  0.00     0.082 C 
HETATM    5  C13 UNL     1      -7.300   1.202   0.591  1.00  0.00     0.098 C 
BRANCH   5   6
HETATM    6  N4  UNL     1      -6.434   0.341   1.303  1.00  0.00    -0.349 N 
HETATM    7  H14 UNL     1      -5.728   0.671   2.030  1.00  0.00     0.166 HD
BRANCH   6   8
HETATM    8  C12 UNL     1      -6.325  -1.069   1.180  1.00  0.00     0.141 A 
HETATM    9  C11 UNL     1      -5.213  -1.715   0.629  1.00  0.00     0.044 A 
HETATM   10  C10 UNL     1      -4.183  -0.898   0.217  1.00  0.00     0.068 A 
HETATM   11  C18 UNL     1      -5.150  -3.100   0.513  1.00  0.00     0.089 A 
HETATM   12  C9  UNL     1      -3.048  -1.462  -0.330  1.00  0.00     0.131 A 
HETATM   13  N7  UNL     1      -2.961  -2.809  -0.455  1.00  0.00    -0.241 NA
HETATM   14  C19 UNL     1      -3.970  -3.588  -0.050  1.00  0.00     0.151 A 
HETATM   15  N6  UNL     1      -6.169  -3.868   0.931  1.00  0.00    -0.240 NA
HETATM   16  C17 UNL     1      -7.240  -3.222   1.463  1.00  0.00     0.236 A 
HETATM   17  N5  UNL     1      -7.337  -1.890   1.592  1.00  0.00    -0.224 NA
BRANCH  12  18
HETATM   18  N3  UNL     1      -1.886  -0.788  -0.805  1.00  0.00    -0.301 N 
HETATM   19  C8  UNL     1      -0.838  -0.563   0.132  1.00  0.00     0.302 C 
HETATM   20  O1  UNL     1      -1.033  -0.986   1.320  1.00  0.00    -0.258 OA
HETATM   21  H12 UNL     1      -1.724  -0.440  -1.780  1.00  0.00     0.171 HD
BRANCH  19  22
HETATM   22  C7  UNL     1       0.392   0.107  -0.213  1.00  0.00    -0.005 C 
HETATM   23  C6  UNL     1       1.425   0.686  -0.494  1.00  0.00    -0.095 C 
BRANCH  23  24
HETATM   24  C5  UNL     1       2.675   1.370  -0.831  1.00  0.00     0.124 C 
BRANCH  24  25
HETATM   25  C4  UNL     1       3.622   1.132   0.307  1.00  0.00     0.284 C 
BRANCH  25  26
HETATM   26  N2  UNL     1       4.870   1.784   0.040  1.00  0.00     0.092 N 
HETATM   27  C3  UNL     1       5.623   1.223  -1.042  1.00  0.00     0.302 C 
HETATM   28  C2  UNL     1       5.806  -0.243  -0.800  1.00  0.00     0.302 C 
HETATM   29  N1  UNL     1       6.613  -0.426   0.376  1.00  0.00     0.087 N 
HETATM   30  C1  UNL     1       8.004  -0.344  -0.006  1.00  0.00     0.310 C 
HETATM   31  C21 UNL     1       6.248   0.359   1.506  1.00  0.00     0.302 C 
HETATM   32  C20 UNL     1       5.750   1.741   1.202  1.00  0.00     0.302 C 
ENDBRANCH  25  26
ENDBRANCH  24  25
ENDBRANCH  23  24
ENDBRANCH  19  22
ENDBRANCH  12  18
ENDBRANCH   6   8
ENDBRANCH   5   6
ENDBRANCH   1   4
TORSDOF 8
