REMARK  0 active torsions:
REMARK  status: ('A' for Active; 'I' for Inactive)
ROOT
HETATM    1  C1  UNL     1       4.298   1.898   2.401  1.00  0.00     0.130 C 
HETATM    2  N1  UNL     1       3.455   2.403   1.369  1.00  0.00    -0.251 NA
HETATM    3  C2  UNL     1       2.335   3.210   1.876  1.00  0.00     0.135 C 
HETATM    4  C3  UNL     1       1.561   1.954   1.585  1.00  0.00     0.147 C 
HETATM    5  C4  UNL     1       0.268   2.141   0.852  1.00  0.00     0.097 C 
HETATM    6  F1  UNL     1       0.140   1.129  -0.093  1.00  0.00    -0.213 F 
HETATM    7  C5  UNL     1      -0.887   2.382   0.261  1.00  0.00     0.063 C 
HETATM    8  C6  UNL     1      -2.166   2.877  -0.206  1.00  0.00     0.028 C 
HETATM    9  C7  UNL     1      -2.292   1.887  -1.114  1.00  0.00     0.111 C 
HETATM   10  N2  UNL     1      -2.913   1.162  -2.144  1.00  0.00    -0.367 N 
HETATM   11  C8  UNL     1      -3.918   0.119  -2.042  1.00  0.00     0.138 A 
HETATM   12  N3  UNL     1      -5.160   0.249  -2.387  1.00  0.00    -0.224 NA
HETATM   13  C9  UNL     1      -6.142  -0.676  -2.302  1.00  0.00     0.236 A 
HETATM   14  N4  UNL     1      -5.689  -1.851  -1.779  1.00  0.00    -0.240 NA
HETATM   15  C10 UNL     1      -4.418  -1.986  -1.427  1.00  0.00     0.089 A 
HETATM   16  C11 UNL     1      -4.198  -3.264  -0.944  1.00  0.00     0.151 A 
HETATM   17  N5  UNL     1      -2.979  -3.705  -0.512  1.00  0.00    -0.241 NA
HETATM   18  C12 UNL     1      -1.989  -2.804  -0.587  1.00  0.00     0.124 A 
HETATM   19  C13 UNL     1      -2.199  -1.532  -1.066  1.00  0.00     0.068 A 
HETATM   20  C14 UNL     1      -3.401  -1.069  -1.502  1.00  0.00     0.043 A 
HETATM   21  N6  UNL     1      -0.602  -2.761  -0.274  1.00  0.00    -0.364 N 
HETATM   22  C15 UNL     1       0.296  -2.835  -1.426  1.00  0.00     0.215 C 
HETATM   23  C16 UNL     1       1.606  -2.502  -0.938  1.00  0.00    -0.087 C 
HETATM   24  C17 UNL     1       2.653  -2.215  -0.558  1.00  0.00    -0.105 C 
HETATM   25  C18 UNL     1       3.955  -1.851  -0.114  1.00  0.00     0.095 C 
HETATM   26  C19 UNL     1       3.983  -0.300  -0.215  1.00  0.00     0.028 C 
HETATM   27  C20 UNL     1       2.836   0.176   0.618  1.00  0.00     0.110 C 
HETATM   28  N7  UNL     1       2.609   1.573   0.687  1.00  0.00    -0.238 NA
HETATM   29  H10 UNL     1      -2.747   1.246  -3.181  1.00  0.00     0.161 HD
HETATM   30  H14 UNL     1      -0.773  -2.688   0.748  1.00  0.00     0.162 HD
ENDROOT
TORSDOF 0
