REMARK  5 active torsions:
REMARK  status: ('A' for Active; 'I' for Inactive)
REMARK    1  A    between atoms: C1_2  and  C2_3 
REMARK    2  A    between atoms: C2_3  and  N1_4 
REMARK    3  A    between atoms: N1_4  and  C3_5 
REMARK    4  A    between atoms: C8_12  and  N4_13 
REMARK    5  A    between atoms: N4_13  and  C9_14 
ROOT
HETATM    1  C3  UNL     1      -2.635  -0.252  -0.167  1.00  0.00     0.029 A 
HETATM    2  C4  UNL     1      -3.196   0.758  -0.918  1.00  0.00     0.031 A 
HETATM    3  C5  UNL     1      -2.367   1.707  -1.475  1.00  0.00     0.035 A 
HETATM    4  C6  UNL     1      -1.021   1.625  -1.272  1.00  0.00     0.072 A 
HETATM    5  N2  UNL     1      -0.267   2.585  -1.846  1.00  0.00    -0.241 NA
HETATM    6  C7  UNL     1       1.068   2.576  -1.694  1.00  0.00     0.236 A 
HETATM    7  N3  UNL     1       1.654   1.618  -0.976  1.00  0.00    -0.224 NA
HETATM    8  C8  UNL     1       0.976   0.634  -0.378  1.00  0.00     0.142 A 
HETATM    9  C15 UNL     1      -0.390   0.649  -0.538  1.00  0.00     0.041 A 
HETATM   10  C16 UNL     1      -1.267  -0.270  -0.006  1.00  0.00     0.046 A 
ENDROOT
BRANCH   8  11
HETATM   11  N4  UNL     1       1.548  -0.386   0.380  1.00  0.00    -0.340 N 
HETATM   12  H8  UNL     1       0.995  -1.123   0.816  1.00  0.00     0.167 HD
BRANCH  11  13
HETATM   13  C9  UNL     1       2.910  -0.629   0.703  1.00  0.00     0.035 A 
HETATM   14  C10 UNL     1       3.397  -1.716   1.438  1.00  0.00     0.029 A 
HETATM   15  C11 UNL     1       4.709  -1.922   1.733  1.00  0.00     0.004 A 
HETATM   16  C12 UNL     1       5.667  -1.034   1.307  1.00  0.00     0.019 A 
HETATM   17  C13 UNL     1       5.252   0.048   0.585  1.00  0.00     0.013 A 
HETATM   18 BR1  UNL     1       6.618   1.249   0.018  1.00  0.00    -0.051 Br
HETATM   19  C14 UNL     1       3.910   0.210   0.313  1.00  0.00     0.048 A 
ENDBRANCH  11  13
ENDBRANCH   8  11
BRANCH   1  20
HETATM   20  N1  UNL     1      -3.468  -1.244   0.421  1.00  0.00    -0.384 N 
HETATM   21  H4  UNL     1      -2.997  -2.009   0.991  1.00  0.00     0.160 HD
BRANCH  20  22
HETATM   22  C2  UNL     1      -4.888  -1.230   0.262  1.00  0.00     0.189 C 
BRANCH  22  23
HETATM   23  C1  UNL     1      -5.552  -0.012   0.796  1.00  0.00     0.250 C 
HETATM   24  O1  UNL     1      -6.680   0.420   0.881  1.00  0.00    -0.305 OA
ENDBRANCH  22  23
ENDBRANCH  20  22
ENDBRANCH   1  20
TORSDOF 5
