REMARK  7 active torsions:
REMARK  status: ('A' for Active; 'I' for Inactive)
REMARK    1  A    between atoms: N2_6  and  C5_7 
REMARK    2  A    between atoms: C5_7  and  C6_8 
REMARK    3  A    between atoms: C6_8  and  C7_9 
REMARK    4  A    between atoms: C8_10  and  C9_11 
REMARK       I    between atoms: C9_11  and  N3_13 
REMARK    5  A    between atoms: N3_13  and  C10_14 
REMARK    6  A    between atoms: C13_17  and  N4_18 
REMARK    7  A    between atoms: N4_18  and  C14_19 
ROOT
HETATM    1  C10 UNL     1       1.167   1.614  -1.582  1.00  0.00     0.131 A 
HETATM    2  C11 UNL     1       2.384   1.083  -1.198  1.00  0.00     0.068 A 
HETATM    3  C12 UNL     1       3.605   1.481  -1.679  1.00  0.00     0.044 A 
HETATM    4  C13 UNL     1       4.816   0.961  -1.303  1.00  0.00     0.142 A 
HETATM    5  N5  UNL     1       5.861   1.518  -1.915  1.00  0.00    -0.224 NA
HETATM    6  C20 UNL     1       5.807   2.492  -2.818  1.00  0.00     0.236 A 
HETATM    7  N6  UNL     1       4.619   2.997  -3.182  1.00  0.00    -0.240 NA
HETATM    8  C21 UNL     1       3.515   2.489  -2.610  1.00  0.00     0.089 A 
HETATM    9  C22 UNL     1       2.321   3.030  -3.007  1.00  0.00     0.151 A 
HETATM   10  N7  UNL     1       1.160   2.595  -2.496  1.00  0.00    -0.241 NA
ENDROOT
BRANCH   1  11
HETATM   11  N3  UNL     1      -0.049   1.103  -0.996  1.00  0.00    -0.301 N 
HETATM   12  C9  UNL     1      -0.497   1.764   0.206  1.00  0.00     0.302 C 
HETATM   13  O1  UNL     1       0.165   2.723   0.674  1.00  0.00    -0.258 OA
HETATM   14  H14 UNL     1      -0.533   0.300  -1.460  1.00  0.00     0.171 HD
BRANCH  12  15
HETATM   15  C8  UNL     1      -1.700   1.250   0.776  1.00  0.00    -0.005 C 
HETATM   16  C7  UNL     1      -2.724   0.826   1.241  1.00  0.00    -0.095 C 
BRANCH  16  17
HETATM   17  C6  UNL     1      -4.002   0.306   1.794  1.00  0.00     0.124 C 
BRANCH  17  18
HETATM   18  C5  UNL     1      -4.575  -0.737   0.876  1.00  0.00     0.287 C 
BRANCH  18  19
HETATM   19  N2  UNL     1      -5.825  -1.296   1.323  1.00  0.00     0.124 N 
HETATM   20  C2  UNL     1      -6.909  -0.403   0.984  1.00  0.00     0.450 C 
HETATM   21  C1  UNL     1      -7.166   0.700   1.956  1.00  0.00     0.077 C 
HETATM   22  N1  UNL     1      -8.058  -1.304   0.916  1.00  0.00     0.118 N 
HETATM   23  C3  UNL     1      -7.569  -2.357   0.071  1.00  0.00     0.302 C 
HETATM   24  H5  UNL     1      -8.169  -1.684   1.884  1.00  0.00     0.318 HD
HETATM   25  C4  UNL     1      -6.109  -2.389   0.358  1.00  0.00     0.305 C 
ENDBRANCH  18  19
ENDBRANCH  17  18
ENDBRANCH  16  17
ENDBRANCH  12  15
ENDBRANCH   1  11
BRANCH   4  26
HETATM   26  N4  UNL     1       4.854  -0.072  -0.344  1.00  0.00    -0.340 N 
HETATM   27  H16 UNL     1       3.986  -0.459   0.073  1.00  0.00     0.167 HD
BRANCH  26  28
HETATM   28  C14 UNL     1       5.952  -0.766   0.224  1.00  0.00     0.035 A 
HETATM   29  C15 UNL     1       5.909  -1.713   1.197  1.00  0.00     0.032 A 
HETATM   30  C16 UNL     1       6.989  -2.367   1.729  1.00  0.00     0.046 A 
HETATM   31  C17 UNL     1       8.251  -2.069   1.266  1.00  0.00     0.138 A 
HETATM   32  F1  UNL     1       9.273  -2.752   1.834  1.00  0.00    -0.204 F 
HETATM   33  C18 UNL     1       8.348  -1.113   0.277  1.00  0.00     0.074 A 
HETATM   34 CL1  UNL     1       9.992  -0.785  -0.264  1.00  0.00    -0.081 Cl
HETATM   35  C19 UNL     1       7.241  -0.473  -0.237  1.00  0.00     0.056 A 
ENDBRANCH  26  28
ENDBRANCH   4  26
TORSDOF 7
