REMARK  9 active torsions:
REMARK  status: ('A' for Active; 'I' for Inactive)
REMARK    1  A    between atoms: N2_5  and  C4_6 
REMARK    2  A    between atoms: C4_6  and  C5_7 
REMARK    3  A    between atoms: C5_7  and  C6_8 
REMARK    4  A    between atoms: C6_8  and  C7_9 
REMARK    5  A    between atoms: C7_9  and  C8_10 
REMARK       I    between atoms: C8_10  and  N3_12 
REMARK    6  A    between atoms: N3_12  and  C9_13 
REMARK    7  A    between atoms: N4_17  and  C13_18 
REMARK    8  A    between atoms: C13_18  and  N5_19 
REMARK    9  A    between atoms: N5_19  and  C14_20 
ROOT
HETATM    1  C9  UNL     1      -1.428  -0.482   0.083  1.00  0.00     0.127 A 
HETATM    2  C10 UNL     1      -2.287  -1.018   0.933  1.00  0.00     0.030 A 
HETATM    3  C11 UNL     1      -3.659  -1.414   0.605  1.00  0.00     0.091 A 
HETATM    4  C12 UNL     1      -4.012  -1.137  -0.804  1.00  0.00     0.051 A 
HETATM    5  N4  UNL     1      -5.170  -1.393  -1.297  1.00  0.00    -0.273 NA
HETATM    6  C20 UNL     1      -3.016  -0.542  -1.702  1.00  0.00     0.145 A 
HETATM    7  N6  UNL     1      -1.843  -0.256  -1.257  1.00  0.00    -0.242 NA
ENDROOT
BRANCH   1   8
HETATM    8  N3  UNL     1      -0.083  -0.103   0.443  1.00  0.00    -0.301 N 
HETATM    9  C8  UNL     1       1.222  -0.484   0.011  1.00  0.00     0.302 C 
HETATM   10  O1  UNL     1       1.424  -1.342  -0.885  1.00  0.00    -0.258 OA
HETATM   11  H12 UNL     1      -0.246   0.620   1.205  1.00  0.00     0.171 HD
BRANCH   9  12
HETATM   12  C7  UNL     1       2.299   0.199   0.690  1.00  0.00    -0.005 C 
BRANCH  12  13
HETATM   13  C6  UNL     1       3.224   0.768   1.277  1.00  0.00    -0.095 C 
BRANCH  13  14
HETATM   14  C5  UNL     1       4.288   1.452   1.967  1.00  0.00     0.124 C 
BRANCH  14  15
HETATM   15  C4  UNL     1       5.613   1.268   1.350  1.00  0.00     0.284 C 
BRANCH  15  16
HETATM   16  N2  UNL     1       6.110  -0.049   1.351  1.00  0.00     0.092 N 
HETATM   17  C3  UNL     1       7.540  -0.056   0.928  1.00  0.00     0.291 C 
HETATM   18  C2  UNL     1       7.764  -0.697  -0.388  1.00  0.00     0.146 C 
HETATM   19  N1  UNL     1       6.758  -0.532  -1.380  1.00  0.00    -0.413 N 
HETATM   20  C1  UNL     1       6.942   0.532  -2.305  1.00  0.00     0.143 C 
HETATM   21  C22 UNL     1       5.409  -0.658  -0.852  1.00  0.00     0.146 C 
HETATM   22  C21 UNL     1       5.446  -1.060   0.606  1.00  0.00     0.291 C 
ENDBRANCH  15  16
ENDBRANCH  14  15
ENDBRANCH  13  14
ENDBRANCH  12  13
ENDBRANCH   9  12
ENDBRANCH   1   8
BRANCH   5  23
HETATM   23  C13 UNL     1      -6.197  -1.981  -0.457  1.00  0.00     0.270 C 
BRANCH  23  24
HETATM   24  N5  UNL     1      -6.786  -0.971   0.410  1.00  0.00    -0.372 N 
HETATM   25  H18 UNL     1      -6.708  -1.099   1.459  1.00  0.00     0.161 HD
BRANCH  24  26
HETATM   26  C14 UNL     1      -7.464   0.183  -0.005  1.00  0.00     0.029 A 
HETATM   27  C15 UNL     1      -8.010   1.129   0.865  1.00  0.00     0.032 A 
HETATM   28  C16 UNL     1      -8.657   2.224   0.382  1.00  0.00     0.044 A 
HETATM   29  C17 UNL     1      -8.823   2.486  -0.956  1.00  0.00     0.116 A 
HETATM   30  F1  UNL     1      -9.469   3.582  -1.415  1.00  0.00    -0.206 F 
HETATM   31  C18 UNL     1      -8.297   1.575  -1.841  1.00  0.00     0.044 A 
HETATM   32  C19 UNL     1      -7.630   0.445  -1.365  1.00  0.00     0.032 A 
ENDBRANCH  24  26
ENDBRANCH  23  24
ENDBRANCH   5  23
TORSDOF 9
