REMARK  5 active torsions:
REMARK  status: ('A' for Active; 'I' for Inactive)
REMARK    1  A    between atoms: C1_2  and  C2_3 
REMARK       I    between atoms: C1_2  and  N1_7 
REMARK    2  A    between atoms: C3_4  and  C4_5 
REMARK    3  A    between atoms: C4_5  and  O2_6 
REMARK    4  A    between atoms: C11_14  and  N2_15 
REMARK    5  A    between atoms: N2_15  and  C12_16 
ROOT
HETATM    1  O1  UNL     1       2.614   0.053  -2.390  1.00  0.00    -0.258 OA
HETATM    2  C1  UNL     1       2.730  -0.075  -1.126  1.00  0.00     0.299 C 
HETATM    3  N1  UNL     1       1.709  -0.724  -0.376  1.00  0.00    -0.334 N 
HETATM    4  C5  UNL     1       2.064  -0.773   1.030  1.00  0.00     0.155 C 
HETATM    5  C6  UNL     1       0.972  -1.321   1.917  1.00  0.00     0.002 C 
HETATM    6  C7  UNL     1      -0.024  -2.116   1.416  1.00  0.00    -0.040 C 
HETATM    7  C8  UNL     1       0.064  -3.124   0.290  1.00  0.00     0.021 C 
HETATM    8  C9  UNL     1      -0.333  -2.022  -0.426  1.00  0.00     0.006 C 
HETATM    9  C10 UNL     1       0.562  -1.143  -1.279  1.00  0.00     0.169 C 
HETATM   10  C11 UNL     1      -1.632  -1.309  -0.298  1.00  0.00     0.131 C 
HETATM   11  N3  UNL     1      -2.307  -1.939   0.669  1.00  0.00    -0.268 NA
HETATM   12  C18 UNL     1      -1.462  -2.052   1.929  1.00  0.00     0.189 C 
ENDROOT
BRANCH  10  13
HETATM   13  N2  UNL     1      -2.075  -0.237  -1.119  1.00  0.00    -0.341 N 
HETATM   14  H10 UNL     1      -1.638  -0.253  -2.087  1.00  0.00     0.167 HD
BRANCH  13  15
HETATM   15  C12 UNL     1      -3.017   0.697  -0.626  1.00  0.00     0.035 A 
HETATM   16  C13 UNL     1      -2.572   1.959  -0.311  1.00  0.00     0.032 A 
HETATM   17  C14 UNL     1      -3.511   2.855   0.161  1.00  0.00     0.046 A 
HETATM   18  C15 UNL     1      -4.850   2.475   0.305  1.00  0.00     0.138 A 
HETATM   19  F1  UNL     1      -5.744   3.372   0.768  1.00  0.00    -0.204 F 
HETATM   20  C16 UNL     1      -5.260   1.179  -0.028  1.00  0.00     0.074 A 
HETATM   21 CL1  UNL     1      -6.929   0.685   0.148  1.00  0.00    -0.081 Cl
HETATM   22  C17 UNL     1      -4.326   0.272  -0.504  1.00  0.00     0.056 A 
ENDBRANCH  13  15
ENDBRANCH  10  13
BRANCH   2  23
HETATM   23  C2  UNL     1       3.942   0.481  -0.595  1.00  0.00    -0.003 C 
HETATM   24  C3  UNL     1       4.967   0.942  -0.160  1.00  0.00    -0.071 C 
BRANCH  24  25
HETATM   25  C4  UNL     1       6.231   1.509   0.349  1.00  0.00     0.258 C 
BRANCH  25  26
HETATM   26  O2  UNL     1       6.051   1.949   1.654  1.00  0.00    -0.389 OA
HETATM   27  H3  UNL     1       5.491   2.764   1.616  1.00  0.00     0.210 HD
ENDBRANCH  25  26
ENDBRANCH  24  25
ENDBRANCH   2  23
TORSDOF 5
