REMARK  8 active torsions:
REMARK  status: ('A' for Active; 'I' for Inactive)
REMARK    1  A    between atoms: N1_2  and  C2_3 
REMARK    2  A    between atoms: C2_3  and  O1_4 
REMARK    3  A    between atoms: C2_3  and  C3_5 
REMARK    4  A    between atoms: C2_3  and  N3_9 
REMARK    5  A    between atoms: C3_5  and  N2_6 
REMARK    6  A    between atoms: N3_9  and  C7_11 
REMARK    7  A    between atoms: C7_11  and  C8_12 
REMARK    8  A    between atoms: C13_19  and  C14_20 
ROOT
HETATM    1  C8  UNL     1       0.454  -0.575   1.197  1.00  0.00    -0.010 A 
HETATM    2  C9  UNL     1       1.348  -0.357   0.259  1.00  0.00     0.027 A 
HETATM    3  C10 UNL     1       2.432  -0.449   1.230  1.00  0.00     0.024 A 
HETATM    4  C11 UNL     1       1.516  -0.683   2.233  1.00  0.00     0.078 A 
HETATM    5  N4  UNL     1       1.989  -0.873   3.485  1.00  0.00    -0.241 NA
HETATM    6  C12 UNL     1       3.329  -0.824   3.697  1.00  0.00     0.234 A 
HETATM    7  N5  UNL     1       4.227  -0.592   2.706  1.00  0.00    -0.240 NA
HETATM    8  C13 UNL     1       3.787  -0.401   1.458  1.00  0.00     0.084 A 
ENDROOT
BRANCH   1   9
HETATM    9  C7  UNL     1      -0.999  -0.718   1.446  1.00  0.00     0.162 C 
BRANCH   9  10
HETATM   10  N3  UNL     1      -1.827  -0.644   0.335  1.00  0.00    -0.364 N 
HETATM   11  C6  UNL     1      -1.721  -1.821  -0.518  1.00  0.00     0.148 C 
BRANCH  10  12
HETATM   12  C2  UNL     1      -2.073   0.498  -0.413  1.00  0.00     0.234 C 
BRANCH  12  13
HETATM   13  N1  UNL     1      -1.852   1.787   0.130  1.00  0.00    -0.378 N 
HETATM   14  C1  UNL     1      -2.819   2.330   0.997  1.00  0.00     0.144 C 
HETATM   15  H4  UNL     1      -0.875   2.060   0.248  1.00  0.00     0.157 HD
ENDBRANCH  12  13
BRANCH  12  16
HETATM   16  O1  UNL     1      -1.156   0.428  -1.522  1.00  0.00    -0.353 OA
HETATM   17  H5  UNL     1      -1.593   0.733  -2.339  1.00  0.00     0.214 HD
ENDBRANCH  12  16
BRANCH  12  18
HETATM   18  C3  UNL     1      -3.422   0.403  -1.125  1.00  0.00     0.356 C 
BRANCH  18  19
HETATM   19  N2  UNL     1      -4.564   0.478  -0.295  1.00  0.00     0.086 N 
HETATM   20  C4  UNL     1      -4.704  -0.681   0.544  1.00  0.00     0.309 C 
HETATM   21  C5  UNL     1      -5.775   0.495  -1.136  1.00  0.00     0.309 C 
ENDBRANCH  18  19
ENDBRANCH  12  18
ENDBRANCH  10  12
ENDBRANCH   9  10
ENDBRANCH   1   9
BRANCH   8  22
HETATM   22  C14 UNL     1       4.815  -0.152   0.461  1.00  0.00     0.034 A 
HETATM   23  C15 UNL     1       4.691   1.042  -0.241  1.00  0.00     0.017 A 
HETATM   24  C16 UNL     1       5.638   1.342  -1.190  1.00  0.00     0.003 A 
HETATM   25  C17 UNL     1       6.688   0.514  -1.464  1.00  0.00     0.027 A 
HETATM   26  C18 UNL     1       6.760  -0.655  -0.739  1.00  0.00     0.073 A 
HETATM   27 CL1  UNL     1       8.069  -1.805  -0.998  1.00  0.00    -0.081 Cl
HETATM   28  C19 UNL     1       5.861  -1.062   0.242  1.00  0.00     0.150 A 
HETATM   29  F1  UNL     1       5.956  -2.214   0.943  1.00  0.00    -0.203 F 
ENDBRANCH   8  22
TORSDOF 8
