REMARK  4 active torsions:
REMARK  status: ('A' for Active; 'I' for Inactive)
REMARK    1  A    between atoms: C1_2  and  C2_3 
REMARK       I    between atoms: C1_2  and  N1_7 
REMARK    2  A    between atoms: C3_4  and  C4_5 
REMARK    3  A    between atoms: C4_5  and  O2_6 
REMARK    4  A    between atoms: N1_7  and  C5_8 
ROOT
HETATM    1  C5  UNL     1       1.193  -0.997  -0.270  1.00  0.00     0.036 A 
HETATM    2  C6  UNL     1       0.904  -2.103  -1.037  1.00  0.00     0.032 A 
HETATM    3  C7  UNL     1      -0.406  -2.525  -1.133  1.00  0.00     0.034 A 
HETATM    4  C8  UNL     1      -1.401  -1.838  -0.462  1.00  0.00     0.066 A 
HETATM    5  C9  UNL     1      -1.162  -0.723   0.321  1.00  0.00     0.001 A 
HETATM    6  C10 UNL     1       0.160  -0.330   0.393  1.00  0.00     0.041 A 
HETATM    7  C11 UNL     1      -2.424  -0.242   0.884  1.00  0.00     0.169 A 
HETATM    8  N2  UNL     1      -2.772   1.061   0.352  1.00  0.00    -0.385 N 
HETATM    9  C12 UNL     1      -3.998   1.769   0.601  1.00  0.00     0.084 C 
HETATM   10  C13 UNL     1      -5.237   1.281   0.779  1.00  0.00     0.017 C 
HETATM   11  C14 UNL     1      -5.632  -0.144   0.757  1.00  0.00     0.003 C 
HETATM   12  C15 UNL     1      -4.857  -1.224   0.562  1.00  0.00     0.029 C 
HETATM   13  C16 UNL     1      -3.401  -1.228   0.318  1.00  0.00     0.062 A 
HETATM   14  N3  UNL     1      -2.812  -2.118  -0.435  1.00  0.00    -0.251 NA
HETATM   15  H9  UNL     1      -2.104   1.585  -0.282  1.00  0.00     0.160 HD
ENDROOT
BRANCH   1  16
HETATM   16  N1  UNL     1       2.475  -0.436  -0.067  1.00  0.00    -0.316 N 
HETATM   17  C1  UNL     1       3.597  -0.516   0.798  1.00  0.00     0.301 C 
HETATM   18  O1  UNL     1       3.723  -1.269   1.790  1.00  0.00    -0.258 OA
HETATM   19  H4  UNL     1       2.468   0.238  -0.882  1.00  0.00     0.170 HD
BRANCH  17  20
HETATM   20  C2  UNL     1       4.697   0.358   0.500  1.00  0.00    -0.003 C 
HETATM   21  C3  UNL     1       5.621   1.118   0.254  1.00  0.00    -0.071 C 
BRANCH  21  22
HETATM   22  C4  UNL     1       6.714   2.046  -0.047  1.00  0.00     0.258 C 
BRANCH  22  23
HETATM   23  O2  UNL     1       7.129   2.747   1.072  1.00  0.00    -0.389 OA
HETATM   24  H3  UNL     1       6.511   2.531   1.827  1.00  0.00     0.210 HD
ENDBRANCH  22  23
ENDBRANCH  21  22
ENDBRANCH  17  20
ENDBRANCH   1  16
TORSDOF 4
