REMARK  4 active torsions:
REMARK  status: ('A' for Active; 'I' for Inactive)
REMARK    1  A    between atoms: N1_2  and  C2_3 
REMARK    2  A    between atoms: C2_3  and  C3_4 
REMARK    3  A    between atoms: C3_4  and  N2_5 
REMARK    4  A    between atoms: C15_21  and  N4_22 
ROOT
HETATM    1  N2  UNL     1       2.241   1.240   0.575  1.00  0.00    -0.270 NA
HETATM    2  C4  UNL     1       1.088   0.806   0.238  1.00  0.00     0.137 A 
HETATM    3  N3  UNL     1       0.893  -0.338  -0.583  1.00  0.00    -0.307 N 
HETATM    4  C5  UNL     1      -0.438  -0.725  -0.895  1.00  0.00     0.258 A 
HETATM    5  O1  UNL     1      -0.390  -1.742  -1.628  1.00  0.00    -0.267 OA
HETATM    6  C6  UNL     1      -1.668  -0.074  -0.463  1.00  0.00     0.046 A 
HETATM    7  C7  UNL     1      -2.978  -0.429  -0.882  1.00  0.00     0.023 A 
HETATM    8  C8  UNL     1      -3.999   0.495  -0.983  1.00  0.00     0.046 A 
HETATM    9 CL1  UNL     1      -3.783   2.248  -0.797  1.00  0.00    -0.083 Cl
HETATM   10  C9  UNL     1      -5.315   0.243  -1.288  1.00  0.00     0.025 A 
HETATM   11  C10 UNL     1      -5.704  -1.061  -1.528  1.00  0.00     0.003 A 
HETATM   12  C11 UNL     1      -4.736  -2.055  -1.447  1.00  0.00     0.025 A 
HETATM   13  C12 UNL     1      -3.442  -1.699  -1.133  1.00  0.00     0.046 A 
HETATM   14 CL2  UNL     1      -2.440  -3.129  -1.008  1.00  0.00    -0.083 Cl
HETATM   15  C13 UNL     1      -1.388   0.973   0.292  1.00  0.00     0.034 A 
HETATM   16  C14 UNL     1      -0.103   1.504   0.704  1.00  0.00     0.025 A 
HETATM   17  C15 UNL     1       0.050   2.573   1.469  1.00  0.00     0.095 C 
HETATM   18  H9  UNL     1       1.776  -0.795  -0.885  1.00  0.00     0.170 HD
ENDROOT
BRANCH  17  19
HETATM   19  N4  UNL     1      -1.054   3.333   1.982  1.00  0.00    -0.407 N 
HETATM   20  H15 UNL     1      -1.557   4.101   1.487  1.00  0.00     0.155 HD
HETATM   21  H16 UNL     1      -1.184   2.901   2.944  1.00  0.00     0.155 HD
ENDBRANCH  17  19
BRANCH   1  22
HETATM   22  C3  UNL     1       3.512   0.694   0.217  1.00  0.00     0.181 C 
BRANCH  22  23
HETATM   23  C2  UNL     1       3.830  -0.427   1.187  1.00  0.00     0.290 C 
BRANCH  23  24
HETATM   24  N1  UNL     1       5.115  -1.035   0.883  1.00  0.00     0.080 N 
HETATM   25  C1  UNL     1       5.130  -1.763  -0.353  1.00  0.00     0.306 C 
HETATM   26  H4  UNL     1       5.356  -1.634   1.705  1.00  0.00     0.315 HD
ENDBRANCH  23  24
ENDBRANCH  22  23
ENDBRANCH   1  22
TORSDOF 4
