REMARK  4 active torsions:
REMARK  status: ('A' for Active; 'I' for Inactive)
REMARK    1  A    between atoms: C1_2  and  C2_3 
REMARK    2  A    between atoms: C1_2  and  C5_7 
REMARK    3  A    between atoms: C3_4  and  C4_5 
REMARK    4  A    between atoms: C4_5  and  O2_6 
ROOT
HETATM    1  C5  UNL     1       1.622  -0.039   0.041  1.00  0.00     0.024 A 
HETATM    2  C6  UNL     1       2.116  -1.052  -0.754  1.00  0.00     0.017 A 
HETATM    3  C7  UNL     1       1.221  -1.868  -1.413  1.00  0.00     0.011 A 
HETATM    4  C8  UNL     1      -0.124  -1.641  -1.253  1.00  0.00    -0.026 A 
HETATM    5  C9  UNL     1      -0.655  -0.645  -0.472  1.00  0.00     0.002 A 
HETATM    6  C10 UNL     1       0.266   0.141   0.164  1.00  0.00     0.030 A 
HETATM    7  C11 UNL     1      -2.100  -0.619  -0.472  1.00  0.00     0.072 A 
HETATM    8  C12 UNL     1      -3.073   0.218   0.176  1.00  0.00    -0.005 A 
HETATM    9  C13 UNL     1      -2.920   1.277   1.017  1.00  0.00     0.017 A 
HETATM   10  C14 UNL     1      -3.901   2.029   1.599  1.00  0.00     0.045 A 
HETATM   11  C15 UNL     1      -5.214   1.720   1.337  1.00  0.00     0.138 A 
HETATM   12  F1  UNL     1      -6.231   2.413   1.871  1.00  0.00    -0.204 F 
HETATM   13  C16 UNL     1      -5.471   0.665   0.497  1.00  0.00     0.073 A 
HETATM   14 CL1  UNL     1      -7.134   0.265   0.158  1.00  0.00    -0.081 Cl
HETATM   15  C17 UNL     1      -4.420  -0.033  -0.040  1.00  0.00     0.040 A 
HETATM   16  N1  UNL     1      -2.425  -1.580  -1.238  1.00  0.00    -0.283 NA
HETATM   17  C18 UNL     1      -1.335  -2.301  -1.793  1.00  0.00     0.189 A 
ENDROOT
BRANCH   1  18
HETATM   18  C1  UNL     1       2.575   0.829   0.742  1.00  0.00     0.235 C 
HETATM   19  O1  UNL     1       2.150   1.770   1.481  1.00  0.00    -0.278 OA
BRANCH  18  20
HETATM   20  C2  UNL     1       3.979   0.632   0.607  1.00  0.00    -0.021 C 
HETATM   21  C3  UNL     1       5.186   0.483   0.496  1.00  0.00    -0.072 C 
BRANCH  21  22
HETATM   22  C4  UNL     1       6.637   0.315   0.385  1.00  0.00     0.258 C 
BRANCH  22  23
HETATM   23  O2  UNL     1       7.237   1.092   1.402  1.00  0.00    -0.389 OA
HETATM   24  H3  UNL     1       6.596   1.157   2.159  1.00  0.00     0.210 HD
ENDBRANCH  22  23
ENDBRANCH  21  22
ENDBRANCH  18  20
ENDBRANCH   1  18
TORSDOF 4
