REMARK  6 active torsions:
REMARK  status: ('A' for Active; 'I' for Inactive)
REMARK    1  A    between atoms: C2_2  and  C3_3 
REMARK    2  A    between atoms: C7_10  and  C8_11 
REMARK    3  A    between atoms: C10_14  and  N2_15 
REMARK       I    between atoms: N2_15  and  C11_16 
REMARK    4  A    between atoms: C11_16  and  C12_18 
REMARK    5  A    between atoms: C13_19  and  C14_20 
REMARK    6  A    between atoms: C14_20  and  O3_21 
ROOT
HETATM    1  C8  UNL     1       0.354  -1.939   0.589  1.00  0.00     0.012 C 
HETATM    2  C9  UNL     1       0.050  -2.620   1.634  1.00  0.00     0.217 C 
HETATM    3 CL1  UNL     1      -0.269  -3.600   3.008  1.00  0.00    -0.230 Cl
ENDROOT
BRANCH   1   4
HETATM    4  C7  UNL     1       0.445  -1.015  -0.475  1.00  0.00    -0.032 C 
HETATM    5  B1  UNL     1       1.696  -1.313  -1.521  1.00  0.00     0.482 B 
HETATM    6  C6  UNL     1       2.151   0.224  -2.105  1.00  0.00     0.179 A 
HETATM    7  H6  UNL     1       2.672  -1.744  -0.912  1.00  0.00     0.024 HD
HETATM    8  N1  UNL     1       1.465  -0.685  -2.794  1.00  0.00    -0.058 N 
HETATM    9  C3  UNL     1       2.849   1.318  -1.336  1.00  0.00    -0.010 A 
HETATM   10  O1  UNL     1       1.941   0.685  -2.012  1.00  0.00     0.000 OA
HETATM   11  C4  UNL     1       0.732   0.720  -2.543  1.00  0.00     0.236 A 
HETATM   12  C5  UNL     1       0.162  -0.325  -3.242  1.00  0.00     0.205 A 
HETATM   13  C16 UNL     1      -0.228   1.786  -2.522  1.00  0.00     0.138 C 
HETATM   14  C15 UNL     1      -0.656   1.132  -1.408  1.00  0.00     0.070 C 
HETATM   15  F1  UNL     1       0.284   2.314  -3.603  1.00  0.00    -0.208 F 
HETATM   16  C10 UNL     1      -0.394  -0.006  -0.571  1.00  0.00     0.036 C 
BRANCH   9  17
HETATM   17  C2  UNL     1       3.985   0.592  -1.174  1.00  0.00     0.028 C 
HETATM   18  C1  UNL     1       5.320   0.194  -0.768  1.00  0.00     0.011 C 
ENDBRANCH   9  17
BRANCH  16  19
HETATM   19  N2  UNL     1      -1.379   0.032   0.447  1.00  0.00    -0.317 N 
HETATM   20  C11 UNL     1      -2.448   0.886   0.749  1.00  0.00     0.301 C 
HETATM   21  O2  UNL     1      -2.605   1.841  -0.039  1.00  0.00    -0.258 OA
HETATM   22  H9  UNL     1      -1.352  -0.721   1.153  1.00  0.00     0.170 HD
BRANCH  20  23
HETATM   23  C12 UNL     1      -3.319   0.724   1.854  1.00  0.00    -0.003 C 
HETATM   24  C13 UNL     1      -4.055   0.591   2.821  1.00  0.00    -0.071 C 
BRANCH  24  25
HETATM   25  C14 UNL     1      -4.925   0.429   4.005  1.00  0.00     0.258 C 
BRANCH  25  26
HETATM   26  O3  UNL     1      -5.671  -0.726   3.793  1.00  0.00    -0.389 OA
HETATM   27  H12 UNL     1      -6.396  -0.576   3.168  1.00  0.00     0.210 HD
ENDBRANCH  25  26
ENDBRANCH  24  25
ENDBRANCH  20  23
ENDBRANCH  16  19
ENDBRANCH   1   4
TORSDOF 6
