REMARK  6 active torsions:
REMARK  status: ('A' for Active; 'I' for Inactive)
REMARK    1  A    between atoms: C2_2  and  N1_3 
REMARK    2  A    between atoms: C9_13  and  N5_14 
REMARK       I    between atoms: N5_14  and  C10_15 
REMARK    3  A    between atoms: C10_15  and  C11_17 
REMARK    4  A    between atoms: C12_18  and  C13_19 
REMARK    5  A    between atoms: C13_19  and  C14_20 
REMARK    6  A    between atoms: C14_20  and  N6_21 
ROOT
HETATM    1  N1  UNL     1      -5.028   0.381   1.647  1.00  0.00    -0.295 NA
HETATM    2  C3  UNL     1      -4.457  -0.505   0.935  1.00  0.00     0.052 C 
HETATM    3  C4  UNL     1      -5.499  -1.470   0.387  1.00  0.00     0.123 C 
HETATM    4  C5  UNL     1      -6.608  -1.596   1.497  1.00  0.00     0.038 C 
HETATM    5  N2  UNL     1      -6.224  -0.980  -0.711  1.00  0.00    -0.395 N 
HETATM    6  C6  UNL     1      -5.709  -0.547  -1.913  1.00  0.00     0.268 C 
HETATM    7  N3  UNL     1      -5.024  -1.433  -2.788  1.00  0.00    -0.248 NA
HETATM    8  C7  UNL     1      -3.829  -1.827  -2.694  1.00  0.00     0.205 C 
HETATM    9  N4  UNL     1      -3.906  -0.972  -1.528  1.00  0.00    -0.228 NA
HETATM   10  C8  UNL     1      -2.797  -0.938  -0.878  1.00  0.00     0.083 C 
HETATM   11  C9  UNL     1      -1.562  -1.088  -1.648  1.00  0.00     0.262 C 
HETATM   12  N7  UNL     1      -1.634  -2.387  -2.316  1.00  0.00    -0.227 NA
HETATM   13  C20 UNL     1      -2.653  -2.553  -3.090  1.00  0.00     0.255 C 
HETATM   14  F1  UNL     1      -3.131  -3.160  -4.200  1.00  0.00    -0.180 F 
HETATM   15  C21 UNL     1      -3.052  -0.782   0.537  1.00  0.00     0.183 C 
HETATM   16 CL1  UNL     1      -2.007   0.578   1.088  1.00  0.00    -0.112 Cl
HETATM   17  H10 UNL     1      -7.180  -0.605  -0.519  1.00  0.00     0.155 HD
ENDROOT
BRANCH  11  18
HETATM   18  N5  UNL     1      -0.369  -0.961  -0.874  1.00  0.00    -0.322 N 
HETATM   19  C10 UNL     1       0.733  -0.066  -1.026  1.00  0.00     0.298 C 
HETATM   20  O1  UNL     1       0.754   0.784  -1.959  1.00  0.00    -0.258 OA
HETATM   21  H14 UNL     1      -0.343  -1.644  -0.092  1.00  0.00     0.165 HD
BRANCH  19  22
HETATM   22  C11 UNL     1       1.833  -0.155  -0.080  1.00  0.00    -0.006 C 
HETATM   23  C12 UNL     1       2.742  -0.248   0.713  1.00  0.00    -0.095 C 
BRANCH  23  24
HETATM   24  C13 UNL     1       3.846  -0.356   1.684  1.00  0.00     0.114 C 
BRANCH  24  25
HETATM   25  C14 UNL     1       5.133  -0.738   1.021  1.00  0.00     0.129 C 
BRANCH  25  26
HETATM   26  N6  UNL     1       5.572   0.168   0.030  1.00  0.00    -0.412 N 
HETATM   27  C15 UNL     1       6.816  -0.197  -0.601  1.00  0.00     0.117 C 
HETATM   28  C16 UNL     1       7.998   0.446   0.097  1.00  0.00     0.019 C 
HETATM   29  C17 UNL     1       7.830   1.940  -0.046  1.00  0.00     0.003 C 
HETATM   30  C18 UNL     1       6.562   2.328   0.674  1.00  0.00     0.019 C 
HETATM   31  C19 UNL     1       5.368   1.543   0.207  1.00  0.00     0.117 C 
ENDBRANCH  25  26
ENDBRANCH  24  25
ENDBRANCH  23  24
ENDBRANCH  19  22
ENDBRANCH  11  18
BRANCH   1  32
HETATM   32  C2  UNL     1      -4.484   1.465   2.348  1.00  0.00     0.144 C 
HETATM   33  C1  UNL     1      -4.356   2.724   1.482  1.00  0.00     0.028 C 
ENDBRANCH   1  32
TORSDOF 6
