REMARK  7 active torsions:
REMARK  status: ('A' for Active; 'I' for Inactive)
REMARK    1  A    between atoms: C4_5  and  N1_6 
REMARK    2  A    between atoms: N1_6  and  C5_7 
REMARK    3  A    between atoms: C10_14  and  O1_15 
REMARK    4  A    between atoms: O1_15  and  C11_16 
REMARK    5  A    between atoms: C11_16  and  C12_17 
REMARK    6  A    between atoms: C12_17  and  C13_18 
REMARK    7  A    between atoms: C13_18  and  N4_19 
ROOT
HETATM    1  C5  UNL     1      -3.364   0.358  -1.947  1.00  0.00     0.138 A 
HETATM    2  N2  UNL     1      -3.828  -0.023  -3.144  1.00  0.00    -0.224 NA
HETATM    3  C6  UNL     1      -3.077  -0.807  -3.936  1.00  0.00     0.235 A 
HETATM    4  N3  UNL     1      -1.865  -1.215  -3.545  1.00  0.00    -0.241 NA
HETATM    5  C7  UNL     1      -1.329  -0.874  -2.354  1.00  0.00     0.071 A 
HETATM    6  C8  UNL     1      -2.121  -0.073  -1.571  1.00  0.00     0.023 A 
HETATM    7  C9  UNL     1      -1.430   0.231  -0.301  1.00  0.00     0.109 A 
HETATM    8  C10 UNL     1      -0.138  -0.488  -0.431  1.00  0.00     0.053 A 
HETATM    9  C18 UNL     1      -0.089  -1.120  -1.617  1.00  0.00     0.065 A 
ENDROOT
BRANCH   1  10
HETATM   10  N1  UNL     1      -4.285   1.174  -1.256  1.00  0.00    -0.340 N 
HETATM   11  H3  UNL     1      -4.249   2.215  -1.385  1.00  0.00     0.167 HD
BRANCH  10  12
HETATM   12  C4  UNL     1      -5.274   0.668  -0.380  1.00  0.00     0.035 A 
HETATM   13  C3  UNL     1      -5.201   0.196   0.909  1.00  0.00     0.032 A 
HETATM   14  C2  UNL     1      -6.317  -0.272   1.563  1.00  0.00     0.046 A 
HETATM   15  C1  UNL     1      -7.562  -0.294   0.969  1.00  0.00     0.138 A 
HETATM   16  F1  UNL     1      -8.613  -0.767   1.670  1.00  0.00    -0.204 F 
HETATM   17  C20 UNL     1      -7.653   0.182  -0.336  1.00  0.00     0.074 A 
HETATM   18  C19 UNL     1      -6.525   0.660  -1.012  1.00  0.00     0.056 A 
HETATM   19 CL1  UNL     1      -9.248   0.128  -1.037  1.00  0.00    -0.081 Cl
ENDBRANCH  10  12
ENDBRANCH   1  10
BRANCH   8  20
HETATM   20  O1  UNL     1       1.010  -0.698   0.291  1.00  0.00    -0.355 OA
BRANCH  20  21
HETATM   21  C11 UNL     1       1.467   0.031   1.381  1.00  0.00     0.177 C 
BRANCH  21  22
HETATM   22  C12 UNL     1       2.721  -0.569   1.993  1.00  0.00     0.057 C 
BRANCH  22  23
HETATM   23  C13 UNL     1       3.854  -0.629   1.012  1.00  0.00     0.274 C 
BRANCH  23  24
HETATM   24  N4  UNL     1       4.290   0.625   0.496  1.00  0.00     0.092 N 
HETATM   25  C14 UNL     1       4.946   1.464   1.444  1.00  0.00     0.298 C 
HETATM   26  C15 UNL     1       6.167   0.749   1.980  1.00  0.00     0.198 C 
HETATM   27  O2  UNL     1       7.034   0.425   0.977  1.00  0.00    -0.388 OA
HETATM   28  C16 UNL     1       6.509  -0.221  -0.115  1.00  0.00     0.198 C 
HETATM   29  C17 UNL     1       5.210   0.377  -0.596  1.00  0.00     0.298 C 
ENDBRANCH  23  24
ENDBRANCH  22  23
ENDBRANCH  21  22
ENDBRANCH  20  21
ENDBRANCH   8  20
TORSDOF 7
