REMARK  5 active torsions:
REMARK  status: ('A' for Active; 'I' for Inactive)
REMARK    1  A    between atoms: C2_2  and  C3_3 
REMARK       I    between atoms: C3_3  and  N1_5 
REMARK    2  A    between atoms: N1_5  and  C4_6 
REMARK    3  A    between atoms: C4_6  and  C5_7 
REMARK    4  A    between atoms: C14_20  and  N3_21 
REMARK    5  A    between atoms: N3_21  and  C15_22 
ROOT
HETATM    1  C5  UNL     1       2.330   0.816  -0.068  1.00  0.00     0.071 C 
HETATM    2  C6  UNL     1       1.240   1.001  -0.845  1.00  0.00     0.004 C 
HETATM    3  C7  UNL     1       1.610   1.106  -2.334  1.00  0.00     0.070 C 
HETATM    4  C8  UNL     1       0.961  -0.284  -2.774  1.00  0.00     0.172 C 
HETATM    5  O2  UNL     1       1.656  -1.197  -2.011  1.00  0.00    -0.389 OA
HETATM    6  C9  UNL     1       1.078  -2.445  -1.846  1.00  0.00     0.185 C 
HETATM    7  C10 UNL     1      -0.245  -2.202  -1.067  1.00  0.00     0.126 C 
HETATM    8  N2  UNL     1      -0.017  -1.569   0.147  1.00  0.00    -0.458 N 
HETATM    9  B1  UNL     1       1.198  -1.722   0.957  1.00  0.00     0.293 B 
HETATM   10  C11 UNL     1       1.760  -0.549   1.873  1.00  0.00     0.145 C 
HETATM   11  O3  UNL     1       1.787   0.710   1.220  1.00  0.00    -0.360 OA
HETATM   12  C12 UNL     1      -1.086  -0.897   0.816  1.00  0.00     0.145 C 
HETATM   13  C13 UNL     1      -1.155   0.484   0.195  1.00  0.00     0.033 A 
HETATM   14  C14 UNL     1      -2.359   1.105   0.337  1.00  0.00     0.139 A 
HETATM   15  N4  UNL     1      -2.527   2.328  -0.170  1.00  0.00    -0.224 NA
HETATM   16  C21 UNL     1      -1.603   3.031  -0.824  1.00  0.00     0.236 A 
HETATM   17  N5  UNL     1      -0.456   2.398  -0.938  1.00  0.00    -0.241 NA
HETATM   18  C22 UNL     1      -0.183   1.177  -0.469  1.00  0.00     0.078 A 
HETATM   19  H15 UNL     1       1.454  -2.835   1.355  1.00  0.00     0.001 HD
ENDROOT
BRANCH  14  20
HETATM   20  N3  UNL     1      -3.444   0.571   1.027  1.00  0.00    -0.340 N 
HETATM   21  H20 UNL     1      -3.256  -0.317   1.527  1.00  0.00     0.167 HD
BRANCH  20  22
HETATM   22  C15 UNL     1      -4.763   1.048   1.178  1.00  0.00     0.035 A 
HETATM   23  C16 UNL     1      -5.624   0.419   2.045  1.00  0.00     0.032 A 
HETATM   24  C17 UNL     1      -6.921   0.805   2.258  1.00  0.00     0.046 A 
HETATM   25  C18 UNL     1      -7.415   1.872   1.584  1.00  0.00     0.138 A 
HETATM   26  F1  UNL     1      -8.700   2.261   1.788  1.00  0.00    -0.204 F 
HETATM   27  C19 UNL     1      -6.623   2.550   0.704  1.00  0.00     0.074 A 
HETATM   28 CL1  UNL     1      -7.298   3.911  -0.140  1.00  0.00    -0.081 Cl
HETATM   29  C20 UNL     1      -5.326   2.119   0.528  1.00  0.00     0.056 A 
ENDBRANCH  20  22
ENDBRANCH  14  20
BRANCH   1  30
HETATM   30  C4  UNL     1       3.760   0.707  -0.279  1.00  0.00     0.188 C 
BRANCH  30  31
HETATM   31  N1  UNL     1       4.325  -0.542   0.111  1.00  0.00    -0.351 N 
HETATM   32  C3  UNL     1       5.756  -0.507  -0.111  1.00  0.00     0.240 C 
HETATM   33  O1  UNL     1       6.124   0.624  -0.591  1.00  0.00    -0.269 OA
HETATM   34  H4  UNL     1       4.050  -1.470   0.495  1.00  0.00     0.163 HD
BRANCH  32  35
HETATM   35  C2  UNL     1       6.737  -1.545   0.139  1.00  0.00     0.064 C 
HETATM   36  C1  UNL     1       6.728  -2.802   0.609  1.00  0.00     0.017 C 
ENDBRANCH  32  35
ENDBRANCH  30  31
ENDBRANCH   1  30
TORSDOF 5
