REMARK  10 active torsions:
REMARK  status: ('A' for Active; 'I' for Inactive)
REMARK    1  A    between atoms: O1_2  and  C2_3 
REMARK    2  A    between atoms: C2_3  and  C3_4 
REMARK    3  A    between atoms: N2_8  and  C6_9 
REMARK    4  A    between atoms: C6_9  and  C7_10 
REMARK    5  A    between atoms: C6_9  and  C9_13 
REMARK    6  A    between atoms: C7_10  and  O2_11 
REMARK    7  A    between atoms: C13_19  and  N5_20 
REMARK    8  A    between atoms: N5_20  and  C14_21 
REMARK    9  A    between atoms: C20_29  and  C21_30 
REMARK   10  A    between atoms: C21_30  and  N6_32 
ROOT
HETATM    1  C6  UNL     1       0.341  -1.772   0.416  1.00  0.00     0.288 C 
ENDROOT
BRANCH   1   2
HETATM    2  N2  UNL     1      -0.603  -0.748   0.274  1.00  0.00     0.126 N 
HETATM    3  C5  UNL     1      -1.146  -0.153   1.456  1.00  0.00     0.295 C 
HETATM    4  C4  UNL     1      -2.265   0.723   0.837  1.00  0.00     0.149 C 
HETATM    5  N1  UNL     1      -2.236   0.427  -0.529  1.00  0.00    -0.379 N 
HETATM    6  C3  UNL     1      -3.065   0.934  -1.480  1.00  0.00     0.145 C 
HETATM    7  C20 UNL     1      -1.744  -0.923  -0.573  1.00  0.00     0.353 C 
BRANCH   6   8
HETATM    8  C2  UNL     1      -2.947   2.403  -1.813  1.00  0.00     0.186 C 
BRANCH   8   9
HETATM    9  O1  UNL     1      -1.677   2.758  -2.285  1.00  0.00    -0.394 OA
HETATM   10  C1  UNL     1      -1.744   4.148  -2.540  1.00  0.00     0.201 C 
ENDBRANCH   8   9
ENDBRANCH   6   8
BRANCH   7  11
HETATM   11  C21 UNL     1      -2.795  -1.834   0.001  1.00  0.00     0.266 C 
HETATM   12  C22 UNL     1      -4.109  -1.811  -0.738  1.00  0.00     0.046 C 
BRANCH  11  13
HETATM   13  N6  UNL     1      -2.408  -3.205   0.144  1.00  0.00     0.086 N 
HETATM   14  H31 UNL     1      -2.543  -3.759  -0.730  1.00  0.00     0.313 HD
HETATM   15  H32 UNL     1      -2.929  -3.701   0.898  1.00  0.00     0.313 HD
ENDBRANCH  11  13
ENDBRANCH   7  11
ENDBRANCH   1   2
BRANCH   1  16
HETATM   16  C7  UNL     1       0.788  -2.259  -0.895  1.00  0.00     0.208 C 
BRANCH  16  17
HETATM   17  O2  UNL     1       1.683  -3.232  -1.051  1.00  0.00    -0.393 OA
HETATM   18  C8  UNL     1       2.950  -3.173  -0.614  1.00  0.00     0.201 C 
ENDBRANCH  16  17
ENDBRANCH   1  16
BRANCH   1  19
HETATM   19  C9  UNL     1       1.322  -1.389   1.426  1.00  0.00     0.048 A 
HETATM   20  C10 UNL     1       1.675  -2.142   2.559  1.00  0.00     0.044 A 
HETATM   21  C11 UNL     1       0.958  -3.425   2.708  1.00  0.00     0.071 C 
HETATM   22  N3  UNL     1       2.602  -1.727   3.447  1.00  0.00    -0.246 NA
HETATM   23  C12 UNL     1       3.231  -0.564   3.282  1.00  0.00     0.235 A 
HETATM   24  N4  UNL     1       2.961   0.220   2.235  1.00  0.00    -0.224 NA
HETATM   25  C13 UNL     1       2.026  -0.187   1.327  1.00  0.00     0.140 A 
BRANCH  25  26
HETATM   26  N5  UNL     1       1.821   0.730   0.272  1.00  0.00    -0.338 N 
HETATM   27  H22 UNL     1       1.128   0.669  -0.508  1.00  0.00     0.167 HD
BRANCH  26  28
HETATM   28  C14 UNL     1       2.495   1.967   0.009  1.00  0.00     0.074 A 
HETATM   29  C15 UNL     1       3.189   2.154  -1.186  1.00  0.00     0.033 A 
HETATM   30  C16 UNL     1       3.879   3.260  -1.587  1.00  0.00     0.004 A 
HETATM   31  C17 UNL     1       3.852   4.286  -0.656  1.00  0.00     0.027 A 
HETATM   32  C18 UNL     1       3.197   4.207   0.555  1.00  0.00     0.074 A 
HETATM   33 CL1  UNL     1       3.218   5.555   1.673  1.00  0.00    -0.081 Cl
HETATM   34  C19 UNL     1       2.532   3.034   0.850  1.00  0.00     0.164 A 
HETATM   35  F1  UNL     1       1.875   2.920   2.035  1.00  0.00    -0.202 F 
ENDBRANCH  26  28
ENDBRANCH  25  26
ENDBRANCH   1  19
TORSDOF 10
