REMARK  5 active torsions:
REMARK  status: ('A' for Active; 'I' for Inactive)
REMARK    1  A    between atoms: C1_2  and  C2_3 
REMARK    2  A    between atoms: C4_7  and  N4_8 
REMARK    3  A    between atoms: N4_8  and  C5_9 
REMARK    4  A    between atoms: C11_17  and  C12_18 
REMARK    5  A    between atoms: N5_19  and  C13_20 
ROOT
HETATM    1  C2  UNL     1      -2.676   1.316  -0.241  1.00  0.00     0.090 A 
HETATM    2  N2  UNL     1      -2.290   2.589  -0.410  1.00  0.00    -0.240 NA
HETATM    3  C3  UNL     1      -0.981   2.884  -0.450  1.00  0.00     0.236 A 
HETATM    4  N3  UNL     1      -0.098   1.895  -0.319  1.00  0.00    -0.223 NA
HETATM    5  C4  UNL     1      -0.401   0.605  -0.147  1.00  0.00     0.143 A 
HETATM    6  C11 UNL     1      -1.740   0.281  -0.103  1.00  0.00     0.058 A 
ENDROOT
BRANCH   5   7
HETATM    7  N4  UNL     1       0.583  -0.366  -0.018  1.00  0.00    -0.340 N 
HETATM    8  H4  UNL     1       0.306  -1.355   0.111  1.00  0.00     0.167 HD
BRANCH   7   9
HETATM    9  C5  UNL     1       1.979  -0.228  -0.034  1.00  0.00     0.035 A 
HETATM   10  C6  UNL     1       2.658   0.947  -0.165  1.00  0.00     0.032 A 
HETATM   11  C7  UNL     1       4.021   1.077  -0.180  1.00  0.00     0.046 A 
HETATM   12  C8  UNL     1       4.811  -0.042  -0.057  1.00  0.00     0.138 A 
HETATM   13  F1  UNL     1       6.164   0.003  -0.063  1.00  0.00    -0.204 F 
HETATM   14  C9  UNL     1       4.218  -1.258   0.079  1.00  0.00     0.074 A 
HETATM   15 CL1  UNL     1       5.181  -2.698   0.238  1.00  0.00    -0.081 Cl
HETATM   16  C10 UNL     1       2.846  -1.316   0.087  1.00  0.00     0.056 A 
ENDBRANCH   7   9
ENDBRANCH   5   7
BRANCH   6  17
HETATM   17  C12 UNL     1      -2.254  -1.089   0.079  1.00  0.00     0.137 C 
HETATM   18  N5  UNL     1      -1.732  -2.225   0.230  1.00  0.00    -0.233 NA
BRANCH  18  19
HETATM   19  C13 UNL     1      -2.482  -3.406   0.387  1.00  0.00     0.376 C 
HETATM   20  O1  UNL     1      -1.870  -4.483   0.166  1.00  0.00    -0.281 OA
ENDBRANCH  18  19
ENDBRANCH   6  17
BRANCH   1  21
HETATM   21  C1  UNL     1      -4.111   1.086  -0.209  1.00  0.00     0.139 C 
HETATM   22  N1  UNL     1      -4.837   1.867   0.486  1.00  0.00    -0.310 NA
HETATM   23  H1  UNL     1      -4.453   2.661   1.034  1.00  0.00     0.186 HD
ENDBRANCH   1  21
TORSDOF 5
