REMARK  3 active torsions:
REMARK  status: ('A' for Active; 'I' for Inactive)
REMARK    1  A    between atoms: C2_2  and  C3_3 
REMARK       I    between atoms: C3_3  and  N1_5 
REMARK    2  A    between atoms: N1_5  and  C4_6 
REMARK    3  A    between atoms: N2_9  and  C7_10 
ROOT
HETATM    1  C4  UNL     1       1.522   1.255   0.415  1.00  0.00     0.142 C 
HETATM    2  C5  UNL     1       0.224   1.600   0.521  1.00  0.00     0.049 C 
HETATM    3  C6  UNL     1      -0.926   0.898   1.114  1.00  0.00     0.155 C 
HETATM    4  N2  UNL     1      -1.987   0.527   0.259  1.00  0.00    -0.372 N 
HETATM    5  C13 UNL     1      -1.542  -0.537  -0.648  1.00  0.00     0.167 C 
HETATM    6  P1  UNL     1      -0.184  -0.169  -1.800  1.00  0.00    -0.029 P 
HETATM    7  C14 UNL     1       0.517  -1.471  -2.506  1.00  0.00    -0.017 C 
HETATM    8  C15 UNL     1       0.781  -2.432  -1.667  1.00  0.00    -0.006 C 
HETATM    9  C16 UNL     1       0.768  -2.230  -0.215  1.00  0.00     0.039 C 
HETATM   10  C17 UNL     1       0.267  -3.509   0.426  1.00  0.00     0.176 C 
HETATM   11  O2  UNL     1       1.223  -4.513   0.269  1.00  0.00    -0.390 OA
HETATM   12  C18 UNL     1       2.147  -4.463   1.312  1.00  0.00     0.168 C 
HETATM   13  C19 UNL     1       2.524  -2.997   1.432  1.00  0.00     0.034 C 
HETATM   14  C20 UNL     1       2.285  -2.247   0.162  1.00  0.00     0.022 C 
HETATM   15  C21 UNL     1       2.807  -0.837   0.362  1.00  0.00     0.182 C 
HETATM   16  O3  UNL     1       1.803  -0.009   0.973  1.00  0.00    -0.335 OA
ENDROOT
BRANCH   4  17
HETATM   17  C7  UNL     1      -3.293   1.077   0.278  1.00  0.00     0.032 A 
HETATM   18  C8  UNL     1      -3.767   1.798   1.344  1.00  0.00     0.032 A 
HETATM   19  C9  UNL     1      -5.013   2.374   1.435  1.00  0.00     0.046 A 
HETATM   20  C10 UNL     1      -5.894   2.236   0.379  1.00  0.00     0.138 A 
HETATM   21  F1  UNL     1      -7.133   2.781   0.409  1.00  0.00    -0.204 F 
HETATM   22  C11 UNL     1      -5.483   1.520  -0.732  1.00  0.00     0.074 A 
HETATM   23 CL1  UNL     1      -6.603   1.348  -2.066  1.00  0.00    -0.081 Cl
HETATM   24  C12 UNL     1      -4.219   0.979  -0.735  1.00  0.00     0.056 A 
ENDBRANCH   4  17
BRANCH   1  25
HETATM   25  N1  UNL     1       2.147   2.342  -0.249  1.00  0.00    -0.305 N 
HETATM   26  C3  UNL     1       2.655   2.094  -1.521  1.00  0.00     0.243 C 
HETATM   27  O1  UNL     1       2.937   1.462  -2.555  1.00  0.00    -0.269 OA
HETATM   28  H4  UNL     1       2.223   3.278   0.191  1.00  0.00     0.171 HD
BRANCH  26  29
HETATM   29  C2  UNL     1       3.305   3.215  -2.198  1.00  0.00     0.048 C 
HETATM   30  C1  UNL     1       3.425   4.421  -1.663  1.00  0.00     0.037 C 
ENDBRANCH  26  29
ENDBRANCH   1  25
TORSDOF 3
