REMARK  5 active torsions:
REMARK  status: ('A' for Active; 'I' for Inactive)
REMARK    1  A    between atoms: C2_2  and  C3_3 
REMARK       I    between atoms: C3_3  and  N1_5 
REMARK    2  A    between atoms: N1_5  and  C4_6 
REMARK    3  A    between atoms: C9_13  and  N4_14 
REMARK    4  A    between atoms: N4_14  and  C10_15 
REMARK    5  A    between atoms: C11_16  and  C12_18 
ROOT
HETATM    1  C4  UNL     1      -1.937  -0.580   0.169  1.00  0.00     0.036 A 
HETATM    2  C5  UNL     1      -2.165  -1.939   0.204  1.00  0.00     0.032 A 
HETATM    3  C6  UNL     1      -1.221  -2.858   0.630  1.00  0.00     0.035 A 
HETATM    4  C7  UNL     1       0.008  -2.343   1.037  1.00  0.00     0.072 A 
HETATM    5  N2  UNL     1       0.968  -3.185   1.462  1.00  0.00    -0.241 NA
HETATM    6  C8  UNL     1       2.178  -2.698   1.864  1.00  0.00     0.236 A 
HETATM    7  N3  UNL     1       2.440  -1.372   1.844  1.00  0.00    -0.224 NA
HETATM    8  C9  UNL     1       1.498  -0.503   1.423  1.00  0.00     0.141 A 
HETATM    9  C14 UNL     1       0.259  -0.967   1.009  1.00  0.00     0.041 A 
HETATM   10  C15 UNL     1      -0.713  -0.089   0.576  1.00  0.00     0.047 A 
ENDROOT
BRANCH   8  11
HETATM   11  N4  UNL     1       1.685   0.918   1.368  1.00  0.00    -0.347 N 
HETATM   12  H8  UNL     1       1.382   1.304   2.262  1.00  0.00     0.167 HD
BRANCH  11  13
HETATM   13  C10 UNL     1       2.212   1.039   0.049  1.00  0.00     0.129 C 
HETATM   14  C11 UNL     1       3.489   1.193   0.351  1.00  0.00     0.128 C 
HETATM   15  F1  UNL     1       3.344   1.121   1.682  1.00  0.00    -0.208 F 
BRANCH  14  16
HETATM   16  C12 UNL     1       4.597   1.372  -0.566  1.00  0.00     0.075 C 
HETATM   17  C13 UNL     1       5.802   1.507  -0.072  1.00  0.00     0.099 C 
HETATM   18 CL1  UNL     1       4.162   1.385  -2.262  1.00  0.00    -0.117 Cl
ENDBRANCH  14  16
ENDBRANCH  11  13
ENDBRANCH   8  11
BRANCH   1  19
HETATM   19  N1  UNL     1      -3.026   0.196  -0.297  1.00  0.00    -0.324 N 
HETATM   20  C3  UNL     1      -3.508   0.693  -1.516  1.00  0.00     0.244 C 
HETATM   21  O1  UNL     1      -3.071   0.585  -2.678  1.00  0.00    -0.268 OA
HETATM   22  H4  UNL     1      -3.530   0.386   0.599  1.00  0.00     0.169 HD
BRANCH  20  23
HETATM   23  C2  UNL     1      -4.735   1.480  -1.470  1.00  0.00     0.064 C 
HETATM   24  C1  UNL     1      -4.990   1.832  -2.702  1.00  0.00     0.017 C 
ENDBRANCH  20  23
ENDBRANCH   1  19
TORSDOF 5
