REMARK  6 active torsions:
REMARK  status: ('A' for Active; 'I' for Inactive)
REMARK    1  A    between atoms: C2_2  and  C3_3 
REMARK       I    between atoms: C3_3  and  N1_5 
REMARK    2  A    between atoms: N1_5  and  C4_6 
REMARK    3  A    between atoms: N2_12  and  C9_13 
REMARK    4  A    between atoms: C9_13  and  C10_14 
REMARK    5  A    between atoms: C10_14  and  C11_15 
REMARK    6  A    between atoms: C14_20  and  N5_21 
ROOT
HETATM    1  C10 UNL     1      -0.766   0.688   0.828  1.00  0.00     0.064 C 
ENDROOT
BRANCH   1   2
HETATM    2  C9  UNL     1       0.008  -0.246  -0.120  1.00  0.00     0.128 C 
BRANCH   2   3
HETATM    3  N2  UNL     1       0.911  -1.076   0.604  1.00  0.00    -0.379 N 
HETATM    4  C5  UNL     1       2.356  -0.999   0.623  1.00  0.00     0.046 C 
HETATM    5  C4  UNL     1       2.830   0.187   0.236  1.00  0.00     0.118 C 
HETATM    6  C6  UNL     1       3.203  -2.133   1.051  1.00  0.00     0.225 C 
HETATM    7  O2  UNL     1       2.501  -3.235   1.424  1.00  0.00    -0.384 OA
HETATM    8  C7  UNL     1       1.217  -3.366   1.004  1.00  0.00     0.187 C 
HETATM    9  C8  UNL     1       0.387  -2.151   1.471  1.00  0.00     0.149 C 
BRANCH   5  10
HETATM   10  N1  UNL     1       3.975   0.984   0.014  1.00  0.00    -0.332 N 
HETATM   11  C3  UNL     1       5.331   0.629   0.199  1.00  0.00     0.241 C 
HETATM   12  O1  UNL     1       5.721  -0.491   0.599  1.00  0.00    -0.269 OA
HETATM   13  H4  UNL     1       4.025   1.981  -0.328  1.00  0.00     0.168 HD
BRANCH  11  14
HETATM   14  C2  UNL     1       6.481   1.480  -0.033  1.00  0.00     0.048 C 
HETATM   15  C1  UNL     1       7.019   2.627  -0.402  1.00  0.00     0.037 C 
ENDBRANCH  11  14
ENDBRANCH   5  10
ENDBRANCH   2   3
ENDBRANCH   1   2
BRANCH   1  16
HETATM   16  C11 UNL     1      -1.664   1.498   0.023  1.00  0.00     0.007 A 
HETATM   17  C12 UNL     1      -1.293   2.782  -0.277  1.00  0.00     0.129 A 
HETATM   18  N3  UNL     1      -2.068   3.559  -1.040  1.00  0.00    -0.253 NA
HETATM   19  C13 UNL     1      -3.213   3.124  -1.531  1.00  0.00     0.234 A 
HETATM   20  N4  UNL     1      -3.549   1.879  -1.226  1.00  0.00    -0.224 NA
HETATM   21  C14 UNL     1      -2.842   1.023  -0.469  1.00  0.00     0.138 A 
BRANCH  21  22
HETATM   22  N5  UNL     1      -3.459  -0.259  -0.226  1.00  0.00    -0.323 N 
HETATM   23  C15 UNL     1      -4.235  -0.754  -1.385  1.00  0.00     0.157 C 
HETATM   24  C16 UNL     1      -5.533  -0.025  -1.361  1.00  0.00     0.024 C 
HETATM   25  C17 UNL     1      -6.138  -0.319  -0.213  1.00  0.00     0.072 C 
HETATM   26 CL1  UNL     1      -7.682   0.182   0.471  1.00  0.00    -0.077 Cl
HETATM   27  S1  UNL     1      -5.452  -1.406   1.036  1.00  0.00    -0.060 SA
HETATM   28  C18 UNL     1      -3.620  -1.247   0.818  1.00  0.00     0.343 C 
HETATM   29  F1  UNL     1      -3.146  -2.463   0.313  1.00  0.00    -0.214 F 
ENDBRANCH  21  22
ENDBRANCH   1  16
TORSDOF 6
