REMARK  1 active torsions:
REMARK  status: ('A' for Active; 'I' for Inactive)
REMARK    1  A    between atoms: N1_1  and  C1_2 
ROOT
HETATM    1  C1  UNL     1      -0.728  -1.479   0.860  1.00  0.00     0.032 C 
HETATM    2  C2  UNL     1      -2.022  -1.401   1.231  1.00  0.00    -0.024 C 
HETATM    3  C3  UNL     1      -2.971  -1.048   0.204  1.00  0.00     0.060 C 
HETATM    4  C4  UNL     1      -3.438  -0.043   0.892  1.00  0.00     0.129 C 
HETATM    5  N2  UNL     1      -3.694   0.162   2.290  1.00  0.00    -0.247 NA
HETATM    6  C5  UNL     1      -3.421  -0.814   3.106  1.00  0.00     0.096 C 
HETATM    7  C6  UNL     1      -2.338  -1.703   2.640  1.00  0.00     0.088 C 
HETATM    8  N3  UNL     1      -3.738   1.256   0.331  1.00  0.00    -0.319 N 
HETATM    9  C7  UNL     1      -3.122   2.464  -0.021  1.00  0.00     0.184 A 
HETATM   10  O1  UNL     1      -2.521   3.428  -0.281  1.00  0.00    -0.287 OA
HETATM   11  C8  UNL     1      -1.676   2.708   0.138  1.00  0.00     0.126 A 
HETATM   12  C9  UNL     1      -0.500   2.884   0.270  1.00  0.00    -0.055 C 
HETATM   13  C10 UNL     1       0.862   3.063   0.422  1.00  0.00     0.099 C 
HETATM   14  C11 UNL     1       1.728   2.541  -0.427  1.00  0.00     0.019 C 
HETATM   15  C12 UNL     1       2.762   1.979  -1.352  1.00  0.00     0.122 C 
HETATM   16  N4  UNL     1       2.595   0.580  -1.411  1.00  0.00    -0.411 N 
HETATM   17  C13 UNL     1       2.267   0.010  -2.661  1.00  0.00     0.121 C 
HETATM   18  C14 UNL     1       1.189  -1.020  -2.501  1.00  0.00     0.053 C 
HETATM   19  C15 UNL     1       1.011  -1.298  -1.030  1.00  0.00    -0.075 C 
HETATM   20  C16 UNL     1      -0.219  -1.262  -0.488  1.00  0.00     0.032 C 
HETATM   21  C17 UNL     1       2.337  -1.584  -0.432  1.00  0.00     0.053 C 
HETATM   22  C18 UNL     1       3.101  -0.253  -0.399  1.00  0.00     0.121 C 
HETATM   23  H7  UNL     1      -4.696   1.541   0.038  1.00  0.00     0.169 HD
ENDROOT
BRANCH   1  24
HETATM   24  N1  UNL     1       0.226  -1.822   1.854  1.00  0.00    -0.399 N 
HETATM   25  H1  UNL     1       0.395  -2.578   2.585  1.00  0.00     0.156 HD
HETATM   26  H2  UNL     1       0.941  -2.047   2.574  1.00  0.00     0.156 HD
ENDBRANCH   1  24
TORSDOF 1
