REMARK  7 active torsions:
REMARK  status: ('A' for Active; 'I' for Inactive)
REMARK    1  A    between atoms: C1_2  and  C2_3 
REMARK       I    between atoms: C1_2  and  N2_13 
REMARK    2  A    between atoms: C3_4  and  C4_5 
REMARK    3  A    between atoms: C4_5  and  C5_6 
REMARK    4  A    between atoms: C5_6  and  N1_7 
REMARK    5  A    between atoms: N2_13  and  C11_14 
REMARK    6  A    between atoms: C14_17  and  N3_18 
REMARK    7  A    between atoms: N3_18  and  C15_19 
ROOT
HETATM    1  C11 UNL     1      -0.899   1.696   0.399  1.00  0.00     0.131 A 
HETATM    2  C12 UNL     1      -2.149   1.133   0.255  1.00  0.00     0.068 A 
HETATM    3  C13 UNL     1      -3.296   1.867   0.318  1.00  0.00     0.044 A 
HETATM    4  C14 UNL     1      -4.497   1.208   0.161  1.00  0.00     0.142 A 
HETATM    5  N4  UNL     1      -5.598   1.980   0.233  1.00  0.00    -0.224 NA
HETATM    6  C22 UNL     1      -5.498   3.324   0.448  1.00  0.00     0.236 A 
HETATM    7  N5  UNL     1      -4.319   3.946   0.597  1.00  0.00    -0.240 NA
HETATM    8  C23 UNL     1      -3.186   3.212   0.533  1.00  0.00     0.089 A 
HETATM    9  C24 UNL     1      -1.951   3.810   0.683  1.00  0.00     0.151 A 
HETATM   10  N6  UNL     1      -0.853   3.035   0.611  1.00  0.00    -0.241 NA
ENDROOT
BRANCH   1  11
HETATM   11  N2  UNL     1       0.275   0.900   0.328  1.00  0.00    -0.301 N 
HETATM   12  C1  UNL     1       1.120   0.157   1.201  1.00  0.00     0.302 C 
HETATM   13  O1  UNL     1       0.967   0.034   2.443  1.00  0.00    -0.258 OA
HETATM   14  H15 UNL     1       0.461   0.960  -0.695  1.00  0.00     0.171 HD
BRANCH  12  15
HETATM   15  C2  UNL     1       2.240  -0.503   0.586  1.00  0.00    -0.005 C 
HETATM   16  C3  UNL     1       3.180  -1.049   0.050  1.00  0.00    -0.095 C 
BRANCH  16  17
HETATM   17  C4  UNL     1       4.305  -1.696  -0.612  1.00  0.00     0.124 C 
BRANCH  17  18
HETATM   18  C5  UNL     1       5.426  -0.709  -0.866  1.00  0.00     0.284 C 
BRANCH  18  19
HETATM   19  N1  UNL     1       5.930  -0.124   0.343  1.00  0.00     0.089 N 
HETATM   20  C6  UNL     1       6.630  -1.027   1.200  1.00  0.00     0.272 C 
HETATM   21  C7  UNL     1       7.912  -1.490   0.554  1.00  0.00     0.030 C 
HETATM   22  C8  UNL     1       8.816  -0.280   0.434  1.00  0.00     0.003 C 
HETATM   23  C9  UNL     1       8.123   0.743  -0.405  1.00  0.00     0.030 C 
HETATM   24  C10 UNL     1       6.714   1.032   0.040  1.00  0.00     0.272 C 
ENDBRANCH  18  19
ENDBRANCH  17  18
ENDBRANCH  16  17
ENDBRANCH  12  15
ENDBRANCH   1  11
BRANCH   4  25
HETATM   25  N3  UNL     1      -4.660  -0.185  -0.065  1.00  0.00    -0.340 N 
HETATM   26  H17 UNL     1      -3.937  -0.905  -0.154  1.00  0.00     0.167 HD
BRANCH  25  27
HETATM   27  C15 UNL     1      -5.954  -0.762  -0.201  1.00  0.00     0.033 C 
HETATM   28  C16 UNL     1      -6.838  -0.224  -1.025  1.00  0.00     0.032 C 
HETATM   29  C17 UNL     1      -8.218  -0.562  -1.388  1.00  0.00     0.040 C 
HETATM   30  C18 UNL     1      -8.848  -1.547  -0.771  1.00  0.00     0.097 C 
HETATM   31  F1  UNL     1     -10.121  -1.680  -1.274  1.00  0.00    -0.211 F 
HETATM   32  C19 UNL     1      -8.646  -2.550   0.274  1.00  0.00     0.097 C 
HETATM   33  C20 UNL     1      -7.286  -2.665   0.802  1.00  0.00    -0.018 C 
HETATM   34  C21 UNL     1      -6.196  -1.944   0.612  1.00  0.00     0.026 C 
ENDBRANCH  25  27
ENDBRANCH   4  25
TORSDOF 7
