REMARK  8 active torsions:
REMARK  status: ('A' for Active; 'I' for Inactive)
REMARK    1  A    between atoms: C4_4  and  C5_5 
REMARK    2  A    between atoms: C5_5  and  N1_6 
REMARK    3  A    between atoms: N1_6  and  C6_7 
REMARK    4  A    between atoms: C10_14  and  N5_15 
REMARK       I    between atoms: N5_15  and  C11_16 
REMARK    5  A    between atoms: C11_16  and  C12_18 
REMARK    6  A    between atoms: C13_19  and  C14_20 
REMARK    7  A    between atoms: C14_20  and  C15_21 
REMARK    8  A    between atoms: C15_21  and  N6_22 
ROOT
HETATM    1  C6  UNL     1      -4.154   0.244  -0.890  1.00  0.00     0.138 A 
HETATM    2  N2  UNL     1      -5.182   0.827  -1.485  1.00  0.00    -0.224 NA
HETATM    3  C7  UNL     1      -5.011   1.955  -2.173  1.00  0.00     0.236 A 
HETATM    4  N3  UNL     1      -3.810   2.573  -2.315  1.00  0.00    -0.240 NA
HETATM    5  C8  UNL     1      -2.735   2.012  -1.725  1.00  0.00     0.089 A 
HETATM    6  C9  UNL     1      -1.517   2.640  -1.870  1.00  0.00     0.151 A 
HETATM    7  N4  UNL     1      -0.453   2.059  -1.270  1.00  0.00    -0.241 NA
HETATM    8  C10 UNL     1      -0.566   0.917  -0.560  1.00  0.00     0.131 A 
HETATM    9  C21 UNL     1      -1.801   0.323  -0.440  1.00  0.00     0.068 A 
HETATM   10  C22 UNL     1      -2.933   0.852  -1.021  1.00  0.00     0.043 A 
ENDROOT
BRANCH   8  11
HETATM   11  N5  UNL     1       0.569   0.323   0.062  1.00  0.00    -0.301 N 
HETATM   12  C11 UNL     1       1.323   0.306   1.268  1.00  0.00     0.302 C 
HETATM   13  O1  UNL     1       1.059   1.000   2.295  1.00  0.00    -0.258 OA
HETATM   14  H10 UNL     1       0.831  -0.273  -0.765  1.00  0.00     0.171 HD
BRANCH  12  15
HETATM   15  C12 UNL     1       2.455  -0.582   1.268  1.00  0.00    -0.005 C 
HETATM   16  C13 UNL     1       3.410  -1.337   1.277  1.00  0.00    -0.095 C 
BRANCH  16  17
HETATM   17  C14 UNL     1       4.539  -2.259   1.280  1.00  0.00     0.114 C 
BRANCH  17  18
HETATM   18  C15 UNL     1       5.527  -1.918   0.164  1.00  0.00     0.129 C 
BRANCH  18  19
HETATM   19  N6  UNL     1       6.011  -0.589   0.369  1.00  0.00    -0.412 N 
HETATM   20  C16 UNL     1       6.843  -0.432   1.518  1.00  0.00     0.117 C 
HETATM   21  C17 UNL     1       7.691   0.800   1.351  1.00  0.00     0.019 C 
HETATM   22  C18 UNL     1       8.664   0.607   0.210  1.00  0.00     0.003 C 
HETATM   23  C19 UNL     1       7.902   0.189  -1.025  1.00  0.00     0.019 C 
HETATM   24  C20 UNL     1       6.423   0.114  -0.802  1.00  0.00     0.117 C 
ENDBRANCH  18  19
ENDBRANCH  17  18
ENDBRANCH  16  17
ENDBRANCH  12  15
ENDBRANCH   8  11
BRANCH   1  25
HETATM   25  N1  UNL     1      -4.323  -0.986  -0.154  1.00  0.00    -0.370 N 
HETATM   26  H7  UNL     1      -3.593  -1.536   0.335  1.00  0.00     0.161 HD
BRANCH  25  27
HETATM   27  C5  UNL     1      -5.651  -1.544  -0.068  1.00  0.00     0.159 C 
BRANCH  27  28
HETATM   28  C4  UNL     1      -6.562  -0.735   0.793  1.00  0.00    -0.019 C 
HETATM   29  C3  UNL     1      -8.001  -1.092   0.984  1.00  0.00     0.077 C 
HETATM   30  C2  UNL     1      -8.783   0.185   0.956  1.00  0.00    -0.054 C 
HETATM   31  C1  UNL     1      -9.819   0.579   0.233  1.00  0.00     0.020 C 
HETATM   32  P1  UNL     1      -7.716   0.900   2.277  1.00  0.00    -0.034 P 
HETATM   33  C23 UNL     1      -6.135   0.369   1.438  1.00  0.00     0.125 C 
HETATM   34  H26 UNL     1      -7.915   0.128   3.495  1.00  0.00     0.069 HD
HETATM   35  F1  UNL     1      -4.964   1.039   1.551  1.00  0.00    -0.205 F 
ENDBRANCH  27  28
ENDBRANCH  25  27
ENDBRANCH   1  25
TORSDOF 8
