REMARK  4 active torsions:
REMARK  status: ('A' for Active; 'I' for Inactive)
REMARK    1  A    between atoms: C1_2  and  C2_3 
REMARK       I    between atoms: C1_2  and  N2_13 
REMARK    2  A    between atoms: C3_4  and  C4_5 
REMARK    3  A    between atoms: C4_5  and  C5_6 
REMARK    4  A    between atoms: C5_6  and  N1_7 
ROOT
HETATM    1  O1  UNL     1      -0.320  -2.588  -0.745  1.00  0.00    -0.258 OA
HETATM    2  C1  UNL     1      -0.549  -1.357  -0.934  1.00  0.00     0.299 C 
HETATM    3  N2  UNL     1      -1.871  -0.843  -1.051  1.00  0.00    -0.326 N 
HETATM    4  C11 UNL     1      -2.183   0.560  -1.267  1.00  0.00     0.154 C 
HETATM    5  C12 UNL     1      -2.209   1.252   0.084  1.00  0.00    -0.011 C 
HETATM    6  C13 UNL     1      -3.347   1.656   0.610  1.00  0.00    -0.021 C 
HETATM    7  C14 UNL     1      -4.425   2.234   1.495  1.00  0.00     0.118 C 
HETATM    8  C15 UNL     1      -5.316   1.024   1.828  1.00  0.00     0.181 A 
HETATM    9  F1  UNL     1      -6.264   0.130   2.212  1.00  0.00    -0.238 F 
HETATM   10  N3  UNL     1      -5.082  -0.188   1.708  1.00  0.00    -0.221 N 
HETATM   11  C16 UNL     1      -4.030  -1.000   1.270  1.00  0.00     0.190 C 
HETATM   12  C17 UNL     1      -4.203  -1.423  -0.172  1.00  0.00     0.158 A 
HETATM   13  N4  UNL     1      -5.461  -0.960  -0.697  1.00  0.00    -0.274 NA
HETATM   14  C18 UNL     1      -5.723  -0.793  -1.897  1.00  0.00     0.226 A 
HETATM   15  N5  UNL     1      -4.735  -1.048  -2.889  1.00  0.00    -0.256 NA
HETATM   16  C19 UNL     1      -3.546  -1.439  -2.498  1.00  0.00     0.118 A 
HETATM   17  C20 UNL     1      -3.094  -1.639  -1.047  1.00  0.00     0.155 A 
ENDROOT
BRANCH   2  18
HETATM   18  C2  UNL     1       0.507  -0.394  -1.044  1.00  0.00    -0.005 C 
HETATM   19  C3  UNL     1       1.397   0.429  -1.156  1.00  0.00    -0.095 C 
BRANCH  19  20
HETATM   20  C4  UNL     1       2.459   1.433  -1.303  1.00  0.00     0.124 C 
BRANCH  20  21
HETATM   21  C5  UNL     1       3.825   0.792  -1.364  1.00  0.00     0.284 C 
BRANCH  21  22
HETATM   22  N1  UNL     1       4.137   0.030  -0.179  1.00  0.00     0.089 N 
HETATM   23  C6  UNL     1       5.468  -0.523  -0.375  1.00  0.00     0.272 C 
HETATM   24  C7  UNL     1       6.003  -1.228   0.837  1.00  0.00     0.030 C 
HETATM   25  C8  UNL     1       6.093  -0.309   2.032  1.00  0.00     0.003 C 
HETATM   26  C9  UNL     1       4.713   0.302   2.199  1.00  0.00     0.030 C 
HETATM   27  C10 UNL     1       4.209   0.933   0.941  1.00  0.00     0.272 C 
ENDBRANCH  21  22
ENDBRANCH  20  21
ENDBRANCH  19  20
ENDBRANCH   2  18
TORSDOF 4
