REMARK  5 active torsions:
REMARK  status: ('A' for Active; 'I' for Inactive)
REMARK    1  A    between atoms: C1_2  and  C2_3 
REMARK       I    between atoms: C1_2  and  N2_13 
REMARK    2  A    between atoms: C3_4  and  C4_5 
REMARK    3  A    between atoms: C4_5  and  C5_6 
REMARK    4  A    between atoms: C5_6  and  N1_7 
REMARK    5  A    between atoms: N2_13  and  C11_14 
ROOT
HETATM    1  C11 UNL     1      -2.769   0.398   0.668  1.00  0.00     0.124 A 
HETATM    2  C12 UNL     1      -3.553   0.945  -0.368  1.00  0.00     0.042 A 
HETATM    3  C13 UNL     1      -4.625   1.124   0.355  1.00  0.00     0.082 A 
HETATM    4  C14 UNL     1      -5.869   1.171  -0.350  1.00  0.00     0.127 A 
HETATM    5  N3  UNL     1      -7.110   1.280  -0.848  1.00  0.00    -0.264 NA
HETATM    6  C15 UNL     1      -8.001   1.739   0.108  1.00  0.00     0.223 A 
HETATM    7  N4  UNL     1      -6.981   1.771   0.994  1.00  0.00    -0.265 NA
HETATM    8  C16 UNL     1      -5.786   1.444   0.673  1.00  0.00     0.136 A 
HETATM    9  C17 UNL     1      -4.856   0.857   1.594  1.00  0.00     0.123 A 
HETATM   10  N5  UNL     1      -3.611   0.386   1.753  1.00  0.00    -0.254 NA
HETATM   11  C18 UNL     1      -5.666   0.252   2.693  1.00  0.00     0.037 C 
HETATM   12  C19 UNL     1      -6.267  -0.543   1.758  1.00  0.00     0.072 C 
HETATM   13 CL1  UNL     1      -7.181  -1.213   3.077  1.00  0.00    -0.081 Cl
HETATM   14  C20 UNL     1      -6.934  -1.402   0.842  1.00  0.00     0.154 C 
HETATM   15  F1  UNL     1      -8.254  -1.416   0.532  1.00  0.00    -0.203 F 
HETATM   16  C21 UNL     1      -5.747  -1.946   0.596  1.00  0.00     0.046 C 
HETATM   17  S1  UNL     1      -5.171  -1.472  -0.857  1.00  0.00    -0.180 SA
HETATM   18  C22 UNL     1      -5.818  -0.005  -1.313  1.00  0.00     0.162 C 
ENDROOT
BRANCH   1  19
HETATM   19  N2  UNL     1      -1.485   0.023   0.463  1.00  0.00    -0.301 N 
HETATM   20  C1  UNL     1      -0.796   0.128  -0.731  1.00  0.00     0.302 C 
HETATM   21  O1  UNL     1      -1.201   0.574  -1.824  1.00  0.00    -0.258 OA
HETATM   22  H15 UNL     1      -1.137  -0.349   1.368  1.00  0.00     0.171 HD
BRANCH  20  23
HETATM   23  C2  UNL     1       0.557  -0.330  -0.727  1.00  0.00    -0.005 C 
HETATM   24  C3  UNL     1       1.691  -0.735  -0.718  1.00  0.00    -0.095 C 
BRANCH  24  25
HETATM   25  C4  UNL     1       3.054  -1.228  -0.690  1.00  0.00     0.114 C 
BRANCH  25  26
HETATM   26  C5  UNL     1       4.039  -0.230  -0.111  1.00  0.00     0.129 C 
BRANCH  26  27
HETATM   27  N1  UNL     1       5.345  -0.804  -0.128  1.00  0.00    -0.412 N 
HETATM   28  C6  UNL     1       5.929  -1.004  -1.408  1.00  0.00     0.117 C 
HETATM   29  C7  UNL     1       7.284  -0.389  -1.572  1.00  0.00     0.019 C 
HETATM   30  C8  UNL     1       7.437   0.894  -0.789  1.00  0.00     0.003 C 
HETATM   31  C9  UNL     1       7.162   0.683   0.662  1.00  0.00     0.019 C 
HETATM   32  C10 UNL     1       6.213  -0.455   0.936  1.00  0.00     0.117 C 
ENDBRANCH  26  27
ENDBRANCH  25  26
ENDBRANCH  24  25
ENDBRANCH  20  23
ENDBRANCH   1  19
TORSDOF 5
