REMARK  8 active torsions:
REMARK  status: ('A' for Active; 'I' for Inactive)
REMARK    1  A    between atoms: O1_2  and  C2_3 
REMARK    2  A    between atoms: C6_9  and  N3_10 
REMARK    3  A    between atoms: N3_10  and  C7_11 
REMARK    4  A    between atoms: C15_20  and  O2_21 
REMARK    5  A    between atoms: O2_21  and  C16_22 
REMARK    6  A    between atoms: C16_22  and  C17_23 
REMARK    7  A    between atoms: C17_23  and  O3_24 
REMARK    8  A    between atoms: O3_24  and  N4_25 
ROOT
HETATM    1  C2  UNL     1       0.643  -3.227   0.527  1.00  0.00     0.103 A 
HETATM    2  C3  UNL     1       1.887  -3.831   0.427  1.00  0.00     0.072 A 
HETATM    3  C4  UNL     1       2.921  -3.119  -0.148  1.00  0.00     0.075 A 
HETATM    4  N1  UNL     1       4.135  -3.664  -0.265  1.00  0.00    -0.241 NA
HETATM    5  C5  UNL     1       5.183  -3.003  -0.823  1.00  0.00     0.236 A 
HETATM    6  N2  UNL     1       4.997  -1.751  -1.278  1.00  0.00    -0.224 NA
HETATM    7  C6  UNL     1       3.773  -1.171  -1.173  1.00  0.00     0.142 A 
HETATM    8  C13 UNL     1       2.714  -1.838  -0.609  1.00  0.00     0.042 A 
HETATM    9  C14 UNL     1       1.462  -1.270  -0.491  1.00  0.00     0.057 A 
HETATM   10  C15 UNL     1       0.398  -1.946   0.077  1.00  0.00     0.103 A 
ENDROOT
BRANCH   7  11
HETATM   11  N3  UNL     1       3.599   0.147  -1.657  1.00  0.00    -0.340 N 
HETATM   12  H6  UNL     1       3.307   0.262  -2.652  1.00  0.00     0.167 HD
BRANCH  11  13
HETATM   13  C7  UNL     1       3.820   1.242  -0.800  1.00  0.00     0.036 A 
HETATM   14  C8  UNL     1       4.207   1.018   0.503  1.00  0.00     0.029 A 
HETATM   15  C9  UNL     1       4.412   2.120   1.306  1.00  0.00     0.005 A 
HETATM   16  C10 UNL     1       4.238   3.407   0.827  1.00  0.00     0.042 A 
HETATM   17  C11 UNL     1       3.848   3.635  -0.484  1.00  0.00     0.118 A 
HETATM   18  F1  UNL     1       3.683   4.893  -0.934  1.00  0.00    -0.206 F 
HETATM   19  C12 UNL     1       3.640   2.524  -1.298  1.00  0.00     0.071 A 
ENDBRANCH  11  13
ENDBRANCH   7  11
BRANCH  10  20
HETATM   20  O2  UNL     1      -0.877  -1.455   0.233  1.00  0.00    -0.346 OA
BRANCH  20  21
HETATM   21  C16 UNL     1      -1.319  -0.177  -0.162  1.00  0.00     0.204 C 
BRANCH  21  22
HETATM   22  C17 UNL     1      -2.786   0.030   0.161  1.00  0.00     0.220 C 
BRANCH  22  23
HETATM   23  O3  UNL     1      -3.253   1.284  -0.217  1.00  0.00    -0.301 OA
BRANCH  23  24
HETATM   24  N4  UNL     1      -4.545   1.367   0.102  1.00  0.00    -0.197 NA
HETATM   25  C18 UNL     1      -4.888   2.398   1.035  1.00  0.00     0.120 C 
HETATM   26  C19 UNL     1      -5.639   3.473   0.294  1.00  0.00     0.018 C 
HETATM   27  C20 UNL     1      -6.259   2.715  -0.849  1.00  0.00     0.018 C 
HETATM   28  C21 UNL     1      -5.436   1.464  -1.016  1.00  0.00     0.120 C 
ENDBRANCH  23  24
ENDBRANCH  22  23
ENDBRANCH  21  22
ENDBRANCH  20  21
ENDBRANCH  10  20
BRANCH   1  29
HETATM   29  O1  UNL     1      -0.378  -3.966   1.110  1.00  0.00    -0.353 OA
HETATM   30  C1  UNL     1      -0.086  -5.290   1.564  1.00  0.00     0.210 C 
ENDBRANCH   1  29
TORSDOF 8
