REMARK  3 active torsions:
REMARK  status: ('A' for Active; 'I' for Inactive)
REMARK    1  A    between atoms: O1_2  and  C2_3 
REMARK    2  A    between atoms: N3_10  and  C7_11 
REMARK    3  A    between atoms: N4_24  and  O2_25 
ROOT
HETATM    1  C2  UNL     1       3.823   0.650   0.090  1.00  0.00     0.044 C 
HETATM    2  C3  UNL     1       3.318   0.609  -1.151  1.00  0.00     0.026 C 
HETATM    3  C4  UNL     1       2.093  -0.069  -1.721  1.00  0.00     0.176 C 
HETATM    4  N1  UNL     1       1.801  -1.275  -1.052  1.00  0.00    -0.273 N 
HETATM    5  C5  UNL     1       0.519  -0.743  -0.857  1.00  0.00     0.313 C 
HETATM    6  N2  UNL     1       0.060  -0.445   0.414  1.00  0.00     0.008 N 
HETATM    7  C6  UNL     1      -1.275   0.094   0.193  1.00  0.00     0.230 A 
HETATM    8  N3  UNL     1      -2.541   0.655  -0.005  1.00  0.00    -0.252 NA
HETATM    9  C13 UNL     1      -0.281   0.938   0.625  1.00  0.00     0.282 A 
HETATM   10  C14 UNL     1       1.081   0.435   0.924  1.00  0.00     0.246 A 
HETATM   11  C15 UNL     1       1.970  -0.587   1.052  1.00  0.00     0.024 C 
HETATM   12  C16 UNL     1       3.246   0.147   1.416  1.00  0.00     0.078 C 
HETATM   13  C17 UNL     1       1.780  -2.106   0.978  1.00  0.00     0.159 C 
HETATM   14  N4  UNL     1       1.824  -2.505  -0.462  1.00  0.00    -0.103 NA
HETATM   15  H8  UNL     1      -2.385  -0.377   0.238  1.00  0.00     0.190 HD
ENDROOT
BRANCH   8  16
HETATM   16  C7  UNL     1      -3.868   0.298   0.008  1.00  0.00     0.051 A 
HETATM   17  C8  UNL     1      -4.699   0.367   1.140  1.00  0.00     0.027 A 
HETATM   18  C9  UNL     1      -6.057   0.044   1.251  1.00  0.00     0.004 A 
HETATM   19  C10 UNL     1      -6.577  -0.387   0.055  1.00  0.00     0.027 A 
HETATM   20  C11 UNL     1      -5.940  -0.524  -1.152  1.00  0.00     0.074 A 
HETATM   21 CL1  UNL     1      -6.700  -1.085  -2.618  1.00  0.00    -0.081 Cl
HETATM   22  C12 UNL     1      -4.596  -0.166  -1.101  1.00  0.00     0.159 A 
HETATM   23  F1  UNL     1      -3.877  -0.271  -2.268  1.00  0.00    -0.202 F 
ENDBRANCH   8  16
BRANCH  14  24
HETATM   24  O2  UNL     1       0.703  -3.192  -0.715  1.00  0.00    -0.293 OA
HETATM   25  H18 UNL     1       0.244  -3.453   0.105  1.00  0.00     0.239 HD
ENDBRANCH  14  24
BRANCH   1  26
HETATM   26  O1  UNL     1       5.069   1.243   0.177  1.00  0.00    -0.360 OA
HETATM   27  C1  UNL     1       5.120   2.648   0.343  1.00  0.00     0.209 C 
ENDBRANCH   1  26
TORSDOF 3
