REMARK  9 active torsions:
REMARK  status: ('A' for Active; 'I' for Inactive)
REMARK    1  A    between atoms: O1_2  and  C2_3 
REMARK    2  A    between atoms: C6_9  and  N3_10 
REMARK    3  A    between atoms: N3_10  and  C7_11 
REMARK    4  A    between atoms: C7_11  and  C8_12 
REMARK    5  A    between atoms: C12_18  and  O2_19 
REMARK    6  A    between atoms: O2_19  and  C13_20 
REMARK    7  A    between atoms: C13_20  and  C14_21 
REMARK    8  A    between atoms: C14_21  and  C15_22 
REMARK    9  A    between atoms: C15_22  and  N4_23 
ROOT
HETATM    1  C2  UNL     1       1.363  -2.599  -1.137  1.00  0.00     0.103 A 
HETATM    2  C3  UNL     1       2.720  -2.676  -1.428  1.00  0.00     0.072 A 
HETATM    3  C4  UNL     1       3.507  -1.604  -1.069  1.00  0.00     0.075 A 
HETATM    4  N1  UNL     1       4.820  -1.681  -1.351  1.00  0.00    -0.241 NA
HETATM    5  C5  UNL     1       5.565  -0.628  -0.993  1.00  0.00     0.235 A 
HETATM    6  N2  UNL     1       5.046   0.441  -0.389  1.00  0.00    -0.224 NA
HETATM    7  C6  UNL     1       3.749   0.573  -0.083  1.00  0.00     0.137 A 
HETATM    8  C10 UNL     1       2.970  -0.500  -0.445  1.00  0.00     0.041 A 
HETATM    9  C11 UNL     1       1.619  -0.460  -0.173  1.00  0.00     0.057 A 
HETATM   10  C12 UNL     1       0.790  -1.511  -0.514  1.00  0.00     0.103 A 
ENDROOT
BRANCH  10  11
HETATM   11  O2  UNL     1      -0.559  -1.617  -0.310  1.00  0.00    -0.348 OA
BRANCH  11  12
HETATM   12  C13 UNL     1      -1.373  -0.637   0.311  1.00  0.00     0.177 C 
BRANCH  12  13
HETATM   13  C14 UNL     1      -2.816  -1.070   0.374  1.00  0.00     0.057 C 
BRANCH  13  14
HETATM   14  C15 UNL     1      -3.733  -0.085   1.019  1.00  0.00     0.274 C 
BRANCH  14  15
HETATM   15  N4  UNL     1      -3.816   1.199   0.411  1.00  0.00     0.092 N 
HETATM   16  C16 UNL     1      -4.445   1.200  -0.886  1.00  0.00     0.298 C 
HETATM   17  C17 UNL     1      -5.935   1.057  -0.840  1.00  0.00     0.198 C 
HETATM   18  O3  UNL     1      -6.498   2.025  -0.007  1.00  0.00    -0.388 OA
HETATM   19  C18 UNL     1      -6.042   1.729   1.293  1.00  0.00     0.198 C 
HETATM   20  C19 UNL     1      -4.576   2.058   1.297  1.00  0.00     0.298 C 
ENDBRANCH  14  15
ENDBRANCH  13  14
ENDBRANCH  12  13
ENDBRANCH  11  12
ENDBRANCH  10  11
BRANCH   1  21
HETATM   21  O1  UNL     1       0.615  -3.720  -1.528  1.00  0.00    -0.353 OA
HETATM   22  C1  UNL     1       1.207  -4.824  -2.160  1.00  0.00     0.210 C 
ENDBRANCH   1  21
BRANCH   7  23
HETATM   23  N3  UNL     1       3.255   1.762   0.568  1.00  0.00    -0.369 N 
HETATM   24  H6  UNL     1       2.277   1.920   0.820  1.00  0.00     0.161 HD
BRANCH  23  25
HETATM   25  C7  UNL     1       4.228   2.793   0.877  1.00  0.00     0.174 C 
BRANCH  25  26
HETATM   26  C8  UNL     1       5.271   2.313   1.801  1.00  0.00     0.056 C 
HETATM   27 CL1  UNL     1       4.843   1.729   3.394  1.00  0.00    -0.085 Cl
HETATM   28  C9  UNL     1       6.548   2.311   1.450  1.00  0.00     0.209 C 
HETATM   29  F1  UNL     1       7.119   2.705   0.297  1.00  0.00    -0.218 F 
ENDBRANCH  25  26
ENDBRANCH  23  25
ENDBRANCH   7  23
TORSDOF 9
