REMARK  8 active torsions:
REMARK  status: ('A' for Active; 'I' for Inactive)
REMARK    1  A    between atoms: C4_4  and  N1_5 
REMARK    2  A    between atoms: C5_6  and  C7_10 
REMARK    3  A    between atoms: C7_10  and  C8_11 
REMARK    4  A    between atoms: C10_13  and  O1_14 
REMARK    5  A    between atoms: O1_14  and  C11_15 
REMARK    6  A    between atoms: C11_15  and  C12_16 
REMARK    7  A    between atoms: C12_16  and  C13_17 
REMARK    8  A    between atoms: C13_17  and  N4_18 
ROOT
HETATM    1  N1  UNL     1       3.560   0.173  -0.628  1.00  0.00    -0.013 N 
HETATM    2  C5  UNL     1       2.034   0.712   0.276  1.00  0.00     0.202 A 
HETATM    3  N2  UNL     1       1.209   0.459   1.025  1.00  0.00     0.000 N 
HETATM    4  C6  UNL     1       0.140   0.044   1.457  1.00  0.00     0.134 A 
HETATM    5  N3  UNL     1       1.170   0.646   2.262  1.00  0.00    -0.217 NA
HETATM    6  C7  UNL     1       2.241   1.012   1.462  1.00  0.00     0.157 A 
HETATM    7  C8  UNL     1       2.640   0.902  -0.248  1.00  0.00     0.202 A 
HETATM    8  C9  UNL     1       1.025   0.384  -0.511  1.00  0.00     0.123 A 
HETATM    9  C10 UNL     1      -0.167  -0.017  -0.029  1.00  0.00     0.063 A 
HETATM   10  H5  UNL     1       4.033  -0.155  -1.574  1.00  0.00     0.289 HD
ENDROOT
BRANCH   9  11
HETATM   11  O1  UNL     1      -1.417  -0.438   0.538  1.00  0.00    -0.357 OA
BRANCH  11  12
HETATM   12  C11 UNL     1      -2.437  -0.716  -0.416  1.00  0.00     0.176 C 
BRANCH  12  13
HETATM   13  C12 UNL     1      -2.895   0.442  -1.212  1.00  0.00     0.046 C 
BRANCH  13  14
HETATM   14  C13 UNL     1      -4.072   0.093  -2.068  1.00  0.00     0.119 C 
BRANCH  14  15
HETATM   15  N4  UNL     1      -5.257  -0.109  -1.321  1.00  0.00    -0.408 N 
HETATM   16  C14 UNL     1      -5.845   1.097  -0.798  1.00  0.00     0.143 C 
HETATM   17  C15 UNL     1      -6.304   0.853   0.619  1.00  0.00     0.187 C 
HETATM   18  O2  UNL     1      -7.185  -0.197   0.769  1.00  0.00    -0.388 OA
HETATM   19  C16 UNL     1      -6.947  -1.258  -0.121  1.00  0.00     0.187 C 
HETATM   20  C17 UNL     1      -5.447  -1.240  -0.514  1.00  0.00     0.143 C 
ENDBRANCH  14  15
ENDBRANCH  13  14
ENDBRANCH  12  13
ENDBRANCH  11  12
ENDBRANCH   9  11
BRANCH   1  21
HETATM   21  C4  UNL     1       4.931  -0.057  -0.053  1.00  0.00     0.137 A 
HETATM   22  C3  UNL     1       6.108   0.532  -0.266  1.00  0.00     0.045 A 
HETATM   23  C2  UNL     1       7.114   0.099   0.547  1.00  0.00    -0.038 A 
HETATM   24  C1  UNL     1       8.376   0.809   0.220  1.00  0.00     0.050 C 
HETATM   25  C20 UNL     1       6.983  -0.861   1.513  1.00  0.00     0.040 A 
HETATM   26  C19 UNL     1       5.771  -1.441   1.707  1.00  0.00     0.026 A 
HETATM   27 CL1  UNL     1       8.430  -1.246   2.421  1.00  0.00    -0.084 Cl
HETATM   28  C18 UNL     1       4.703  -1.055   0.921  1.00  0.00     0.039 A 
ENDBRANCH   1  21
TORSDOF 8
