REMARK  4 active torsions:
REMARK  status: ('A' for Active; 'I' for Inactive)
REMARK    1  A    between atoms: C1_2  and  O1_3 
REMARK    2  A    between atoms: O1_3  and  C2_4 
REMARK    3  A    between atoms: C7_11  and  N3_12 
REMARK    4  A    between atoms: N3_12  and  C8_13 
ROOT
HETATM    1  C2  UNL     1      -0.065   2.143   0.228  1.00  0.00     0.103 C 
HETATM    2  C3  UNL     1       0.635   1.654  -0.891  1.00  0.00     0.082 A 
HETATM    3  C4  UNL     1       0.774   0.167  -0.674  1.00  0.00    -0.005 A 
HETATM    4  C5  UNL     1      -0.332   0.383  -1.470  1.00  0.00     0.258 A 
HETATM    5  N1  UNL     1      -0.830  -0.808  -1.104  1.00  0.00    -0.289 NA
HETATM    6  C6  UNL     1      -0.115  -1.585  -0.233  1.00  0.00     0.077 A 
HETATM    7  N2  UNL     1       1.076  -1.528   0.451  1.00  0.00    -0.224 NA
HETATM    8  C7  UNL     1       1.719  -0.333   0.179  1.00  0.00     0.135 A 
HETATM    9  C13 UNL     1      -1.076  -2.618   0.132  1.00  0.00     0.098 C 
HETATM   10  C14 UNL     1      -2.207  -1.946   0.988  1.00  0.00     0.109 C 
HETATM   11  C15 UNL     1      -3.238  -3.046   1.138  1.00  0.00     0.193 C 
HETATM   12  O2  UNL     1      -3.439  -3.542  -0.133  1.00  0.00    -0.388 OA
HETATM   13  C16 UNL     1      -3.904  -2.609  -1.020  1.00  0.00     0.187 C 
HETATM   14  C17 UNL     1      -3.771  -1.187  -0.657  1.00  0.00     0.143 C 
HETATM   15  N5  UNL     1      -2.698  -0.875   0.286  1.00  0.00    -0.404 N 
HETATM   16  C18 UNL     1      -2.827   0.442   0.660  1.00  0.00     0.117 C 
HETATM   17  C19 UNL     1      -2.001   1.185   1.591  1.00  0.00     0.022 C 
HETATM   18  C20 UNL     1      -0.558   1.394   1.401  1.00  0.00     0.044 C 
ENDROOT
BRANCH   8  19
HETATM   19  N3  UNL     1       2.848   0.452   0.457  1.00  0.00    -0.325 N 
HETATM   20  H5  UNL     1       2.843   1.217   1.163  1.00  0.00     0.169 HD
BRANCH  19  21
HETATM   21  C8  UNL     1       4.041   0.164  -0.274  1.00  0.00     0.128 A 
HETATM   22  C9  UNL     1       5.192   0.898  -0.024  1.00  0.00     0.050 A 
HETATM   23  C10 UNL     1       6.387   0.688  -0.668  1.00  0.00     0.005 A 
HETATM   24  C11 UNL     1       6.405  -0.324  -1.616  1.00  0.00     0.019 A 
HETATM   25  C12 UNL     1       5.251  -1.074  -1.880  1.00  0.00     0.119 A 
HETATM   26  N4  UNL     1       4.138  -0.782  -1.190  1.00  0.00    -0.243 NA
ENDBRANCH  19  21
ENDBRANCH   8  19
BRANCH   1  27
HETATM   27  O1  UNL     1      -0.369   3.525   0.324  1.00  0.00    -0.362 OA
BRANCH  27  28
HETATM   28  C1  UNL     1       0.167   4.456  -0.593  1.00  0.00     0.283 C 
HETATM   29 CL1  UNL     1      -0.373   6.120  -0.230  1.00  0.00    -0.102 Cl
ENDBRANCH  27  28
ENDBRANCH   1  27
TORSDOF 4
