REMARK  8 active torsions:
REMARK  status: ('A' for Active; 'I' for Inactive)
REMARK    1  A    between atoms: C3_4  and  C4_5 
REMARK    2  A    between atoms: C5_6  and  N1_7 
REMARK    3  A    between atoms: N1_7  and  C6_8 
REMARK    4  A    between atoms: C10_15  and  N5_16 
REMARK       I    between atoms: N5_16  and  C11_17 
REMARK    5  A    between atoms: C11_17  and  C12_19 
REMARK    6  A    between atoms: C13_20  and  C14_21 
REMARK    7  A    between atoms: C14_21  and  C15_22 
REMARK    8  A    between atoms: C15_22  and  N6_23 
ROOT
HETATM    1  C6  UNL     1       4.243  -0.778  -1.151  1.00  0.00     0.141 A 
HETATM    2  N2  UNL     1       5.242  -1.642  -1.341  1.00  0.00    -0.224 NA
HETATM    3  C7  UNL     1       5.441  -2.657  -0.449  1.00  0.00     0.236 A 
HETATM    4  N3  UNL     1       4.634  -2.788   0.617  1.00  0.00    -0.240 NA
HETATM    5  C8  UNL     1       3.620  -1.947   0.848  1.00  0.00     0.089 A 
HETATM    6  C9  UNL     1       2.870  -2.202   1.980  1.00  0.00     0.151 A 
HETATM    7  N4  UNL     1       1.834  -1.330   2.195  1.00  0.00    -0.241 NA
HETATM    8  C10 UNL     1       1.614  -0.317   1.326  1.00  0.00     0.131 A 
HETATM    9  C20 UNL     1       2.372  -0.068   0.193  1.00  0.00     0.068 A 
HETATM   10  C21 UNL     1       3.424  -0.927  -0.052  1.00  0.00     0.044 A 
ENDROOT
BRANCH   8  11
HETATM   11  N5  UNL     1       0.468   0.503   1.662  1.00  0.00    -0.301 N 
HETATM   12  C11 UNL     1      -0.549  -0.122   0.911  1.00  0.00     0.302 C 
HETATM   13  O1  UNL     1      -0.213  -1.127   0.220  1.00  0.00    -0.258 OA
HETATM   14  H10 UNL     1       0.118   1.338   2.218  1.00  0.00     0.171 HD
BRANCH  12  15
HETATM   15  C12 UNL     1      -1.961   0.227   0.814  1.00  0.00    -0.005 C 
HETATM   16  C13 UNL     1      -3.118   0.500   0.750  1.00  0.00    -0.095 C 
BRANCH  16  17
HETATM   17  C14 UNL     1      -4.542   0.825   0.648  1.00  0.00     0.114 C 
BRANCH  17  18
HETATM   18  C15 UNL     1      -5.174  -0.292  -0.138  1.00  0.00     0.129 C 
BRANCH  18  19
HETATM   19  N6  UNL     1      -6.564  -0.170  -0.363  1.00  0.00    -0.408 N 
HETATM   20  C16 UNL     1      -6.944   0.887  -1.257  1.00  0.00     0.143 C 
HETATM   21  C17 UNL     1      -8.342   1.336  -0.887  1.00  0.00     0.187 C 
HETATM   22  O2  UNL     1      -8.286   1.807   0.414  1.00  0.00    -0.388 OA
HETATM   23  C18 UNL     1      -8.184   0.723   1.272  1.00  0.00     0.187 C 
HETATM   24  C19 UNL     1      -7.460  -0.443   0.680  1.00  0.00     0.143 C 
ENDBRANCH  18  19
ENDBRANCH  17  18
ENDBRANCH  16  17
ENDBRANCH  12  15
ENDBRANCH   8  11
BRANCH   1  25
HETATM   25  N1  UNL     1       4.043   0.302  -2.069  1.00  0.00    -0.350 N 
HETATM   26  H7  UNL     1       3.331   0.800  -2.597  1.00  0.00     0.166 HD
BRANCH  25  27
HETATM   27  C5  UNL     1       5.335   0.892  -2.342  1.00  0.00     0.090 C 
HETATM   28  C4  UNL     1       6.442   0.965  -1.619  1.00  0.00     0.020 C 
BRANCH  28  29
HETATM   29  C3  UNL     1       7.815   1.370  -1.430  1.00  0.00     0.038 C 
HETATM   30  C2  UNL     1       8.557   1.168  -0.356  1.00  0.00     0.090 C 
HETATM   31  C1  UNL     1       7.925   0.448   0.781  1.00  0.00     0.082 C 
HETATM   32  F1  UNL     1       9.781   1.697  -0.577  1.00  0.00    -0.211 F 
ENDBRANCH  28  29
ENDBRANCH  25  27
ENDBRANCH   1  25
TORSDOF 8
