REMARK  11 active torsions:
REMARK  status: ('A' for Active; 'I' for Inactive)
REMARK    1  A    between atoms: O1_2  and  C2_3 
REMARK    2  A    between atoms: C2_3  and  C3_4 
REMARK    3  A    between atoms: C3_4  and  N1_5 
REMARK    4  A    between atoms: C5_7  and  C6_8 
REMARK    5  A    between atoms: C5_7  and  N3_11 
REMARK       I    between atoms: C6_8  and  N2_9 
REMARK    6  A    between atoms: N3_11  and  C8_13 
REMARK    7  A    between atoms: C8_13  and  C9_14 
REMARK    8  A    between atoms: C12_17  and  N4_18 
REMARK    9  A    between atoms: N4_18  and  C13_19 
REMARK   10  A    between atoms: C14_20  and  C15_21 
REMARK   11  A    between atoms: C19_28  and  O3_29 
ROOT
HETATM    1  C9  UNL     1      -1.242  -0.691   1.124  1.00  0.00    -0.006 A 
HETATM    2  C10 UNL     1      -2.419  -0.016   0.756  1.00  0.00     0.029 A 
HETATM    3  C11 UNL     1      -3.431  -0.556  -0.005  1.00  0.00     0.039 A 
HETATM    4  C12 UNL     1      -4.552   0.177  -0.319  1.00  0.00     0.141 A 
HETATM    5  N5  UNL     1      -5.527  -0.348  -1.054  1.00  0.00    -0.224 NA
HETATM    6  C16 UNL     1      -5.398  -1.633  -1.495  1.00  0.00     0.236 A 
HETATM    7  N6  UNL     1      -4.303  -2.358  -1.190  1.00  0.00    -0.241 NA
HETATM    8  C17 UNL     1      -3.334  -1.830  -0.457  1.00  0.00     0.074 A 
HETATM    9  C18 UNL     1      -2.206  -2.536  -0.129  1.00  0.00     0.070 A 
HETATM   10  C19 UNL     1      -1.211  -1.972   0.633  1.00  0.00     0.078 A 
ENDROOT
BRANCH   1  11
HETATM   11  C8  UNL     1      -0.273   0.084   1.924  1.00  0.00     0.159 C 
BRANCH  11  12
HETATM   12  N3  UNL     1       0.808   0.677   1.271  1.00  0.00    -0.393 N 
HETATM   13  C7  UNL     1       0.511   1.955   0.650  1.00  0.00     0.144 C 
BRANCH  12  14
HETATM   14  C5  UNL     1       1.830  -0.044   0.655  1.00  0.00     0.162 C 
HETATM   15  C4  UNL     1       3.183   0.730   0.569  1.00  0.00     0.315 C 
HETATM   16  N1  UNL     1       3.780  -0.591   0.503  1.00  0.00     0.096 N 
HETATM   17  C21 UNL     1       2.701  -0.970   1.435  1.00  0.00     0.315 C 
BRANCH  16  18
HETATM   18  C3  UNL     1       5.100  -0.692   1.075  1.00  0.00     0.298 C 
BRANCH  18  19
HETATM   19  C2  UNL     1       6.033   0.104   0.174  1.00  0.00     0.197 C 
BRANCH  19  20
HETATM   20  O1  UNL     1       5.996  -0.453  -1.106  1.00  0.00    -0.394 OA
HETATM   21  C1  UNL     1       6.833   0.239  -1.970  1.00  0.00     0.201 C 
ENDBRANCH  19  20
ENDBRANCH  18  19
ENDBRANCH  16  18
BRANCH  14  22
HETATM   22  C6  UNL     1       1.603  -0.551  -0.734  1.00  0.00     0.247 C 
HETATM   23  N2  UNL     1       2.676  -1.285  -1.312  1.00  0.00    -0.368 N 
HETATM   24  H10 UNL     1       2.801  -2.291  -1.035  1.00  0.00     0.159 HD
HETATM   25  H11 UNL     1       3.490  -1.364  -1.930  1.00  0.00     0.159 HD
HETATM   26  O2  UNL     1       0.659  -0.493  -1.564  1.00  0.00    -0.271 OA
ENDBRANCH  14  22
ENDBRANCH  12  14
ENDBRANCH  11  12
ENDBRANCH   1  11
BRANCH  10  27
HETATM   27  O3  UNL     1      -0.080  -2.682   0.967  1.00  0.00    -0.355 OA
HETATM   28  C20 UNL     1       0.145  -4.011   0.562  1.00  0.00     0.210 C 
ENDBRANCH  10  27
BRANCH   4  29
HETATM   29  N4  UNL     1      -4.729   1.516   0.118  1.00  0.00    -0.350 N 
HETATM   30  H18 UNL     1      -4.184   2.187   0.679  1.00  0.00     0.166 HD
BRANCH  29  31
HETATM   31  C13 UNL     1      -5.799   2.430  -0.096  1.00  0.00     0.088 C 
HETATM   32  C14 UNL     1      -5.841   3.436  -0.945  1.00  0.00     0.021 C 
BRANCH  32  33
HETATM   33  C15 UNL     1      -7.016   4.330  -1.085  1.00  0.00     0.251 C 
HETATM   34  F1  UNL     1      -8.040   3.982  -0.229  1.00  0.00    -0.251 F 
ENDBRANCH  32  33
ENDBRANCH  29  31
ENDBRANCH   4  29
TORSDOF 11
