REMARK  8 active torsions:
REMARK  status: ('A' for Active; 'I' for Inactive)
REMARK    1  A    between atoms: O1_2  and  C2_3 
REMARK    2  A    between atoms: C6_8  and  N2_9 
REMARK    3  A    between atoms: N2_9  and  C7_10 
REMARK    4  A    between atoms: C14_19  and  O2_20 
REMARK    5  A    between atoms: O2_20  and  C15_21 
REMARK    6  A    between atoms: C15_21  and  C16_22 
REMARK    7  A    between atoms: C16_22  and  C17_23 
REMARK    8  A    between atoms: C17_23  and  N3_24 
ROOT
HETATM    1  C2  UNL     1       0.871  -3.313  -0.839  1.00  0.00     0.103 C 
HETATM    2  C3  UNL     1       2.003  -3.894  -1.305  1.00  0.00     0.066 C 
HETATM    3  C4  UNL     1       3.045  -2.890  -1.467  1.00  0.00     0.035 C 
HETATM    4  N1  UNL     1       3.901  -2.271  -2.198  1.00  0.00    -0.291 NA
HETATM    5  C5  UNL     1       3.762  -0.781  -2.348  1.00  0.00     0.178 C 
HETATM    6  C6  UNL     1       2.501  -0.212  -1.639  1.00  0.00     0.134 C 
HETATM    7  C13 UNL     1       1.911  -1.269  -0.801  1.00  0.00    -0.014 C 
HETATM    8  C14 UNL     1       0.758  -1.848  -0.545  1.00  0.00     0.106 C 
HETATM    9  C22 UNL     1       3.146  -1.993  -0.192  1.00  0.00     0.098 C 
ENDROOT
BRANCH   6  10
HETATM   10  N2  UNL     1       2.714   1.002  -0.958  1.00  0.00    -0.380 N 
HETATM   11  H8  UNL     1       1.859   1.573  -1.261  1.00  0.00     0.160 HD
BRANCH  10  12
HETATM   12  C7  UNL     1       3.385   1.906  -0.098  1.00  0.00     0.030 A 
HETATM   13  C8  UNL     1       2.991   3.202   0.257  1.00  0.00     0.032 A 
HETATM   14  C9  UNL     1       3.781   3.939   1.089  1.00  0.00     0.046 A 
HETATM   15  C10 UNL     1       4.955   3.428   1.583  1.00  0.00     0.138 A 
HETATM   16  F1  UNL     1       5.578   4.322   2.385  1.00  0.00    -0.204 F 
HETATM   17  C11 UNL     1       5.380   2.157   1.259  1.00  0.00     0.074 A 
HETATM   18 CL1  UNL     1       6.901   1.748   2.016  1.00  0.00    -0.081 Cl
HETATM   19  C12 UNL     1       4.570   1.426   0.417  1.00  0.00     0.056 A 
ENDBRANCH  10  12
ENDBRANCH   6  10
BRANCH   8  20
HETATM   20  O2  UNL     1      -0.119  -0.926  -0.119  1.00  0.00    -0.348 OA
BRANCH  20  21
HETATM   21  C15 UNL     1      -0.563  -0.870   1.207  1.00  0.00     0.177 C 
BRANCH  21  22
HETATM   22  C16 UNL     1      -1.650   0.186   1.336  1.00  0.00     0.057 C 
BRANCH  22  23
HETATM   23  C17 UNL     1      -2.802  -0.204   0.414  1.00  0.00     0.274 C 
BRANCH  23  24
HETATM   24  N3  UNL     1      -3.844   0.781   0.516  1.00  0.00     0.092 N 
HETATM   25  C18 UNL     1      -4.951   0.449  -0.337  1.00  0.00     0.298 C 
HETATM   26  C19 UNL     1      -5.802   1.686  -0.531  1.00  0.00     0.198 C 
HETATM   27  O3  UNL     1      -5.791   2.418   0.649  1.00  0.00    -0.388 OA
HETATM   28  C20 UNL     1      -5.695   1.630   1.784  1.00  0.00     0.198 C 
HETATM   29  C21 UNL     1      -4.313   0.990   1.858  1.00  0.00     0.298 C 
ENDBRANCH  23  24
ENDBRANCH  22  23
ENDBRANCH  21  22
ENDBRANCH  20  21
ENDBRANCH   8  20
BRANCH   1  30
HETATM   30  O1  UNL     1      -0.255  -4.066  -0.611  1.00  0.00    -0.353 OA
HETATM   31  C1  UNL     1      -1.313  -4.098  -1.548  1.00  0.00     0.210 C 
ENDBRANCH   1  30
TORSDOF 8
