REMARK  7 active torsions:
REMARK  status: ('A' for Active; 'I' for Inactive)
REMARK    1  A    between atoms: C4_5  and  N1_6 
REMARK    2  A    between atoms: N1_6  and  C5_7 
REMARK    3  A    between atoms: C8_10  and  O1_11 
REMARK    4  A    between atoms: O1_11  and  C9_12 
REMARK    5  A    between atoms: C9_12  and  C10_13 
REMARK    6  A    between atoms: C10_13  and  C11_14 
REMARK    7  A    between atoms: C11_14  and  N2_15 
ROOT
HETATM    1  C5  UNL     1       3.105   0.053  -0.055  1.00  0.00     0.136 C 
HETATM    2  C6  UNL     1       2.389   0.854  -0.997  1.00  0.00    -0.006 C 
HETATM    3  C7  UNL     1       0.879   1.465  -1.258  1.00  0.00     0.050 C 
HETATM    4  C8  UNL     1       0.473   0.151  -1.414  1.00  0.00     0.095 C 
HETATM    5  C16 UNL     1       1.394  -0.374  -2.550  1.00  0.00     0.063 C 
HETATM    6  C17 UNL     1       2.319   0.359  -3.293  1.00  0.00     0.010 C 
HETATM    7  C18 UNL     1       3.196   1.118  -2.290  1.00  0.00     0.072 C 
HETATM    8  N3  UNL     1       1.690  -1.889  -2.440  1.00  0.00    -0.349 N 
HETATM    9  C19 UNL     1       2.798  -2.171  -1.339  1.00  0.00     0.209 C 
HETATM   10  N4  UNL     1       3.351  -1.387  -0.375  1.00  0.00    -0.226 NA
HETATM   11  H22 UNL     1       1.595  -2.892  -2.664  1.00  0.00     0.167 HD
ENDROOT
BRANCH   1  12
HETATM   12  N1  UNL     1       3.617   0.415   1.250  1.00  0.00    -0.340 N 
HETATM   13  H3  UNL     1       3.033   0.644   2.051  1.00  0.00     0.167 HD
BRANCH  12  14
HETATM   14  C4  UNL     1       5.038   0.435   1.359  1.00  0.00     0.035 A 
HETATM   15  C3  UNL     1       5.628   0.788   2.553  1.00  0.00     0.032 A 
HETATM   16  C2  UNL     1       6.987   0.840   2.775  1.00  0.00     0.046 A 
HETATM   17  C1  UNL     1       7.760   0.510   1.701  1.00  0.00     0.138 A 
HETATM   18  F1  UNL     1       9.108   0.536   1.836  1.00  0.00    -0.204 F 
HETATM   19  C21 UNL     1       7.274   0.143   0.462  1.00  0.00     0.074 A 
HETATM   20  C20 UNL     1       5.901   0.120   0.339  1.00  0.00     0.056 A 
HETATM   21 CL1  UNL     1       8.278  -0.280  -0.912  1.00  0.00    -0.081 Cl
ENDBRANCH  12  14
ENDBRANCH   1  12
BRANCH   4  22
HETATM   22  O1  UNL     1      -0.596   0.092  -0.405  1.00  0.00    -0.349 OA
BRANCH  22  23
HETATM   23  C9  UNL     1      -1.908   0.370  -0.852  1.00  0.00     0.177 C 
BRANCH  23  24
HETATM   24  C10 UNL     1      -2.839  -0.283   0.137  1.00  0.00     0.057 C 
BRANCH  24  25
HETATM   25  C11 UNL     1      -4.267  -0.023  -0.281  1.00  0.00     0.274 C 
BRANCH  25  26
HETATM   26  N2  UNL     1      -5.165  -0.638   0.632  1.00  0.00     0.092 N 
HETATM   27  C12 UNL     1      -5.201  -0.065   1.929  1.00  0.00     0.298 C 
HETATM   28  C13 UNL     1      -6.336   0.934   2.047  1.00  0.00     0.198 C 
HETATM   29  O2  UNL     1      -7.543   0.388   1.655  1.00  0.00    -0.388 OA
HETATM   30  C14 UNL     1      -7.474   0.125   0.286  1.00  0.00     0.198 C 
HETATM   31  C15 UNL     1      -6.444  -0.940   0.072  1.00  0.00     0.298 C 
ENDBRANCH  25  26
ENDBRANCH  24  25
ENDBRANCH  23  24
ENDBRANCH  22  23
ENDBRANCH   4  22
TORSDOF 7
