REMARK  1 active torsions:
REMARK  status: ('A' for Active; 'I' for Inactive)
REMARK    1  A    between atoms: C7_9  and  C8_10 
ROOT
HETATM    1  O1  UNL     1      -5.065   0.809  -0.559  1.00  0.00    -0.258 OA
HETATM    2  C1  UNL     1      -4.156   1.371  -0.213  1.00  0.00     0.296 C 
HETATM    3  C2  UNL     1      -3.464   0.083  -0.179  1.00  0.00    -0.004 C 
HETATM    4  C3  UNL     1      -2.914  -0.902  -0.140  1.00  0.00    -0.080 C 
HETATM    5  C4  UNL     1      -2.192  -2.153  -0.073  1.00  0.00     0.215 C 
HETATM    6  N1  UNL     1      -1.481  -2.050   1.219  1.00  0.00    -0.174 NA
HETATM    7  C5  UNL     1      -0.073  -2.023   1.198  1.00  0.00     0.189 C 
HETATM    8  C6  UNL     1      -0.249  -0.573   0.993  1.00  0.00     0.096 C 
HETATM    9  C7  UNL     1       0.616   0.241   0.375  1.00  0.00     0.006 C 
HETATM   10  C14 UNL     1       0.259   1.658   0.114  1.00  0.00     0.012 C 
HETATM   11  C15 UNL     1      -0.821   2.310   0.424  1.00  0.00    -0.006 C 
HETATM   12  C16 UNL     1      -1.996   3.206   0.698  1.00  0.00     0.150 C 
HETATM   13  N2  UNL     1      -3.134   2.239   0.218  1.00  0.00    -0.347 N 
HETATM   14  O2  UNL     1      -1.443  -0.724   1.648  1.00  0.00    -0.263 OA
HETATM   15  H12 UNL     1      -2.400   1.568   0.219  1.00  0.00     0.163 HD
ENDROOT
BRANCH   9  16
HETATM   16  C8  UNL     1       1.875  -0.134  -0.191  1.00  0.00    -0.022 A 
HETATM   17  C9  UNL     1       2.667  -1.006   0.492  1.00  0.00     0.015 A 
HETATM   18  C10 UNL     1       3.872  -1.372  -0.061  1.00  0.00     0.045 A 
HETATM   19  C11 UNL     1       4.352  -0.909  -1.289  1.00  0.00     0.138 A 
HETATM   20  F1  UNL     1       5.529  -1.280  -1.807  1.00  0.00    -0.204 F 
HETATM   21  C12 UNL     1       3.489  -0.017  -1.936  1.00  0.00     0.073 A 
HETATM   22 CL1  UNL     1       3.999   0.625  -3.479  1.00  0.00    -0.081 Cl
HETATM   23  C13 UNL     1       2.279   0.367  -1.408  1.00  0.00     0.039 A 
ENDBRANCH   9  16
TORSDOF 1
