REMARK  8 active torsions:
REMARK  status: ('A' for Active; 'I' for Inactive)
REMARK    1  A    between atoms: C2_2  and  N1_4 
REMARK    2  A    between atoms: N1_4  and  C4_5 
REMARK    3  A    between atoms: N1_4  and  C21_30 
REMARK    4  A    between atoms: C4_5  and  C5_6 
REMARK    5  A    between atoms: C6_7  and  C7_8 
REMARK       I    between atoms: C7_8  and  N2_10 
REMARK    6  A    between atoms: N2_10  and  C8_11 
REMARK    7  A    between atoms: C11_14  and  N3_15 
REMARK    8  A    between atoms: N3_15  and  C12_16 
ROOT
HETATM    1  C8  UNL     1      -1.580   0.194  -1.202  1.00  0.00     0.131 A 
HETATM    2  C9  UNL     1      -2.885   0.101  -0.756  1.00  0.00     0.068 A 
HETATM    3  C10 UNL     1      -3.994   0.424  -1.505  1.00  0.00     0.044 A 
HETATM    4  C11 UNL     1      -5.288   0.337  -1.079  1.00  0.00     0.142 A 
HETATM    5  N4  UNL     1      -6.210   0.702  -1.973  1.00  0.00    -0.224 NA
HETATM    6  C18 UNL     1      -5.986   1.134  -3.217  1.00  0.00     0.236 A 
HETATM    7  N5  UNL     1      -4.682   1.206  -3.605  1.00  0.00    -0.240 NA
HETATM    8  C19 UNL     1      -3.702   0.861  -2.777  1.00  0.00     0.089 A 
HETATM    9  C20 UNL     1      -2.422   0.970  -3.264  1.00  0.00     0.151 A 
HETATM   10  N6  UNL     1      -1.404   0.633  -2.461  1.00  0.00    -0.241 NA
ENDROOT
BRANCH   1  11
HETATM   11  N2  UNL     1      -0.460  -0.148  -0.395  1.00  0.00    -0.301 N 
HETATM   12  C7  UNL     1       0.837  -0.031  -0.913  1.00  0.00     0.302 C 
HETATM   13  O1  UNL     1       0.986   0.375  -2.085  1.00  0.00    -0.258 OA
HETATM   14  H10 UNL     1      -0.575  -0.485   0.576  1.00  0.00     0.171 HD
BRANCH  12  15
HETATM   15  C6  UNL     1       2.033  -0.348  -0.186  1.00  0.00    -0.004 C 
HETATM   16  C5  UNL     1       3.048  -0.596   0.423  1.00  0.00    -0.066 C 
BRANCH  16  17
HETATM   17  C4  UNL     1       4.299  -0.876   1.173  1.00  0.00     0.367 C 
BRANCH  17  18
HETATM   18  N1  UNL     1       5.310  -0.048   0.543  1.00  0.00     0.107 N 
BRANCH  18  19
HETATM   19  C2  UNL     1       5.576  -0.514  -0.769  1.00  0.00     0.216 C 
HETATM   20  C1  UNL     1       6.157  -1.912  -0.809  1.00  0.00     0.042 C 
HETATM   21  C3  UNL     1       6.333   0.395  -1.663  1.00  0.00     0.042 C 
ENDBRANCH  18  19
BRANCH  18  22
HETATM   22  C21 UNL     1       6.413   0.234   1.390  1.00  0.00     0.216 C 
HETATM   23  C22 UNL     1       7.289   1.381   0.965  1.00  0.00     0.042 C 
HETATM   24  C23 UNL     1       5.964   0.515   2.828  1.00  0.00     0.042 C 
ENDBRANCH  18  22
ENDBRANCH  17  18
ENDBRANCH  16  17
ENDBRANCH  12  15
ENDBRANCH   1  11
BRANCH   4  25
HETATM   25  N3  UNL     1      -5.553  -0.124   0.233  1.00  0.00    -0.340 N 
HETATM   26  H12 UNL     1      -4.800  -0.414   0.867  1.00  0.00     0.167 HD
BRANCH  25  27
HETATM   27  C12 UNL     1      -6.786  -0.283   0.920  1.00  0.00     0.035 A 
HETATM   28  C13 UNL     1      -6.965  -0.879   2.150  1.00  0.00     0.032 A 
HETATM   29  C14 UNL     1      -8.180  -1.002   2.773  1.00  0.00     0.046 A 
HETATM   30  C15 UNL     1      -9.324  -0.517   2.177  1.00  0.00     0.138 A 
HETATM   31  F1  UNL     1     -10.460  -0.692   2.880  1.00  0.00    -0.204 F 
HETATM   32  C16 UNL     1      -9.183   0.087   0.945  1.00  0.00     0.074 A 
HETATM   33 CL1  UNL     1     -10.683   0.678   0.252  1.00  0.00    -0.081 Cl
HETATM   34  C17 UNL     1      -7.950   0.192   0.351  1.00  0.00     0.056 A 
ENDBRANCH  25  27
ENDBRANCH   4  25
TORSDOF 8
