REMARK  7 active torsions:
REMARK  status: ('A' for Active; 'I' for Inactive)
REMARK    1  A    between atoms: C2_2  and  N1_4 
REMARK    2  A    between atoms: N1_4  and  C4_5 
REMARK    3  A    between atoms: N1_4  and  C18_26 
REMARK    4  A    between atoms: C4_5  and  C5_6 
REMARK    5  A    between atoms: C6_7  and  C7_8 
REMARK    6  A    between atoms: C11_15  and  N5_16 
REMARK    7  A    between atoms: N5_16  and  C12_17 
ROOT
HETATM    1  C7  UNL     1       1.171  -0.676  -0.757  1.00  0.00     0.294 A 
HETATM    2  N2  UNL     1       0.899  -1.187  -2.078  1.00  0.00    -0.260 NA
HETATM    3  C8  UNL     1       1.384  -0.406  -2.972  1.00  0.00     0.164 A 
HETATM    4  C9  UNL     1       2.061   0.758  -2.417  1.00  0.00     0.149 A 
HETATM    5  N3  UNL     1       2.695   1.801  -2.831  1.00  0.00    -0.223 NA
HETATM    6  C10 UNL     1       3.181   2.670  -1.799  1.00  0.00     0.233 A 
HETATM    7  N4  UNL     1       3.053   2.519  -0.526  1.00  0.00    -0.237 NA
HETATM    8  C11 UNL     1       2.359   1.390   0.062  1.00  0.00     0.319 A 
HETATM    9  N6  UNL     1       1.899   0.546  -1.022  1.00  0.00    -0.290 N 
ENDROOT
BRANCH   1  10
HETATM   10  C6  UNL     1      -0.130  -0.360  -0.128  1.00  0.00    -0.056 C 
HETATM   11  C5  UNL     1      -1.192  -0.095   0.366  1.00  0.00    -0.083 C 
BRANCH  11  12
HETATM   12  C4  UNL     1      -2.482   0.249   0.953  1.00  0.00     0.212 C 
BRANCH  12  13
HETATM   13  N1  UNL     1      -3.543  -0.402   0.332  1.00  0.00    -0.395 N 
BRANCH  13  14
HETATM   14  C2  UNL     1      -3.872  -0.058  -0.997  1.00  0.00     0.072 C 
HETATM   15  C1  UNL     1      -4.238   1.400  -1.132  1.00  0.00     0.031 C 
HETATM   16  C3  UNL     1      -2.875  -0.490  -2.046  1.00  0.00     0.031 C 
ENDBRANCH  13  14
BRANCH  13  17
HETATM   17  C18 UNL     1      -4.525  -1.070   1.087  1.00  0.00     0.072 C 
HETATM   18  C19 UNL     1      -4.019  -1.417   2.458  1.00  0.00     0.031 C 
HETATM   19  C20 UNL     1      -5.766  -0.194   1.304  1.00  0.00     0.031 C 
ENDBRANCH  13  17
ENDBRANCH  12  13
ENDBRANCH  11  12
ENDBRANCH   1  10
BRANCH   8  20
HETATM   20  N5  UNL     1       3.171   0.752   1.034  1.00  0.00    -0.351 N 
HETATM   21  H14 UNL     1       2.808   0.736   2.038  1.00  0.00     0.163 HD
BRANCH  20  22
HETATM   22  C12 UNL     1       4.414   0.115   0.895  1.00  0.00     0.032 A 
HETATM   23  C13 UNL     1       5.076  -0.070  -0.299  1.00  0.00     0.032 A 
HETATM   24  C14 UNL     1       6.297  -0.686  -0.468  1.00  0.00     0.046 A 
HETATM   25  C15 UNL     1       6.935  -1.171   0.641  1.00  0.00     0.138 A 
HETATM   26  F1  UNL     1       8.135  -1.790   0.577  1.00  0.00    -0.204 F 
HETATM   27  C16 UNL     1       6.336  -1.024   1.870  1.00  0.00     0.074 A 
HETATM   28 CL1  UNL     1       7.122  -1.632   3.311  1.00  0.00    -0.081 Cl
HETATM   29  C17 UNL     1       5.116  -0.398   1.965  1.00  0.00     0.056 A 
ENDBRANCH  20  22
ENDBRANCH   8  20
TORSDOF 7
