REMARK  8 active torsions:
REMARK  status: ('A' for Active; 'I' for Inactive)
REMARK    1  A    between atoms: C2_2  and  C3_3 
REMARK    2  A    between atoms: C4_4  and  C5_5 
REMARK    3  A    between atoms: C5_5  and  C6_6 
REMARK    4  A    between atoms: C10_12  and  O1_13 
REMARK    5  A    between atoms: C12_15  and  C13_16 
REMARK    6  A    between atoms: C13_16  and  N3_17 
REMARK    7  A    between atoms: N3_17  and  C15_19 
REMARK    8  A    between atoms: C15_19  and  C16_20 
ROOT
HETATM    1  C6  UNL     1       2.188  -1.123  -0.623  1.00  0.00     0.051 A 
HETATM    2  N1  UNL     1       3.028  -2.092  -0.223  1.00  0.00    -0.245 NA
HETATM    3  C7  UNL     1       2.595  -3.195   0.425  1.00  0.00     0.234 A 
HETATM    4  N2  UNL     1       1.280  -3.311   0.668  1.00  0.00    -0.241 NA
HETATM    5  C8  UNL     1       0.384  -2.386   0.299  1.00  0.00     0.073 A 
HETATM    6  C9  UNL     1      -0.968  -2.515   0.552  1.00  0.00     0.070 A 
HETATM    7  C10 UNL     1      -1.795  -1.501   0.121  1.00  0.00     0.078 A 
HETATM    8  C12 UNL     1      -1.369  -0.376  -0.540  1.00  0.00    -0.006 A 
HETATM    9  C17 UNL     1       0.001  -0.276  -0.779  1.00  0.00     0.027 A 
HETATM   10  C18 UNL     1       0.851  -1.282  -0.354  1.00  0.00     0.018 A 
ENDROOT
BRANCH   8  11
HETATM   11  C13 UNL     1      -2.272   0.716  -0.990  1.00  0.00     0.158 C 
BRANCH  11  12
HETATM   12  N3  UNL     1      -2.589   1.548   0.112  1.00  0.00    -0.410 N 
HETATM   13  C14 UNL     1      -1.511   2.220   0.743  1.00  0.00     0.143 C 
BRANCH  12  14
HETATM   14  C15 UNL     1      -3.867   2.153   0.149  1.00  0.00     0.153 C 
BRANCH  14  15
HETATM   15  C16 UNL     1      -4.895   1.071   0.377  1.00  0.00     0.410 C 
HETATM   16  O2  UNL     1      -5.999   0.531   0.547  1.00  0.00    -0.428 OA
ENDBRANCH  14  15
ENDBRANCH  12  14
ENDBRANCH  11  12
ENDBRANCH   8  11
BRANCH   7  17
HETATM   17  O1  UNL     1      -3.147  -1.657   0.389  1.00  0.00    -0.355 OA
HETATM   18  C11 UNL     1      -3.697  -2.757   1.054  1.00  0.00     0.210 C 
ENDBRANCH   7  17
BRANCH   1  19
HETATM   19  C5  UNL     1       2.816   0.044  -1.289  1.00  0.00     0.087 C 
BRANCH  19  20
HETATM   20  C4  UNL     1       2.919   1.141  -0.276  1.00  0.00    -0.021 C 
HETATM   21  C3  UNL     1       4.027   1.697   0.141  1.00  0.00    -0.004 C 
BRANCH  21  22
HETATM   22  C2  UNL     1       5.407   1.482  -0.187  1.00  0.00    -0.011 C 
HETATM   23  C1  UNL     1       6.548   2.019   0.210  1.00  0.00     0.011 C 
ENDBRANCH  21  22
ENDBRANCH  19  20
ENDBRANCH   1  19
TORSDOF 8
