REMARK  7 active torsions:
REMARK  status: ('A' for Active; 'I' for Inactive)
REMARK    1  A    between atoms: C2_2  and  C3_3 
REMARK    2  A    between atoms: C3_3  and  O1_4 
REMARK    3  A    between atoms: O1_4  and  C4_5 
REMARK    4  A    between atoms: C4_5  and  C5_6 
REMARK    5  A    between atoms: C5_6  and  C6_7 
REMARK    6  A    between atoms: C7_8  and  C8_9 
REMARK    7  A    between atoms: N3_18  and  C15_19 
ROOT
HETATM    1  C8  UNL     1      -0.748   1.999  -1.748  1.00  0.00     0.186 A 
HETATM    2  C9  UNL     1      -1.691   1.071  -1.079  1.00  0.00     0.043 A 
HETATM    3  C10 UNL     1      -2.669   1.480  -0.293  1.00  0.00     0.067 A 
HETATM    4  C11 UNL     1      -2.915   2.884  -0.011  1.00  0.00     0.009 A 
HETATM    5  C12 UNL     1      -2.147   3.818  -0.545  1.00  0.00     0.098 A 
HETATM    6  N1  UNL     1      -1.114   3.349  -1.376  1.00  0.00    -0.380 N 
HETATM    7  C13 UNL     1      -4.027   3.236   0.858  1.00  0.00     0.034 A 
HETATM    8  C14 UNL     1      -4.786   2.302   1.373  1.00  0.00     0.108 A 
HETATM    9  N2  UNL     1      -4.525   0.914   1.082  1.00  0.00    -0.305 N 
HETATM   10  N3  UNL     1      -3.473   0.446   0.251  1.00  0.00    -0.256 N 
HETATM   11  H15 UNL     1      -0.440   3.982  -1.857  1.00  0.00     0.160 HD
HETATM   12  H18 UNL     1      -5.184   0.223   1.536  1.00  0.00     0.186 HD
ENDROOT
BRANCH   1  13
HETATM   13  C7  UNL     1       0.613   1.645  -1.355  1.00  0.00    -0.077 C 
HETATM   14  C6  UNL     1       1.732   1.347  -1.046  1.00  0.00    -0.102 C 
BRANCH  14  15
HETATM   15  C5  UNL     1       3.121   0.982  -0.686  1.00  0.00     0.120 C 
BRANCH  15  16
HETATM   16  C4  UNL     1       3.348  -0.423  -1.215  1.00  0.00     0.179 C 
BRANCH  16  17
HETATM   17  O1  UNL     1       4.607  -0.916  -0.960  1.00  0.00    -0.390 OA
BRANCH  17  18
HETATM   18  C3  UNL     1       4.950  -1.006   0.367  1.00  0.00     0.167 C 
BRANCH  18  19
HETATM   19  C2  UNL     1       6.368  -1.566   0.531  1.00  0.00     0.022 C 
HETATM   20  C1  UNL     1       6.691  -1.643   2.008  1.00  0.00     0.007 C 
ENDBRANCH  18  19
ENDBRANCH  17  18
ENDBRANCH  16  17
ENDBRANCH  15  16
ENDBRANCH  14  15
ENDBRANCH   1  13
BRANCH  10  21
HETATM   21  C15 UNL     1      -3.389  -0.955   0.087  1.00  0.00     0.058 A 
HETATM   22  C16 UNL     1      -4.630  -1.516  -0.240  1.00  0.00     0.034 A 
HETATM   23  C17 UNL     1      -4.820  -2.884  -0.437  1.00  0.00     0.046 A 
HETATM   24  C18 UNL     1      -3.768  -3.733  -0.310  1.00  0.00     0.138 A 
HETATM   25  F1  UNL     1      -3.799  -5.076  -0.471  1.00  0.00    -0.204 F 
HETATM   26  C19 UNL     1      -2.539  -3.198   0.012  1.00  0.00     0.074 A 
HETATM   27 CL1  UNL     1      -1.108  -4.194   0.202  1.00  0.00    -0.081 Cl
HETATM   28  C20 UNL     1      -2.350  -1.849   0.207  1.00  0.00     0.058 A 
ENDBRANCH  10  21
TORSDOF 7
