REMARK  2 active torsions:
REMARK  status: ('A' for Active; 'I' for Inactive)
REMARK    1  A    between atoms: C7_8  and  N1_9 
REMARK    2  A    between atoms: N1_9  and  C8_10 
ROOT
HETATM    1  C1  UNL     1      -2.354   1.794   0.278  1.00  0.00     0.020 C 
HETATM    2  C2  UNL     1      -2.197   0.744  -0.787  1.00  0.00     0.008 C 
HETATM    3  C3  UNL     1      -2.508  -0.452  -1.112  1.00  0.00     0.071 A 
HETATM    4 CL1  UNL     1      -3.248  -1.962  -0.889  1.00  0.00    -0.201 Cl
HETATM    5  C4  UNL     1      -3.125  -0.493   0.281  1.00  0.00     0.141 A 
HETATM    6  C5  UNL     1      -2.315  -0.819   1.333  1.00  0.00    -0.002 C 
HETATM    7  C6  UNL     1      -1.501  -1.789   0.891  1.00  0.00     0.031 C 
HETATM    8  C7  UNL     1      -0.419  -1.452  -0.089  1.00  0.00     0.126 C 
HETATM    9  N2  UNL     1       0.075  -1.257  -1.292  1.00  0.00    -0.225 NA
HETATM   10  C14 UNL     1      -0.788  -1.423  -2.390  1.00  0.00     0.228 C 
HETATM   11  N3  UNL     1      -1.552  -0.431  -2.798  1.00  0.00    -0.282 NA
HETATM   12  C15 UNL     1      -1.474   0.840  -2.077  1.00  0.00     0.162 C 
ENDROOT
BRANCH   8  13
HETATM   13  N1  UNL     1       0.721  -1.244   0.777  1.00  0.00    -0.341 N 
HETATM   14  H6  UNL     1       0.782  -1.826   1.688  1.00  0.00     0.167 HD
BRANCH  13  15
HETATM   15  C8  UNL     1       1.880  -0.393   0.688  1.00  0.00     0.033 A 
HETATM   16  C9  UNL     1       2.186   0.400  -0.372  1.00  0.00     0.032 A 
HETATM   17  C10 UNL     1       3.272   1.232  -0.475  1.00  0.00     0.044 A 
HETATM   18  C11 UNL     1       4.146   1.281   0.588  1.00  0.00     0.116 A 
HETATM   19  F1  UNL     1       5.253   2.056   0.621  1.00  0.00    -0.206 F 
HETATM   20  C12 UNL     1       3.890   0.502   1.686  1.00  0.00     0.044 A 
HETATM   21  C13 UNL     1       2.784  -0.308   1.722  1.00  0.00     0.032 A 
ENDBRANCH  13  15
ENDBRANCH   8  13
TORSDOF 2
