REMARK  7 active torsions:
REMARK  status: ('A' for Active; 'I' for Inactive)
REMARK    1  A    between atoms: C2_2  and  C3_3 
REMARK    2  A    between atoms: C2_2  and  N2_12 
REMARK    3  A    between atoms: C3_3  and  C4_4 
REMARK    4  A    between atoms: C4_4  and  N1_5 
REMARK    5  A    between atoms: N2_12  and  C9_13 
REMARK    6  A    between atoms: C15_19  and  N3_20 
REMARK    7  A    between atoms: N3_20  and  C16_21 
ROOT
HETATM    1  C9  UNL     1       0.427   0.941  -0.887  1.00  0.00     0.033 A 
HETATM    2  C10 UNL     1       0.622   2.053  -1.682  1.00  0.00     0.031 A 
HETATM    3  C11 UNL     1       1.915   2.469  -1.810  1.00  0.00     0.022 A 
HETATM    4  C12 UNL     1       3.023   1.893  -1.231  1.00  0.00     0.016 A 
HETATM    5  C13 UNL     1       2.771   0.787  -0.448  1.00  0.00     0.029 A 
HETATM    6  C14 UNL     1       1.490   0.311  -0.274  1.00  0.00     0.046 A 
HETATM    7  C15 UNL     1       3.907   0.136   0.189  1.00  0.00     0.135 A 
HETATM    8  N4  UNL     1       5.141   0.431   0.141  1.00  0.00    -0.262 NA
HETATM    9  C20 UNL     1       5.801   1.482  -0.544  1.00  0.00     0.230 A 
HETATM   10  S1  UNL     1       4.676   2.545  -1.483  1.00  0.00    -0.107 SA
ENDROOT
BRANCH   1  11
HETATM   11  N2  UNL     1      -0.908   0.465  -0.720  1.00  0.00    -0.363 N 
HETATM   12  H13 UNL     1      -1.047  -0.225  -1.501  1.00  0.00     0.165 HD
BRANCH  11  13
HETATM   13  C2  UNL     1      -1.718   0.947   0.343  1.00  0.00    -0.011 C 
HETATM   14  C1  UNL     1      -1.623   0.654   1.631  1.00  0.00     0.058 C 
BRANCH  13  15
HETATM   15  C3  UNL     1      -2.686   1.848  -0.332  1.00  0.00     0.072 C 
BRANCH  15  16
HETATM   16  C4  UNL     1      -3.503   1.089  -1.358  1.00  0.00     0.131 C 
BRANCH  16  17
HETATM   17  N1  UNL     1      -4.254   0.012  -0.742  1.00  0.00    -0.348 N 
HETATM   18  C5  UNL     1      -3.915  -1.379  -0.499  1.00  0.00     0.152 C 
HETATM   19  C6  UNL     1      -4.440  -1.728   0.862  1.00  0.00     0.188 C 
HETATM   20  O1  UNL     1      -5.804  -1.725   0.982  1.00  0.00    -0.380 OA
HETATM   21  C7  UNL     1      -6.429  -0.572   0.590  1.00  0.00     0.270 C 
HETATM   22  C8  UNL     1      -5.574   0.307  -0.267  1.00  0.00     0.243 C 
HETATM   23  O2  UNL     1      -6.187   1.382  -0.529  1.00  0.00    -0.271 OA
ENDBRANCH  16  17
ENDBRANCH  15  16
ENDBRANCH  13  15
ENDBRANCH  11  13
ENDBRANCH   1  11
BRANCH   7  24
HETATM   24  N3  UNL     1       3.645  -1.022   1.012  1.00  0.00    -0.338 N 
HETATM   25  H17 UNL     1       2.728  -1.152   1.524  1.00  0.00     0.167 HD
BRANCH  24  26
HETATM   26  C16 UNL     1       4.601  -2.086   1.203  1.00  0.00     0.072 A 
HETATM   27  C17 UNL     1       4.851  -3.383   1.100  1.00  0.00     0.036 A 
HETATM   28  C18 UNL     1       6.194  -3.172   1.624  1.00  0.00     0.047 A 
HETATM   29  C19 UNL     1       5.942  -1.869   1.727  1.00  0.00     0.143 A 
HETATM   30  F1  UNL     1       6.820  -0.924   2.191  1.00  0.00    -0.204 F 
ENDBRANCH  24  26
ENDBRANCH   7  24
TORSDOF 7
