REMARK  8 active torsions:
REMARK  status: ('A' for Active; 'I' for Inactive)
REMARK    1  A    between atoms: C2_2  and  N1_3 
REMARK    2  A    between atoms: N1_3  and  C3_4 
REMARK    3  A    between atoms: N1_3  and  C21_29 
REMARK    4  A    between atoms: C3_4  and  C4_5 
REMARK    5  A    between atoms: C5_6  and  C6_7 
REMARK       I    between atoms: C6_7  and  N2_9 
REMARK    6  A    between atoms: N2_9  and  C7_10 
REMARK    7  A    between atoms: C12_15  and  N3_16 
REMARK    8  A    between atoms: N3_16  and  C13_17 
ROOT
HETATM    1  C7  UNL     1      -2.803  -1.322   0.018  1.00  0.00     0.063 A 
HETATM    2  C8  UNL     1      -3.290  -2.463   0.628  1.00  0.00     0.048 A 
HETATM    3  C9  UNL     1      -4.553  -2.884   0.218  1.00  0.00     0.025 A 
HETATM    4  C10 UNL     1      -5.262  -2.194  -0.740  1.00  0.00     0.071 A 
HETATM    5  C11 UNL     1      -4.766  -1.058  -1.341  1.00  0.00     0.064 A 
HETATM    6  C12 UNL     1      -3.518  -0.615  -0.956  1.00  0.00     0.062 A 
HETATM    7  N4  UNL     1      -6.508  -2.847  -0.957  1.00  0.00    -0.258 NA
HETATM    8  C19 UNL     1      -6.625  -3.896  -0.202  1.00  0.00     0.149 A 
HETATM    9  C20 UNL     1      -5.418  -3.999   0.586  1.00  0.00     0.078 A 
HETATM   10  N5  UNL     1      -5.161  -4.905   1.448  1.00  0.00    -0.298 NA
HETATM   11  H16 UNL     1      -4.248  -4.911   1.988  1.00  0.00     0.187 HD
ENDROOT
BRANCH   1  12
HETATM   12  N2  UNL     1      -1.490  -0.926   0.472  1.00  0.00    -0.314 N 
HETATM   13  C6  UNL     1      -0.512  -1.564  -0.369  1.00  0.00     0.301 C 
HETATM   14  O1  UNL     1      -0.876  -2.324  -1.316  1.00  0.00    -0.258 OA
HETATM   15  H8  UNL     1      -1.058  -0.330   1.211  1.00  0.00     0.170 HD
BRANCH  13  16
HETATM   16  C5  UNL     1       0.907  -1.370  -0.177  1.00  0.00    -0.004 C 
HETATM   17  C4  UNL     1       2.095  -1.225  -0.028  1.00  0.00    -0.066 C 
BRANCH  17  18
HETATM   18  C3  UNL     1       3.560  -1.062   0.135  1.00  0.00     0.366 C 
BRANCH  18  19
HETATM   19  N1  UNL     1       3.755   0.311   0.522  1.00  0.00     0.102 N 
BRANCH  19  20
HETATM   20  C2  UNL     1       3.404   1.142  -0.618  1.00  0.00     0.269 C 
HETATM   21  C1  UNL     1       3.595   2.587  -0.248  1.00  0.00     0.037 C 
ENDBRANCH  19  20
BRANCH  19  22
HETATM   22  C21 UNL     1       5.100   0.535   0.968  1.00  0.00     0.216 C 
HETATM   23  C22 UNL     1       5.359  -0.371   2.151  1.00  0.00     0.042 C 
HETATM   24  C23 UNL     1       6.120   0.289  -0.127  1.00  0.00     0.042 C 
ENDBRANCH  19  22
ENDBRANCH  18  19
ENDBRANCH  17  18
ENDBRANCH  13  16
ENDBRANCH   1  12
BRANCH   6  25
HETATM   25  N3  UNL     1      -2.916   0.547  -1.519  1.00  0.00    -0.354 N 
HETATM   26  H11 UNL     1      -2.770   0.482  -2.549  1.00  0.00     0.166 HD
BRANCH  25  27
HETATM   27  C13 UNL     1      -2.501   1.749  -0.864  1.00  0.00     0.034 A 
HETATM   28  C14 UNL     1      -1.867   2.764  -1.554  1.00  0.00     0.032 A 
HETATM   29  C15 UNL     1      -1.501   3.891  -0.850  1.00  0.00     0.046 A 
HETATM   30  C16 UNL     1      -1.728   4.065   0.494  1.00  0.00     0.138 A 
HETATM   31  F1  UNL     1      -1.354   5.189   1.156  1.00  0.00    -0.204 F 
HETATM   32  C17 UNL     1      -2.367   3.052   1.210  1.00  0.00     0.074 A 
HETATM   33 CL1  UNL     1      -2.671   3.234   2.906  1.00  0.00    -0.081 Cl
HETATM   34  C18 UNL     1      -2.730   1.920   0.485  1.00  0.00     0.056 A 
ENDBRANCH  25  27
ENDBRANCH   6  25
TORSDOF 8
