REMARK  6 active torsions:
REMARK  status: ('A' for Active; 'I' for Inactive)
REMARK    1  A    between atoms: C9_12  and  C10_13 
REMARK    2  A    between atoms: C11_14  and  N3_15 
REMARK    3  A    between atoms: N3_15  and  C12_16 
REMARK    4  A    between atoms: C12_16  and  C13_17 
REMARK    5  A    between atoms: C14_18  and  C15_19 
REMARK    6  A    between atoms: C15_19  and  N4_20 
ROOT
HETATM    1  F1  UNL     1      -8.751  -0.581   2.395  1.00  0.00    -0.205 F 
HETATM    2  C1  UNL     1      -7.828  -0.703   1.418  1.00  0.00     0.134 A 
HETATM    3  C2  UNL     1      -6.597  -0.391   1.723  1.00  0.00     0.022 A 
HETATM    4  C3  UNL     1      -5.347  -0.410   0.898  1.00  0.00     0.070 A 
HETATM    5  C4  UNL     1      -5.597  -0.861  -0.483  1.00  0.00    -0.039 A 
HETATM    6  C5  UNL     1      -4.790  -1.006  -1.497  1.00  0.00     0.017 A 
HETATM    7  C6  UNL     1      -5.190  -1.443  -2.731  1.00  0.00     0.132 A 
HETATM    8  N1  UNL     1      -4.358  -1.583  -3.771  1.00  0.00    -0.253 NA
HETATM    9  C7  UNL     1      -3.052  -1.297  -3.663  1.00  0.00     0.233 A 
HETATM   10  N2  UNL     1      -2.627  -0.868  -2.472  1.00  0.00    -0.241 NA
HETATM   11  C8  UNL     1      -3.468  -0.732  -1.437  1.00  0.00     0.070 A 
HETATM   12  C9  UNL     1      -2.885  -0.313  -0.344  1.00  0.00     0.034 C 
HETATM   13  C20 UNL     1      -6.975  -1.193  -0.759  1.00  0.00     0.035 A 
HETATM   14  C21 UNL     1      -8.014  -1.141   0.051  1.00  0.00     0.072 A 
HETATM   15 CL1  UNL     1      -9.667  -1.552  -0.329  1.00  0.00    -0.081 Cl
ENDROOT
BRANCH  12  16
HETATM   16  C10 UNL     1      -1.440  -0.014  -0.271  1.00  0.00     0.019 C 
HETATM   17  C11 UNL     1      -0.599   0.404   0.645  1.00  0.00     0.084 C 
BRANCH  17  18
HETATM   18  N3  UNL     1       0.756   0.585   0.358  1.00  0.00    -0.389 N 
HETATM   19  H9  UNL     1       1.306   1.482   0.334  1.00  0.00     0.159 HD
BRANCH  18  20
HETATM   20  C12 UNL     1       1.408  -0.681   0.068  1.00  0.00     0.213 C 
BRANCH  20  21
HETATM   21  C13 UNL     1       2.828  -0.452  -0.248  1.00  0.00    -0.085 C 
HETATM   22  C14 UNL     1       3.985  -0.273  -0.523  1.00  0.00    -0.086 C 
BRANCH  22  23
HETATM   23  C15 UNL     1       5.376  -0.063  -0.869  1.00  0.00     0.211 C 
BRANCH  23  24
HETATM   24  N4  UNL     1       6.124   0.719   0.045  1.00  0.00    -0.399 N 
HETATM   25  C16 UNL     1       5.787   2.099   0.145  1.00  0.00     0.144 C 
HETATM   26  C17 UNL     1       6.987   2.844   0.694  1.00  0.00     0.187 C 
HETATM   27  O1  UNL     1       8.073   1.985   0.944  1.00  0.00    -0.388 OA
HETATM   28  C18 UNL     1       7.700   0.950   1.796  1.00  0.00     0.187 C 
HETATM   29  C19 UNL     1       6.587   0.092   1.230  1.00  0.00     0.144 C 
ENDBRANCH  23  24
ENDBRANCH  22  23
ENDBRANCH  20  21
ENDBRANCH  18  20
ENDBRANCH  17  18
ENDBRANCH  12  16
TORSDOF 6
