REMARK  4 active torsions:
REMARK  status: ('A' for Active; 'I' for Inactive)
REMARK    1  A    between atoms: N1_7  and  C6_8 
REMARK    2  A    between atoms: C6_8  and  C7_9 
REMARK    3  A    between atoms: C8_10  and  C9_11 
REMARK    4  A    between atoms: C9_11  and  C10_13 
ROOT
HETATM    1  C9  UNL     1       1.357   0.012  -1.842  1.00  0.00     0.235 C 
HETATM    2  O2  UNL     1       1.193   0.484  -3.008  1.00  0.00    -0.278 OA
ENDROOT
BRANCH   1   3
HETATM    3  C8  UNL     1       0.253  -0.670  -1.263  1.00  0.00    -0.022 C 
HETATM    4  C7  UNL     1      -0.666  -1.251  -0.758  1.00  0.00    -0.079 C 
BRANCH   4   5
HETATM    5  C6  UNL     1      -1.783  -1.957  -0.116  1.00  0.00     0.212 C 
BRANCH   5   6
HETATM    6  N1  UNL     1      -2.979  -1.205  -0.309  1.00  0.00    -0.395 N 
HETATM    7  C2  UNL     1      -2.801   0.213  -0.160  1.00  0.00     0.099 C 
HETATM    8  C1  UNL     1      -2.197   0.632   1.149  1.00  0.00     0.034 C 
HETATM    9  C3  UNL     1      -4.084   0.947  -0.354  1.00  0.00     0.192 C 
HETATM   10  O1  UNL     1      -5.015   0.140  -0.989  1.00  0.00    -0.388 OA
HETATM   11  C4  UNL     1      -5.362  -0.990  -0.262  1.00  0.00     0.187 C 
HETATM   12  C5  UNL     1      -4.166  -1.747   0.251  1.00  0.00     0.144 C 
ENDBRANCH   5   6
ENDBRANCH   4   5
ENDBRANCH   1   3
BRANCH   1  13
HETATM   13  C10 UNL     1       2.627   0.174  -1.151  1.00  0.00     0.021 C 
HETATM   14  C11 UNL     1       3.622   0.829  -1.773  1.00  0.00     0.018 C 
HETATM   15  C12 UNL     1       5.041   1.089  -1.285  1.00  0.00     0.320 C 
HETATM   16  N2  UNL     1       5.287   0.479  -0.217  1.00  0.00    -0.405 NA
HETATM   17  C13 UNL     1       6.357   0.327   0.664  1.00  0.00     0.765 C 
HETATM   18  N3  UNL     1       5.657   0.905   1.642  1.00  0.00     0.043 NA
HETATM   19  C14 UNL     1       4.358   1.355   1.392  1.00  0.00     0.280 C 
HETATM   20  C15 UNL     1       3.244   0.439   1.379  1.00  0.00     0.003 C 
HETATM   21  C16 UNL     1       2.532  -0.023   0.312  1.00  0.00     0.013 C 
ENDBRANCH   1  13
TORSDOF 4
