REMARK  6 active torsions:
REMARK  status: ('A' for Active; 'I' for Inactive)
REMARK    1  A    between atoms: C5_7  and  C6_8 
REMARK    2  A    between atoms: C7_9  and  C8_10 
REMARK       I    between atoms: C8_10  and  N2_12 
REMARK    3  A    between atoms: N2_12  and  C9_13 
REMARK    4  A    between atoms: C14_20  and  N5_21 
REMARK    5  A    between atoms: N5_21  and  C15_22 
REMARK    6  A    between atoms: C15_22  and  C16_23 
ROOT
HETATM    1  C9  UNL     1      -1.253  -0.981  -0.150  1.00  0.00     0.006 C 
HETATM    2  C10 UNL     1      -1.770  -2.099  -0.557  1.00  0.00     0.069 C 
HETATM    3  C11 UNL     1      -1.826  -3.447  -1.010  1.00  0.00     0.004 C 
HETATM    4  C12 UNL     1      -3.167  -3.528  -1.131  1.00  0.00     0.114 C 
HETATM    5  N3  UNL     1      -4.573  -3.532  -1.231  1.00  0.00    -0.254 NA
HETATM    6  C13 UNL     1      -5.164  -2.402  -0.948  1.00  0.00     0.234 C 
HETATM    7  N4  UNL     1      -3.938  -1.810  -0.691  1.00  0.00    -0.229 NA
HETATM    8  C14 UNL     1      -3.731  -0.669  -0.187  1.00  0.00     0.106 C 
HETATM    9  C18 UNL     1      -2.425  -0.098   0.086  1.00  0.00     0.131 C 
ENDROOT
BRANCH   1  10
HETATM   10  N2  UNL     1      -0.043  -0.254   0.173  1.00  0.00    -0.323 N 
HETATM   11  C8  UNL     1       1.272  -0.748   0.087  1.00  0.00     0.300 C 
HETATM   12  O2  UNL     1       1.434  -1.928  -0.303  1.00  0.00    -0.258 OA
HETATM   13  H11 UNL     1      -0.078   0.721   0.501  1.00  0.00     0.169 HD
BRANCH  11  14
HETATM   14  C7  UNL     1       2.418   0.048   0.427  1.00  0.00    -0.003 C 
HETATM   15  C6  UNL     1       3.379   0.737   0.707  1.00  0.00    -0.058 C 
BRANCH  15  16
HETATM   16  C5  UNL     1       4.531   1.574   1.050  1.00  0.00     0.327 C 
HETATM   17  C2  UNL     1       5.508   0.784   1.871  1.00  0.00     0.162 C 
HETATM   18  C1  UNL     1       6.013   1.730   2.962  1.00  0.00     0.042 C 
HETATM   19  O1  UNL     1       6.640   0.420   1.142  1.00  0.00    -0.381 OA
HETATM   20  C3  UNL     1       6.233  -0.022  -0.102  1.00  0.00     0.198 C 
HETATM   21  C4  UNL     1       5.859   1.165  -0.932  1.00  0.00     0.297 C 
HETATM   22  N1  UNL     1       5.129   2.114  -0.153  1.00  0.00     0.104 N 
HETATM   23  H9  UNL     1       4.342   2.566  -0.697  1.00  0.00     0.317 HD
ENDBRANCH  15  16
ENDBRANCH  11  14
ENDBRANCH   1  10
BRANCH   8  24
HETATM   24  N5  UNL     1      -4.865   0.112   0.160  1.00  0.00    -0.377 N 
HETATM   25  H16 UNL     1      -4.821   0.589   1.113  1.00  0.00     0.160 HD
BRANCH  24  26
HETATM   26  C15 UNL     1      -6.071   0.362  -0.599  1.00  0.00     0.129 C 
BRANCH  26  27
HETATM   27  C16 UNL     1      -5.675   1.236  -1.768  1.00  0.00     0.047 C 
HETATM   28  C17 UNL     1      -6.177   2.453  -2.002  1.00  0.00     0.420 C 
HETATM   29  F1  UNL     1      -7.085   3.263  -1.403  1.00  0.00    -0.455 F 
ENDBRANCH  26  27
ENDBRANCH  24  26
ENDBRANCH   8  24
TORSDOF 6
