REMARK  9 active torsions:
REMARK  status: ('A' for Active; 'I' for Inactive)
REMARK       I    between atoms: N1_2  and  C2_3 
REMARK    1  A    between atoms: C2_3  and  C3_5 
REMARK    2  A    between atoms: C3_5  and  N2_7 
REMARK    3  A    between atoms: N2_7  and  C6_9 
REMARK    4  A    between atoms: C6_9  and  C7_10 
REMARK    5  A    between atoms: C10_13  and  N3_14 
REMARK    6  A    between atoms: N3_14  and  C11_15 
REMARK    7  A    between atoms: C11_15  and  C12_16 
REMARK    8  A    between atoms: C12_16  and  C13_17 
REMARK    9  A    between atoms: C17_24  and  O2_25 
ROOT
HETATM    1  C7  UNL     1      -0.196   0.000  -0.753  1.00  0.00     0.004 A 
HETATM    2  C8  UNL     1       0.921  -0.572  -0.192  1.00  0.00     0.029 A 
HETATM    3  C9  UNL     1       2.210  -0.440  -0.660  1.00  0.00     0.039 A 
HETATM    4  C10 UNL     1       3.273  -1.052  -0.033  1.00  0.00     0.137 A 
HETATM    5  N4  UNL     1       4.481  -0.853  -0.579  1.00  0.00    -0.224 NA
HETATM    6  C14 UNL     1       4.647  -0.103  -1.673  1.00  0.00     0.235 A 
HETATM    7  N5  UNL     1       3.578   0.494  -2.278  1.00  0.00    -0.241 NA
HETATM    8  C15 UNL     1       2.335   0.339  -1.785  1.00  0.00     0.074 A 
HETATM    9  C16 UNL     1       1.255   0.935  -2.389  1.00  0.00     0.070 A 
HETATM   10  C17 UNL     1      -0.025   0.787  -1.899  1.00  0.00     0.078 A 
ENDROOT
BRANCH   1  11
HETATM   11  C6  UNL     1      -1.570  -0.138  -0.261  1.00  0.00     0.314 C 
BRANCH  11  12
HETATM   12  N2  UNL     1      -2.075   1.027   0.440  1.00  0.00     0.101 N 
HETATM   13  C5  UNL     1      -1.268   1.291   1.644  1.00  0.00     0.311 C 
BRANCH  12  14
HETATM   14  C3  UNL     1      -3.432   0.849   0.892  1.00  0.00     0.309 C 
HETATM   15  C4  UNL     1      -3.570  -0.156   1.984  1.00  0.00     0.053 C 
BRANCH  14  16
HETATM   16  C2  UNL     1      -4.385   0.586  -0.212  1.00  0.00     0.250 C 
HETATM   17  N1  UNL     1      -5.760   0.397   0.167  1.00  0.00    -0.364 N 
HETATM   18  C1  UNL     1      -6.642   0.142  -0.982  1.00  0.00     0.149 C 
HETATM   19  H4  UNL     1      -6.168   0.424   1.137  1.00  0.00     0.161 HD
HETATM   20  O1  UNL     1      -4.370   0.466  -1.483  1.00  0.00    -0.271 OA
ENDBRANCH  14  16
ENDBRANCH  12  14
ENDBRANCH  11  12
ENDBRANCH   1  11
BRANCH  10  21
HETATM   21  O2  UNL     1      -1.116   1.390  -2.509  1.00  0.00    -0.355 OA
HETATM   22  C18 UNL     1      -0.886   2.172  -3.661  1.00  0.00     0.210 C 
ENDBRANCH  10  21
BRANCH   4  23
HETATM   23  N3  UNL     1       3.093  -1.887   1.128  1.00  0.00    -0.374 N 
HETATM   24  H15 UNL     1       2.162  -2.055   1.509  1.00  0.00     0.161 HD
BRANCH  23  25
HETATM   25  C11 UNL     1       4.162  -2.539   1.841  1.00  0.00     0.123 C 
BRANCH  25  26
HETATM   26  C12 UNL     1       4.934  -1.689   2.789  1.00  0.00     0.051 C 
BRANCH  26  27
HETATM   27  C13 UNL     1       5.621  -0.488   2.229  1.00  0.00     0.224 C 
HETATM   28  F1  UNL     1       6.314   0.158   3.274  1.00  0.00    -0.255 F 
ENDBRANCH  26  27
ENDBRANCH  25  26
ENDBRANCH  23  25
ENDBRANCH   4  23
TORSDOF 9
