REMARK  6 active torsions:
REMARK  status: ('A' for Active; 'I' for Inactive)
REMARK    1  A    between atoms: C2_2  and  C3_3 
REMARK    2  A    between atoms: C3_3  and  C4_4 
REMARK    3  A    between atoms: C5_5  and  C6_6 
REMARK       I    between atoms: C6_6  and  N1_8 
REMARK    4  A    between atoms: N1_8  and  C7_9 
REMARK    5  A    between atoms: C10_12  and  N2_13 
REMARK    6  A    between atoms: N2_13  and  C11_14 
ROOT
HETATM    1  C7  UNL     1       0.312  -0.857   1.431  1.00  0.00     0.131 A 
HETATM    2  C8  UNL     1      -0.821  -0.885   0.616  1.00  0.00     0.068 A 
HETATM    3  C9  UNL     1      -1.944  -1.245   1.319  1.00  0.00     0.044 A 
HETATM    4  C10 UNL     1      -3.089  -1.296   0.557  1.00  0.00     0.142 A 
HETATM    5  N3  UNL     1      -4.253  -1.643   1.129  1.00  0.00    -0.224 NA
HETATM    6  C17 UNL     1      -4.301  -1.943   2.452  1.00  0.00     0.236 A 
HETATM    7  N4  UNL     1      -3.178  -1.897   3.215  1.00  0.00    -0.240 NA
HETATM    8  C18 UNL     1      -2.002  -1.554   2.669  1.00  0.00     0.089 A 
HETATM    9  C19 UNL     1      -0.833  -1.500   3.395  1.00  0.00     0.151 A 
HETATM   10  N5  UNL     1       0.294  -1.149   2.744  1.00  0.00    -0.241 NA
ENDROOT
BRANCH   4  11
HETATM   11  N2  UNL     1      -3.302  -1.024  -0.820  1.00  0.00    -0.340 N 
HETATM   12  H10 UNL     1      -3.024  -1.554  -1.682  1.00  0.00     0.167 HD
BRANCH  11  13
HETATM   13  C11 UNL     1      -4.025   0.210  -1.047  1.00  0.00     0.035 A 
HETATM   14  C12 UNL     1      -3.762   1.541  -0.829  1.00  0.00     0.032 A 
HETATM   15  C13 UNL     1      -4.720   2.485  -1.134  1.00  0.00     0.046 A 
HETATM   16  C14 UNL     1      -5.944   2.127  -1.655  1.00  0.00     0.138 A 
HETATM   17  F1  UNL     1      -6.815   3.130  -1.919  1.00  0.00    -0.204 F 
HETATM   18  C15 UNL     1      -6.209   0.787  -1.874  1.00  0.00     0.074 A 
HETATM   19 CL1  UNL     1      -7.815   0.472  -2.540  1.00  0.00    -0.081 Cl
HETATM   20  C16 UNL     1      -5.260  -0.196  -1.576  1.00  0.00     0.056 A 
ENDBRANCH  11  13
ENDBRANCH   4  11
BRANCH   1  21
HETATM   21  N1  UNL     1       1.586  -0.509   0.926  1.00  0.00    -0.301 N 
HETATM   22  C6  UNL     1       2.490   0.555   0.684  1.00  0.00     0.302 C 
HETATM   23  O1  UNL     1       2.152   1.750   1.007  1.00  0.00    -0.258 OA
HETATM   24  H8  UNL     1       1.927  -1.479   0.641  1.00  0.00     0.171 HD
BRANCH  22  25
HETATM   25  C5  UNL     1       3.764   0.297   0.088  1.00  0.00    -0.005 C 
HETATM   26  C4  UNL     1       4.859   0.072  -0.404  1.00  0.00    -0.096 C 
BRANCH  26  27
HETATM   27  C3  UNL     1       6.177  -0.203  -0.974  1.00  0.00     0.094 C 
BRANCH  27  28
HETATM   28  C2  UNL     1       6.940   1.100  -0.899  1.00  0.00     0.007 C 
HETATM   29  C1  UNL     1       8.311   0.876  -1.489  1.00  0.00     0.006 C 
ENDBRANCH  27  28
ENDBRANCH  26  27
ENDBRANCH  22  25
ENDBRANCH   1  21
TORSDOF 6
