REMARK  3 active torsions:
REMARK  status: ('A' for Active; 'I' for Inactive)
REMARK    1  A    between atoms: C2_2  and  C3_3 
REMARK    2  A    between atoms: C3_3  and  C4_4 
REMARK    3  A    between atoms: N1_8  and  C8_9 
ROOT
HETATM    1  C4  UNL     1       2.531   0.773  -0.878  1.00  0.00     0.030 C 
HETATM    2  C5  UNL     1       1.369   1.050  -1.514  1.00  0.00     0.008 C 
HETATM    3  C6  UNL     1      -0.073   0.940  -1.857  1.00  0.00     0.100 C 
HETATM    4  C7  UNL     1      -0.646  -0.011  -1.047  1.00  0.00     0.099 C 
HETATM    5  N1  UNL     1      -1.822  -0.767  -0.651  1.00  0.00    -0.269 N 
HETATM    6  N2  UNL     1      -1.637  -2.157  -1.055  1.00  0.00    -0.188 NA
HETATM    7  C14 UNL     1      -0.399  -2.566  -0.769  1.00  0.00     0.117 C 
HETATM    8  C15 UNL     1       1.025  -2.640  -0.307  1.00  0.00     0.095 C 
HETATM    9  C16 UNL     1       1.809  -1.514  -0.927  1.00  0.00     0.095 C 
HETATM   10  N3  UNL     1       1.792  -0.347  -0.312  1.00  0.00    -0.270 NA
ENDROOT
BRANCH   5  11
HETATM   11  C8  UNL     1      -3.013  -0.294   0.013  1.00  0.00     0.054 A 
HETATM   12  C9  UNL     1      -2.979   1.021   0.399  1.00  0.00     0.034 A 
HETATM   13  C10 UNL     1      -4.150   1.448   1.035  1.00  0.00     0.046 A 
HETATM   14  C11 UNL     1      -5.216   0.562   1.225  1.00  0.00     0.138 A 
HETATM   15  F1  UNL     1      -6.352   1.007   1.851  1.00  0.00    -0.204 F 
HETATM   16  C12 UNL     1      -5.142  -0.766   0.788  1.00  0.00     0.074 A 
HETATM   17 CL1  UNL     1      -6.468  -1.885   1.020  1.00  0.00    -0.081 Cl
HETATM   18  C13 UNL     1      -3.994  -1.233   0.150  1.00  0.00     0.058 A 
ENDBRANCH   5  11
BRANCH   1  19
HETATM   19  C3  UNL     1       3.937   0.749  -0.410  1.00  0.00     0.058 C 
BRANCH  19  20
HETATM   20  C2  UNL     1       3.929   1.051   1.083  1.00  0.00     0.002 C 
HETATM   21  C1  UNL     1       3.302   2.434   1.293  1.00  0.00     0.005 C 
ENDBRANCH  19  20
ENDBRANCH   1  19
TORSDOF 3
