REMARK  8 active torsions:
REMARK  status: ('A' for Active; 'I' for Inactive)
REMARK    1  A    between atoms: C2_2  and  N1_4 
REMARK    2  A    between atoms: N1_4  and  C4_5 
REMARK    3  A    between atoms: N1_4  and  C20_27 
REMARK    4  A    between atoms: C4_5  and  C5_6 
REMARK    5  A    between atoms: C6_7  and  C7_8 
REMARK       I    between atoms: C7_8  and  N2_10 
REMARK    6  A    between atoms: N2_10  and  C8_11 
REMARK    7  A    between atoms: C9_12  and  C10_13 
REMARK    8  A    between atoms: C13_16  and  C14_17 
ROOT
HETATM    1  C8  UNL     1       1.508  -2.100  -2.523  1.00  0.00     0.092 C 
HETATM    2  C9  UNL     1       2.612  -2.244  -1.880  1.00  0.00     0.019 C 
ENDROOT
BRANCH   1   3
HETATM    3  N2  UNL     1       0.274  -1.414  -2.572  1.00  0.00    -0.326 N 
HETATM    4  C7  UNL     1      -0.286  -0.447  -1.732  1.00  0.00     0.300 C 
HETATM    5  O1  UNL     1       0.325  -0.028  -0.719  1.00  0.00    -0.258 OA
HETATM    6  H10 UNL     1      -0.439  -1.584  -3.342  1.00  0.00     0.169 HD
BRANCH   4   7
HETATM    7  C6  UNL     1      -1.566   0.182  -1.884  1.00  0.00    -0.004 C 
HETATM    8  C5  UNL     1      -2.647   0.701  -1.995  1.00  0.00    -0.077 C 
BRANCH   8   9
HETATM    9  C4  UNL     1      -3.981   1.328  -2.110  1.00  0.00     0.212 C 
BRANCH   9  10
HETATM   10  N1  UNL     1      -4.637   1.399  -0.857  1.00  0.00    -0.395 N 
BRANCH  10  11
HETATM   11  C2  UNL     1      -4.046   2.277   0.054  1.00  0.00     0.072 C 
HETATM   12  C1  UNL     1      -4.088   3.685  -0.543  1.00  0.00     0.031 C 
HETATM   13  C3  UNL     1      -4.535   2.328   1.448  1.00  0.00     0.031 C 
ENDBRANCH  10  11
BRANCH  10  14
HETATM   14  C20 UNL     1      -5.474   0.355  -0.459  1.00  0.00     0.072 C 
HETATM   15  C21 UNL     1      -6.739   0.757   0.262  1.00  0.00     0.031 C 
HETATM   16  C22 UNL     1      -5.954  -0.360  -1.731  1.00  0.00     0.031 C 
ENDBRANCH  10  14
ENDBRANCH   9  10
ENDBRANCH   8   9
ENDBRANCH   4   7
ENDBRANCH   1   3
BRANCH   2  17
HETATM   17  C10 UNL     1       3.211  -1.666  -0.691  1.00  0.00     0.029 C 
HETATM   18  C11 UNL     1       4.377  -1.898  -0.109  1.00  0.00     0.041 A 
HETATM   19  C12 UNL     1       4.900  -1.250   1.111  1.00  0.00     0.115 A 
HETATM   20  N4  UNL     1       5.088  -2.889  -0.837  1.00  0.00    -0.246 NA
HETATM   21  C13 UNL     1       6.235  -1.837   1.367  1.00  0.00     0.031 A 
HETATM   22  N3  UNL     1       6.831  -2.725   0.684  1.00  0.00    -0.249 NA
HETATM   23  C19 UNL     1       6.257  -3.311  -0.495  1.00  0.00     0.233 A 
BRANCH  21  24
HETATM   24  C14 UNL     1       6.715  -1.154   2.594  1.00  0.00     0.084 A 
HETATM   25  C15 UNL     1       6.806   0.333   2.409  1.00  0.00     0.032 A 
HETATM   26  C16 UNL     1       5.995   0.886   3.299  1.00  0.00     0.135 A 
HETATM   27  F1  UNL     1       5.831   2.217   3.412  1.00  0.00    -0.205 F 
HETATM   28  C17 UNL     1       5.335  -0.132   4.103  1.00  0.00     0.069 A 
HETATM   29 CL1  UNL     1       4.195   0.068   5.387  1.00  0.00    -0.081 Cl
HETATM   30  C18 UNL     1       5.752  -1.302   3.694  1.00  0.00     0.015 A 
ENDBRANCH  21  24
ENDBRANCH   2  17
TORSDOF 8
