REMARK  6 active torsions:
REMARK  status: ('A' for Active; 'I' for Inactive)
REMARK    1  A    between atoms: C2_2  and  C3_3 
REMARK    2  A    between atoms: C3_3  and  O1_4 
REMARK    3  A    between atoms: C3_3  and  N1_5 
REMARK    4  A    between atoms: N1_5  and  C4_6 
REMARK    5  A    between atoms: C7_9  and  N2_10 
REMARK    6  A    between atoms: N2_10  and  C8_11 
ROOT
HETATM    1  C4  UNL     1       1.960  -0.380  -0.767  1.00  0.00     0.126 A 
HETATM    2  C5  UNL     1       0.633  -0.129  -0.494  1.00  0.00     0.068 A 
HETATM    3  C6  UNL     1      -0.340  -1.085  -0.319  1.00  0.00     0.044 A 
HETATM    4  C7  UNL     1      -1.660  -0.818  -0.047  1.00  0.00     0.142 A 
HETATM    5  N3  UNL     1      -2.417  -1.910   0.081  1.00  0.00    -0.224 NA
HETATM    6  C14 UNL     1      -2.031  -3.179  -0.026  1.00  0.00     0.236 A 
HETATM    7  N4  UNL     1      -0.737  -3.403  -0.292  1.00  0.00    -0.240 NA
HETATM    8  C15 UNL     1       0.118  -2.376  -0.441  1.00  0.00     0.089 A 
HETATM    9  C16 UNL     1       1.443  -2.648  -0.714  1.00  0.00     0.151 A 
HETATM   10  N5  UNL     1       2.352  -1.683  -0.876  1.00  0.00    -0.241 NA
ENDROOT
BRANCH   4  11
HETATM   11  N2  UNL     1      -2.091   0.524   0.071  1.00  0.00    -0.340 N 
HETATM   12  H10 UNL     1      -1.427   1.312  -0.045  1.00  0.00     0.167 HD
BRANCH  11  13
HETATM   13  C8  UNL     1      -3.371   1.046   0.341  1.00  0.00     0.035 A 
HETATM   14  C9  UNL     1      -3.699   2.382   0.437  1.00  0.00     0.032 A 
HETATM   15  C10 UNL     1      -4.963   2.850   0.703  1.00  0.00     0.046 A 
HETATM   16  C11 UNL     1      -6.006   1.979   0.893  1.00  0.00     0.138 A 
HETATM   17  F1  UNL     1      -7.200   2.549   1.147  1.00  0.00    -0.204 F 
HETATM   18  C12 UNL     1      -5.726   0.639   0.806  1.00  0.00     0.074 A 
HETATM   19 CL1  UNL     1      -7.092  -0.432   1.057  1.00  0.00    -0.081 Cl
HETATM   20  C13 UNL     1      -4.445   0.207   0.538  1.00  0.00     0.056 A 
ENDBRANCH  11  13
ENDBRANCH   4  11
BRANCH   1  21
HETATM   21  N1  UNL     1       2.926   0.648  -0.939  1.00  0.00    -0.349 N 
HETATM   22  H8  UNL     1       2.573   1.645  -0.845  1.00  0.00     0.163 HD
BRANCH  21  23
HETATM   23  C3  UNL     1       4.293   0.345  -1.221  1.00  0.00     0.218 C 
BRANCH  23  24
HETATM   24  C2  UNL     1       4.983  -0.482  -0.165  1.00  0.00     0.049 C 
HETATM   25  C1  UNL     1       5.048   0.220   1.164  1.00  0.00     0.009 C 
ENDBRANCH  23  24
BRANCH  23  26
HETATM   26  O1  UNL     1       4.977   1.546  -1.410  1.00  0.00    -0.377 OA
HETATM   27  H7  UNL     1       4.625   2.230  -0.768  1.00  0.00     0.212 HD
ENDBRANCH  23  26
ENDBRANCH  21  23
ENDBRANCH   1  21
TORSDOF 6
