REMARK  8 active torsions:
REMARK  status: ('A' for Active; 'I' for Inactive)
REMARK    1  A    between atoms: C2_2  and  C3_3 
REMARK    2  A    between atoms: C3_3  and  C4_4 
REMARK    3  A    between atoms: C4_4  and  C5_5 
REMARK    4  A    between atoms: C5_5  and  N1_6 
REMARK    5  A    between atoms: C6_7  and  C7_8 
REMARK    6  A    between atoms: C11_12  and  N2_13 
REMARK    7  A    between atoms: N2_13  and  C12_14 
REMARK    8  A    between atoms: C22_28  and  C23_29 
ROOT
HETATM    1  C7  UNL     1       1.686  -0.504   0.011  1.00  0.00    -0.045 A 
HETATM    2  C8  UNL     1       1.360  -0.985  -1.055  1.00  0.00     0.012 A 
HETATM    3  C9  UNL     1       0.054  -0.854  -1.748  1.00  0.00     0.006 A 
HETATM    4  C10 UNL     1      -0.699  -1.422  -2.664  1.00  0.00     0.036 A 
HETATM    5  C11 UNL     1      -1.938  -1.028  -3.104  1.00  0.00     0.141 A 
HETATM    6  N3  UNL     1      -2.443  -1.814  -4.049  1.00  0.00    -0.224 NA
HETATM    7  C18 UNL     1      -1.877  -2.899  -4.580  1.00  0.00     0.235 A 
HETATM    8  N4  UNL     1      -0.642  -3.281  -4.133  1.00  0.00    -0.241 NA
HETATM    9  C19 UNL     1      -0.053  -2.531  -3.166  1.00  0.00     0.068 A 
HETATM   10  C20 UNL     1       1.125  -2.795  -2.661  1.00  0.00     0.007 A 
HETATM   11  C21 UNL     1       2.027  -2.236  -1.660  1.00  0.00     0.048 A 
HETATM   12  C22 UNL     1       0.636  -1.831   0.436  1.00  0.00     0.072 A 
ENDROOT
BRANCH   1  13
HETATM   13  C6  UNL     1       1.898  -0.190   0.751  1.00  0.00     0.008 A 
HETATM   14  N1  UNL     1       2.146   0.182   1.676  1.00  0.00    -0.277 NA
HETATM   15  C23 UNL     1       1.286  -1.079   1.566  1.00  0.00     0.088 A 
HETATM   16  C24 UNL     1       2.115  -2.092   2.400  1.00  0.00     0.031 C 
BRANCH  14  17
HETATM   17  C5  UNL     1       2.938   1.338   1.560  1.00  0.00     0.096 C 
BRANCH  17  18
HETATM   18  C4  UNL     1       3.252   1.880   2.965  1.00  0.00     0.015 C 
BRANCH  18  19
HETATM   19  C3  UNL     1       2.015   2.236   3.723  1.00  0.00     0.001 C 
BRANCH  19  20
HETATM   20  C2  UNL     1       2.253   2.771   5.096  1.00  0.00    -0.005 C 
HETATM   21  C1  UNL     1       2.989   1.772   5.980  1.00  0.00     0.005 C 
ENDBRANCH  19  20
ENDBRANCH  18  19
ENDBRANCH  17  18
ENDBRANCH  14  17
ENDBRANCH   1  13
BRANCH   5  22
HETATM   22  N2  UNL     1      -2.524   0.103  -2.536  1.00  0.00    -0.340 N 
HETATM   23  H13 UNL     1      -2.084   0.653  -1.775  1.00  0.00     0.167 HD
BRANCH  22  24
HETATM   24  C12 UNL     1      -3.768   0.694  -2.867  1.00  0.00     0.035 A 
HETATM   25  C13 UNL     1      -4.508   0.309  -3.956  1.00  0.00     0.032 A 
HETATM   26  C14 UNL     1      -5.717   0.836  -4.320  1.00  0.00     0.046 A 
HETATM   27  C15 UNL     1      -6.265   1.838  -3.551  1.00  0.00     0.138 A 
HETATM   28  F1  UNL     1      -7.442   2.425  -3.815  1.00  0.00    -0.204 F 
HETATM   29  C16 UNL     1      -5.586   2.283  -2.441  1.00  0.00     0.074 A 
HETATM   30 CL1  UNL     1      -6.224   3.550  -1.421  1.00  0.00    -0.081 Cl
HETATM   31  C17 UNL     1      -4.378   1.697  -2.148  1.00  0.00     0.056 A 
ENDBRANCH  22  24
ENDBRANCH   5  22
TORSDOF 8
