REMARK  7 active torsions:
REMARK  status: ('A' for Active; 'I' for Inactive)
REMARK    1  A    between atoms: C2_2  and  O1_3 
REMARK    2  A    between atoms: O1_3  and  C3_4 
REMARK    3  A    between atoms: C7_10  and  N3_11 
REMARK    4  A    between atoms: N3_11  and  C8_12 
REMARK    5  A    between atoms: C16_22  and  N4_23 
REMARK    6  A    between atoms: N4_23  and  C18_25 
REMARK    7  A    between atoms: C18_25  and  C20_27 
REMARK       I    between atoms: C20_27  and  N5_28 
ROOT
HETATM    1  C3  UNL     1      -1.814   1.741   0.025  1.00  0.00     0.097 A 
HETATM    2  C4  UNL     1      -0.795   2.634  -0.232  1.00  0.00     0.071 A 
HETATM    3  C5  UNL     1       0.527   2.213  -0.319  1.00  0.00     0.075 A 
HETATM    4  N1  UNL     1       1.475   3.122  -0.571  1.00  0.00    -0.241 NA
HETATM    5  C6  UNL     1       2.752   2.709  -0.653  1.00  0.00     0.236 A 
HETATM    6  N2  UNL     1       3.046   1.389  -0.479  1.00  0.00    -0.224 NA
HETATM    7  C7  UNL     1       2.080   0.487  -0.226  1.00  0.00     0.142 A 
HETATM    8  C14 UNL     1       0.761   0.867  -0.134  1.00  0.00     0.041 A 
HETATM    9  C15 UNL     1      -0.217  -0.070   0.126  1.00  0.00     0.050 A 
HETATM   10  C16 UNL     1      -1.525   0.384   0.205  1.00  0.00     0.065 A 
ENDROOT
BRANCH   7  11
HETATM   11  N3  UNL     1       2.509  -0.858  -0.065  1.00  0.00    -0.338 N 
HETATM   12  H8  UNL     1       1.978  -1.720   0.132  1.00  0.00     0.167 HD
BRANCH  11  13
HETATM   13  C8  UNL     1       3.894  -1.165  -0.176  1.00  0.00     0.074 A 
HETATM   14  C9  UNL     1       4.382  -2.053  -1.137  1.00  0.00     0.033 A 
HETATM   15  C10 UNL     1       5.730  -2.363  -1.259  1.00  0.00     0.004 A 
HETATM   16  C11 UNL     1       6.637  -1.775  -0.402  1.00  0.00     0.027 A 
HETATM   17  C12 UNL     1       6.204  -0.890   0.566  1.00  0.00     0.074 A 
HETATM   18 CL1  UNL     1       7.377  -0.157   1.643  1.00  0.00    -0.081 Cl
HETATM   19  C13 UNL     1       4.852  -0.615   0.646  1.00  0.00     0.164 A 
HETATM   20  F1  UNL     1       4.463   0.268   1.618  1.00  0.00    -0.202 F 
ENDBRANCH  11  13
ENDBRANCH   7  11
BRANCH  10  21
HETATM   21  N4  UNL     1      -2.561  -0.575   0.475  1.00  0.00    -0.370 N 
HETATM   22  C17 UNL     1      -3.337  -0.332   1.698  1.00  0.00     0.150 C 
BRANCH  21  23
HETATM   23  C18 UNL     1      -2.929  -1.736  -0.300  1.00  0.00     0.172 C 
HETATM   24  C19 UNL     1      -2.115  -1.943  -1.532  1.00  0.00     0.042 C 
BRANCH  23  25
HETATM   25  C20 UNL     1      -2.902  -2.921   0.569  1.00  0.00     0.237 C 
HETATM   26  N5  UNL     1      -3.210  -4.227   0.134  1.00  0.00    -0.368 N 
HETATM   27  H20 UNL     1      -2.776  -5.129  -0.161  1.00  0.00     0.159 HD
HETATM   28  H21 UNL     1      -4.171  -4.640  -0.011  1.00  0.00     0.159 HD
HETATM   29  O2  UNL     1      -2.679  -3.344   1.754  1.00  0.00    -0.271 OA
ENDBRANCH  23  25
ENDBRANCH  21  23
ENDBRANCH  10  21
BRANCH   1  30
HETATM   30  O1  UNL     1      -3.161   2.061   0.130  1.00  0.00    -0.349 OA
BRANCH  30  31
HETATM   31  C2  UNL     1      -3.667   3.352  -0.014  1.00  0.00     0.171 C 
HETATM   32  C1  UNL     1      -3.138   4.357   0.965  1.00  0.00     0.034 C 
ENDBRANCH  30  31
ENDBRANCH   1  30
TORSDOF 7
