REMARK  4 active torsions:
REMARK  status: ('A' for Active; 'I' for Inactive)
REMARK    1  A    between atoms: C2_2  and  C3_3 
REMARK    2  A    between atoms: C3_3  and  C4_4 
REMARK    3  A    between atoms: C4_4  and  C5_5 
REMARK       I    between atoms: C5_5  and  N1_7 
REMARK    4  A    between atoms: C9_11  and  C10_12 
ROOT
HETATM    1  C5  UNL     1       2.737  -0.211  -0.568  1.00  0.00     0.243 C 
HETATM    2  O1  UNL     1       2.548  -0.916  -1.592  1.00  0.00    -0.271 OA
HETATM    3  N1  UNL     1       1.587   0.246   0.146  1.00  0.00    -0.212 N 
HETATM    4  C6  UNL     1       0.293  -0.123  -0.341  1.00  0.00     0.135 A 
HETATM    5  C7  UNL     1      -0.810   0.257   0.259  1.00  0.00     0.016 A 
HETATM    6  C8  UNL     1      -2.146  -0.086  -0.188  1.00  0.00     0.047 A 
HETATM    7  C9  UNL     1      -3.254   0.297   0.417  1.00  0.00     0.061 A 
HETATM    8  N2  UNL     1      -3.033   1.090   1.568  1.00  0.00    -0.277 N 
HETATM    9  N3  UNL     1      -1.766   1.449   2.041  1.00  0.00    -0.172 NA
HETATM   10  C16 UNL     1      -0.670   1.084   1.463  1.00  0.00     0.107 A 
HETATM   11  C17 UNL     1       0.668   1.442   1.933  1.00  0.00     0.173 A 
HETATM   12  N4  UNL     1       1.708   1.034   1.294  1.00  0.00    -0.175 NA
HETATM   13  H15 UNL     1      -3.810   1.467   2.150  1.00  0.00     0.189 HD
ENDROOT
BRANCH   7  14
HETATM   14  C10 UNL     1      -4.587  -0.051  -0.038  1.00  0.00    -0.006 A 
HETATM   15  C11 UNL     1      -4.840  -0.819  -1.151  1.00  0.00     0.017 A 
HETATM   16  C12 UNL     1      -6.091  -1.170  -1.614  1.00  0.00     0.045 A 
HETATM   17  C13 UNL     1      -7.194  -0.723  -0.917  1.00  0.00     0.138 A 
HETATM   18  F1  UNL     1      -8.443  -1.038  -1.327  1.00  0.00    -0.204 F 
HETATM   19  C14 UNL     1      -6.983   0.050   0.206  1.00  0.00     0.073 A 
HETATM   20 CL1  UNL     1      -8.401   0.603   1.071  1.00  0.00    -0.081 Cl
HETATM   21  C15 UNL     1      -5.711   0.375   0.629  1.00  0.00     0.040 A 
ENDBRANCH   7  14
BRANCH   1  22
HETATM   22  C4  UNL     1       4.099   0.146  -0.102  1.00  0.00     0.105 C 
BRANCH  22  23
HETATM   23  C3  UNL     1       5.156  -0.446  -1.011  1.00  0.00     0.009 C 
BRANCH  23  24
HETATM   24  C2  UNL     1       6.522  -0.050  -0.485  1.00  0.00    -0.004 C 
HETATM   25  C1  UNL     1       6.730  -0.566   0.924  1.00  0.00     0.005 C 
ENDBRANCH  23  24
ENDBRANCH  22  23
ENDBRANCH   1  22
TORSDOF 4
