REMARK  2 active torsions:
REMARK  status: ('A' for Active; 'I' for Inactive)
REMARK    1  A    between atoms: C2_2  and  C3_3 
REMARK    2  A    between atoms: C15_19  and  N4_20 
ROOT
HETATM    1  C3  UNL     1       2.144  -0.647   0.399  1.00  0.00     0.083 C 
HETATM    2  C4  UNL     1       2.109   0.712   1.058  1.00  0.00     0.008 C 
HETATM    3  C5  UNL     1       1.447   1.860   1.434  1.00  0.00    -0.004 C 
HETATM    4  C6  UNL     1       0.033   2.466   1.309  1.00  0.00    -0.018 C 
HETATM    5  C7  UNL     1      -1.291   2.741   1.030  1.00  0.00     0.030 C 
HETATM    6  C8  UNL     1      -2.311   2.009   0.275  1.00  0.00    -0.002 A 
HETATM    7  N1  UNL     1      -2.981   1.089  -0.443  1.00  0.00     0.000 N 
HETATM    8  C9  UNL     1      -4.079   1.367  -1.153  1.00  0.00     0.092 A 
HETATM    9  N2  UNL     1      -3.762   0.067  -1.273  1.00  0.00    -0.203 NA
HETATM   10  C10 UNL     1      -2.714  -0.515  -0.681  1.00  0.00     0.121 A 
HETATM   11  C11 UNL     1      -2.343   0.652  -0.103  1.00  0.00     0.031 A 
HETATM   12  C12 UNL     1      -1.558   0.121   1.092  1.00  0.00     0.005 C 
HETATM   13  C13 UNL     1      -1.363  -1.158   1.370  1.00  0.00     0.093 C 
HETATM   14  N3  UNL     1      -0.624  -1.312   0.110  1.00  0.00    -0.295 N 
HETATM   15  C14 UNL     1       0.759  -1.028  -0.010  1.00  0.00     0.230 C 
HETATM   16  O1  UNL     1       0.466  -1.300  -1.181  1.00  0.00    -0.273 OA
HETATM   17  C15 UNL     1      -1.895  -1.735  -0.565  1.00  0.00     0.353 C 
ENDROOT
BRANCH  17  18
HETATM   18  N4  UNL     1      -1.589  -2.282  -1.879  1.00  0.00     0.104 N 
HETATM   19  H15 UNL     1      -1.718  -3.294  -1.889  1.00  0.00     0.315 HD
HETATM   20  H16 UNL     1      -1.982  -1.731  -2.646  1.00  0.00     0.315 HD
ENDBRANCH  17  18
BRANCH   1  21
HETATM   21  C2  UNL     1       3.014  -0.545  -0.813  1.00  0.00     0.010 C 
HETATM   22  C1  UNL     1       4.379  -0.129  -0.372  1.00  0.00     0.006 C 
ENDBRANCH   1  21
TORSDOF 2
