REMARK  6 active torsions:
REMARK  status: ('A' for Active; 'I' for Inactive)
REMARK    1  A    between atoms: C2_2  and  C3_3 
REMARK    2  A    between atoms: C3_3  and  C4_4 
REMARK    3  A    between atoms: C4_4  and  N1_5 
REMARK    4  A    between atoms: C12_17  and  N5_18 
REMARK    5  A    between atoms: N5_18  and  C13_19 
REMARK    6  A    between atoms: C21_29  and  C22_30 
ROOT
HETATM    1  N1  UNL     1      -0.879  -0.729   0.339  1.00  0.00    -0.394 N 
HETATM    2  C5  UNL     1      -2.138  -0.121   0.140  1.00  0.00     0.212 C 
HETATM    3  C6  UNL     1      -2.297   1.179  -0.269  1.00  0.00    -0.077 C 
HETATM    4  C7  UNL     1      -2.407   2.247  -0.598  1.00  0.00    -0.004 C 
HETATM    5  C8  UNL     1      -2.520   3.582  -1.002  1.00  0.00     0.297 C 
HETATM    6  O1  UNL     1      -3.223   4.236  -1.726  1.00  0.00    -0.258 OA
HETATM    7  N2  UNL     1      -1.541   4.503  -0.431  1.00  0.00    -0.332 N 
HETATM    8  C9  UNL     1      -0.521   5.462   0.164  1.00  0.00     0.274 C 
HETATM    9  N3  UNL     1       0.278   4.564   1.045  1.00  0.00    -0.273 NA
HETATM   10  C10 UNL     1       0.827   3.529   0.424  1.00  0.00     0.052 C 
HETATM   11  C11 UNL     1       0.627   3.380  -1.046  1.00  0.00     0.146 C 
HETATM   12  N4  UNL     1       0.630   2.279  -1.764  1.00  0.00    -0.241 NA
HETATM   13  C12 UNL     1       0.731   1.037  -1.025  1.00  0.00     0.132 C 
HETATM   14  C19 UNL     1       0.816   1.059   0.318  1.00  0.00    -0.006 C 
HETATM   15  C20 UNL     1       1.542   2.295   0.833  1.00  0.00     0.100 C 
HETATM   16  C21 UNL     1       0.227  -0.134   0.923  1.00  0.00     0.113 C 
HETATM   17  H12 UNL     1      -1.295   3.738   0.193  1.00  0.00     0.165 HD
ENDROOT
BRANCH  13  18
HETATM   18  N5  UNL     1       0.732  -0.127  -1.881  1.00  0.00    -0.341 N 
HETATM   19  H16 UNL     1      -0.107  -0.519  -2.364  1.00  0.00     0.167 HD
BRANCH  18  20
HETATM   20  C13 UNL     1       1.952  -0.817  -2.104  1.00  0.00     0.035 A 
HETATM   21  C14 UNL     1       2.081  -1.922  -2.949  1.00  0.00     0.032 A 
HETATM   22  C15 UNL     1       3.270  -2.574  -3.147  1.00  0.00     0.046 A 
HETATM   23  C16 UNL     1       4.433  -2.155  -2.501  1.00  0.00     0.138 A 
HETATM   24  F1  UNL     1       5.639  -2.730  -2.634  1.00  0.00    -0.204 F 
HETATM   25  C17 UNL     1       4.338  -1.067  -1.660  1.00  0.00     0.074 A 
HETATM   26 CL1  UNL     1       5.719  -0.412  -0.764  1.00  0.00    -0.081 Cl
HETATM   27  C18 UNL     1       3.121  -0.445  -1.492  1.00  0.00     0.056 A 
ENDBRANCH  18  20
ENDBRANCH  13  18
BRANCH  16  28
HETATM   28  C22 UNL     1       0.195   0.055   2.429  1.00  0.00     0.025 C 
HETATM   29  C23 UNL     1      -0.906   0.894   2.952  1.00  0.00     0.007 C 
ENDBRANCH  16  28
BRANCH   1  30
HETATM   30  C4  UNL     1      -1.055  -2.111   0.783  1.00  0.00     0.118 C 
BRANCH  30  31
HETATM   31  C3  UNL     1      -1.622  -3.017  -0.273  1.00  0.00     0.019 C 
BRANCH  31  32
HETATM   32  C2  UNL     1      -1.711  -4.402   0.392  1.00  0.00    -0.003 C 
HETATM   33  C1  UNL     1      -2.628  -4.235   1.585  1.00  0.00     0.005 C 
ENDBRANCH  31  32
ENDBRANCH  30  31
ENDBRANCH   1  30
TORSDOF 6
