REMARK  9 active torsions:
REMARK  status: ('A' for Active; 'I' for Inactive)
REMARK    1  A    between atoms: C2_2  and  C3_3 
REMARK    2  A    between atoms: C3_3  and  C4_4 
REMARK    3  A    between atoms: C4_4  and  N1_5 
REMARK    4  A    between atoms: N1_5  and  C5_6 
REMARK    5  A    between atoms: N1_5  and  C15_21 
REMARK    6  A    between atoms: C5_6  and  C6_7 
REMARK    7  A    between atoms: C7_8  and  C8_9 
REMARK    8  A    between atoms: C15_21  and  C16_22 
REMARK    9  A    between atoms: C16_22  and  C17_23 
ROOT
HETATM    1  C8  UNL     1       2.362  -2.295   0.432  1.00  0.00     0.346 C 
HETATM    2  N2  UNL     1       3.003  -1.991  -0.715  1.00  0.00    -0.404 NA
HETATM    3  C9  UNL     1       3.286  -1.768  -1.835  1.00  0.00     0.292 C 
HETATM    4  N3  UNL     1       4.616  -1.552  -1.333  1.00  0.00    -0.241 NA
HETATM    5  C10 UNL     1       4.893  -0.484  -0.585  1.00  0.00     0.154 A 
HETATM    6  C11 UNL     1       4.508   0.806   0.111  1.00  0.00     0.137 A 
HETATM    7  N4  UNL     1       3.798  -0.163   0.573  1.00  0.00    -0.228 NA
HETATM    8  C12 UNL     1       4.441  -1.246   1.323  1.00  0.00     0.081 C 
HETATM    9  C13 UNL     1       5.798  -1.181   1.523  1.00  0.00     0.039 C 
HETATM   10  C14 UNL     1       6.232  -0.756   0.094  1.00  0.00     0.155 C 
HETATM   11 CL1  UNL     1       7.074  -2.154  -0.570  1.00  0.00    -0.117 Cl
HETATM   12  N5  UNL     1       3.383  -2.221   1.551  1.00  0.00    -0.339 N 
HETATM   13  H17 UNL     1       3.278  -2.848   2.391  1.00  0.00     0.164 HD
ENDROOT
BRANCH   1  14
HETATM   14  C7  UNL     1       1.441  -1.132   0.758  1.00  0.00    -0.044 C 
HETATM   15  C6  UNL     1       0.727  -0.199   1.023  1.00  0.00    -0.071 C 
BRANCH  15  16
HETATM   16  C5  UNL     1      -0.119   0.942   1.357  1.00  0.00     0.365 C 
BRANCH  16  17
HETATM   17  N1  UNL     1      -1.372   0.749   0.514  1.00  0.00     0.099 N 
BRANCH  17  18
HETATM   18  C4  UNL     1      -2.158   1.879   0.882  1.00  0.00     0.273 C 
BRANCH  18  19
HETATM   19  C3  UNL     1      -3.603   1.927   0.631  1.00  0.00     0.030 C 
BRANCH  19  20
HETATM   20  C2  UNL     1      -4.407   0.895   1.383  1.00  0.00    -0.003 C 
HETATM   21  C1  UNL     1      -5.884   1.046   1.019  1.00  0.00     0.005 C 
ENDBRANCH  19  20
ENDBRANCH  18  19
ENDBRANCH  17  18
BRANCH  17  22
HETATM   22  C15 UNL     1      -0.790   0.880  -0.813  1.00  0.00     0.273 C 
BRANCH  22  23
HETATM   23  C16 UNL     1      -1.600   0.754  -2.018  1.00  0.00     0.030 C 
BRANCH  23  24
HETATM   24  C17 UNL     1      -2.209  -0.572  -2.310  1.00  0.00    -0.003 C 
HETATM   25  C18 UNL     1      -3.113  -1.033  -1.219  1.00  0.00     0.005 C 
ENDBRANCH  23  24
ENDBRANCH  22  23
ENDBRANCH  17  22
ENDBRANCH  16  17
ENDBRANCH  15  16
ENDBRANCH   1  14
TORSDOF 9
