REMARK  7 active torsions:
REMARK  status: ('A' for Active; 'I' for Inactive)
REMARK    1  A    between atoms: O1_2  and  C2_3 
REMARK    2  A    between atoms: C2_3  and  C3_4 
REMARK    3  A    between atoms: C3_4  and  O2_5 
REMARK    4  A    between atoms: O2_5  and  C4_6 
REMARK    5  A    between atoms: C15_20  and  C16_21 
REMARK    6  A    between atoms: C16_21  and  C17_22 
REMARK    7  A    between atoms: C17_22  and  O3_23 
ROOT
HETATM    1  C4  UNL     1      -0.984  -0.704  -0.251  1.00  0.00     0.060 C 
HETATM    2  C5  UNL     1       0.054  -1.582  -0.087  1.00  0.00     0.127 C 
HETATM    3  C6  UNL     1      -0.026  -3.074  -0.285  1.00  0.00     0.001 C 
HETATM    4  C7  UNL     1       1.198  -3.598  -0.039  1.00  0.00     0.114 C 
HETATM    5  N1  UNL     1       2.565  -3.434   0.323  1.00  0.00    -0.254 NA
HETATM    6  C8  UNL     1       3.462  -3.148  -0.600  1.00  0.00     0.233 C 
HETATM    7  N2  UNL     1       4.786  -3.017  -0.062  1.00  0.00    -0.237 NA
HETATM    8  C9  UNL     1       5.137  -1.767   0.139  1.00  0.00     0.204 C 
HETATM    9  N3  UNL     1       5.415  -0.385   0.316  1.00  0.00    -0.381 N 
HETATM   10  C10 UNL     1       4.561   0.175   1.359  1.00  0.00     0.148 C 
HETATM   11  C11 UNL     1       3.152   0.246   0.981  1.00  0.00    -0.005 C 
HETATM   12  C12 UNL     1       2.122   1.029   0.796  1.00  0.00    -0.080 C 
HETATM   13  C13 UNL     1       2.895   2.246   1.159  1.00  0.00     0.043 C 
HETATM   14  C14 UNL     1       0.874   0.344   0.377  1.00  0.00     0.035 C 
HETATM   15  C15 UNL     1      -0.397   0.642   0.070  1.00  0.00     0.008 C 
HETATM   16  H13 UNL     1       6.169  -0.071  -0.335  1.00  0.00     0.160 HD
ENDROOT
BRANCH   1  17
HETATM   17  O2  UNL     1      -2.379  -0.523  -0.593  1.00  0.00    -0.382 OA
BRANCH  17  18
HETATM   18  C3  UNL     1      -3.268  -1.056   0.371  1.00  0.00     0.194 C 
BRANCH  18  19
HETATM   19  C2  UNL     1      -4.703  -0.929  -0.092  1.00  0.00     0.193 C 
BRANCH  19  20
HETATM   20  O1  UNL     1      -4.909  -1.614  -1.291  1.00  0.00    -0.394 OA
HETATM   21  C1  UNL     1      -6.234  -1.500  -1.724  1.00  0.00     0.201 C 
ENDBRANCH  19  20
ENDBRANCH  18  19
ENDBRANCH  17  18
ENDBRANCH   1  17
BRANCH  15  22
HETATM   22  C16 UNL     1      -1.366   1.800  -0.054  1.00  0.00     0.040 C 
BRANCH  22  23
HETATM   23  C17 UNL     1      -0.611   3.056   0.299  1.00  0.00     0.168 C 
BRANCH  23  24
HETATM   24  O3  UNL     1      -1.368   4.207   0.236  1.00  0.00    -0.396 OA
HETATM   25  C18 UNL     1      -1.902   4.487  -1.002  1.00  0.00     0.201 C 
ENDBRANCH  23  24
ENDBRANCH  22  23
ENDBRANCH  15  22
TORSDOF 7
