REMARK  0 active torsions:
REMARK  status: ('A' for Active; 'I' for Inactive)
ROOT
HETATM    1  C1  UNL     1      -2.868  -2.038  -0.369  1.00  0.00     0.014 C 
HETATM    2  C2  UNL     1      -1.527  -1.953  -0.482  1.00  0.00     0.004 C 
HETATM    3  C3  UNL     1      -0.533  -3.041  -0.112  1.00  0.00     0.040 C 
HETATM    4  C4  UNL     1       0.364  -2.562   0.965  1.00  0.00    -0.028 C 
HETATM    5  C5  UNL     1       1.575  -2.269   1.399  1.00  0.00    -0.011 C 
HETATM    6  C6  UNL     1       2.533  -1.807   2.407  1.00  0.00     0.149 C 
HETATM    7  N1  UNL     1       3.241  -0.596   1.955  1.00  0.00    -0.363 N 
HETATM    8  C7  UNL     1       2.434   0.606   1.851  1.00  0.00     0.176 C 
HETATM    9  N2  UNL     1       1.559   0.551   1.061  1.00  0.00    -0.384 NA
HETATM   10  C8  UNL     1       0.766   0.083   0.138  1.00  0.00     0.296 C 
HETATM   11  N3  UNL     1       0.229  -0.399  -0.903  1.00  0.00    -0.257 NA
HETATM   12  C9  UNL     1      -1.211  -0.636  -1.036  1.00  0.00     0.096 C 
HETATM   13  C10 UNL     1      -1.891   0.531  -0.395  1.00  0.00     0.103 C 
HETATM   14  C11 UNL     1      -1.225   1.786  -0.915  1.00  0.00     0.070 C 
HETATM   15  C12 UNL     1      -1.208   1.913  -2.231  1.00  0.00     0.167 C 
HETATM   16  O1  UNL     1      -1.419   0.786  -3.014  1.00  0.00    -0.353 OA
HETATM   17  C13 UNL     1      -1.484  -0.537  -2.524  1.00  0.00     0.155 C 
HETATM   18  C14 UNL     1      -2.811  -1.105  -2.906  1.00  0.00     0.042 C 
HETATM   19  O2  UNL     1      -0.736   2.607   0.036  1.00  0.00    -0.351 OA
HETATM   20  C15 UNL     1       0.246   3.619  -0.046  1.00  0.00     0.201 C 
HETATM   21  C16 UNL     1       1.549   3.104   0.567  1.00  0.00     0.195 C 
HETATM   22  O3  UNL     1       1.340   2.754   1.861  1.00  0.00    -0.381 OA
HETATM   23  C17 UNL     1       2.327   2.000   2.475  1.00  0.00     0.259 C 
HETATM   24  H9  UNL     1       4.043  -0.016   1.634  1.00  0.00     0.162 HD
ENDROOT
TORSDOF 0
