REMARK  5 active torsions:
REMARK  status: ('A' for Active; 'I' for Inactive)
REMARK    1  A    between atoms: C7_7  and  N1_8 
REMARK    2  A    between atoms: N1_8  and  C8_9 
REMARK    3  A    between atoms: C17_22  and  C18_23 
REMARK    4  A    between atoms: C18_23  and  C19_24 
REMARK    5  A    between atoms: C19_24  and  O3_25 
ROOT
HETATM    1  C1  UNL     1       4.259   5.685   0.383  1.00  0.00     0.018 C 
HETATM    2  C2  UNL     1       4.374   4.569  -0.027  1.00  0.00    -0.078 C 
HETATM    3  C3  UNL     1       4.536   3.216  -0.535  1.00  0.00     0.019 A 
HETATM    4  C4  UNL     1       5.664   2.918  -1.225  1.00  0.00     0.021 A 
HETATM    5  C5  UNL     1       5.873   1.658  -1.736  1.00  0.00     0.004 A 
HETATM    6  C6  UNL     1       4.870   0.749  -1.498  1.00  0.00     0.029 A 
HETATM    7  C7  UNL     1       3.676   0.944  -0.807  1.00  0.00     0.035 A 
HETATM    8  C22 UNL     1       3.562   2.248  -0.330  1.00  0.00     0.050 A 
ENDROOT
BRANCH   7   9
HETATM    9  N1  UNL     1       2.693  -0.026  -0.584  1.00  0.00    -0.340 N 
HETATM   10  H5  UNL     1       3.252  -0.901  -0.437  1.00  0.00     0.167 HD
BRANCH   9  11
HETATM   11  C8  UNL     1       1.311   0.314  -0.596  1.00  0.00     0.138 A 
HETATM   12  N2  UNL     1       1.013   1.589  -0.906  1.00  0.00    -0.224 NA
HETATM   13  C9  UNL     1      -0.231   2.010  -0.953  1.00  0.00     0.235 A 
HETATM   14  N3  UNL     1      -1.165   1.093  -0.675  1.00  0.00    -0.245 NA
HETATM   15  C10 UNL     1      -0.950  -0.183  -0.361  1.00  0.00     0.055 A 
HETATM   16  C11 UNL     1       0.378  -0.669  -0.302  1.00  0.00     0.020 A 
HETATM   17  C21 UNL     1      -2.291  -0.327  -0.254  1.00  0.00     0.083 C 
HETATM   18  C12 UNL     1       0.613  -1.922   0.016  1.00  0.00     0.059 C 
HETATM   19  C13 UNL     1       1.083  -3.232   0.341  1.00  0.00     0.177 C 
HETATM   20  O1  UNL     1       0.429  -4.342  -0.088  1.00  0.00    -0.388 OA
HETATM   21  C14 UNL     1      -0.774  -4.755   0.397  1.00  0.00     0.194 C 
HETATM   22  C15 UNL     1      -1.691  -3.615   0.244  1.00  0.00     0.200 C 
HETATM   23  O2  UNL     1      -3.037  -3.699   0.627  1.00  0.00    -0.361 OA
HETATM   24  C16 UNL     1      -3.717  -2.470   0.358  1.00  0.00     0.138 C 
HETATM   25  C17 UNL     1      -3.338  -1.256   0.035  1.00  0.00    -0.045 C 
BRANCH  25  26
HETATM   26  C18 UNL     1      -4.599  -0.487  -0.091  1.00  0.00     0.063 C 
BRANCH  26  27
HETATM   27  C19 UNL     1      -4.747   0.612   0.948  1.00  0.00     0.171 C 
BRANCH  27  28
HETATM   28  O3  UNL     1      -3.764   1.561   0.901  1.00  0.00    -0.396 OA
HETATM   29  C20 UNL     1      -3.880   2.581   1.830  1.00  0.00     0.201 C 
ENDBRANCH  27  28
ENDBRANCH  26  27
ENDBRANCH  25  26
ENDBRANCH   9  11
ENDBRANCH   7   9
TORSDOF 5
