REMARK  0 active torsions:
REMARK  status: ('A' for Active; 'I' for Inactive)
ROOT
HETATM    1  O1  UNL     1       1.473   3.860   1.195  1.00  0.00    -0.258 OA
HETATM    2  C1  UNL     1       2.048   2.933   0.723  1.00  0.00     0.302 C 
HETATM    3  C2  UNL     1       2.892   1.962   0.215  1.00  0.00    -0.005 C 
HETATM    4  C3  UNL     1       3.549   1.174  -0.192  1.00  0.00    -0.096 C 
HETATM    5  C4  UNL     1       4.351   0.176  -0.710  1.00  0.00     0.099 C 
HETATM    6  C5  UNL     1       4.050  -1.205  -0.133  1.00  0.00     0.058 C 
HETATM    7  C6  UNL     1       2.638  -1.566  -0.110  1.00  0.00    -0.013 C 
HETATM    8 BR1  UNL     1       2.130  -0.588   1.481  1.00  0.00    -0.056 Br
HETATM    9  C7  UNL     1       1.385  -2.051  -0.265  1.00  0.00     0.007 C 
HETATM   10  C8  UNL     1      -0.021  -1.927   0.277  1.00  0.00     0.149 C 
HETATM   11  N1  UNL     1      -0.875  -1.424  -0.776  1.00  0.00    -0.372 N 
HETATM   12  C9  UNL     1      -2.215  -0.973  -0.507  1.00  0.00     0.111 A 
HETATM   13  C10 UNL     1      -2.265   0.289  -0.060  1.00  0.00     0.041 A 
HETATM   14  C11 UNL     1      -1.090   0.882   0.042  1.00  0.00     0.068 A 
HETATM   15  C12 UNL     1      -0.699   2.137   0.500  1.00  0.00     0.131 A 
HETATM   16  N2  UNL     1      -1.714   2.850   0.898  1.00  0.00    -0.241 NA
HETATM   17  C13 UNL     1      -2.971   2.337   0.835  1.00  0.00     0.151 A 
HETATM   18  C14 UNL     1      -3.298   1.058   0.363  1.00  0.00     0.084 A 
HETATM   19  N3  UNL     1      -4.441   0.505   0.302  1.00  0.00    -0.268 NA
HETATM   20  C15 UNL     1      -4.659  -0.833  -0.173  1.00  0.00     0.272 A 
HETATM   21  N4  UNL     1      -3.489  -1.522  -0.615  1.00  0.00    -0.358 N 
HETATM   22  N5  UNL     1       0.656   2.523   0.607  1.00  0.00    -0.301 N 
HETATM   23  H8  UNL     1      -1.026  -1.201  -1.770  1.00  0.00     0.161 HD
HETATM   24  H13 UNL     1      -3.268  -2.444  -1.064  1.00  0.00     0.162 HD
HETATM   25  H14 UNL     1       0.741   1.676   0.054  1.00  0.00     0.171 HD
ENDROOT
TORSDOF 0
