REMARK  3 active torsions:
REMARK  status: ('A' for Active; 'I' for Inactive)
REMARK    1  A    between atoms: C7_7  and  N1_8 
REMARK    2  A    between atoms: N1_8  and  C8_9 
REMARK    3  A    between atoms: C10_13  and  O1_14 
ROOT
HETATM    1  C1  UNL     1       7.501  -2.144  -0.359  1.00  0.00     0.018 C 
HETATM    2  C2  UNL     1       6.469  -1.511  -0.477  1.00  0.00    -0.078 C 
HETATM    3  C3  UNL     1       5.245  -0.777  -0.627  1.00  0.00     0.019 A 
HETATM    4  C4  UNL     1       5.293   0.299  -1.501  1.00  0.00     0.021 A 
HETATM    5  C5  UNL     1       4.143   1.039  -1.682  1.00  0.00     0.004 A 
HETATM    6  C6  UNL     1       2.973   0.740  -1.029  1.00  0.00     0.029 A 
HETATM    7  C7  UNL     1       2.919  -0.319  -0.167  1.00  0.00     0.034 A 
HETATM    8  C19 UNL     1       4.073  -1.087   0.036  1.00  0.00     0.050 A 
ENDROOT
BRANCH   7   9
HETATM    9  N1  UNL     1       1.836  -0.800   0.596  1.00  0.00    -0.343 N 
HETATM   10  H5  UNL     1       1.771  -1.569   1.287  1.00  0.00     0.167 HD
BRANCH   9  11
HETATM   11  C8  UNL     1       0.541  -0.227   0.529  1.00  0.00     0.122 C 
HETATM   12  N2  UNL     1       0.113   0.160  -0.712  1.00  0.00    -0.228 NA
HETATM   13  C9  UNL     1      -1.219   0.751  -0.733  1.00  0.00     0.232 C 
HETATM   14  N3  UNL     1      -2.226   0.095  -0.343  1.00  0.00    -0.249 NA
HETATM   15  C10 UNL     1      -3.613   0.521  -0.277  1.00  0.00     0.268 C 
HETATM   16  C12 UNL     1      -4.272  -0.203   0.928  1.00  0.00     0.225 C 
HETATM   17  O2  UNL     1      -3.492   0.100   2.135  1.00  0.00    -0.368 OA
HETATM   18  C13 UNL     1      -2.087  -0.230   1.898  1.00  0.00     0.103 A 
HETATM   19  C14 UNL     1      -2.045   1.131   1.923  1.00  0.00     0.012 A 
HETATM   20  C18 UNL     1      -2.038  -1.566   1.851  1.00  0.00     0.013 A 
HETATM   21  C17 UNL     1      -0.738  -1.285   1.515  1.00  0.00     0.090 A 
HETATM   22  C16 UNL     1      -0.572   0.052   1.508  1.00  0.00     0.086 A 
HETATM   23  C15 UNL     1      -0.705   1.392   1.583  1.00  0.00    -0.006 A 
HETATM   24 BR1  UNL     1      -3.304  -2.935   2.189  1.00  0.00    -0.056 Br
BRANCH  15  25
HETATM   25  O1  UNL     1      -4.265   0.025  -1.397  1.00  0.00    -0.368 OA
HETATM   26  C11 UNL     1      -4.935   1.029  -2.099  1.00  0.00     0.204 C 
ENDBRANCH  15  25
ENDBRANCH   9  11
ENDBRANCH   7   9
TORSDOF 3
