REMARK  3 active torsions:
REMARK  status: ('A' for Active; 'I' for Inactive)
REMARK    1  A    between atoms: O1_1  and  C1_2 
REMARK    2  A    between atoms: C2_3  and  C3_4 
REMARK    3  A    between atoms: C7_10  and  N3_11 
ROOT
HETATM    1  C3  UNL     1       3.373   0.372  -0.867  1.00  0.00     0.387 A 
HETATM    2  N1  UNL     1       2.774  -0.697  -0.055  1.00  0.00     0.079 N 
HETATM    3  C4  UNL     1       3.510  -1.588   0.516  1.00  0.00     0.313 A 
HETATM    4  C5  UNL     1       2.094  -1.836   0.813  1.00  0.00     0.378 A 
HETATM    5  N2  UNL     1       1.308  -0.986   0.275  1.00  0.00    -0.197 N 
HETATM    6  C6  UNL     1      -0.117  -1.042   0.435  1.00  0.00     0.209 A 
HETATM    7  C7  UNL     1      -0.851   0.008  -0.260  1.00  0.00     0.029 A 
HETATM    8  C13 UNL     1      -0.390   0.988  -1.003  1.00  0.00     0.029 A 
HETATM    9  C14 UNL     1       1.061   0.961  -1.102  1.00  0.00     0.322 A 
HETATM   10  N4  UNL     1       2.271   1.205  -1.378  1.00  0.00    -0.400 NA
ENDROOT
BRANCH   7  11
HETATM   11  N3  UNL     1      -2.251  -0.055  -0.098  1.00  0.00    -0.355 N 
HETATM   12  C8  UNL     1      -2.890   1.191   0.244  1.00  0.00     0.092 A 
HETATM   13  C9  UNL     1      -4.196   1.224   0.414  1.00  0.00     0.036 A 
HETATM   14  C10 UNL     1      -5.008   0.038   0.267  1.00  0.00     0.010 A 
HETATM   15 BR1  UNL     1      -6.889   0.192   0.535  1.00  0.00    -0.051 Br
HETATM   16  C11 UNL     1      -4.417  -1.117  -0.050  1.00  0.00     0.012 A 
HETATM   17  C12 UNL     1      -2.982  -1.306  -0.269  1.00  0.00     0.157 A 
ENDBRANCH   7  11
BRANCH   1  18
HETATM   18  C2  UNL     1       4.304   1.173  -0.068  1.00  0.00    -0.021 C 
HETATM   19  C1  UNL     1       5.079   1.834   0.581  1.00  0.00     0.055 C 
BRANCH  19  20
HETATM   20  O1  UNL     1       5.942   2.594   1.322  1.00  0.00    -0.314 OA
HETATM   21  H1  UNL     1       5.809   2.768   2.311  1.00  0.00     0.230 HD
ENDBRANCH  19  20
ENDBRANCH   1  18
TORSDOF 3
