REMARK  4 active torsions:
REMARK  status: ('A' for Active; 'I' for Inactive)
REMARK    1  A    between atoms: C5_9  and  N3_10 
REMARK    2  A    between atoms: N3_10  and  C6_11 
REMARK    3  A    between atoms: C6_11  and  P1_12 
REMARK    4  A    between atoms: P1_12  and  C7_13 
ROOT
HETATM    1  N1  UNL     1      -4.293   3.196  -1.258  1.00  0.00    -0.292 NA
HETATM    2  C1  UNL     1      -4.792   2.102  -0.871  1.00  0.00     0.107 A 
HETATM    3  C2  UNL     1      -6.163   1.578  -0.598  1.00  0.00     0.184 A 
HETATM    4  N2  UNL     1      -6.282   0.383  -0.209  1.00  0.00    -0.137 NA
HETATM    5  O1  UNL     1      -5.573  -0.671   0.071  1.00  0.00    -0.205 OA
HETATM    6  C3  UNL     1      -4.098  -0.780  -0.009  1.00  0.00     0.157 A 
HETATM    7  S1  UNL     1      -3.568   0.794  -0.550  1.00  0.00    -0.051 SA
HETATM    8  C4  UNL     1      -1.774   0.455  -0.581  1.00  0.00     0.113 A 
HETATM    9  C5  UNL     1      -0.949   1.380  -0.939  1.00  0.00     0.155 C 
HETATM   10  N4  UNL     1      -1.727  -0.887  -0.158  1.00  0.00    -0.249 NA
HETATM   11  C13 UNL     1      -2.827  -1.440   0.103  1.00  0.00     0.164 A 
HETATM   12  H1  UNL     1      -3.303   3.430  -1.409  1.00  0.00     0.187 HD
ENDROOT
BRANCH   9  13
HETATM   13  N3  UNL     1       0.458   1.515  -1.091  1.00  0.00    -0.269 NA
BRANCH  13  14
HETATM   14  C6  UNL     1       1.169   0.472  -1.291  1.00  0.00     0.123 C 
BRANCH  14  15
HETATM   15  P1  UNL     1       2.402  -0.853  -1.583  1.00  0.00    -0.053 P 
HETATM   16  H5  UNL     1       3.244  -0.548  -2.731  1.00  0.00     0.068 HD
BRANCH  15  17
HETATM   17  C7  UNL     1       3.480  -1.030  -0.089  1.00  0.00    -0.029 A 
HETATM   18  C8  UNL     1       4.098  -2.204   0.289  1.00  0.00     0.012 A 
HETATM   19  C9  UNL     1       4.885  -2.249   1.418  1.00  0.00     0.001 A 
HETATM   20  C10 UNL     1       5.070  -1.123   2.191  1.00  0.00     0.000 A 
HETATM   21  C11 UNL     1       4.453   0.065   1.820  1.00  0.00     0.001 A 
HETATM   22  C12 UNL     1       3.666   0.099   0.686  1.00  0.00     0.012 A 
ENDBRANCH  15  17
ENDBRANCH  14  15
ENDBRANCH  13  14
ENDBRANCH   9  13
TORSDOF 4
