REMARK  7 active torsions:
REMARK  status: ('A' for Active; 'I' for Inactive)
REMARK       I    between atoms: N1_2  and  C2_3 
REMARK    1  A    between atoms: C2_3  and  C3_5 
REMARK    2  A    between atoms: C3_5  and  N2_7 
REMARK    3  A    between atoms: N2_7  and  C6_9 
REMARK    4  A    between atoms: C6_9  and  C7_10 
REMARK    5  A    between atoms: C10_13  and  N3_14 
REMARK    6  A    between atoms: N3_14  and  C11_15 
REMARK    7  A    between atoms: C20_28  and  O2_29 
ROOT
HETATM    1  C7  UNL     1      -0.333  -1.223  -0.508  1.00  0.00    -0.006 A 
HETATM    2  C8  UNL     1       0.825  -0.531  -0.909  1.00  0.00     0.029 A 
HETATM    3  C9  UNL     1       2.015  -1.192  -1.065  1.00  0.00     0.039 A 
HETATM    4  C10 UNL     1       3.223  -0.585  -1.460  1.00  0.00     0.142 A 
HETATM    5  N4  UNL     1       4.371  -1.266  -1.603  1.00  0.00    -0.224 NA
HETATM    6  C17 UNL     1       4.423  -2.592  -1.371  1.00  0.00     0.236 A 
HETATM    7  N5  UNL     1       3.302  -3.225  -0.990  1.00  0.00    -0.241 NA
HETATM    8  C18 UNL     1       2.137  -2.570  -0.837  1.00  0.00     0.074 A 
HETATM    9  C19 UNL     1       1.002  -3.220  -0.449  1.00  0.00     0.070 A 
HETATM   10  C20 UNL     1      -0.198  -2.565  -0.289  1.00  0.00     0.078 A 
ENDROOT
BRANCH   1  11
HETATM   11  C6  UNL     1      -1.449  -0.286  -0.405  1.00  0.00     0.159 C 
BRANCH  11  12
HETATM   12  N2  UNL     1      -1.819   0.180   0.884  1.00  0.00    -0.401 N 
HETATM   13  C5  UNL     1      -1.991  -0.748   1.920  1.00  0.00     0.144 C 
BRANCH  12  14
HETATM   14  C3  UNL     1      -2.688   1.312   0.889  1.00  0.00     0.167 C 
HETATM   15  C4  UNL     1      -2.569   2.125   2.165  1.00  0.00     0.042 C 
BRANCH  14  16
HETATM   16  C2  UNL     1      -4.094   1.019   0.633  1.00  0.00     0.239 C 
HETATM   17  N1  UNL     1      -5.024   0.004   0.335  1.00  0.00    -0.364 N 
HETATM   18  C1  UNL     1      -6.397   0.472   0.196  1.00  0.00     0.149 C 
HETATM   19  H4  UNL     1      -4.493  -0.882   0.278  1.00  0.00     0.161 HD
HETATM   20  O1  UNL     1      -4.690   2.155   0.720  1.00  0.00    -0.271 OA
ENDBRANCH  14  16
ENDBRANCH  12  14
ENDBRANCH  11  12
ENDBRANCH   1  11
BRANCH  10  21
HETATM   21  O2  UNL     1      -1.356  -3.180   0.094  1.00  0.00    -0.355 OA
HETATM   22  C21 UNL     1      -1.439  -4.543   0.365  1.00  0.00     0.210 C 
ENDBRANCH  10  21
BRANCH   4  23
HETATM   23  N3  UNL     1       3.118   0.825  -1.693  1.00  0.00    -0.338 N 
HETATM   24  H15 UNL     1       2.576   0.928  -2.563  1.00  0.00     0.167 HD
BRANCH  23  25
HETATM   25  C11 UNL     1       3.638   1.888  -0.899  1.00  0.00     0.074 A 
HETATM   26  C12 UNL     1       2.884   2.868  -0.266  1.00  0.00     0.033 A 
HETATM   27  C13 UNL     1       3.522   3.869   0.471  1.00  0.00     0.004 A 
HETATM   28  C14 UNL     1       4.910   3.916   0.594  1.00  0.00     0.027 A 
HETATM   29  C15 UNL     1       5.627   2.910  -0.059  1.00  0.00     0.074 A 
HETATM   30 CL1  UNL     1       7.377   2.970   0.087  1.00  0.00    -0.081 Cl
HETATM   31  C16 UNL     1       5.009   1.929  -0.782  1.00  0.00     0.164 A 
HETATM   32  F1  UNL     1       5.785   0.984  -1.393  1.00  0.00    -0.202 F 
ENDBRANCH  23  25
ENDBRANCH   4  23
TORSDOF 7
