REMARK  4 active torsions:
REMARK  status: ('A' for Active; 'I' for Inactive)
REMARK       I    between atoms: C3_3  and  N1_5 
REMARK    1  A    between atoms: N1_5  and  C4_6 
REMARK    2  A    between atoms: C6_8  and  P1_9 
REMARK    3  A    between atoms: P1_9  and  O2_10 
REMARK    4  A    between atoms: C7_11  and  C8_12 
ROOT
HETATM    1  C1  UNL     1       6.242   2.426   0.291  1.00  0.00     0.022 C 
HETATM    2  C2  UNL     1       5.259   1.733   0.247  1.00  0.00    -0.016 C 
HETATM    3  C3  UNL     1       4.090   0.891   0.195  1.00  0.00     0.301 C 
HETATM    4  O1  UNL     1       4.023  -0.246   0.757  1.00  0.00    -0.258 OA
HETATM    5  N1  UNL     1       2.899   1.242  -0.486  1.00  0.00    -0.301 N 
HETATM    6  H2  UNL     1       2.864   2.178  -0.987  1.00  0.00     0.171 HD
ENDROOT
BRANCH   5   7
HETATM    7  C4  UNL     1       1.935   0.179  -0.338  1.00  0.00     0.131 C 
HETATM    8  C5  UNL     1       1.062   0.194   0.729  1.00  0.00     0.067 C 
HETATM    9  C6  UNL     1      -0.261   0.052   1.000  1.00  0.00     0.026 C 
HETATM   10  C7  UNL     1      -1.226  -0.785   0.423  1.00  0.00     0.081 C 
HETATM   11  N2  UNL     1      -0.598  -1.977   0.347  1.00  0.00    -0.240 NA
HETATM   12  C14 UNL     1      -0.446  -2.674  -0.787  1.00  0.00     0.233 C 
HETATM   13  N3  UNL     1       0.768  -3.042  -1.223  1.00  0.00    -0.253 NA
HETATM   14  C15 UNL     1       1.861  -2.802  -0.473  1.00  0.00     0.137 C 
HETATM   15  C16 UNL     1       2.698  -1.869  -1.073  1.00  0.00     0.138 C 
HETATM   16  N4  UNL     1       2.128  -0.670  -1.380  1.00  0.00    -0.242 NA
BRANCH   9  17
HETATM   17  P1  UNL     1      -1.004   1.094   2.336  1.00  0.00     0.045 P 
HETATM   18  H4  UNL     1      -0.630   0.467   3.590  1.00  0.00     0.092 HD
BRANCH  17  19
HETATM   19  O2  UNL     1      -0.459   2.733   2.232  1.00  0.00    -0.371 OA
HETATM   20  H5  UNL     1      -0.158   2.939   1.328  1.00  0.00     0.215 HD
ENDBRANCH  17  19
ENDBRANCH   9  17
BRANCH  10  21
HETATM   21  C8  UNL     1      -2.537  -0.243   0.075  1.00  0.00    -0.005 A 
HETATM   22  C9  UNL     1      -2.599   0.976  -0.574  1.00  0.00     0.014 A 
HETATM   23  C10 UNL     1      -3.868   1.430  -0.873  1.00  0.00     0.002 A 
HETATM   24  C11 UNL     1      -5.034   0.741  -0.562  1.00  0.00     0.019 A 
HETATM   25  C12 UNL     1      -4.880  -0.468   0.086  1.00  0.00     0.011 A 
HETATM   26 BR1  UNL     1      -6.503  -1.384   0.496  1.00  0.00    -0.051 Br
HETATM   27  C13 UNL     1      -3.657  -0.983   0.415  1.00  0.00     0.032 A 
ENDBRANCH  10  21
ENDBRANCH   5   7
TORSDOF 4
