REMARK  5 active torsions:
REMARK  status: ('A' for Active; 'I' for Inactive)
REMARK    1  A    between atoms: C3_4  and  C4_5 
REMARK    2  A    between atoms: C5_6  and  C6_7 
REMARK    3  A    between atoms: C6_7  and  N1_10 
REMARK    4  A    between atoms: N1_10  and  C8_11 
REMARK    5  A    between atoms: C11_14  and  N2_15 
ROOT
HETATM    1  C6  UNL     1       0.847   0.221  -0.926  1.00  0.00     0.140 C 
HETATM    2  C7  UNL     1       1.220  -1.213  -1.059  1.00  0.00     0.420 C 
HETATM    3  O1  UNL     1       1.593  -2.375  -1.269  1.00  0.00    -0.428 OA
ENDROOT
BRANCH   1   4
HETATM    4  C5  UNL     1       1.999   1.124  -0.740  1.00  0.00     0.001 C 
HETATM    5  C4  UNL     1       3.296   0.982  -0.535  1.00  0.00    -0.001 C 
BRANCH   5   6
HETATM    6  C3  UNL     1       4.350  -0.002  -0.372  1.00  0.00     0.014 C 
HETATM    7  C2  UNL     1       5.669  -0.080  -0.165  1.00  0.00    -0.015 C 
HETATM    8  C1  UNL     1       6.321   1.242  -0.057  1.00  0.00     0.056 C 
HETATM    9 BR1  UNL     1       6.382  -1.836  -0.058  1.00  0.00    -0.056 Br
ENDBRANCH   5   6
ENDBRANCH   1   4
BRANCH   1  10
HETATM   10  N1  UNL     1      -0.012   0.299   0.257  1.00  0.00    -0.364 N 
HETATM   11  H9  UNL     1       0.099   0.878   1.116  1.00  0.00     0.162 HD
BRANCH  10  12
HETATM   12  C8  UNL     1      -1.210  -0.353   0.599  1.00  0.00     0.124 A 
HETATM   13  C9  UNL     1      -2.360   0.284   0.163  1.00  0.00     0.067 A 
HETATM   14  C10 UNL     1      -3.627  -0.208   0.407  1.00  0.00     0.043 A 
HETATM   15  C11 UNL     1      -4.775   0.421  -0.023  1.00  0.00     0.135 A 
HETATM   16  C13 UNL     1      -3.712  -1.385   1.117  1.00  0.00     0.089 A 
HETATM   17  N3  UNL     1      -5.960  -0.150   0.272  1.00  0.00    -0.224 NA
HETATM   18  C12 UNL     1      -6.073  -1.299   0.964  1.00  0.00     0.236 A 
HETATM   19  N4  UNL     1      -4.926  -1.911   1.384  1.00  0.00    -0.240 NA
HETATM   20  C14 UNL     1      -2.548  -2.026   1.555  1.00  0.00     0.151 A 
HETATM   21  N5  UNL     1      -1.326  -1.513   1.296  1.00  0.00    -0.241 NA
BRANCH  15  22
HETATM   22  N2  UNL     1      -4.644   1.638  -0.757  1.00  0.00    -0.383 N 
HETATM   23  H11 UNL     1      -4.067   2.429  -0.348  1.00  0.00     0.157 HD
HETATM   24  H12 UNL     1      -5.015   1.968  -1.687  1.00  0.00     0.157 HD
ENDBRANCH  15  22
ENDBRANCH  10  12
ENDBRANCH   1  10
TORSDOF 5
