REMARK  5 active torsions:
REMARK  status: ('A' for Active; 'I' for Inactive)
REMARK       I    between atoms: C3_3  and  N1_5 
REMARK    1  A    between atoms: N1_5  and  C4_6 
REMARK    2  A    between atoms: C7_9  and  N2_10 
REMARK    3  A    between atoms: N2_10  and  C8_11 
REMARK    4  A    between atoms: C8_11  and  C9_12 
REMARK    5  A    between atoms: C10_13  and  C11_14 
ROOT
HETATM    1  C1  UNL     1      -6.994  -2.664   0.439  1.00  0.00     0.022 C 
HETATM    2  C2  UNL     1      -5.999  -2.054   0.103  1.00  0.00    -0.016 C 
HETATM    3  C3  UNL     1      -4.828  -1.310  -0.307  1.00  0.00     0.301 C 
HETATM    4  O1  UNL     1      -4.289  -1.573  -1.429  1.00  0.00    -0.258 OA
HETATM    5  N1  UNL     1      -4.289  -0.294   0.541  1.00  0.00    -0.301 N 
HETATM    6  H2  UNL     1      -4.803  -0.144   1.455  1.00  0.00     0.171 HD
ENDROOT
BRANCH   5   7
HETATM    7  C4  UNL     1      -3.137   0.373   0.039  1.00  0.00     0.131 A 
HETATM    8  C5  UNL     1      -1.838  -0.032   0.264  1.00  0.00     0.068 A 
HETATM    9  C6  UNL     1      -0.740   0.635  -0.236  1.00  0.00     0.043 A 
HETATM   10  C7  UNL     1       0.502   0.149   0.047  1.00  0.00     0.138 A 
HETATM   11  C14 UNL     1      -0.979   1.760  -0.996  1.00  0.00     0.089 A 
HETATM   12  N3  UNL     1       1.504   0.867  -0.484  1.00  0.00    -0.224 NA
HETATM   13  C13 UNL     1       1.296   1.963  -1.225  1.00  0.00     0.236 A 
HETATM   14  N4  UNL     1       0.067   2.432  -1.497  1.00  0.00    -0.240 NA
HETATM   15  C15 UNL     1      -2.283   2.185  -1.234  1.00  0.00     0.151 A 
HETATM   16  N5  UNL     1      -3.322   1.494  -0.721  1.00  0.00    -0.241 NA
BRANCH  10  17
HETATM   17  N2  UNL     1       0.785  -1.010   0.828  1.00  0.00    -0.371 N 
HETATM   18  H4  UNL     1       0.055  -1.609   1.267  1.00  0.00     0.161 HD
BRANCH  17  19
HETATM   19  C8  UNL     1       2.178  -1.395   1.036  1.00  0.00     0.148 C 
BRANCH  19  20
HETATM   20  C9  UNL     1       2.955  -0.333   1.720  1.00  0.00    -0.006 C 
HETATM   21  C10 UNL     1       4.018   0.221   1.166  1.00  0.00     0.012 C 
BRANCH  21  22
HETATM   22  C11 UNL     1       4.644  -0.033  -0.122  1.00  0.00    -0.013 A 
HETATM   23  C12 UNL     1       5.694   0.468  -0.747  1.00  0.00     0.124 A 
HETATM   24 BR1  UNL     1       4.551  -1.072  -1.715  1.00  0.00    -0.128 Br
ENDBRANCH  21  22
ENDBRANCH  19  20
ENDBRANCH  17  19
ENDBRANCH  10  17
ENDBRANCH   5   7
TORSDOF 5
