REMARK  3 active torsions:
REMARK  status: ('A' for Active; 'I' for Inactive)
REMARK       I    between atoms: C3_3  and  N1_5 
REMARK    1  A    between atoms: N1_5  and  C4_6 
REMARK    2  A    between atoms: C7_9  and  N2_10 
REMARK    3  A    between atoms: N2_10  and  C8_11 
ROOT
HETATM    1  C1  UNL     1       6.378  -2.569  -1.397  1.00  0.00     0.022 C 
HETATM    2  C2  UNL     1       5.648  -1.603  -1.294  1.00  0.00    -0.016 C 
HETATM    3  C3  UNL     1       4.767  -0.457  -1.152  1.00  0.00     0.301 C 
HETATM    4  O1  UNL     1       4.850   0.539  -1.918  1.00  0.00    -0.258 OA
HETATM    5  N1  UNL     1       3.806  -0.532  -0.094  1.00  0.00    -0.301 N 
HETATM    6  H2  UNL     1       3.709  -1.341   0.559  1.00  0.00     0.171 HD
ENDROOT
BRANCH   5   7
HETATM    7  C4  UNL     1       2.858   0.488   0.204  1.00  0.00     0.130 A 
HETATM    8  C5  UNL     1       1.556   0.312   0.179  1.00  0.00     0.070 A 
HETATM    9  C6  UNL     1       0.548   1.323   0.476  1.00  0.00     0.069 A 
HETATM   10  C7  UNL     1      -0.804   1.093   0.437  1.00  0.00     0.144 A 
HETATM   11  C15 UNL     1       1.091   2.545   0.803  1.00  0.00     0.207 A 
HETATM   12  N3  UNL     1      -1.536   2.167   0.746  1.00  0.00    -0.223 NA
HETATM   13  C14 UNL     1      -1.087   3.378   1.072  1.00  0.00     0.238 A 
HETATM   14  N4  UNL     1       0.247   3.571   1.102  1.00  0.00    -0.215 NA
HETATM   15  O2  UNL     1       2.459   2.768   0.840  1.00  0.00    -0.215 OA
HETATM   16  N5  UNL     1       3.361   1.773   0.550  1.00  0.00    -0.243 N 
HETATM   17  H10 UNL     1       4.364   2.053   0.609  1.00  0.00     0.196 HD
BRANCH  10  18
HETATM   18  N2  UNL     1      -1.290  -0.187   0.090  1.00  0.00    -0.340 N 
HETATM   19  H4  UNL     1      -0.632  -0.953  -0.140  1.00  0.00     0.167 HD
BRANCH  18  20
HETATM   20  C8  UNL     1      -2.634  -0.626   0.001  1.00  0.00     0.035 A 
HETATM   21  C9  UNL     1      -3.707   0.185   0.289  1.00  0.00     0.029 A 
HETATM   22  C10 UNL     1      -5.026  -0.208   0.211  1.00  0.00     0.004 A 
HETATM   23  C11 UNL     1      -5.339  -1.483  -0.176  1.00  0.00     0.019 A 
HETATM   24  C12 UNL     1      -4.294  -2.330  -0.474  1.00  0.00     0.013 A 
HETATM   25 BR1  UNL     1      -4.662  -4.104  -1.014  1.00  0.00    -0.051 Br
HETATM   26  C13 UNL     1      -2.994  -1.892  -0.381  1.00  0.00     0.048 A 
ENDBRANCH  18  20
ENDBRANCH  10  18
ENDBRANCH   5   7
TORSDOF 3
