REMARK  6 active torsions:
REMARK  status: ('A' for Active; 'I' for Inactive)
REMARK    1  A    between atoms: C2_2  and  C3_3 
REMARK    2  A    between atoms: C4_5  and  C5_6 
REMARK    3  A    between atoms: C5_6  and  C6_7 
REMARK    4  A    between atoms: C7_8  and  C8_9 
REMARK       I    between atoms: C8_9  and  N1_11 
REMARK    5  A    between atoms: N1_11  and  C9_12 
REMARK    6  A    between atoms: C12_15  and  N2_16 
ROOT
HETATM    1  C9  UNL     1      -2.233  -0.909   0.206  1.00  0.00     0.131 A 
HETATM    2  C10 UNL     1      -2.879   0.287  -0.063  1.00  0.00     0.068 A 
HETATM    3  C11 UNL     1      -4.234   0.372  -0.024  1.00  0.00     0.043 A 
HETATM    4  C12 UNL     1      -4.946   1.528  -0.280  1.00  0.00     0.135 A 
HETATM    5  N3  UNL     1      -6.306   1.540  -0.223  1.00  0.00    -0.224 NA
HETATM    6  C13 UNL     1      -6.980   0.395   0.092  1.00  0.00     0.236 A 
HETATM    7  N4  UNL     1      -6.276  -0.731   0.341  1.00  0.00    -0.240 NA
HETATM    8  C14 UNL     1      -4.930  -0.797   0.297  1.00  0.00     0.089 A 
HETATM    9  C15 UNL     1      -4.302  -1.994   0.567  1.00  0.00     0.151 A 
HETATM   10  N5  UNL     1      -2.973  -1.996   0.509  1.00  0.00    -0.241 NA
ENDROOT
BRANCH   1  11
HETATM   11  N1  UNL     1      -0.813  -0.923   0.146  1.00  0.00    -0.301 N 
HETATM   12  C8  UNL     1       0.316  -0.707   1.010  1.00  0.00     0.302 C 
HETATM   13  O1  UNL     1       0.182  -0.406   2.219  1.00  0.00    -0.258 OA
HETATM   14  H7  UNL     1      -0.704  -1.177  -0.877  1.00  0.00     0.171 HD
BRANCH  12  15
HETATM   15  C7  UNL     1       1.593  -0.863   0.381  1.00  0.00    -0.005 C 
HETATM   16  C6  UNL     1       2.684  -0.981  -0.160  1.00  0.00    -0.093 C 
BRANCH  16  17
HETATM   17  C5  UNL     1       4.008  -1.103  -0.806  1.00  0.00     0.122 C 
BRANCH  17  18
HETATM   18  C4  UNL     1       5.056  -1.128   0.241  1.00  0.00     0.004 C 
HETATM   19  C3  UNL     1       6.081  -0.322   0.461  1.00  0.00     0.007 C 
HETATM   20 BR1  UNL     1       7.197  -0.734   1.948  1.00  0.00    -0.051 Br
BRANCH  19  21
HETATM   21  C2  UNL     1       6.332   0.824  -0.401  1.00  0.00     0.008 C 
HETATM   22  C1  UNL     1       7.357   1.621  -0.171  1.00  0.00     0.012 C 
ENDBRANCH  19  21
ENDBRANCH  17  18
ENDBRANCH  16  17
ENDBRANCH  12  15
ENDBRANCH   1  11
BRANCH   4  23
HETATM   23  N2  UNL     1      -4.215   2.700  -0.604  1.00  0.00    -0.383 N 
HETATM   24  H9  UNL     1      -4.029   2.724  -1.650  1.00  0.00     0.157 HD
HETATM   25  H10 UNL     1      -3.818   3.534  -0.087  1.00  0.00     0.157 HD
ENDBRANCH   4  23
TORSDOF 6
