REMARK  3 active torsions:
REMARK  status: ('A' for Active; 'I' for Inactive)
REMARK    1  A    between atoms: N1_2  and  C2_3 
REMARK    2  A    between atoms: C2_3  and  N2_4 
REMARK    3  A    between atoms: C4_6  and  C5_7 
ROOT
HETATM    1  N2  UNL     1       0.812   0.245  -0.832  1.00  0.00    -0.246 NA
HETATM    2  C3  UNL     1       0.221  -0.823  -0.562  1.00  0.00     0.117 A 
HETATM    3  C4  UNL     1      -1.268  -0.918  -0.488  1.00  0.00     0.114 A 
HETATM    4  C11 UNL     1      -1.804  -2.215  -0.147  1.00  0.00    -0.004 A 
HETATM    5  C12 UNL     1      -1.217  -3.348   0.115  1.00  0.00     0.072 A 
HETATM    6  C13 UNL     1       0.234  -3.273   0.045  1.00  0.00     0.248 A 
HETATM    7  O1  UNL     1       0.869  -4.351   0.292  1.00  0.00    -0.268 OA
HETATM    8  N3  UNL     1       0.935  -2.052  -0.283  1.00  0.00    -0.306 N 
HETATM    9  C14 UNL     1       2.358  -2.161  -0.311  1.00  0.00     0.161 C 
ENDROOT
BRANCH   3  10
HETATM   10  C5  UNL     1      -1.919   0.228   0.166  1.00  0.00     0.000 A 
HETATM   11  C6  UNL     1      -2.688   0.114   1.318  1.00  0.00     0.043 A 
HETATM   12 CL1  UNL     1      -2.844  -1.426   2.178  1.00  0.00    -0.084 Cl
HETATM   13  C7  UNL     1      -3.377   1.131   1.940  1.00  0.00     0.024 A 
HETATM   14  C8  UNL     1      -3.323   2.395   1.398  1.00  0.00     0.003 A 
HETATM   15  C9  UNL     1      -2.581   2.591   0.254  1.00  0.00     0.024 A 
HETATM   16  C10 UNL     1      -1.922   1.519  -0.307  1.00  0.00     0.043 A 
HETATM   17 CL2  UNL     1      -1.092   1.919  -1.795  1.00  0.00    -0.084 Cl
ENDBRANCH   3  10
BRANCH   1  18
HETATM   18  C2  UNL     1       2.127   0.681  -0.979  1.00  0.00     0.419 C 
BRANCH  18  19
HETATM   19  N1  UNL     1       2.162   2.167  -0.908  1.00  0.00     0.098 N 
HETATM   20  C1  UNL     1       3.555   2.546  -1.068  1.00  0.00     0.308 C 
HETATM   21  H4  UNL     1       1.895   2.412   0.083  1.00  0.00     0.317 HD
ENDBRANCH  18  19
ENDBRANCH   1  18
TORSDOF 3
