REMARK  6 active torsions:
REMARK  status: ('A' for Active; 'I' for Inactive)
REMARK    1  A    between atoms: O1_2  and  C2_3 
REMARK    2  A    between atoms: C2_3  and  C3_4 
REMARK    3  A    between atoms: C3_4  and  O2_5 
REMARK    4  A    between atoms: O2_5  and  C4_6 
REMARK    5  A    between atoms: C6_9  and  C7_10 
REMARK    6  A    between atoms: C7_10  and  O4_11 
ROOT
HETATM    1  C4  UNL     1       0.766  -0.295   0.846  1.00  0.00     0.092 C 
HETATM    2  C5  UNL     1       0.230  -0.859   1.944  1.00  0.00     0.172 C 
HETATM    3  O3  UNL     1      -1.111  -0.815   2.295  1.00  0.00    -0.350 OA
HETATM    4  C6  UNL     1      -2.250  -0.855   1.350  1.00  0.00     0.187 C 
HETATM    5  C9  UNL     1      -2.334   0.535   0.844  1.00  0.00     0.214 A 
HETATM    6  O5  UNL     1      -3.568   1.027   0.445  1.00  0.00    -0.319 OA
HETATM    7  C10 UNL     1      -3.822   1.755  -0.712  1.00  0.00     0.175 A 
HETATM    8  N1  UNL     1      -4.998   2.223  -1.002  1.00  0.00    -0.277 NA
HETATM    9  C11 UNL     1      -2.711   1.987  -1.614  1.00  0.00     0.174 A 
HETATM   10  N2  UNL     1      -1.565   1.520  -1.303  1.00  0.00    -0.258 NA
HETATM   11  C12 UNL     1      -1.250   0.784  -0.143  1.00  0.00     0.069 A 
HETATM   12  C13 UNL     1       0.035   0.476  -0.188  1.00  0.00     0.068 C 
HETATM   13  H16 UNL     1      -5.799   2.054  -0.349  1.00  0.00     0.189 HD
ENDROOT
BRANCH   1  14
HETATM   14  O2  UNL     1       2.119  -0.399   0.589  1.00  0.00    -0.347 OA
BRANCH  14  15
HETATM   15  C3  UNL     1       2.953   0.598   0.091  1.00  0.00     0.201 C 
BRANCH  15  16
HETATM   16  C2  UNL     1       4.357  -0.008  -0.015  1.00  0.00     0.193 C 
BRANCH  16  17
HETATM   17  O1  UNL     1       5.263   0.902  -0.501  1.00  0.00    -0.394 OA
HETATM   18  C1  UNL     1       6.551   0.372  -0.606  1.00  0.00     0.201 C 
ENDBRANCH  16  17
ENDBRANCH  15  16
ENDBRANCH  14  15
ENDBRANCH   1  14
BRANCH   4  19
HETATM   19  C7  UNL     1      -1.998  -1.962   0.397  1.00  0.00     0.202 C 
BRANCH  19  20
HETATM   20  O4  UNL     1      -2.874  -2.367  -0.516  1.00  0.00    -0.393 OA
HETATM   21  C8  UNL     1      -3.397  -1.624  -1.495  1.00  0.00     0.201 C 
ENDBRANCH  19  20
ENDBRANCH   4  19
TORSDOF 6
