REMARK  4 active torsions:
REMARK  status: ('A' for Active; 'I' for Inactive)
REMARK    1  A    between atoms: O1_2  and  C2_3 
REMARK    2  A    between atoms: C2_3  and  C3_4 
REMARK    3  A    between atoms: C3_4  and  O2_5 
REMARK    4  A    between atoms: O2_5  and  C4_6 
ROOT
HETATM    1  C4  UNL     1       1.363   0.450   0.314  1.00  0.00     0.120 C 
HETATM    2  C5  UNL     1       1.070   1.630   0.835  1.00  0.00     0.173 C 
HETATM    3  O3  UNL     1      -0.250   2.115   0.993  1.00  0.00    -0.358 OA
HETATM    4  C6  UNL     1      -0.523   3.460   1.115  1.00  0.00     0.200 C 
HETATM    5  C7  UNL     1      -1.957   3.821   1.212  1.00  0.00     0.194 C 
HETATM    6  O4  UNL     1      -2.831   3.550   0.257  1.00  0.00    -0.385 OA
HETATM    7  C8  UNL     1      -3.279   2.383  -0.165  1.00  0.00     0.195 C 
HETATM    8  C9  UNL     1      -2.237   1.453  -0.620  1.00  0.00     0.008 C 
HETATM    9  C10 UNL     1      -1.803   0.261  -0.316  1.00  0.00    -0.038 C 
HETATM   10  C11 UNL     1      -0.889  -0.871  -0.512  1.00  0.00     0.002 C 
HETATM   11  C12 UNL     1       0.173  -0.260  -0.064  1.00  0.00     0.102 C 
HETATM   12  N1  UNL     1      -0.257  -0.810   1.219  1.00  0.00    -0.261 NA
HETATM   13  C13 UNL     1      -1.371  -1.540   1.225  1.00  0.00     0.100 C 
HETATM   14  C14 UNL     1      -2.451  -0.622   0.669  1.00  0.00     0.063 C 
HETATM   15  C15 UNL     1      -3.399  -1.496  -0.197  1.00  0.00     0.041 C 
HETATM   16  C16 UNL     1      -2.552  -2.212  -1.234  1.00  0.00    -0.025 C 
HETATM   17  C17 UNL     1      -1.224  -2.188  -0.996  1.00  0.00     0.010 C 
ENDROOT
BRANCH   1  18
HETATM   18  O2  UNL     1       2.486  -0.272   0.040  1.00  0.00    -0.345 OA
BRANCH  18  19
HETATM   19  C3  UNL     1       2.860  -0.761  -1.230  1.00  0.00     0.202 C 
BRANCH  19  20
HETATM   20  C2  UNL     1       4.215  -1.423  -1.086  1.00  0.00     0.193 C 
BRANCH  20  21
HETATM   21  O1  UNL     1       4.087  -2.472  -0.168  1.00  0.00    -0.394 OA
HETATM   22  C1  UNL     1       5.289  -3.140   0.019  1.00  0.00     0.201 C 
ENDBRANCH  20  21
ENDBRANCH  19  20
ENDBRANCH  18  19
ENDBRANCH   1  18
TORSDOF 4
