REMARK  5 active torsions:
REMARK  status: ('A' for Active; 'I' for Inactive)
REMARK    1  A    between atoms: B1_1  and  C1_2 
REMARK    2  A    between atoms: C1_2  and  C2_3 
REMARK    3  A    between atoms: C2_3  and  C3_4 
REMARK    4  A    between atoms: C6_8  and  C7_9 
REMARK    5  A    between atoms: C7_9  and  C8_10 
ROOT
HETATM    1  C1  UNL     1      -2.375   0.226   0.155  1.00  0.00     0.031 C 
HETATM    2  C4  UNL     1      -0.833   0.239   0.120  1.00  0.00     0.069 C 
HETATM    3  C5  UNL     1      -0.300   0.107  -1.226  1.00  0.00    -0.002 A 
HETATM    4  C6  UNL     1       0.860   0.848  -1.320  1.00  0.00     0.048 A 
HETATM    5  N1  UNL     1       1.432   0.800  -2.566  1.00  0.00    -0.246 NA
HETATM    6  C14 UNL     1       0.926   0.106  -3.594  1.00  0.00     0.234 A 
HETATM    7  N2  UNL     1      -0.202  -0.621  -3.517  1.00  0.00    -0.242 NA
HETATM    8  C15 UNL     1      -0.821  -0.612  -2.297  1.00  0.00     0.068 A 
HETATM    9  C16 UNL     1      -2.011  -1.446  -2.388  1.00  0.00     0.056 C 
HETATM   10  C17 UNL     1      -2.982  -1.640  -1.478  1.00  0.00     0.137 C 
HETATM   11  O1  UNL     1      -2.922  -0.990  -0.245  1.00  0.00    -0.363 OA
ENDROOT
BRANCH   4  12
HETATM   12  C7  UNL     1       1.544   1.619  -0.318  1.00  0.00     0.098 C 
BRANCH  12  13
HETATM   13  C8  UNL     1       2.319   0.700   0.559  1.00  0.00    -0.051 A 
HETATM   14  C9  UNL     1       2.048   0.183   1.801  1.00  0.00     0.007 A 
HETATM   15  C10 UNL     1       2.899  -0.674   2.445  1.00  0.00     0.002 A 
HETATM   16  C11 UNL     1       4.078  -1.076   1.902  1.00  0.00     0.024 A 
HETATM   17  C12 UNL     1       4.404  -0.589   0.655  1.00  0.00     0.034 A 
HETATM   18 CL1  UNL     1       5.913  -1.087  -0.074  1.00  0.00    -0.084 Cl
HETATM   19  C13 UNL     1       3.539   0.267   0.026  1.00  0.00     0.031 A 
ENDBRANCH  12  13
ENDBRANCH   4  12
BRANCH   1  20
HETATM   20  B1  UNL     1      -2.837   1.472  -0.707  1.00  0.00     0.179 B 
HETATM   21  H1  UNL     1      -3.179   1.399  -1.833  1.00  0.00    -0.029 HD
HETATM   22  H2  UNL     1      -2.271   2.495  -0.422  1.00  0.00    -0.029 HD
ENDBRANCH   1  20
BRANCH   1  23
HETATM   23  C2  UNL     1      -2.825   0.500   1.572  1.00  0.00     0.058 C 
BRANCH  23  24
HETATM   24  C3  UNL     1      -2.454  -0.618   2.531  1.00  0.00     0.224 C 
HETATM   25  F1  UNL     1      -3.066  -1.777   2.085  1.00  0.00    -0.255 F 
ENDBRANCH  23  24
ENDBRANCH   1  23
TORSDOF 5
