REMARK  8 active torsions:
REMARK  status: ('A' for Active; 'I' for Inactive)
REMARK    1  A    between atoms: O1_2  and  C2_3 
REMARK    2  A    between atoms: C2_3  and  C3_4 
REMARK    3  A    between atoms: C3_4  and  O2_5 
REMARK    4  A    between atoms: O2_5  and  C4_6 
REMARK    5  A    between atoms: C11_15  and  O3_16 
REMARK    6  A    between atoms: O3_16  and  C12_17 
REMARK    7  A    between atoms: C12_17  and  C13_18 
REMARK    8  A    between atoms: C13_18  and  O4_19 
ROOT
HETATM    1  C4  UNL     1       0.586   0.095   0.123  1.00  0.00     0.103 A 
HETATM    2  C5  UNL     1       0.911   1.348   0.634  1.00  0.00     0.055 A 
HETATM    3  C6  UNL     1       0.080   2.436   0.554  1.00  0.00     0.013 A 
HETATM    4  C7  UNL     1       0.384   3.692   1.055  1.00  0.00     0.132 A 
HETATM    5  N1  UNL     1      -0.480   4.729   0.945  1.00  0.00    -0.253 NA
HETATM    6  C8  UNL     1      -1.680   4.564   0.333  1.00  0.00     0.233 A 
HETATM    7  N2  UNL     1      -1.995   3.346  -0.163  1.00  0.00    -0.241 NA
HETATM    8  C9  UNL     1      -1.152   2.301  -0.064  1.00  0.00     0.072 A 
HETATM    9  C10 UNL     1      -1.460   1.058  -0.564  1.00  0.00     0.072 A 
HETATM   10  C11 UNL     1      -0.675  -0.071  -0.516  1.00  0.00     0.104 A 
ENDROOT
BRANCH   1  11
HETATM   11  O2  UNL     1       1.401  -0.989   0.191  1.00  0.00    -0.346 OA
BRANCH  11  12
HETATM   12  C3  UNL     1       2.678  -1.088   0.700  1.00  0.00     0.201 C 
BRANCH  12  13
HETATM   13  C2  UNL     1       3.658  -0.300  -0.073  1.00  0.00     0.193 C 
BRANCH  13  14
HETATM   14  O1  UNL     1       4.956  -0.356   0.395  1.00  0.00    -0.394 OA
HETATM   15  C1  UNL     1       5.503  -1.620   0.417  1.00  0.00     0.201 C 
ENDBRANCH  13  14
ENDBRANCH  12  13
ENDBRANCH  11  12
ENDBRANCH   1  11
BRANCH  10  16
HETATM   16  O3  UNL     1      -0.865  -1.310  -0.954  1.00  0.00    -0.346 OA
BRANCH  16  17
HETATM   17  C12 UNL     1      -1.838  -2.013  -1.568  1.00  0.00     0.201 C 
BRANCH  17  18
HETATM   18  C13 UNL     1      -3.130  -2.239  -0.837  1.00  0.00     0.193 C 
BRANCH  18  19
HETATM   19  O4  UNL     1      -3.779  -1.091  -0.503  1.00  0.00    -0.394 OA
HETATM   20  C14 UNL     1      -4.977  -1.284   0.173  1.00  0.00     0.201 C 
ENDBRANCH  18  19
ENDBRANCH  17  18
ENDBRANCH  16  17
ENDBRANCH  10  16
TORSDOF 8
