REMARK  7 active torsions:
REMARK  status: ('A' for Active; 'I' for Inactive)
REMARK    1  A    between atoms: C1_2  and  C2_3 
REMARK       I    between atoms: C1_2  and  N2_12 
REMARK    2  A    between atoms: C3_4  and  C4_5 
REMARK    3  A    between atoms: C4_5  and  C5_6 
REMARK    4  A    between atoms: C5_6  and  N1_7 
REMARK    5  A    between atoms: N2_12  and  C9_13 
REMARK    6  A    between atoms: C14_20  and  N5_21 
REMARK    7  A    between atoms: N5_21  and  C15_22 
ROOT
HETATM    1  C9  UNL     1       0.742   1.647  -0.914  1.00  0.00     0.036 A 
HETATM    2  C10 UNL     1       0.637   2.765  -1.710  1.00  0.00     0.032 A 
HETATM    3  C11 UNL     1       1.797   3.326  -2.197  1.00  0.00     0.035 A 
HETATM    4  C12 UNL     1       2.991   2.741  -1.863  1.00  0.00     0.072 A 
HETATM    5  N3  UNL     1       4.089   3.342  -2.374  1.00  0.00    -0.241 NA
HETATM    6  C13 UNL     1       5.332   2.842  -2.103  1.00  0.00     0.236 A 
HETATM    7  N4  UNL     1       5.447   1.758  -1.332  1.00  0.00    -0.224 NA
HETATM    8  C14 UNL     1       4.408   1.121  -0.800  1.00  0.00     0.142 A 
HETATM    9  C21 UNL     1       3.159   1.630  -1.077  1.00  0.00     0.041 A 
HETATM   10  C22 UNL     1       1.966   1.114  -0.619  1.00  0.00     0.047 A 
ENDROOT
BRANCH   1  11
HETATM   11  N2  UNL     1      -0.490   1.114  -0.442  1.00  0.00    -0.316 N 
HETATM   12  C1  UNL     1      -1.116   0.123  -1.281  1.00  0.00     0.300 C 
HETATM   13  O1  UNL     1      -0.567  -0.219  -2.360  1.00  0.00    -0.258 OA
HETATM   14  H11 UNL     1      -1.044   1.321   0.441  1.00  0.00     0.170 HD
BRANCH  12  15
HETATM   15  C2  UNL     1      -2.361  -0.499  -0.932  1.00  0.00    -0.005 C 
HETATM   16  C3  UNL     1      -3.425  -1.021  -0.654  1.00  0.00    -0.095 C 
BRANCH  16  17
HETATM   17  C4  UNL     1      -4.718  -1.666  -0.332  1.00  0.00     0.124 C 
BRANCH  17  18
HETATM   18  C5  UNL     1      -5.673  -0.589   0.161  1.00  0.00     0.287 C 
BRANCH  18  19
HETATM   19  N1  UNL     1      -6.972  -1.101   0.508  1.00  0.00     0.114 N 
HETATM   20  C6  UNL     1      -7.776   0.040   0.962  1.00  0.00     0.301 C 
HETATM   21  C7  UNL     1      -8.870  -0.707   1.710  1.00  0.00     0.200 C 
HETATM   22  O2  UNL     1      -8.258  -1.839   2.241  1.00  0.00    -0.361 OA
HETATM   23  C8  UNL     1      -6.973  -1.903   1.717  1.00  0.00     0.440 C 
ENDBRANCH  18  19
ENDBRANCH  17  18
ENDBRANCH  16  17
ENDBRANCH  12  15
ENDBRANCH   1  11
BRANCH   8  24
HETATM   24  N5  UNL     1       4.498  -0.027   0.020  1.00  0.00    -0.340 N 
HETATM   25  H15 UNL     1       3.670  -0.508   0.395  1.00  0.00     0.167 HD
BRANCH  24  26
HETATM   26  C15 UNL     1       5.669  -0.694   0.457  1.00  0.00     0.035 A 
HETATM   27  C16 UNL     1       6.935  -0.194   0.281  1.00  0.00     0.032 A 
HETATM   28  C17 UNL     1       8.085  -0.805   0.677  1.00  0.00     0.046 A 
HETATM   29  C18 UNL     1       8.032  -2.028   1.312  1.00  0.00     0.138 A 
HETATM   30  F1  UNL     1       9.119  -2.709   1.742  1.00  0.00    -0.204 F 
HETATM   31  C19 UNL     1       6.792  -2.583   1.520  1.00  0.00     0.074 A 
HETATM   32 CL1  UNL     1       6.635  -4.129   2.318  1.00  0.00    -0.081 Cl
HETATM   33  C20 UNL     1       5.676  -1.913   1.094  1.00  0.00     0.056 A 
ENDBRANCH  24  26
ENDBRANCH   8  24
TORSDOF 7
