REMARK  6 active torsions:
REMARK  status: ('A' for Active; 'I' for Inactive)
REMARK    1  A    between atoms: O1_2  and  C2_3 
REMARK    2  A    between atoms: C2_3  and  C3_4 
REMARK    3  A    between atoms: C3_4  and  O2_5 
REMARK    4  A    between atoms: O2_5  and  C4_6 
REMARK    5  A    between atoms: C11_18  and  N3_19 
REMARK    6  A    between atoms: N3_19  and  C12_20 
ROOT
HETATM    1  C4  UNL     1       2.613  -0.172  -0.326  1.00  0.00     0.090 C 
HETATM    2  C5  UNL     1       3.061  -1.167  -1.082  1.00  0.00     0.171 C 
HETATM    3  O3  UNL     1       2.598  -2.343  -1.684  1.00  0.00    -0.358 OA
HETATM    4  C6  UNL     1       2.778  -3.594  -0.987  1.00  0.00     0.200 C 
HETATM    5  C7  UNL     1       1.527  -4.377  -1.310  1.00  0.00     0.194 C 
HETATM    6  O4  UNL     1       0.442  -3.660  -0.884  1.00  0.00    -0.386 OA
HETATM    7  C8  UNL     1       0.425  -3.451   0.463  1.00  0.00     0.203 C 
HETATM    8  C9  UNL     1      -0.798  -2.552   0.825  1.00  0.00     0.193 C 
HETATM    9  O5  UNL     1      -1.910  -3.372   0.782  1.00  0.00    -0.247 OA
HETATM   10  N1  UNL     1      -2.608  -3.868  -0.323  1.00  0.00    -0.127 NA
HETATM   11  C10 UNL     1      -3.183  -3.016  -1.141  1.00  0.00     0.264 C 
HETATM   12  N2  UNL     1      -3.144  -1.602  -0.977  1.00  0.00    -0.226 NA
HETATM   13  C11 UNL     1      -2.140  -0.924  -0.539  1.00  0.00     0.116 C 
HETATM   14  C19 UNL     1      -0.806  -1.365  -0.103  1.00  0.00     0.112 C 
HETATM   15  C20 UNL     1       0.068  -0.266   0.347  1.00  0.00    -0.009 C 
HETATM   16  C21 UNL     1       1.321   0.142   0.246  1.00  0.00     0.035 C 
ENDROOT
BRANCH  13  17
HETATM   17  N3  UNL     1      -2.404   0.472  -0.488  1.00  0.00    -0.344 N 
HETATM   18  H17 UNL     1      -1.617   1.129  -0.756  1.00  0.00     0.167 HD
BRANCH  17  19
HETATM   19  C12 UNL     1      -3.645   1.028  -0.094  1.00  0.00     0.033 A 
HETATM   20  C13 UNL     1      -4.763   0.379   0.357  1.00  0.00     0.029 A 
HETATM   21  C14 UNL     1      -5.945   0.991   0.713  1.00  0.00     0.003 A 
HETATM   22  C15 UNL     1      -6.044   2.364   0.621  1.00  0.00     0.007 A 
HETATM   23  C16 UNL     1      -4.955   3.081   0.173  1.00  0.00    -0.060 A 
HETATM   24  C17 UNL     1      -5.092   4.544   0.085  1.00  0.00     0.048 C 
HETATM   25  C18 UNL     1      -3.804   2.411  -0.167  1.00  0.00     0.036 A 
ENDBRANCH  17  19
ENDBRANCH  13  17
BRANCH   1  26
HETATM   26  O2  UNL     1       3.707   0.654  -0.126  1.00  0.00    -0.347 OA
BRANCH  26  27
HETATM   27  C3  UNL     1       3.752   2.030  -0.346  1.00  0.00     0.201 C 
BRANCH  27  28
HETATM   28  C2  UNL     1       5.122   2.615  -0.031  1.00  0.00     0.193 C 
BRANCH  28  29
HETATM   29  O1  UNL     1       5.476   2.406   1.294  1.00  0.00    -0.394 OA
HETATM   30  C1  UNL     1       6.753   2.988   1.452  1.00  0.00     0.201 C 
ENDBRANCH  28  29
ENDBRANCH  27  28
ENDBRANCH  26  27
ENDBRANCH   1  26
TORSDOF 6
