REMARK  0 active torsions:
REMARK  status: ('A' for Active; 'I' for Inactive)
ROOT
HETATM    1  C1  UNL     1      -4.980  -1.321  -0.008  1.00  0.00     0.152 C 
HETATM    2  N1  UNL     1      -4.099  -0.257  -0.450  1.00  0.00    -0.364 N 
HETATM    3  C2  UNL     1      -4.156   0.884  -1.308  1.00  0.00     0.293 C 
HETATM    4  O1  UNL     1      -2.859   1.420  -1.348  1.00  0.00    -0.361 OA
HETATM    5  C3  UNL     1      -2.399   1.105   0.020  1.00  0.00     0.174 C 
HETATM    6  C4  UNL     1      -2.907   2.198   0.843  1.00  0.00     0.050 C 
HETATM    7  C5  UNL     1      -1.742   3.013   1.451  1.00  0.00     0.097 C 
HETATM    8  C6  UNL     1      -0.609   3.066   0.600  1.00  0.00    -0.096 C 
HETATM    9  C7  UNL     1       0.296   3.091  -0.063  1.00  0.00    -0.005 C 
HETATM   10  C8  UNL     1       1.402   3.098  -0.869  1.00  0.00     0.300 C 
HETATM   11  O2  UNL     1       2.159   3.468  -1.769  1.00  0.00    -0.258 OA
HETATM   12  N2  UNL     1       2.162   2.006  -0.416  1.00  0.00    -0.316 N 
HETATM   13  C9  UNL     1       3.286   1.077  -0.405  1.00  0.00     0.036 A 
HETATM   14  C10 UNL     1       4.640   1.047  -0.463  1.00  0.00     0.032 A 
HETATM   15  C11 UNL     1       5.285  -0.131  -0.297  1.00  0.00     0.035 A 
HETATM   16  C12 UNL     1       4.705  -1.356  -0.067  1.00  0.00     0.072 A 
HETATM   17  N3  UNL     1       5.385  -2.533   0.138  1.00  0.00    -0.241 NA
HETATM   18  C13 UNL     1       4.616  -3.640   0.390  1.00  0.00     0.236 A 
HETATM   19  N4  UNL     1       3.245  -3.710   0.460  1.00  0.00    -0.223 NA
HETATM   20  C14 UNL     1       2.533  -2.611   0.271  1.00  0.00     0.150 A 
HETATM   21  C15 UNL     1       3.323  -1.515   0.020  1.00  0.00     0.041 A 
HETATM   22  C16 UNL     1       2.938  -0.261  -0.171  1.00  0.00     0.047 A 
HETATM   23  N5  UNL     1       1.190  -2.275   0.245  1.00  0.00    -0.281 N 
HETATM   24  C17 UNL     1       0.643  -1.172   0.885  1.00  0.00     0.102 A 
HETATM   25  C18 UNL     1      -0.430  -0.493   1.046  1.00  0.00     0.033 A 
HETATM   26  C19 UNL     1      -1.646  -0.921   0.369  1.00  0.00     0.017 A 
HETATM   27  C20 UNL     1      -2.776  -0.302   0.092  1.00  0.00     0.050 C 
HETATM   28  C21 UNL     1      -1.206  -2.121  -0.351  1.00  0.00     0.102 A 
HETATM   29 CL1  UNL     1      -2.309  -3.045  -1.347  1.00  0.00    -0.078 Cl
HETATM   30  C22 UNL     1      -0.018  -2.669  -0.389  1.00  0.00     0.219 A 
HETATM   31  F1  UNL     1       0.373  -3.761  -1.063  1.00  0.00    -0.184 F 
HETATM   32  H11 UNL     1       1.820   1.541   0.494  1.00  0.00     0.170 HD
ENDROOT
TORSDOF 0
