REMARK  7 active torsions:
REMARK  status: ('A' for Active; 'I' for Inactive)
REMARK    1  A    between atoms: C1_2  and  C2_3 
REMARK       I    between atoms: C1_2  and  N2_13 
REMARK    2  A    between atoms: C3_4  and  C4_5 
REMARK    3  A    between atoms: C4_5  and  C5_6 
REMARK    4  A    between atoms: C5_6  and  N1_7 
REMARK    5  A    between atoms: N2_13  and  C10_14 
REMARK    6  A    between atoms: C14_21  and  N5_22 
REMARK    7  A    between atoms: N5_22  and  C15_23 
ROOT
HETATM    1  C10 UNL     1      -0.660   0.345  -2.924  1.00  0.00     0.030 A 
HETATM    2  C11 UNL     1      -0.346   0.457  -4.225  1.00  0.00    -0.004 A 
HETATM    3  C12 UNL     1      -0.971   1.411  -5.174  1.00  0.00     0.014 A 
HETATM    4  B1  UNL     1      -2.073   2.273  -4.430  1.00  0.00     0.359 B 
HETATM    5  N3  UNL     1      -2.885   3.330  -5.144  1.00  0.00    -0.341 NA
HETATM    6  C13 UNL     1      -3.765   3.986  -4.425  1.00  0.00     0.211 A 
HETATM    7  N4  UNL     1      -4.004   3.775  -3.036  1.00  0.00    -0.227 NA
HETATM    8  C14 UNL     1      -3.362   2.898  -2.346  1.00  0.00     0.127 A 
HETATM    9  C21 UNL     1      -2.331   2.039  -2.915  1.00  0.00    -0.022 A 
HETATM   10  C22 UNL     1      -1.664   1.131  -2.218  1.00  0.00     0.030 A 
ENDROOT
BRANCH   1  11
HETATM   11  N2  UNL     1       0.015  -0.623  -2.089  1.00  0.00    -0.317 N 
HETATM   12  C1  UNL     1       0.734  -0.116  -0.990  1.00  0.00     0.300 C 
HETATM   13  O1  UNL     1       0.700   1.155  -0.869  1.00  0.00    -0.258 OA
HETATM   14  H13 UNL     1       0.051  -1.681  -2.182  1.00  0.00     0.170 HD
BRANCH  12  15
HETATM   15  C2  UNL     1       1.458  -0.942  -0.062  1.00  0.00    -0.005 C 
HETATM   16  C3  UNL     1       2.059  -1.658   0.727  1.00  0.00    -0.095 C 
BRANCH  16  17
HETATM   17  C4  UNL     1       2.758  -2.516   1.687  1.00  0.00     0.114 C 
BRANCH  17  18
HETATM   18  C5  UNL     1       4.221  -2.161   1.774  1.00  0.00     0.129 C 
BRANCH  18  19
HETATM   19  N1  UNL     1       4.972  -2.930   2.672  1.00  0.00    -0.408 N 
HETATM   20  C6  UNL     1       6.339  -2.658   2.810  1.00  0.00     0.143 C 
HETATM   21  C7  UNL     1       7.174  -3.699   3.470  1.00  0.00     0.187 C 
HETATM   22  O2  UNL     1       6.473  -4.872   3.705  1.00  0.00    -0.388 OA
HETATM   23  C8  UNL     1       5.302  -4.532   4.414  1.00  0.00     0.187 C 
HETATM   24  C9  UNL     1       4.363  -3.947   3.397  1.00  0.00     0.143 C 
ENDBRANCH  18  19
ENDBRANCH  17  18
ENDBRANCH  16  17
ENDBRANCH  12  15
ENDBRANCH   1  11
BRANCH   8  25
HETATM   25  N5  UNL     1      -3.676   2.768  -0.971  1.00  0.00    -0.341 N 
HETATM   26  H18 UNL     1      -2.864   2.542  -0.355  1.00  0.00     0.167 HD
BRANCH  25  27
HETATM   27  C15 UNL     1      -4.978   2.917  -0.435  1.00  0.00     0.035 A 
HETATM   28  C16 UNL     1      -6.141   3.160  -1.106  1.00  0.00     0.032 A 
HETATM   29  C17 UNL     1      -7.383   3.303  -0.555  1.00  0.00     0.046 A 
HETATM   30  C18 UNL     1      -7.487   3.190   0.833  1.00  0.00     0.138 A 
HETATM   31  F1  UNL     1      -8.681   3.318   1.455  1.00  0.00    -0.204 F 
HETATM   32  C19 UNL     1      -6.349   2.944   1.582  1.00  0.00     0.074 A 
HETATM   33 CL1  UNL     1      -6.424   2.794   3.328  1.00  0.00    -0.081 Cl
HETATM   34  C20 UNL     1      -5.130   2.813   0.942  1.00  0.00     0.056 A 
ENDBRANCH  25  27
ENDBRANCH   8  25
TORSDOF 7
