REMARK  1 active torsions:
REMARK  status: ('A' for Active; 'I' for Inactive)
REMARK    1  A    between atoms: C2_2  and  C3_3 
ROOT
HETATM    1  C3  UNL     1       1.283  -0.540   0.474  1.00  0.00     0.145 C 
HETATM    2  N1  UNL     1       0.862  -1.362  -0.664  1.00  0.00    -0.304 N 
HETATM    3  N2  UNL     1       0.310  -2.456  -1.271  1.00  0.00    -0.194 NA
HETATM    4  C4  UNL     1      -0.935  -2.571  -1.606  1.00  0.00     0.123 C 
HETATM    5  C5  UNL     1      -2.125  -1.656  -1.477  1.00  0.00     0.073 C 
HETATM    6  C6  UNL     1      -2.912  -2.119  -0.310  1.00  0.00    -0.016 C 
HETATM    7  C7  UNL     1      -3.447  -1.723   0.854  1.00  0.00    -0.015 C 
HETATM    8  C8  UNL     1      -3.516  -0.274   1.136  1.00  0.00     0.088 A 
HETATM    9  C9  UNL     1      -2.611   0.341   2.148  1.00  0.00     0.032 A 
HETATM   10 CL1  UNL     1      -2.019   0.815   3.734  1.00  0.00    -0.087 Cl
HETATM   11  C10 UNL     1      -2.280   0.440   0.822  1.00  0.00    -0.020 A 
HETATM   12  C11 UNL     1      -1.659   0.713  -0.499  1.00  0.00    -0.051 C 
HETATM   13  C12 UNL     1      -1.612  -0.289  -1.390  1.00  0.00    -0.005 C 
HETATM   14  C13 UNL     1      -1.166   2.067  -0.681  1.00  0.00     0.058 C 
HETATM   15  C14 UNL     1       0.221   2.338  -0.150  1.00  0.00     0.121 C 
HETATM   16  N3  UNL     1       1.262   1.617  -0.723  1.00  0.00    -0.410 N 
HETATM   17  C15 UNL     1       1.601   1.893  -2.069  1.00  0.00     0.143 C 
HETATM   18  C16 UNL     1       2.010   0.672  -0.030  1.00  0.00     0.102 C 
HETATM   19  C17 UNL     1       2.703   1.326   1.138  1.00  0.00     0.034 C 
HETATM   20  H5  UNL     1       1.048  -0.993  -1.627  1.00  0.00     0.183 HD
ENDROOT
BRANCH   1  21
HETATM   21  C2  UNL     1       2.295  -1.384   1.193  1.00  0.00    -0.009 C 
HETATM   22  C1  UNL     1       2.707  -1.727   2.422  1.00  0.00     0.009 C 
ENDBRANCH   1  21
TORSDOF 1
