REMARK  5 active torsions:
REMARK  status: ('A' for Active; 'I' for Inactive)
REMARK    1  A    between atoms: N2_5  and  C4_6 
REMARK    2  A    between atoms: C4_6  and  C5_7 
REMARK    3  A    between atoms: C5_7  and  C6_8 
REMARK    4  A    between atoms: C7_9  and  C8_10 
REMARK       I    between atoms: C8_10  and  N3_12 
REMARK    5  A    between atoms: N3_12  and  C9_13 
ROOT
HETATM    1  C8  UNL     1       2.263   0.428  -0.549  1.00  0.00     0.302 C 
HETATM    2  O1  UNL     1       2.871   0.756   0.526  1.00  0.00    -0.258 OA
HETATM    3  N3  UNL     1       3.101   0.269  -1.681  1.00  0.00    -0.301 N 
HETATM    4  H12 UNL     1       2.565   0.017  -2.528  1.00  0.00     0.171 HD
ENDROOT
BRANCH   1   5
HETATM    5  C7  UNL     1       0.840   0.284  -0.405  1.00  0.00    -0.005 C 
HETATM    6  C6  UNL     1      -0.338   0.144  -0.278  1.00  0.00    -0.095 C 
BRANCH   6   7
HETATM    7  C5  UNL     1      -1.792  -0.054  -0.116  1.00  0.00     0.114 C 
BRANCH   7   8
HETATM    8  C4  UNL     1      -2.403   1.230   0.311  1.00  0.00     0.129 C 
BRANCH   8   9
HETATM    9  N2  UNL     1      -3.791   1.264   0.558  1.00  0.00    -0.408 N 
HETATM   10  C3  UNL     1      -4.292   0.592   1.694  1.00  0.00     0.136 C 
HETATM   11  C2  UNL     1      -4.728  -0.790   1.389  1.00  0.00     0.135 C 
HETATM   12  N1  UNL     1      -5.395  -0.921   0.156  1.00  0.00    -0.414 N 
HETATM   13  C1  UNL     1      -5.492  -2.195  -0.432  1.00  0.00     0.143 C 
HETATM   14  C17 UNL     1      -5.702   0.210  -0.608  1.00  0.00     0.135 C 
HETATM   15  C16 UNL     1      -4.655   1.296  -0.601  1.00  0.00     0.136 C 
ENDBRANCH   8   9
ENDBRANCH   7   8
ENDBRANCH   6   7
ENDBRANCH   1   5
BRANCH   3  16
HETATM   16  C9  UNL     1       4.391   0.556  -1.094  1.00  0.00     0.131 A 
HETATM   17  C10 UNL     1       4.947  -0.622  -0.586  1.00  0.00     0.067 A 
HETATM   18  C11 UNL     1       6.194  -0.493   0.047  1.00  0.00     0.038 A 
HETATM   19  C12 UNL     1       6.860  -1.556   0.604  1.00  0.00     0.140 A 
HETATM   20  C14 UNL     1       6.765   0.748   0.121  1.00  0.00     0.089 A 
HETATM   21 CL1  UNL     1       6.146  -3.147   0.517  1.00  0.00    -0.061 Cl
HETATM   22  N4  UNL     1       8.045  -1.466   1.223  1.00  0.00    -0.229 NA
HETATM   23  C13 UNL     1       8.584  -0.222   1.278  1.00  0.00     0.235 A 
HETATM   24  N5  UNL     1       7.958   0.841   0.743  1.00  0.00    -0.240 NA
HETATM   25  C15 UNL     1       6.182   1.902  -0.397  1.00  0.00     0.151 A 
HETATM   26  N6  UNL     1       4.967   1.760  -1.010  1.00  0.00    -0.241 NA
ENDBRANCH   3  16
TORSDOF 5
