REMARK  7 active torsions:
REMARK  status: ('A' for Active; 'I' for Inactive)
REMARK    1  A    between atoms: C2_2  and  C3_3 
REMARK    2  A    between atoms: C3_3  and  C4_4 
REMARK    3  A    between atoms: C5_5  and  C6_6 
REMARK       I    between atoms: C6_6  and  N1_8 
REMARK    4  A    between atoms: N1_8  and  C7_9 
REMARK    5  A    between atoms: C12_16  and  N4_17 
REMARK    6  A    between atoms: N4_17  and  C13_18 
REMARK    7  A    between atoms: C13_18  and  C14_19 
ROOT
HETATM    1  C7  UNL     1       1.118   0.834   1.196  1.00  0.00     0.014 C 
HETATM    2  C8  UNL     1       1.150   0.873   2.518  1.00  0.00     0.005 C 
HETATM    3  C9  UNL     1       0.125   1.646   3.269  1.00  0.00     0.089 C 
HETATM    4  C10 UNL     1      -1.142   1.516   2.500  1.00  0.00     0.049 A 
HETATM    5  N2  UNL     1      -2.291   1.452   3.222  1.00  0.00    -0.245 NA
HETATM    6  C11 UNL     1      -3.484   1.338   2.654  1.00  0.00     0.235 A 
HETATM    7  N3  UNL     1      -3.530   1.284   1.313  1.00  0.00    -0.224 NA
HETATM    8  C12 UNL     1      -2.429   1.343   0.544  1.00  0.00     0.133 A 
HETATM    9  C19 UNL     1      -1.171   1.462   1.121  1.00  0.00     0.018 A 
HETATM   10  C20 UNL     1       0.090   1.531   0.337  1.00  0.00     0.101 C 
ENDROOT
BRANCH   8  11
HETATM   11  N4  UNL     1      -2.551   1.284  -0.871  1.00  0.00    -0.370 N 
HETATM   12  H13 UNL     1      -1.759   1.325  -1.529  1.00  0.00     0.161 HD
BRANCH  11  13
HETATM   13  C13 UNL     1      -3.867   1.158  -1.466  1.00  0.00     0.157 C 
BRANCH  13  14
HETATM   14  C14 UNL     1      -4.558  -0.096  -1.016  1.00  0.00    -0.043 A 
HETATM   15  C15 UNL     1      -5.713  -0.023  -0.370  1.00  0.00     0.094 A 
HETATM   16  N5  UNL     1      -6.303  -1.258   0.022  1.00  0.00    -0.357 N 
HETATM   17  C16 UNL     1      -5.719  -2.523  -0.245  1.00  0.00     0.099 A 
HETATM   18  H17 UNL     1      -7.201  -1.212   0.524  1.00  0.00     0.166 HD
HETATM   19 CL1  UNL     1      -6.449  -4.041   0.239  1.00  0.00    -0.065 Cl
HETATM   20  C17 UNL     1      -4.561  -2.519  -0.896  1.00  0.00     0.020 A 
HETATM   21  C18 UNL     1      -3.808  -1.327  -1.378  1.00  0.00     0.067 A 
ENDBRANCH  13  14
ENDBRANCH  11  13
ENDBRANCH   8  11
BRANCH   1  22
HETATM   22  N1  UNL     1       2.152   0.061   0.545  1.00  0.00    -0.320 N 
HETATM   23  C6  UNL     1       3.056   0.697  -0.378  1.00  0.00     0.300 C 
HETATM   24  O1  UNL     1       3.037   1.932  -0.693  1.00  0.00    -0.258 OA
HETATM   25  H8  UNL     1       2.310  -0.980   0.692  1.00  0.00     0.169 HD
BRANCH  23  26
HETATM   26  C5  UNL     1       4.097  -0.079  -1.035  1.00  0.00    -0.005 C 
HETATM   27  C4  UNL     1       4.977  -0.720  -1.566  1.00  0.00    -0.096 C 
BRANCH  27  28
HETATM   28  C3  UNL     1       6.056  -1.495  -2.188  1.00  0.00     0.094 C 
BRANCH  28  29
HETATM   29  C2  UNL     1       7.414  -0.943  -1.735  1.00  0.00     0.007 C 
HETATM   30  C1  UNL     1       7.457  -1.077  -0.226  1.00  0.00     0.006 C 
ENDBRANCH  28  29
ENDBRANCH  27  28
ENDBRANCH  23  26
ENDBRANCH   1  22
TORSDOF 7
