REMARK  9 active torsions:
REMARK  status: ('A' for Active; 'I' for Inactive)
REMARK    1  A    between atoms: C4_5  and  N1_6 
REMARK    2  A    between atoms: N1_6  and  C5_7 
REMARK    3  A    between atoms: C9_13  and  C10_14 
REMARK    4  A    between atoms: C10_14  and  N4_15 
REMARK    5  A    between atoms: N4_15  and  C11_16 
REMARK    6  A    between atoms: C11_16  and  C12_17 
REMARK    7  A    between atoms: C13_18  and  C14_19 
REMARK    8  A    between atoms: C14_19  and  C15_20 
REMARK    9  A    between atoms: C15_20  and  N5_21 
ROOT
HETATM    1  C5  UNL     1      -4.678   1.382  -0.747  1.00  0.00     0.142 A 
HETATM    2  N2  UNL     1      -5.676   2.272  -0.973  1.00  0.00    -0.224 NA
HETATM    3  C6  UNL     1      -5.705   3.468  -0.325  1.00  0.00     0.235 A 
HETATM    4  N3  UNL     1      -4.697   3.709   0.539  1.00  0.00    -0.241 NA
HETATM    5  C7  UNL     1      -3.716   2.799   0.739  1.00  0.00     0.069 A 
HETATM    6  C8  UNL     1      -3.633   1.583   0.119  1.00  0.00     0.043 A 
HETATM    7  C9  UNL     1      -2.571   0.889   0.420  1.00  0.00    -0.043 A 
HETATM    8  C20 UNL     1      -1.850   1.663   1.459  1.00  0.00     0.066 A 
HETATM    9  C21 UNL     1      -2.690   2.913   1.550  1.00  0.00     0.010 A 
ENDROOT
BRANCH   7  10
HETATM   10  C10 UNL     1      -2.234  -0.422  -0.195  1.00  0.00     0.150 C 
BRANCH  10  11
HETATM   11  N4  UNL     1      -0.816  -0.466  -0.539  1.00  0.00    -0.408 N 
HETATM   12  H7  UNL     1      -0.545   0.091  -1.342  1.00  0.00     0.154 HD
BRANCH  11  13
HETATM   13  C11 UNL     1       0.070  -0.592   0.552  1.00  0.00     0.209 C 
BRANCH  13  14
HETATM   14  C12 UNL     1       1.428  -0.192   0.114  1.00  0.00    -0.087 C 
HETATM   15  C13 UNL     1       2.536   0.155  -0.234  1.00  0.00    -0.103 C 
BRANCH  15  16
HETATM   16  C14 UNL     1       3.870   0.600  -0.658  1.00  0.00     0.124 C 
BRANCH  16  17
HETATM   17  C15 UNL     1       4.922  -0.004   0.252  1.00  0.00     0.284 C 
BRANCH  17  18
HETATM   18  N5  UNL     1       6.242   0.428  -0.035  1.00  0.00     0.093 N 
HETATM   19  C16 UNL     1       6.757  -0.058  -1.282  1.00  0.00     0.298 C 
HETATM   20  C17 UNL     1       7.584  -1.320  -1.098  1.00  0.00     0.198 C 
HETATM   21  O1  UNL     1       8.744  -1.073  -0.360  1.00  0.00    -0.388 OA
HETATM   22  C18 UNL     1       8.581  -0.077   0.592  1.00  0.00     0.198 C 
HETATM   23  C19 UNL     1       7.124  -0.048   1.017  1.00  0.00     0.298 C 
ENDBRANCH  17  18
ENDBRANCH  16  17
ENDBRANCH  15  16
ENDBRANCH  13  14
ENDBRANCH  11  13
ENDBRANCH  10  11
ENDBRANCH   7  10
BRANCH   1  24
HETATM   24  N1  UNL     1      -4.903   0.219  -1.512  1.00  0.00    -0.340 N 
HETATM   25  H3  UNL     1      -4.601   0.080  -2.514  1.00  0.00     0.167 HD
BRANCH  24  26
HETATM   26  C4  UNL     1      -5.601  -0.881  -0.881  1.00  0.00     0.035 A 
HETATM   27  C3  UNL     1      -5.727  -0.844   0.517  1.00  0.00     0.032 A 
HETATM   28  C2  UNL     1      -6.390  -1.879   1.161  1.00  0.00     0.046 A 
HETATM   29  C1  UNL     1      -6.908  -2.918   0.388  1.00  0.00     0.138 A 
HETATM   30  F1  UNL     1      -7.556  -3.939   1.000  1.00  0.00    -0.204 F 
HETATM   31  C23 UNL     1      -6.766  -2.918  -0.997  1.00  0.00     0.074 A 
HETATM   32  C22 UNL     1      -6.120  -1.915  -1.639  1.00  0.00     0.056 A 
HETATM   33 CL1  UNL     1      -7.427  -4.218  -1.953  1.00  0.00    -0.081 Cl
ENDBRANCH  24  26
ENDBRANCH   1  24
TORSDOF 9
