REMARK  2 active torsions:
REMARK  status: ('A' for Active; 'I' for Inactive)
REMARK    1  A    between atoms: C15_22  and  N6_23 
REMARK    2  A    between atoms: N6_23  and  C16_24 
ROOT
HETATM    1  O1  UNL     1      -2.558   2.800   0.188  1.00  0.00    -0.299 OA
HETATM    2  C1  UNL     1      -2.592   3.162  -0.909  1.00  0.00     0.199 C 
HETATM    3  C2  UNL     1      -2.518   2.047  -1.525  1.00  0.00    -0.023 C 
HETATM    4  C3  UNL     1      -2.459   1.125  -2.002  1.00  0.00    -0.096 C 
HETATM    5  C4  UNL     1      -2.363  -0.195  -2.648  1.00  0.00     0.114 C 
HETATM    6  C5  UNL     1      -1.727  -0.700  -1.292  1.00  0.00     0.136 C 
HETATM    7  N1  UNL     1      -1.275  -1.798  -0.778  1.00  0.00    -0.362 N 
HETATM    8  C6  UNL     1      -0.917  -3.212  -0.812  1.00  0.00     0.153 C 
HETATM    9  C7  UNL     1      -2.191  -3.777  -0.123  1.00  0.00     0.223 C 
HETATM   10  O2  UNL     1      -2.863  -2.513   0.220  1.00  0.00    -0.253 OA
HETATM   11  N2  UNL     1      -2.104  -1.786   1.165  1.00  0.00    -0.117 NA
HETATM   12  C8  UNL     1      -1.041  -1.265   0.627  1.00  0.00     0.172 C 
HETATM   13  C9  UNL     1      -0.183  -0.327   1.658  1.00  0.00     0.194 A 
HETATM   14  C10 UNL     1      -0.883   0.999   1.405  1.00  0.00     0.022 C 
HETATM   15  C11 UNL     1      -1.652   1.828   2.239  1.00  0.00    -0.000 C 
HETATM   16  C12 UNL     1      -2.469   3.128   2.344  1.00  0.00     0.026 C 
HETATM   17  C13 UNL     1      -2.360   3.449   0.947  1.00  0.00     0.256 C 
HETATM   18  N3  UNL     1      -2.676   4.420  -0.285  1.00  0.00    -0.333 N 
HETATM   19  N4  UNL     1      -0.439  -0.899   2.890  1.00  0.00    -0.252 NA
HETATM   20  C14 UNL     1       0.707  -1.398   3.364  1.00  0.00     0.231 A 
HETATM   21  N5  UNL     1       1.751  -1.103   2.339  1.00  0.00    -0.225 NA
HETATM   22  C15 UNL     1       1.162  -0.486   1.410  1.00  0.00     0.148 A 
HETATM   23  H13 UNL     1      -2.813   5.401  -0.368  1.00  0.00     0.165 HD
ENDROOT
BRANCH  22  24
HETATM   24  N6  UNL     1       2.122  -0.168   0.476  1.00  0.00    -0.342 N 
HETATM   25  H15 UNL     1       1.653   0.650  -0.080  1.00  0.00     0.167 HD
BRANCH  24  26
HETATM   26  C16 UNL     1       3.282  -0.184  -0.260  1.00  0.00     0.035 A 
HETATM   27  C17 UNL     1       4.373   0.395   0.332  1.00  0.00     0.032 A 
HETATM   28  C18 UNL     1       5.545   0.532  -0.379  1.00  0.00     0.046 A 
HETATM   29  C19 UNL     1       5.518   0.052  -1.672  1.00  0.00     0.138 A 
HETATM   30  F1  UNL     1       6.601   0.150  -2.511  1.00  0.00    -0.204 F 
HETATM   31  C20 UNL     1       4.458  -0.544  -2.328  1.00  0.00     0.074 A 
HETATM   32 CL1  UNL     1       4.369  -1.128  -3.939  1.00  0.00    -0.081 Cl
HETATM   33  C21 UNL     1       3.297  -0.659  -1.580  1.00  0.00     0.056 A 
ENDBRANCH  24  26
ENDBRANCH  22  24
TORSDOF 2
