REMARK  8 active torsions:
REMARK  status: ('A' for Active; 'I' for Inactive)
REMARK    1  A    between atoms: N1_7  and  C7_8 
REMARK    2  A    between atoms: C9_11  and  C10_13 
REMARK    3  A    between atoms: C11_14  and  N3_15 
REMARK       I    between atoms: N3_15  and  C12_16 
REMARK    4  A    between atoms: C12_16  and  C13_18 
REMARK    5  A    between atoms: C13_18  and  O2_19 
REMARK    6  A    between atoms: O2_19  and  C14_20 
REMARK    7  A    between atoms: C14_20  and  C15_21 
REMARK    8  A    between atoms: C15_21  and  C16_22 
ROOT
HETATM    1  C7  UNL     1      -3.195   0.470   0.394  1.00  0.00     0.261 A 
HETATM    2  N2  UNL     1      -3.653   1.567   1.209  1.00  0.00    -0.272 NA
HETATM    3  C8  UNL     1      -3.403   2.555   0.433  1.00  0.00     0.137 A 
HETATM    4  C9  UNL     1      -2.870   1.565  -0.574  1.00  0.00     0.196 A 
HETATM    5  F1  UNL     1      -3.660   1.634  -1.690  1.00  0.00    -0.228 F 
ENDROOT
BRANCH   4   6
HETATM    6  C10 UNL     1      -1.428   1.696  -0.790  1.00  0.00     0.043 C 
HETATM    7  C11 UNL     1      -0.631   1.727   0.266  1.00  0.00     0.091 C 
BRANCH   7   8
HETATM    8  N3  UNL     1       0.793   1.855   0.071  1.00  0.00    -0.336 N 
HETATM    9  C12 UNL     1       1.770   0.907   0.503  1.00  0.00     0.245 C 
HETATM   10  O1  UNL     1       1.342  -0.107   1.095  1.00  0.00    -0.271 OA
HETATM   11  H11 UNL     1       0.934   2.766  -0.439  1.00  0.00     0.168 HD
BRANCH   9  12
HETATM   12  C13 UNL     1       3.121   1.375   0.129  1.00  0.00     0.270 C 
BRANCH  12  13
HETATM   13  O2  UNL     1       4.094   0.484   0.530  1.00  0.00    -0.382 OA
BRANCH  13  14
HETATM   14  C14 UNL     1       5.344   0.955   0.163  1.00  0.00     0.168 C 
BRANCH  14  15
HETATM   15  C15 UNL     1       6.433   0.020   0.579  1.00  0.00     0.026 C 
BRANCH  15  16
HETATM   16  C16 UNL     1       6.270  -1.343  -0.051  1.00  0.00    -0.002 C 
HETATM   17  C17 UNL     1       4.971  -1.985   0.333  1.00  0.00     0.005 C 
ENDBRANCH  15  16
ENDBRANCH  14  15
ENDBRANCH  13  14
ENDBRANCH  12  13
ENDBRANCH   9  12
ENDBRANCH   7   8
ENDBRANCH   4   6
BRANCH   1  18
HETATM   18  N1  UNL     1      -4.310  -0.369   0.057  1.00  0.00    -0.330 N 
HETATM   19  C2  UNL     1      -4.191  -1.765  -0.133  1.00  0.00     0.026 A 
HETATM   20  C1  UNL     1      -3.020  -2.368  -0.003  1.00  0.00     0.043 C 
HETATM   21  C3  UNL     1      -5.296  -2.652  -0.475  1.00  0.00     0.029 A 
HETATM   22  C4  UNL     1      -6.507  -2.101  -0.620  1.00  0.00     0.004 A 
HETATM   23  C5  UNL     1      -6.662  -0.651  -0.430  1.00  0.00     0.017 A 
HETATM   24  C6  UNL     1      -5.634   0.123  -0.118  1.00  0.00     0.093 A 
ENDBRANCH   1  18
TORSDOF 8
