REMARK  2 active torsions:
REMARK  status: ('A' for Active; 'I' for Inactive)
REMARK    1  A    between atoms: C11_15  and  N4_16 
REMARK    2  A    between atoms: N4_16  and  C12_17 
ROOT
HETATM    1  O1  UNL     1      -1.489   0.278   2.940  1.00  0.00    -0.271 OA
HETATM    2  C1  UNL     1      -1.697   0.932   1.894  1.00  0.00     0.242 C 
HETATM    3  C2  UNL     1      -2.150   1.820   0.841  1.00  0.00     0.105 C 
HETATM    4  C3  UNL     1      -3.219   1.371  -0.078  1.00  0.00     0.009 C 
HETATM    5  C4  UNL     1      -4.476   0.854   0.476  1.00  0.00     0.001 C 
HETATM    6  C5  UNL     1      -4.557  -0.427   1.193  1.00  0.00     0.002 C 
HETATM    7  C6  UNL     1      -4.257  -1.698   0.511  1.00  0.00     0.022 C 
HETATM    8  C7  UNL     1      -2.859  -2.082   0.175  1.00  0.00     0.148 C 
HETATM    9  N1  UNL     1      -1.991  -2.343   1.273  1.00  0.00    -0.299 NA
HETATM   10  C8  UNL     1      -0.733  -2.350   1.362  1.00  0.00     0.143 C 
HETATM   11  C9  UNL     1       0.592  -2.192   0.780  1.00  0.00     0.090 A 
HETATM   12  N2  UNL     1       1.484  -3.195   0.717  1.00  0.00    -0.240 NA
HETATM   13  C10 UNL     1       2.714  -2.963   0.162  1.00  0.00     0.236 A 
HETATM   14  N3  UNL     1       3.052  -1.767  -0.319  1.00  0.00    -0.223 NA
HETATM   15  C11 UNL     1       2.193  -0.753  -0.272  1.00  0.00     0.143 A 
HETATM   16  C18 UNL     1       0.943  -0.927   0.274  1.00  0.00     0.058 A 
HETATM   17  C19 UNL     1      -0.161   0.052   0.400  1.00  0.00     0.138 C 
HETATM   18  N5  UNL     1      -0.625   0.047   1.629  1.00  0.00    -0.226 NA
ENDROOT
BRANCH  15  19
HETATM   19  N4  UNL     1       2.425   0.566  -0.750  1.00  0.00    -0.340 N 
HETATM   20  H15 UNL     1       1.671   1.314  -0.662  1.00  0.00     0.167 HD
BRANCH  19  21
HETATM   21  C12 UNL     1       3.571   1.129  -1.381  1.00  0.00     0.035 A 
HETATM   22  C13 UNL     1       3.721   2.455  -1.714  1.00  0.00     0.032 A 
HETATM   23  C14 UNL     1       4.852   2.934  -2.325  1.00  0.00     0.046 A 
HETATM   24  C15 UNL     1       5.910   2.141  -2.648  1.00  0.00     0.138 A 
HETATM   25  F1  UNL     1       6.998   2.671  -3.247  1.00  0.00    -0.204 F 
HETATM   26  C16 UNL     1       5.787   0.812  -2.325  1.00  0.00     0.074 A 
HETATM   27 CL1  UNL     1       7.166  -0.210  -2.748  1.00  0.00    -0.081 Cl
HETATM   28  C17 UNL     1       4.643   0.332  -1.709  1.00  0.00     0.056 A 
ENDBRANCH  19  21
ENDBRANCH  15  19
TORSDOF 2
