REMARK  6 active torsions:
REMARK  status: ('A' for Active; 'I' for Inactive)
REMARK    1  A    between atoms: C1_2  and  C2_3 
REMARK       I    between atoms: C1_2  and  N2_13 
REMARK    2  A    between atoms: C3_4  and  C4_5 
REMARK    3  A    between atoms: C4_5  and  C5_6 
REMARK    4  A    between atoms: C5_6  and  N1_7 
REMARK    5  A    between atoms: N2_13  and  C10_14 
REMARK    6  A    between atoms: C15_21  and  C16_22 
ROOT
HETATM    1  C10 UNL     1      -2.385   1.399   0.436  1.00  0.00     0.036 A 
HETATM    2  C11 UNL     1      -2.362   2.778   0.537  1.00  0.00     0.032 A 
HETATM    3  C12 UNL     1      -3.529   3.541   0.446  1.00  0.00     0.035 A 
HETATM    4  C13 UNL     1      -4.680   2.813   0.251  1.00  0.00     0.070 A 
HETATM    5  N3  UNL     1      -5.822   3.523   0.159  1.00  0.00    -0.241 NA
HETATM    6  C14 UNL     1      -6.992   2.887  -0.032  1.00  0.00     0.234 A 
HETATM    7  N4  UNL     1      -7.069   1.559  -0.136  1.00  0.00    -0.240 NA
HETATM    8  C15 UNL     1      -5.983   0.805  -0.054  1.00  0.00     0.082 A 
HETATM    9  C21 UNL     1      -4.776   1.442   0.142  1.00  0.00     0.025 A 
HETATM   10  C22 UNL     1      -3.592   0.734   0.239  1.00  0.00     0.045 A 
ENDROOT
BRANCH   1  11
HETATM   11  N2  UNL     1      -1.170   0.667   0.534  1.00  0.00    -0.316 N 
HETATM   12  C1  UNL     1      -0.307   0.026   1.462  1.00  0.00     0.300 C 
HETATM   13  O1  UNL     1      -0.537  -0.014   2.702  1.00  0.00    -0.258 OA
HETATM   14  H13 UNL     1      -0.960   0.693  -0.507  1.00  0.00     0.170 HD
BRANCH  12  15
HETATM   15  C2  UNL     1       0.865  -0.586   0.897  1.00  0.00    -0.005 C 
HETATM   16  C3  UNL     1       1.866  -1.094   0.401  1.00  0.00    -0.095 C 
BRANCH  16  17
HETATM   17  C4  UNL     1       3.061  -1.689  -0.216  1.00  0.00     0.114 C 
BRANCH  17  18
HETATM   18  C5  UNL     1       4.068  -0.598  -0.510  1.00  0.00     0.129 C 
BRANCH  18  19
HETATM   19  N1  UNL     1       5.262  -1.069  -1.111  1.00  0.00    -0.408 N 
HETATM   20  C6  UNL     1       6.113  -1.879  -0.291  1.00  0.00     0.143 C 
HETATM   21  C7  UNL     1       6.934  -0.967   0.592  1.00  0.00     0.187 C 
HETATM   22  O2  UNL     1       6.654   0.379   0.388  1.00  0.00    -0.388 OA
HETATM   23  C8  UNL     1       6.806   0.748  -0.943  1.00  0.00     0.187 C 
HETATM   24  C9  UNL     1       6.006  -0.132  -1.881  1.00  0.00     0.143 C 
ENDBRANCH  18  19
ENDBRANCH  17  18
ENDBRANCH  16  17
ENDBRANCH  12  15
ENDBRANCH   1  11
BRANCH   8  25
HETATM   25  C16 UNL     1      -5.969  -0.628  -0.153  1.00  0.00     0.008 A 
HETATM   26  C17 UNL     1      -6.495  -1.137   0.949  1.00  0.00    -0.009 A 
HETATM   27  C18 UNL     1      -6.586  -2.455   0.914  1.00  0.00     0.055 A 
HETATM   28  C19 UNL     1      -5.976  -2.860  -0.350  1.00  0.00     0.118 A 
HETATM   29  F1  UNL     1      -5.704  -4.021  -1.005  1.00  0.00    -0.206 F 
HETATM   30  C20 UNL     1      -5.591  -1.763  -1.019  1.00  0.00     0.057 A 
ENDBRANCH   8  25
TORSDOF 6
