REMARK  5 active torsions:
REMARK  status: ('A' for Active; 'I' for Inactive)
REMARK    1  A    between atoms: C1_2  and  C2_3 
REMARK       I    between atoms: C1_2  and  N4_22 
REMARK    2  A    between atoms: C2_3  and  C3_4 
REMARK    3  A    between atoms: C4_5  and  C5_6 
REMARK    4  A    between atoms: C5_6  and  N1_7 
REMARK    5  A    between atoms: N4_22  and  C16_23 
ROOT
HETATM    1  C3  UNL     1       0.099  -1.368   0.072  1.00  0.00    -0.096 C 
HETATM    2  C4  UNL     1      -0.862  -0.621   0.125  1.00  0.00    -0.087 C 
ENDROOT
BRANCH   2   3
HETATM    3  C5  UNL     1      -2.009   0.303   0.183  1.00  0.00     0.211 C 
BRANCH   3   4
HETATM    4  N1  UNL     1      -2.210   0.904  -1.116  1.00  0.00    -0.398 N 
HETATM    5  C6  UNL     1      -3.164   1.920  -1.218  1.00  0.00     0.145 C 
HETATM    6  C7  UNL     1      -2.741   3.116  -0.347  1.00  0.00    -0.011 C 
HETATM    7  C8  UNL     1      -3.595   3.437   0.670  1.00  0.00    -0.017 C 
HETATM    8  C9  UNL     1      -4.755   2.506   0.653  1.00  0.00     0.086 C 
HETATM    9  C10 UNL     1      -5.847   2.384   1.436  1.00  0.00     0.125 C 
HETATM   10  F1  UNL     1      -6.537   2.883   2.552  1.00  0.00    -0.208 F 
HETATM   11  C11 UNL     1      -6.734   1.373   0.876  1.00  0.00     0.086 C 
HETATM   12 CL1  UNL     1      -8.257   0.948   1.678  1.00  0.00    -0.080 Cl
HETATM   13  C12 UNL     1      -6.789   0.540  -0.189  1.00  0.00     0.144 C 
HETATM   14  N2  UNL     1      -6.352  -0.056  -1.376  1.00  0.00    -0.255 NA
HETATM   15  C13 UNL     1      -5.315  -0.477  -1.834  1.00  0.00     0.202 C 
HETATM   16  N3  UNL     1      -4.173  -0.993  -2.466  1.00  0.00    -0.383 N 
HETATM   17  C14 UNL     1      -2.777  -1.214  -2.282  1.00  0.00     0.139 C 
HETATM   18  H12 UNL     1      -4.886  -1.167  -3.234  1.00  0.00     0.160 HD
HETATM   19  C15 UNL     1      -1.916   0.028  -2.185  1.00  0.00     0.137 C 
ENDBRANCH   3   4
ENDBRANCH   2   3
BRANCH   1  20
HETATM   20  C2  UNL     1       1.256  -2.262  -0.017  1.00  0.00     0.197 C 
BRANCH  20  21
HETATM   21  C1  UNL     1       2.453  -1.397   0.303  1.00  0.00     0.234 C 
HETATM   22  O1  UNL     1       2.399  -0.181   0.634  1.00  0.00    -0.272 OA
HETATM   23  N4  UNL     1       3.709  -2.057   0.203  1.00  0.00    -0.311 N 
HETATM   24  H17 UNL     1       3.795  -3.062  -0.068  1.00  0.00     0.170 HD
BRANCH  23  25
HETATM   25  C16 UNL     1       5.050  -1.613   0.411  1.00  0.00     0.130 A 
HETATM   26  C17 UNL     1       5.905  -1.581   1.488  1.00  0.00     0.065 A 
HETATM   27  C18 UNL     1       7.155  -1.078   1.344  1.00  0.00     0.015 A 
HETATM   28  C19 UNL     1       7.936  -1.091   2.479  1.00  0.00     0.132 A 
HETATM   29  C21 UNL     1       7.628  -0.584   0.148  1.00  0.00     0.087 A 
HETATM   30  N5  UNL     1       9.194  -0.609   2.418  1.00  0.00    -0.253 NA
HETATM   31  C20 UNL     1       9.633  -0.127   1.218  1.00  0.00     0.233 A 
HETATM   32  N6  UNL     1       8.883  -0.100   0.077  1.00  0.00    -0.240 NA
HETATM   33  C22 UNL     1       6.750  -0.626  -0.922  1.00  0.00     0.151 A 
HETATM   34  N7  UNL     1       5.504  -1.126  -0.785  1.00  0.00    -0.241 NA
ENDBRANCH  23  25
ENDBRANCH  20  21
ENDBRANCH   1  20
TORSDOF 5
