REMARK  8 active torsions:
REMARK  status: ('A' for Active; 'I' for Inactive)
REMARK    1  A    between atoms: C3_3  and  C4_4 
REMARK    2  A    between atoms: C4_4  and  N1_5 
REMARK    3  A    between atoms: N1_5  and  C5_6 
REMARK    4  A    between atoms: C5_6  and  N2_7 
REMARK       I    between atoms: N2_7  and  C6_8 
REMARK    5  A    between atoms: C6_8  and  C7_10 
REMARK    6  A    between atoms: C8_11  and  C9_12 
REMARK    7  A    between atoms: C9_12  and  C10_13 
REMARK    8  A    between atoms: C10_13  and  N3_14 
ROOT
HETATM    1  C1  UNL     1       8.087   2.250  -1.124  1.00  0.00     0.012 C 
HETATM    2  C2  UNL     1       7.183   1.737  -0.491  1.00  0.00    -0.112 C 
HETATM    3  C3  UNL     1       6.072   1.125   0.259  1.00  0.00     0.139 C 
ENDROOT
BRANCH   3   4
HETATM    4  C4  UNL     1       5.910  -0.297  -0.183  1.00  0.00     0.097 C 
BRANCH   4   5
HETATM    5  N1  UNL     1       5.650  -1.537  -0.317  1.00  0.00    -0.285 NA
BRANCH   5   6
HETATM    6  C5  UNL     1       4.977  -2.207   0.737  1.00  0.00     0.273 C 
BRANCH   6   7
HETATM    7  N2  UNL     1       3.562  -1.926   0.754  1.00  0.00    -0.332 N 
HETATM    8  C6  UNL     1       2.677  -2.211  -0.296  1.00  0.00     0.297 C 
HETATM    9  O1  UNL     1       3.102  -2.756  -1.364  1.00  0.00    -0.258 OA
HETATM   10  H7  UNL     1       3.084  -1.473   1.587  1.00  0.00     0.165 HD
BRANCH   8  11
HETATM   11  C7  UNL     1       1.255  -1.914  -0.243  1.00  0.00    -0.006 C 
HETATM   12  C8  UNL     1       0.084  -1.654  -0.185  1.00  0.00    -0.095 C 
BRANCH  12  13
HETATM   13  C9  UNL     1      -1.340  -1.339  -0.140  1.00  0.00     0.124 C 
BRANCH  13  14
HETATM   14  C10 UNL     1      -1.566   0.145  -0.246  1.00  0.00     0.284 C 
BRANCH  14  15
HETATM   15  N3  UNL     1      -3.002   0.383  -0.194  1.00  0.00     0.092 N 
HETATM   16  C11 UNL     1      -3.279   1.787  -0.291  1.00  0.00     0.302 C 
HETATM   17  C12 UNL     1      -4.631   2.193   0.175  1.00  0.00     0.302 C 
HETATM   18  N4  UNL     1      -5.511   1.068   0.485  1.00  0.00     0.087 N 
HETATM   19  C13 UNL     1      -5.768   0.239  -0.659  1.00  0.00     0.310 C 
HETATM   20  C14 UNL     1      -4.806   0.302   1.485  1.00  0.00     0.302 C 
HETATM   21  C15 UNL     1      -3.503  -0.252   0.983  1.00  0.00     0.302 C 
ENDBRANCH  14  15
ENDBRANCH  13  14
ENDBRANCH  12  13
ENDBRANCH   8  11
ENDBRANCH   6   7
ENDBRANCH   5   6
ENDBRANCH   4   5
ENDBRANCH   3   4
TORSDOF 8
