REMARK  6 active torsions:
REMARK  status: ('A' for Active; 'I' for Inactive)
REMARK    1  A    between atoms: N2_5  and  C4_6 
REMARK    2  A    between atoms: C4_6  and  C5_7 
REMARK    3  A    between atoms: C5_7  and  C6_8 
REMARK    4  A    between atoms: C7_9  and  C8_10 
REMARK       I    between atoms: C8_10  and  N3_12 
REMARK    5  A    between atoms: C12_16  and  N4_17 
REMARK    6  A    between atoms: N4_17  and  C13_18 
ROOT
HETATM    1  C8  UNL     1       0.290  -2.304  -0.605  1.00  0.00     0.322 C 
HETATM    2  O1  UNL     1      -0.321  -3.402  -0.603  1.00  0.00    -0.256 OA
HETATM    3  N3  UNL     1      -0.500  -1.121  -0.586  1.00  0.00    -0.201 N 
HETATM    4  C9  UNL     1      -1.913  -1.263  -0.568  1.00  0.00     0.136 A 
HETATM    5  C10 UNL     1      -2.720  -0.195  -0.550  1.00  0.00     0.015 A 
HETATM    6  C11 UNL     1      -4.117  -0.575  -0.533  1.00  0.00     0.065 A 
HETATM    7  C12 UNL     1      -5.197   0.216  -0.514  1.00  0.00     0.130 A 
HETATM    8  N5  UNL     1      -5.203   1.643  -0.506  1.00  0.00    -0.224 NA
HETATM    9  C19 UNL     1      -4.207   2.487  -0.514  1.00  0.00     0.236 A 
HETATM   10  N6  UNL     1      -2.803   2.257  -0.535  1.00  0.00    -0.240 NA
HETATM   11  C20 UNL     1      -2.159   1.148  -0.550  1.00  0.00     0.089 A 
HETATM   12  C21 UNL     1      -0.696   1.239  -0.569  1.00  0.00     0.171 A 
HETATM   13  N7  UNL     1       0.031   0.172  -0.586  1.00  0.00    -0.175 NA
ENDROOT
BRANCH   1  14
HETATM   14  C7  UNL     1       1.707  -2.345  -0.625  1.00  0.00    -0.003 C 
HETATM   15  C6  UNL     1       2.912  -2.365  -0.634  1.00  0.00    -0.095 C 
BRANCH  15  16
HETATM   16  C5  UNL     1       4.365  -2.413  -0.634  1.00  0.00     0.124 C 
BRANCH  16  17
HETATM   17  C4  UNL     1       4.967  -1.437   0.336  1.00  0.00     0.284 C 
BRANCH  17  18
HETATM   18  N2  UNL     1       4.647  -0.064   0.096  1.00  0.00     0.092 N 
HETATM   19  C3  UNL     1       5.287   0.729   1.123  1.00  0.00     0.291 C 
HETATM   20  C2  UNL     1       6.644   1.220   0.820  1.00  0.00     0.146 C 
HETATM   21  N1  UNL     1       7.324   0.650  -0.269  1.00  0.00    -0.413 N 
HETATM   22  C1  UNL     1       8.549  -0.033   0.048  1.00  0.00     0.143 C 
HETATM   23  C23 UNL     1       6.561   0.037  -1.303  1.00  0.00     0.146 C 
HETATM   24  C22 UNL     1       5.124   0.434  -1.170  1.00  0.00     0.291 C 
ENDBRANCH  17  18
ENDBRANCH  16  17
ENDBRANCH  15  16
ENDBRANCH   1  14
BRANCH   7  25
HETATM   25  N4  UNL     1      -6.458  -0.439  -0.500  1.00  0.00    -0.341 N 
HETATM   26  H14 UNL     1      -6.544  -1.229  -1.177  1.00  0.00     0.167 HD
BRANCH  25  27
HETATM   27  C13 UNL     1      -7.575  -0.130   0.319  1.00  0.00     0.033 A 
HETATM   28  C14 UNL     1      -8.750  -0.843   0.237  1.00  0.00     0.032 A 
HETATM   29  C15 UNL     1      -9.823  -0.541   1.028  1.00  0.00     0.044 A 
HETATM   30  C16 UNL     1      -9.763   0.506   1.951  1.00  0.00     0.116 A 
HETATM   31  F1  UNL     1     -10.892   0.708   2.678  1.00  0.00    -0.206 F 
HETATM   32  C17 UNL     1      -8.599   1.239   2.056  1.00  0.00     0.044 A 
HETATM   33  C18 UNL     1      -7.544   0.896   1.237  1.00  0.00     0.032 A 
ENDBRANCH  25  27
ENDBRANCH   7  25
TORSDOF 6
