REMARK  6 active torsions:
REMARK  status: ('A' for Active; 'I' for Inactive)
REMARK    1  A    between atoms: C2_2  and  N1_3 
REMARK    2  A    between atoms: N1_3  and  C3_4 
REMARK    3  A    between atoms: N1_3  and  C5_6 
REMARK    4  A    between atoms: C5_6  and  C6_7 
REMARK    5  A    between atoms: C10_13  and  N4_14 
REMARK    6  A    between atoms: N4_14  and  C11_15 
REMARK       I    between atoms: N6_25  and  C18_26 
ROOT
HETATM    1  C6  UNL     1      -0.329  -0.732  -0.044  1.00  0.00     0.158 C 
HETATM    2  C7  UNL     1       0.665  -0.641  -1.203  1.00  0.00     0.058 A 
HETATM    3  C8  UNL     1       0.297  -1.243  -2.415  1.00  0.00     0.138 A 
HETATM    4  N2  UNL     1       1.111  -1.220  -3.511  1.00  0.00    -0.224 NA
HETATM    5  C9  UNL     1       2.293  -0.600  -3.412  1.00  0.00     0.237 A 
HETATM    6  N3  UNL     1       2.622  -0.037  -2.259  1.00  0.00    -0.224 NA
HETATM    7  C10 UNL     1       1.896  -0.007  -1.138  1.00  0.00     0.141 A 
HETATM    8  N5  UNL     1      -0.980  -1.910  -2.535  1.00  0.00    -0.358 N 
HETATM    9  C17 UNL     1      -1.412  -2.651  -1.347  1.00  0.00     0.251 C 
HETATM   10  N6  UNL     1      -0.889  -2.027  -0.155  1.00  0.00    -0.325 N 
HETATM   11  C18 UNL     1      -0.955  -2.916   0.983  1.00  0.00     0.217 C 
HETATM   12  C19 UNL     1      -1.487  -4.301   0.971  1.00  0.00     0.117 C 
HETATM   13  O1  UNL     1      -0.518  -2.469   2.093  1.00  0.00    -0.274 OA
HETATM   14  H19 UNL     1      -1.503  -1.824  -3.437  1.00  0.00     0.162 HD
ENDROOT
BRANCH   7  15
HETATM   15  N4  UNL     1       2.278   0.624   0.070  1.00  0.00    -0.340 N 
HETATM   16  H15 UNL     1       1.638   0.647   0.877  1.00  0.00     0.167 HD
BRANCH  15  17
HETATM   17  C11 UNL     1       3.499   1.281   0.356  1.00  0.00     0.035 A 
HETATM   18  C12 UNL     1       4.614   1.205  -0.442  1.00  0.00     0.032 A 
HETATM   19  C13 UNL     1       5.811   1.837  -0.198  1.00  0.00     0.046 A 
HETATM   20  C14 UNL     1       5.931   2.618   0.929  1.00  0.00     0.138 A 
HETATM   21  F1  UNL     1       7.080   3.270   1.229  1.00  0.00    -0.204 F 
HETATM   22  C15 UNL     1       4.849   2.736   1.770  1.00  0.00     0.074 A 
HETATM   23 CL1  UNL     1       4.920   3.713   3.228  1.00  0.00    -0.081 Cl
HETATM   24  C16 UNL     1       3.683   2.076   1.466  1.00  0.00     0.056 A 
ENDBRANCH  15  17
ENDBRANCH   7  15
BRANCH   1  25
HETATM   25  C5  UNL     1      -1.163   0.476  -0.175  1.00  0.00     0.302 C 
BRANCH  25  26
HETATM   26  N1  UNL     1      -2.205   0.746   0.743  1.00  0.00     0.090 N 
BRANCH  26  27
HETATM   27  C2  UNL     1      -2.620   2.136   0.491  1.00  0.00     0.268 C 
HETATM   28  C1  UNL     1      -3.511   2.699   1.533  1.00  0.00     0.037 C 
ENDBRANCH  26  27
BRANCH  26  29
HETATM   29  C3  UNL     1      -3.335  -0.122   0.607  1.00  0.00     0.268 C 
HETATM   30  C4  UNL     1      -3.898  -0.227  -0.784  1.00  0.00     0.037 C 
ENDBRANCH  26  29
ENDBRANCH  25  26
ENDBRANCH   1  25
TORSDOF 6
