REMARK  0 active torsions:
REMARK  status: ('A' for Active; 'I' for Inactive)
ROOT
HETATM    1  C1  UNL     1       4.197  -0.663   1.584  1.00  0.00     0.057 C 
HETATM    2  C2  UNL     1       2.832  -0.792   1.084  1.00  0.00    -0.018 C 
HETATM    3  C3  UNL     1       2.601  -1.862   0.311  1.00  0.00    -0.009 C 
HETATM    4  C4  UNL     1       1.490  -2.554  -0.505  1.00  0.00     0.026 C 
HETATM    5  C5  UNL     1       0.766  -3.358  -1.252  1.00  0.00     0.193 C 
HETATM    6  N1  UNL     1      -0.145  -2.275  -0.942  1.00  0.00    -0.183 NA
HETATM    7  N2  UNL     1      -0.815  -1.856  -1.998  1.00  0.00    -0.106 NA
HETATM    8  C6  UNL     1      -1.712  -0.762  -1.728  1.00  0.00     0.443 A 
HETATM    9  N3  UNL     1      -1.106  -0.461  -2.991  1.00  0.00    -0.190 NA
HETATM   10  C7  UNL     1      -1.478   0.746  -3.626  1.00  0.00     0.334 A 
HETATM   11  N4  UNL     1      -2.156   0.636  -2.429  1.00  0.00     0.113 N 
HETATM   12  C8  UNL     1      -2.972   1.538  -2.038  1.00  0.00     0.306 A 
HETATM   13  C9  UNL     1      -2.366   0.342  -1.798  1.00  0.00     0.399 A 
HETATM   14  F1  UNL     1      -2.740  -0.475  -0.665  1.00  0.00    -0.294 F 
HETATM   15  C10 UNL     1      -3.727   1.931  -0.813  1.00  0.00     0.198 C 
HETATM   16  N5  UNL     1      -2.870   1.760   0.071  1.00  0.00    -0.446 NA
HETATM   17  C11 UNL     1      -2.256   1.701   1.239  1.00  0.00     0.324 C 
HETATM   18  N6  UNL     1      -0.750   1.573   1.035  1.00  0.00    -0.209 NA
HETATM   19  N7  UNL     1      -0.179   1.438   2.307  1.00  0.00    -0.113 NA
HETATM   20  O1  UNL     1       0.567   1.162   3.366  1.00  0.00     0.000 OA
HETATM   21  C12 UNL     1       0.872   0.687   1.872  1.00  0.00     0.122 A 
HETATM   22  C13 UNL     1       1.786   0.009   1.500  1.00  0.00    -0.093 C 
HETATM   23  H11 UNL     1      -0.494   2.463   0.553  1.00  0.00     0.145 HD
HETATM   24  H12 UNL     1       0.879   2.019   3.811  1.00  0.00     0.000 HD
ENDROOT
TORSDOF 0
