REMARK  0 active torsions:
REMARK  status: ('A' for Active; 'I' for Inactive)
ROOT
HETATM    1  F1  UNL     1       6.815  -0.035  -1.646  1.00  0.00    -0.205 F 
HETATM    2  C1  UNL     1       5.728   0.307  -0.936  1.00  0.00     0.134 A 
HETATM    3  C2  UNL     1       4.588  -0.377  -1.156  1.00  0.00     0.059 A 
HETATM    4  C3  UNL     1       3.451  -0.112  -0.500  1.00  0.00     0.018 A 
HETATM    5  C4  UNL     1       3.450   0.938   0.470  1.00  0.00     0.047 A 
HETATM    6  C5  UNL     1       4.599   1.627   0.694  1.00  0.00     0.052 A 
HETATM    7  C6  UNL     1       5.721   1.303  -0.012  1.00  0.00     0.051 A 
HETATM    8 BR1  UNL     1       7.293   2.310   0.354  1.00  0.00    -0.048 Br
HETATM    9  N1  UNL     1       2.398   1.504   1.336  1.00  0.00    -0.343 N 
HETATM   10  C7  UNL     1       1.528   0.483   1.907  1.00  0.00     0.110 A 
HETATM   11  C8  UNL     1       0.742  -0.618   2.260  1.00  0.00     0.167 A 
HETATM   12  C9  UNL     1       0.391  -2.004   1.659  1.00  0.00     0.113 C 
HETATM   13  C10 UNL     1       0.883  -2.528   0.467  1.00  0.00     0.023 C 
HETATM   14  C11 UNL     1       1.780  -2.384  -0.809  1.00  0.00     0.086 C 
HETATM   15  C12 UNL     1       2.275  -0.980  -0.817  1.00  0.00     0.051 C 
HETATM   16  N2  UNL     1       1.142  -0.360  -1.230  1.00  0.00    -0.239 NA
HETATM   17  C13 UNL     1       0.296   0.425  -0.319  1.00  0.00     0.110 C 
HETATM   18  N3  UNL     1       0.429   0.114   0.955  1.00  0.00    -0.310 N 
HETATM   19  C14 UNL     1      -0.532   1.443  -0.998  1.00  0.00     0.105 C 
HETATM   20  C15 UNL     1      -1.279   2.337  -0.034  1.00  0.00     0.175 C 
HETATM   21  O1  UNL     1      -2.077   3.224  -0.713  1.00  0.00    -0.389 OA
HETATM   22  C16 UNL     1      -3.141   2.768  -1.410  1.00  0.00     0.186 C 
HETATM   23  C17 UNL     1      -4.331   2.266  -0.644  1.00  0.00     0.140 C 
HETATM   24  N4  UNL     1      -4.131   1.223   0.269  1.00  0.00    -0.418 N 
HETATM   25  C18 UNL     1      -3.771  -0.058  -0.194  1.00  0.00     0.126 C 
HETATM   26  C19 UNL     1      -3.523  -0.904   1.089  1.00  0.00     0.113 C 
HETATM   27  C20 UNL     1      -2.676  -1.954   0.666  1.00  0.00    -0.103 C 
HETATM   28  C21 UNL     1      -1.982  -2.782   0.324  1.00  0.00    -0.087 C 
HETATM   29  C22 UNL     1      -1.093  -3.802  -0.103  1.00  0.00     0.209 C 
HETATM   30  N5  UNL     1       0.144  -3.771   0.697  1.00  0.00    -0.406 N 
HETATM   31  H3  UNL     1       2.053   2.373   1.674  1.00  0.00     0.167 HD
HETATM   32  H16 UNL     1      -4.608   1.277   1.172  1.00  0.00     0.153 HD
HETATM   33  H23 UNL     1       0.494  -4.521   1.362  1.00  0.00     0.154 HD
ENDROOT
TORSDOF 0
