REMARK  8 active torsions:
REMARK  status: ('A' for Active; 'I' for Inactive)
REMARK    1  A    between atoms: C2_2  and  N1_3 
REMARK    2  A    between atoms: C2_2  and  N4_11 
REMARK    3  A    between atoms: N1_3  and  C3_4 
REMARK    4  A    between atoms: C3_4  and  C4_5 
REMARK       I    between atoms: N4_11  and  C8_12 
REMARK    5  A    between atoms: C8_12  and  C9_14 
REMARK    6  A    between atoms: C10_15  and  C11_16 
REMARK    7  A    between atoms: C11_16  and  C12_17 
REMARK    8  A    between atoms: C12_17  and  N5_18 
ROOT
HETATM    1  N4  UNL     1      -1.789   1.750   0.620  1.00  0.00    -0.291 N 
HETATM    2  C8  UNL     1      -1.485   0.413   0.259  1.00  0.00     0.302 C 
HETATM    3  O1  UNL     1      -2.312  -0.491   0.540  1.00  0.00    -0.258 OA
HETATM    4  H7  UNL     1      -1.065   2.454   0.361  1.00  0.00     0.172 HD
ENDROOT
BRANCH   1   5
HETATM    5  C2  UNL     1      -3.025   1.990   1.285  1.00  0.00     0.172 C 
HETATM    6  C1  UNL     1      -3.226   3.280   1.587  1.00  0.00     0.080 C 
BRANCH   5   7
HETATM    7  N1  UNL     1      -3.915   1.057   1.594  1.00  0.00    -0.398 NA
BRANCH   7   8
HETATM    8  C3  UNL     1      -4.650   0.213   1.942  1.00  0.00     0.216 C 
BRANCH   8   9
HETATM    9  C4  UNL     1      -5.870  -0.185   1.239  1.00  0.00     0.088 A 
HETATM   10  C5  UNL     1      -6.111   0.532   0.087  1.00  0.00     0.053 A 
HETATM   11  C6  UNL     1      -7.245   0.221  -0.641  1.00  0.00     0.120 A 
HETATM   12  N2  UNL     1      -8.051  -0.756  -0.194  1.00  0.00    -0.254 NA
HETATM   13  C7  UNL     1      -7.816  -1.448   0.921  1.00  0.00     0.233 A 
HETATM   14  N3  UNL     1      -6.703  -1.154   1.650  1.00  0.00    -0.240 NA
ENDBRANCH   8   9
ENDBRANCH   7   8
ENDBRANCH   5   7
ENDBRANCH   1   5
BRANCH   2  15
HETATM   15  C9  UNL     1      -0.274   0.022  -0.416  1.00  0.00    -0.005 C 
HETATM   16  C10 UNL     1       0.751  -0.306  -0.964  1.00  0.00    -0.095 C 
BRANCH  16  17
HETATM   17  C11 UNL     1       1.999  -0.731  -1.643  1.00  0.00     0.124 C 
BRANCH  17  18
HETATM   18  C12 UNL     1       3.109  -0.060  -0.896  1.00  0.00     0.284 C 
BRANCH  18  19
HETATM   19  N5  UNL     1       4.395  -0.378  -1.442  1.00  0.00     0.093 N 
HETATM   20  C13 UNL     1       5.410   0.310  -0.669  1.00  0.00     0.298 C 
HETATM   21  C14 UNL     1       6.760  -0.038  -1.207  1.00  0.00     0.198 C 
HETATM   22  O2  UNL     1       7.035  -1.381  -1.265  1.00  0.00    -0.388 OA
HETATM   23  C15 UNL     1       5.980  -2.191  -0.930  1.00  0.00     0.198 C 
HETATM   24  C16 UNL     1       4.660  -1.796  -1.546  1.00  0.00     0.298 C 
ENDBRANCH  18  19
ENDBRANCH  17  18
ENDBRANCH  16  17
ENDBRANCH   2  15
TORSDOF 8
