REMARK  2 active torsions:
REMARK  status: ('A' for Active; 'I' for Inactive)
REMARK    1  A    between atoms: C4_5  and  N1_6 
REMARK    2  A    between atoms: N1_6  and  C5_7 
ROOT
HETATM    1  C5  UNL     1       2.180   1.297   0.106  1.00  0.00     0.142 A 
HETATM    2  N2  UNL     1       2.649   2.475  -0.326  1.00  0.00    -0.224 NA
HETATM    3  C6  UNL     1       1.767   3.469  -0.525  1.00  0.00     0.236 A 
HETATM    4  N3  UNL     1       0.441   3.370  -0.323  1.00  0.00    -0.240 NA
HETATM    5  C7  UNL     1      -0.115   2.238   0.106  1.00  0.00     0.089 A 
HETATM    6  C8  UNL     1       0.836   1.248   0.298  1.00  0.00     0.041 A 
HETATM    7  C9  UNL     1       0.183   0.054   0.813  1.00  0.00     0.034 C 
HETATM    8  C10 UNL     1      -0.344  -0.860   1.610  1.00  0.00     0.084 C 
HETATM    9  N4  UNL     1      -0.980  -2.111   1.291  1.00  0.00    -0.397 N 
HETATM   10  C11 UNL     1      -2.292  -1.907   1.913  1.00  0.00     0.149 C 
HETATM   11  C12 UNL     1      -3.031  -0.772   1.313  1.00  0.00     0.294 C 
HETATM   12  N5  UNL     1      -3.245  -0.760  -0.084  1.00  0.00     0.119 N 
HETATM   13  C13 UNL     1      -4.426  -1.444  -0.552  1.00  0.00     0.301 C 
HETATM   14  C14 UNL     1      -5.428  -0.389  -0.969  1.00  0.00     0.198 C 
HETATM   15  O1  UNL     1      -4.983   0.351  -2.057  1.00  0.00    -0.385 OA
HETATM   16  C15 UNL     1      -3.604   0.530  -2.084  1.00  0.00     0.227 C 
HETATM   17  C16 UNL     1      -3.143   0.583  -0.649  1.00  0.00     0.367 C 
HETATM   18  N6  UNL     1      -1.814   1.095  -0.503  1.00  0.00    -0.262 NA
HETATM   19  C17 UNL     1      -1.569   2.095   0.308  1.00  0.00     0.145 C 
HETATM   20  H7  UNL     1      -0.105  -2.394   0.809  1.00  0.00     0.158 HD
ENDROOT
BRANCH   1  21
HETATM   21  N1  UNL     1       2.797   0.055   0.378  1.00  0.00    -0.340 N 
HETATM   22  H3  UNL     1       2.319  -0.790   0.748  1.00  0.00     0.167 HD
BRANCH  21  23
HETATM   23  C4  UNL     1       4.169  -0.236   0.192  1.00  0.00     0.035 A 
HETATM   24  C3  UNL     1       5.056   0.675  -0.336  1.00  0.00     0.032 A 
HETATM   25  C2  UNL     1       6.393   0.455  -0.539  1.00  0.00     0.046 A 
HETATM   26  C1  UNL     1       6.944  -0.767  -0.201  1.00  0.00     0.133 A 
HETATM   27  F1  UNL     1       8.248  -1.067  -0.368  1.00  0.00    -0.205 F 
HETATM   28  C19 UNL     1       6.108  -1.716   0.330  1.00  0.00     0.051 A 
HETATM   29  C18 UNL     1       4.778  -1.431   0.507  1.00  0.00     0.051 A 
HETATM   30 BR1  UNL     1       6.791  -3.417   0.818  1.00  0.00    -0.048 Br
ENDBRANCH  21  23
ENDBRANCH   1  21
TORSDOF 2
