REMARK  8 active torsions:
REMARK  status: ('A' for Active; 'I' for Inactive)
REMARK    1  A    between atoms: C4_5  and  C5_6 
REMARK    2  A    between atoms: C6_7  and  N1_8 
REMARK    3  A    between atoms: N1_8  and  C7_9 
REMARK    4  A    between atoms: C10_12  and  N2_13 
REMARK       I    between atoms: N2_13  and  C11_14 
REMARK    5  A    between atoms: C11_14  and  C12_16 
REMARK    6  A    between atoms: C13_17  and  C14_18 
REMARK    7  A    between atoms: C14_18  and  C15_19 
REMARK    8  A    between atoms: C15_19  and  N3_20 
ROOT
HETATM    1  C1  UNL     1       5.293   4.759   0.563  1.00  0.00     0.015 C 
HETATM    2  C2  UNL     1       5.250   4.251   1.633  1.00  0.00    -0.070 C 
HETATM    3  C3  UNL     1       5.207   3.629   3.017  1.00  0.00     0.202 A 
HETATM    4  F1  UNL     1       5.022   2.627   3.826  1.00  0.00    -0.371 F 
HETATM    5  C4  UNL     1       4.810   2.287   2.538  1.00  0.00     0.190 A 
ENDROOT
BRANCH   5   6
HETATM    6  C5  UNL     1       4.758   2.563   1.214  1.00  0.00     0.104 C 
HETATM    7  C6  UNL     1       4.569   2.269  -0.045  1.00  0.00     0.071 C 
BRANCH   7   8
HETATM    8  N1  UNL     1       4.243   1.394  -1.216  1.00  0.00    -0.374 N 
HETATM    9  H5  UNL     1       4.574   2.138  -1.938  1.00  0.00     0.161 HD
BRANCH   8  10
HETATM   10  C7  UNL     1       3.887   0.469  -2.051  1.00  0.00     0.116 C 
HETATM   11  C8  UNL     1       2.830   0.004  -2.676  1.00  0.00     0.038 A 
HETATM   12  C9  UNL     1       1.632   0.735  -2.326  1.00  0.00     0.061 A 
HETATM   13  C20 UNL     1       2.688  -1.291  -3.297  1.00  0.00     0.071 A 
HETATM   14  C10 UNL     1       0.719  -0.220  -2.738  1.00  0.00     0.107 A 
HETATM   15  N4  UNL     1       1.390  -1.347  -3.291  1.00  0.00    -0.238 NA
HETATM   16  C21 UNL     1       4.044  -1.903  -3.603  1.00  0.00     0.207 A 
HETATM   17  C22 UNL     1       5.186  -1.379  -2.877  1.00  0.00     0.090 A 
HETATM   18  N5  UNL     1       4.701  -0.739  -2.602  1.00  0.00    -0.336 N 
BRANCH  14  19
HETATM   19  N2  UNL     1      -0.741  -0.036  -2.621  1.00  0.00    -0.227 NA
HETATM   20  C11 UNL     1      -0.886  -0.564  -1.230  1.00  0.00     0.279 C 
HETATM   21  O1  UNL     1       0.393  -0.932  -0.972  1.00  0.00    -0.190 OA
HETATM   22  H7  UNL     1      -1.673  -0.122  -2.268  1.00  0.00     0.133 HD
BRANCH  20  23
HETATM   23  C12 UNL     1      -1.362  -0.924  -0.088  1.00  0.00    -0.043 C 
HETATM   24  C13 UNL     1      -1.788  -1.273   0.996  1.00  0.00    -0.100 C 
BRANCH  24  25
HETATM   25  C14 UNL     1      -2.288  -1.732   2.347  1.00  0.00     0.124 C 
BRANCH  25  26
HETATM   26  C15 UNL     1      -3.655  -1.251   2.592  1.00  0.00     0.284 C 
BRANCH  26  27
HETATM   27  N3  UNL     1      -4.689  -1.651   1.706  1.00  0.00     0.093 N 
HETATM   28  C16 UNL     1      -4.650  -1.188   0.371  1.00  0.00     0.298 C 
HETATM   29  C17 UNL     1      -6.066  -1.218  -0.236  1.00  0.00     0.198 C 
HETATM   30  O2  UNL     1      -6.843  -0.211   0.344  1.00  0.00    -0.388 OA
HETATM   31  C18 UNL     1      -6.536  -0.018   1.669  1.00  0.00     0.198 C 
HETATM   32  C19 UNL     1      -5.966  -1.274   2.308  1.00  0.00     0.298 C 
ENDBRANCH  26  27
ENDBRANCH  25  26
ENDBRANCH  24  25
ENDBRANCH  20  23
ENDBRANCH  14  19
ENDBRANCH   8  10
ENDBRANCH   7   8
ENDBRANCH   5   6
TORSDOF 8
