REMARK  2 active torsions:
REMARK  status: ('A' for Active; 'I' for Inactive)
REMARK    1  A    between atoms: C3_4  and  C4_5 
REMARK       I    between atoms: C4_5  and  N2_7 
REMARK    2  A    between atoms: N2_7  and  C5_8 
ROOT
HETATM    1  N1  UNL     1       8.281   0.716  -1.041  1.00  0.00    -0.182 NA
HETATM    2  C1  UNL     1       7.174   0.417  -1.025  1.00  0.00     0.152 C 
HETATM    3  C2  UNL     1       5.814   0.061  -0.988  1.00  0.00     0.023 C 
HETATM    4  C3  UNL     1       4.647  -0.266  -0.957  1.00  0.00     0.011 C 
ENDROOT
BRANCH   4   5
HETATM    5  C4  UNL     1       3.263  -0.643  -0.939  1.00  0.00     0.303 C 
HETATM    6  O1  UNL     1       2.993  -1.839  -1.217  1.00  0.00    -0.258 OA
HETATM    7  N2  UNL     1       2.299   0.348  -0.613  1.00  0.00    -0.301 N 
HETATM    8  H1  UNL     1       2.610   1.319  -0.395  1.00  0.00     0.171 HD
BRANCH   7   9
HETATM    9  C5  UNL     1       0.885   0.209  -0.535  1.00  0.00     0.126 C 
HETATM   10  C6  UNL     1       0.085   0.967  -1.342  1.00  0.00     0.031 C 
HETATM   11  C7  UNL     1      -1.294   0.776  -1.214  1.00  0.00     0.052 A 
HETATM   12  C8  UNL     1      -2.207   1.909  -0.676  1.00  0.00     0.059 A 
HETATM   13  C11 UNL     1      -1.570   0.851   0.352  1.00  0.00     0.048 A 
HETATM   14  C9  UNL     1      -3.281   1.052  -0.340  1.00  0.00     0.018 A 
HETATM   15  C13 UNL     1      -1.566   3.143  -0.385  1.00  0.00     0.106 A 
HETATM   16  C10 UNL     1      -2.429   0.029   0.716  1.00  0.00     0.017 A 
HETATM   17  N3  UNL     1      -3.045  -1.003   1.325  1.00  0.00    -0.392 N 
HETATM   18  C14 UNL     1      -2.009  -1.811   1.872  1.00  0.00     0.124 C 
HETATM   19  H6  UNL     1      -4.075  -1.069   1.321  1.00  0.00     0.159 HD
HETATM   20  C15 UNL     1      -1.141  -2.542   0.884  1.00  0.00     0.066 C 
HETATM   21  C16 UNL     1      -0.470  -1.700  -0.086  1.00  0.00     0.093 C 
HETATM   22  N4  UNL     1       0.190  -0.689   0.368  1.00  0.00    -0.248 NA
HETATM   23  C12 UNL     1      -0.885   2.216   0.609  1.00  0.00     0.030 A 
HETATM   24  F1  UNL     1      -1.989   4.152  -1.124  1.00  0.00    -0.210 F 
ENDBRANCH   7   9
ENDBRANCH   4   5
TORSDOF 2
