REMARK  3 active torsions:
REMARK  status: ('A' for Active; 'I' for Inactive)
REMARK    1  A    between atoms: C4_4  and  C5_5 
REMARK    2  A    between atoms: C6_6  and  C7_8 
REMARK    3  A    between atoms: C18_24  and  N5_25 
ROOT
HETATM    1  C1  UNL     1       2.030  -2.055  -1.668  1.00  0.00     0.023 C 
HETATM    2  C2  UNL     1       1.891  -1.018  -0.536  1.00  0.00     0.084 C 
HETATM    3  C3  UNL     1       3.241  -0.477  -0.256  1.00  0.00     0.019 C 
HETATM    4  C4  UNL     1       4.005  -0.716   0.814  1.00  0.00     0.039 C 
HETATM    5  N1  UNL     1       3.724   0.353  -1.326  1.00  0.00    -0.354 N 
HETATM    6  C8  UNL     1       2.778   0.982  -2.157  1.00  0.00     0.207 C 
HETATM    7  N2  UNL     1       1.537   0.821  -1.961  1.00  0.00    -0.247 NA
HETATM    8  C9  UNL     1       0.920   0.032  -0.935  1.00  0.00     0.050 C 
HETATM    9  C10 UNL     1      -0.348   0.376  -0.533  1.00  0.00    -0.026 C 
HETATM   10  C11 UNL     1      -0.946   1.534  -1.245  1.00  0.00     0.085 C 
HETATM   11  C12 UNL     1      -1.194   2.731  -0.459  1.00  0.00     0.090 C 
HETATM   12  N3  UNL     1      -2.257   3.300  -0.732  1.00  0.00    -0.276 NA
HETATM   13  C13 UNL     1      -2.971   4.410  -0.338  1.00  0.00     0.418 C 
HETATM   14  N4  UNL     1      -3.347   4.488   1.048  1.00  0.00     0.113 NA
HETATM   15  C14 UNL     1      -4.014   3.266   1.520  1.00  0.00     0.365 C 
HETATM   16  C15 UNL     1      -3.081   2.194   1.583  1.00  0.00    -0.076 C 
HETATM   17  C16 UNL     1      -2.322   1.344   1.646  1.00  0.00    -0.102 C 
HETATM   18  C17 UNL     1      -1.380   0.324   1.715  1.00  0.00     0.123 C 
HETATM   19  C18 UNL     1      -0.998  -0.441   0.514  1.00  0.00     0.121 C 
HETATM   20  H9  UNL     1       4.735   0.490  -1.491  1.00  0.00     0.166 HD
HETATM   21  H16 UNL     1      -2.532   4.706   1.666  1.00  0.00     0.319 HD
ENDROOT
BRANCH  19  22
HETATM   22  N5  UNL     1      -1.924  -1.335  -0.037  1.00  0.00    -0.404 N 
HETATM   23  C19 UNL     1      -1.416  -2.350  -0.923  1.00  0.00     0.117 C 
HETATM   24  C20 UNL     1      -2.414  -3.460  -1.142  1.00  0.00     0.019 C 
HETATM   25  C21 UNL     1      -3.474  -3.504  -0.080  1.00  0.00     0.003 C 
HETATM   26  C22 UNL     1      -4.126  -2.208   0.240  1.00  0.00     0.019 C 
HETATM   27  C23 UNL     1      -3.254  -1.081  -0.271  1.00  0.00     0.117 C 
ENDBRANCH  19  22
BRANCH   4  28
HETATM   28  C5  UNL     1       5.331  -0.195   1.102  1.00  0.00     0.214 A 
HETATM   29  C6  UNL     1       6.133  -0.407   2.157  1.00  0.00     0.079 A 
HETATM   30  F1  UNL     1       4.958  -1.044   2.201  1.00  0.00    -0.360 F 
BRANCH  29  31
HETATM   31  C7  UNL     1       7.433   0.297   2.107  1.00  0.00     0.179 C 
HETATM   32 CL1  UNL     1       8.794  -0.860   2.139  1.00  0.00    -0.124 Cl
ENDBRANCH  29  31
ENDBRANCH   4  28
TORSDOF 3
