REMARK  5 active torsions:
REMARK  status: ('A' for Active; 'I' for Inactive)
REMARK    1  A    between atoms: C1_2  and  C2_3 
REMARK       I    between atoms: C1_2  and  N2_13 
REMARK    2  A    between atoms: C3_4  and  C4_5 
REMARK    3  A    between atoms: C4_5  and  C5_6 
REMARK    4  A    between atoms: C5_6  and  N1_7 
REMARK    5  A    between atoms: N2_13  and  C11_14 
ROOT
HETATM    1  O1  UNL     1       2.261  -2.253  -0.911  1.00  0.00    -0.258 OA
HETATM    2  C1  UNL     1       1.707  -1.231  -0.403  1.00  0.00     0.302 C 
HETATM    3  N2  UNL     1       2.539  -0.150   0.008  1.00  0.00    -0.303 N 
HETATM    4  H15 UNL     1       2.000   0.668   0.426  1.00  0.00     0.171 HD
ENDROOT
BRANCH   2   5
HETATM    5  C2  UNL     1       0.278  -1.178  -0.254  1.00  0.00    -0.005 C 
HETATM    6  C3  UNL     1      -0.935  -1.123  -0.146  1.00  0.00    -0.095 C 
BRANCH   6   7
HETATM    7  C4  UNL     1      -2.404  -1.042   0.004  1.00  0.00     0.114 C 
BRANCH   7   8
HETATM    8  C5  UNL     1      -2.912   0.363  -0.246  1.00  0.00     0.129 C 
BRANCH   8   9
HETATM    9  N1  UNL     1      -4.299   0.545  -0.127  1.00  0.00    -0.412 N 
HETATM   10  C6  UNL     1      -5.158  -0.037  -1.056  1.00  0.00     0.117 C 
HETATM   11  C7  UNL     1      -6.537  -0.376  -0.556  1.00  0.00     0.019 C 
HETATM   12  C8  UNL     1      -6.612  -0.175   0.929  1.00  0.00     0.003 C 
HETATM   13  C9  UNL     1      -6.217   1.227   1.248  1.00  0.00     0.019 C 
HETATM   14  C10 UNL     1      -4.805   1.446   0.822  1.00  0.00     0.117 C 
ENDBRANCH   8   9
ENDBRANCH   7   8
ENDBRANCH   6   7
ENDBRANCH   2   5
BRANCH   3  15
HETATM   15  C11 UNL     1       3.956  -0.075  -0.084  1.00  0.00     0.101 A 
HETATM   16  C12 UNL     1       4.391   0.946  -0.826  1.00  0.00     0.024 A 
HETATM   17  C13 UNL     1       5.866   1.044  -0.936  1.00  0.00     0.066 A 
HETATM   18  C14 UNL     1       6.332  -0.150  -0.130  1.00  0.00     0.059 A 
HETATM   19  C15 UNL     1       7.282  -1.028  -0.779  1.00  0.00     0.024 A 
HETATM   20  C17 UNL     1       7.379   0.110   0.879  1.00  0.00     0.086 A 
HETATM   21  N3  UNL     1       5.111  -0.758   0.373  1.00  0.00    -0.363 N 
HETATM   22  C16 UNL     1       8.213  -0.803   0.106  1.00  0.00     0.013 A 
HETATM   23 CL1  UNL     1       9.778  -1.590  -0.043  1.00  0.00    -0.089 Cl
HETATM   24  H22 UNL     1       4.943  -1.573   0.983  1.00  0.00     0.162 HD
ENDBRANCH   3  15
TORSDOF 5
