REMARK  7 active torsions:
REMARK  status: ('A' for Active; 'I' for Inactive)
REMARK    1  A    between atoms: C2_2  and  C3_3 
REMARK    2  A    between atoms: C7_9  and  N3_10 
REMARK    3  A    between atoms: N3_10  and  C8_11 
REMARK    4  A    between atoms: C15_21  and  C16_22 
REMARK    5  A    between atoms: C16_22  and  N4_23 
REMARK    6  A    between atoms: N4_23  and  C18_25 
REMARK    7  A    between atoms: C18_25  and  C19_26 
REMARK       I    between atoms: C19_26  and  N5_28 
ROOT
HETATM    1  C3  UNL     1       0.977  -2.251  -0.872  1.00  0.00    -0.048 A 
HETATM    2  C4  UNL     1      -0.099  -2.916  -1.419  1.00  0.00     0.040 A 
HETATM    3  C5  UNL     1      -1.379  -2.417  -1.284  1.00  0.00     0.072 A 
HETATM    4  N1  UNL     1      -2.410  -3.098  -1.840  1.00  0.00    -0.241 NA
HETATM    5  C6  UNL     1      -3.660  -2.590  -1.700  1.00  0.00     0.236 A 
HETATM    6  N2  UNL     1      -3.886  -1.426  -1.021  1.00  0.00    -0.224 NA
HETATM    7  C7  UNL     1      -2.855  -0.763  -0.475  1.00  0.00     0.142 A 
HETATM    8  C13 UNL     1      -1.570  -1.241  -0.592  1.00  0.00     0.039 A 
HETATM    9  C14 UNL     1      -0.485  -0.587  -0.052  1.00  0.00     0.027 A 
HETATM   10  C15 UNL     1       0.822  -1.076  -0.179  1.00  0.00    -0.033 A 
ENDROOT
BRANCH   7  11
HETATM   11  N3  UNL     1      -3.130   0.422   0.206  1.00  0.00    -0.337 N 
HETATM   12  H8  UNL     1      -2.561   1.122   0.717  1.00  0.00     0.167 HD
BRANCH  11  13
HETATM   13  C8  UNL     1      -4.411   1.018   0.375  1.00  0.00     0.080 A 
HETATM   14  C9  UNL     1      -5.035   1.071   1.564  1.00  0.00     0.034 A 
HETATM   15  C10 UNL     1      -6.330   1.634   1.914  1.00  0.00     0.010 A 
HETATM   16  C11 UNL     1      -7.143   2.216   1.066  1.00  0.00     0.058 A 
HETATM   17  S1  UNL     1      -6.537   2.283  -0.637  1.00  0.00    -0.036 SA
HETATM   18 CL1  UNL     1      -7.393   3.522  -2.077  1.00  0.00    -0.044 Cl
HETATM   19  C12 UNL     1      -5.053   1.593  -0.828  1.00  0.00     0.188 A 
HETATM   20  F1  UNL     1      -4.505   1.586  -2.062  1.00  0.00    -0.195 F 
ENDBRANCH  11  13
ENDBRANCH   7  11
BRANCH  10  21
HETATM   21  C16 UNL     1       1.844  -0.157   0.381  1.00  0.00     0.156 C 
BRANCH  21  22
HETATM   22  N4  UNL     1       2.278   0.884  -0.455  1.00  0.00    -0.404 N 
HETATM   23  C17 UNL     1       2.773   0.509  -1.714  1.00  0.00     0.144 C 
BRANCH  22  24
HETATM   24  C18 UNL     1       2.864   2.005   0.180  1.00  0.00     0.219 C 
BRANCH  24  25
HETATM   25  C19 UNL     1       4.163   1.680   0.775  1.00  0.00     0.234 C 
HETATM   26  O1  UNL     1       4.643   0.499   0.687  1.00  0.00    -0.272 OA
HETATM   27  N5  UNL     1       4.963   2.613   1.471  1.00  0.00    -0.364 N 
HETATM   28  C20 UNL     1       6.251   2.400   2.093  1.00  0.00     0.149 C 
HETATM   29  H20 UNL     1       4.529   3.567   1.519  1.00  0.00     0.161 HD
ENDBRANCH  24  25
ENDBRANCH  22  24
ENDBRANCH  21  22
ENDBRANCH  10  21
BRANCH   1  30
HETATM   30  C2  UNL     1       2.309  -2.856  -0.966  1.00  0.00     0.035 C 
HETATM   31  C1  UNL     1       2.684  -3.559   0.322  1.00  0.00     0.010 C 
ENDBRANCH   1  30
TORSDOF 7
