REMARK  8 active torsions:
REMARK  status: ('A' for Active; 'I' for Inactive)
REMARK    1  A    between atoms: N1_8  and  C7_9 
REMARK    2  A    between atoms: C9_11  and  C10_12 
REMARK    3  A    between atoms: N2_13  and  C11_14 
REMARK    4  A    between atoms: C11_14  and  N3_15 
REMARK       I    between atoms: N3_15  and  C12_16 
REMARK    5  A    between atoms: C12_16  and  C13_18 
REMARK    6  A    between atoms: C14_19  and  C15_20 
REMARK    7  A    between atoms: C15_20  and  C16_21 
REMARK    8  A    between atoms: C16_21  and  N4_22 
ROOT
HETATM    1  C10 UNL     1      -2.090  -0.819  -0.983  1.00  0.00     0.144 C 
HETATM    2  N2  UNL     1      -2.293  -1.878  -0.278  1.00  0.00    -0.280 NA
ENDROOT
BRANCH   2   3
HETATM    3  C11 UNL     1      -1.263  -2.880  -0.101  1.00  0.00     0.273 C 
BRANCH   3   4
HETATM    4  N3  UNL     1       0.033  -2.458  -0.590  1.00  0.00    -0.332 N 
HETATM    5  C12 UNL     1       0.679  -1.311  -0.056  1.00  0.00     0.297 C 
HETATM    6  O1  UNL     1       0.177  -0.604   0.856  1.00  0.00    -0.258 OA
HETATM    7  H10 UNL     1       0.504  -3.003  -1.348  1.00  0.00     0.165 HD
BRANCH   5   8
HETATM    8  C13 UNL     1       1.965  -0.962  -0.599  1.00  0.00    -0.006 C 
HETATM    9  C14 UNL     1       3.062  -0.686  -1.063  1.00  0.00    -0.095 C 
BRANCH   9  10
HETATM   10  C15 UNL     1       4.358  -0.369  -1.635  1.00  0.00     0.124 C 
BRANCH  10  11
HETATM   11  C16 UNL     1       5.055   0.699  -0.867  1.00  0.00     0.284 C 
BRANCH  11  12
HETATM   12  N4  UNL     1       5.322   0.399   0.509  1.00  0.00     0.089 N 
HETATM   13  C17 UNL     1       6.306  -0.646   0.686  1.00  0.00     0.272 C 
HETATM   14  C18 UNL     1       7.624  -0.302   0.029  1.00  0.00     0.030 C 
HETATM   15  C19 UNL     1       8.174   1.003   0.546  1.00  0.00     0.003 C 
HETATM   16  C20 UNL     1       7.112   2.075   0.510  1.00  0.00     0.030 C 
HETATM   17  C21 UNL     1       5.835   1.590   1.157  1.00  0.00     0.272 C 
ENDBRANCH  11  12
ENDBRANCH  10  11
ENDBRANCH   9  10
ENDBRANCH   5   8
ENDBRANCH   3   4
ENDBRANCH   2   3
BRANCH   1  18
HETATM   18  C9  UNL     1      -3.259   0.083  -1.046  1.00  0.00     0.079 A 
HETATM   19  C8  UNL     1      -4.442  -0.241  -0.379  1.00  0.00     0.084 A 
HETATM   20  C7  UNL     1      -5.556   0.577  -0.416  1.00  0.00     0.138 A 
HETATM   21  N6  UNL     1      -5.479   1.727  -1.126  1.00  0.00    -0.224 NA
HETATM   22  C22 UNL     1      -4.318   2.010  -1.759  1.00  0.00     0.236 A 
HETATM   23  N5  UNL     1      -3.228   1.234  -1.738  1.00  0.00    -0.241 NA
BRANCH  20  24
HETATM   24  N1  UNL     1      -6.772   0.275   0.250  1.00  0.00    -0.305 N 
HETATM   25  C2  UNL     1      -7.201   0.609   1.562  1.00  0.00     0.069 A 
HETATM   26  C1  UNL     1      -6.313   1.307   2.241  1.00  0.00     0.047 C 
HETATM   27  C3  UNL     1      -8.485   0.209   2.068  1.00  0.00     0.142 A 
HETATM   28  F1  UNL     1      -8.852   0.544   3.309  1.00  0.00    -0.204 F 
HETATM   29  C4  UNL     1      -9.235  -0.489   1.229  1.00  0.00     0.046 A 
HETATM   30  C5  UNL     1      -8.875  -0.874  -0.129  1.00  0.00     0.021 A 
HETATM   31  C6  UNL     1      -7.673  -0.489  -0.578  1.00  0.00     0.099 A 
ENDBRANCH  20  24
ENDBRANCH   1  18
TORSDOF 8
