REMARK  7 active torsions:
REMARK  status: ('A' for Active; 'I' for Inactive)
REMARK    1  A    between atoms: C1_2  and  C2_3 
REMARK       I    between atoms: C1_2  and  N2_13 
REMARK    2  A    between atoms: C3_4  and  C4_5 
REMARK    3  A    between atoms: C4_5  and  C5_6 
REMARK    4  A    between atoms: C5_6  and  N1_7 
REMARK    5  A    between atoms: N2_13  and  C11_14 
REMARK    6  A    between atoms: C16_23  and  N7_24 
REMARK    7  A    between atoms: N7_24  and  C17_25 
ROOT
HETATM    1  C11 UNL     1      -1.909  -2.093  -0.222  1.00  0.00     0.131 A 
HETATM    2  C12 UNL     1      -2.951  -1.326   0.249  1.00  0.00     0.068 A 
HETATM    3  C13 UNL     1      -4.212  -1.883   0.243  1.00  0.00     0.045 A 
HETATM    4  C14 UNL     1      -4.485  -3.157  -0.207  1.00  0.00     0.110 A 
HETATM    5  C15 UNL     1      -3.391  -3.858  -0.662  1.00  0.00     0.153 A 
HETATM    6  N3  UNL     1      -2.155  -3.343  -0.667  1.00  0.00    -0.241 NA
HETATM    7  N4  UNL     1      -5.687  -3.655  -0.200  1.00  0.00    -0.157 NA
HETATM    8  N5  UNL     1      -6.783  -2.927   0.265  1.00  0.00    -0.218 N 
HETATM    9  N6  UNL     1      -6.514  -1.634   0.723  1.00  0.00    -0.268 N 
HETATM   10  C16 UNL     1      -5.175  -1.101   0.707  1.00  0.00     0.134 A 
HETATM   11  H18 UNL     1      -7.765  -3.282   0.291  1.00  0.00     0.210 HD
HETATM   12  H19 UNL     1      -7.331  -1.065   1.080  1.00  0.00     0.190 HD
ENDROOT
BRANCH   1  13
HETATM   13  N2  UNL     1      -0.560  -1.667  -0.280  1.00  0.00    -0.301 N 
HETATM   14  C1  UNL     1       0.151  -1.005  -1.303  1.00  0.00     0.302 C 
HETATM   15  O1  UNL     1      -0.427  -0.695  -2.397  1.00  0.00    -0.258 OA
HETATM   16  H15 UNL     1      -0.092  -1.930   0.634  1.00  0.00     0.171 HD
BRANCH  14  17
HETATM   17  C2  UNL     1       1.537  -0.670  -1.129  1.00  0.00    -0.005 C 
HETATM   18  C3  UNL     1       2.724  -0.401  -0.992  1.00  0.00    -0.095 C 
BRANCH  18  19
HETATM   19  C4  UNL     1       4.148  -0.088  -0.834  1.00  0.00     0.124 C 
BRANCH  19  20
HETATM   20  C5  UNL     1       4.438   0.217   0.602  1.00  0.00     0.284 C 
BRANCH  20  21
HETATM   21  N1  UNL     1       5.822   0.539   0.857  1.00  0.00     0.089 N 
HETATM   22  C6  UNL     1       6.228   1.781   0.278  1.00  0.00     0.272 C 
HETATM   23  C7  UNL     1       7.705   1.977   0.526  1.00  0.00     0.030 C 
HETATM   24  C8  UNL     1       8.420   1.018  -0.407  1.00  0.00     0.003 C 
HETATM   25  C9  UNL     1       7.693  -0.289  -0.534  1.00  0.00     0.030 C 
HETATM   26  C10 UNL     1       6.738  -0.530   0.608  1.00  0.00     0.272 C 
ENDBRANCH  20  21
ENDBRANCH  19  20
ENDBRANCH  18  19
ENDBRANCH  14  17
ENDBRANCH   1  13
BRANCH  10  27
HETATM   27  N7  UNL     1      -5.048   0.226   1.201  1.00  0.00    -0.341 N 
HETATM   28  H20 UNL     1      -4.484   0.509   2.042  1.00  0.00     0.167 HD
BRANCH  27  29
HETATM   29  C17 UNL     1      -5.736   1.250   0.507  1.00  0.00     0.035 A 
HETATM   30  C18 UNL     1      -6.505   0.996  -0.607  1.00  0.00     0.032 A 
HETATM   31  C19 UNL     1      -7.198   1.971  -1.321  1.00  0.00     0.046 A 
HETATM   32  C20 UNL     1      -7.115   3.298  -0.890  1.00  0.00     0.138 A 
HETATM   33  F1  UNL     1      -7.795   4.226  -1.597  1.00  0.00    -0.204 F 
HETATM   34  C21 UNL     1      -6.349   3.582   0.226  1.00  0.00     0.074 A 
HETATM   35 CL1  UNL     1      -6.302   5.268   0.693  1.00  0.00    -0.081 Cl
HETATM   36  C22 UNL     1      -5.686   2.572   0.892  1.00  0.00     0.056 A 
ENDBRANCH  27  29
ENDBRANCH  10  27
TORSDOF 7
