REMARK  7 active torsions:
REMARK  status: ('A' for Active; 'I' for Inactive)
REMARK    1  A    between atoms: N1_1  and  C1_2 
REMARK    2  A    between atoms: N2_7  and  C6_8 
REMARK    3  A    between atoms: C6_8  and  C7_9 
REMARK    4  A    between atoms: C7_9  and  C8_10 
REMARK    5  A    between atoms: C8_10  and  C9_11 
REMARK       I    between atoms: C9_11  and  N3_13 
REMARK    6  A    between atoms: N3_13  and  C10_14 
REMARK    7  A    between atoms: C13_17  and  C14_18 
ROOT
HETATM    1  C10 UNL     1       2.007  -1.293   0.813  1.00  0.00     0.130 A 
HETATM    2  C11 UNL     1       3.211  -1.001   0.214  1.00  0.00     0.066 A 
HETATM    3  C12 UNL     1       4.267  -1.853   0.291  1.00  0.00     0.027 A 
HETATM    4  C13 UNL     1       5.415  -1.430  -0.340  1.00  0.00     0.081 A 
HETATM    5  N4  UNL     1       6.479  -2.252  -0.257  1.00  0.00    -0.240 NA
HETATM    6  C20 UNL     1       6.394  -3.434   0.422  1.00  0.00     0.234 A 
HETATM    7  N5  UNL     1       5.237  -3.811   1.029  1.00  0.00    -0.240 NA
HETATM    8  C21 UNL     1       4.141  -3.034   0.983  1.00  0.00     0.088 A 
HETATM    9  C22 UNL     1       2.934  -3.322   1.582  1.00  0.00     0.151 A 
HETATM   10  N6  UNL     1       1.907  -2.457   1.484  1.00  0.00    -0.241 NA
ENDROOT
BRANCH   1  11
HETATM   11  N3  UNL     1       0.914  -0.394   0.731  1.00  0.00    -0.312 N 
HETATM   12  C9  UNL     1      -0.335  -0.576   1.344  1.00  0.00     0.223 C 
HETATM   13  O1  UNL     1      -0.542  -1.630   2.046  1.00  0.00    -0.273 OA
HETATM   14  H18 UNL     1       1.031   0.499   0.165  1.00  0.00     0.170 HD
BRANCH  12  15
HETATM   15  C8  UNL     1      -1.450   0.348   1.259  1.00  0.00     0.105 C 
BRANCH  15  16
HETATM   16  C7  UNL     1      -2.647   0.025   2.105  1.00  0.00     0.040 C 
BRANCH  16  17
HETATM   17  C6  UNL     1      -3.665   1.113   1.855  1.00  0.00     0.275 C 
BRANCH  17  18
HETATM   18  N2  UNL     1      -3.999   1.128   0.454  1.00  0.00     0.121 N 
HETATM   19  C1  UNL     1      -4.689  -0.062   0.015  1.00  0.00     0.451 C 
HETATM   20  C2  UNL     1      -6.135  -0.148   0.417  1.00  0.00     0.068 C 
HETATM   21  C3  UNL     1      -6.859   1.148   0.517  1.00  0.00     0.006 C 
HETATM   22  C4  UNL     1      -6.126   2.143  -0.339  1.00  0.00     0.030 C 
HETATM   23  C5  UNL     1      -4.716   2.328   0.072  1.00  0.00     0.275 C 
BRANCH  19  24
HETATM   24  N1  UNL     1      -4.540  -0.177  -1.418  1.00  0.00     0.112 N 
HETATM   25  H1  UNL     1      -5.464  -0.460  -1.808  1.00  0.00     0.315 HD
HETATM   26  H2  UNL     1      -3.802  -0.908  -1.621  1.00  0.00     0.315 HD
ENDBRANCH  19  24
ENDBRANCH  17  18
ENDBRANCH  16  17
ENDBRANCH  15  16
ENDBRANCH  12  15
ENDBRANCH   1  11
BRANCH   4  27
HETATM   27  C14 UNL     1       5.671  -0.229  -1.083  1.00  0.00    -0.005 A 
HETATM   28  C15 UNL     1       6.827   0.459  -0.693  1.00  0.00     0.017 A 
HETATM   29  C16 UNL     1       7.264   1.642  -1.299  1.00  0.00     0.045 A 
HETATM   30  C17 UNL     1       6.511   2.154  -2.335  1.00  0.00     0.138 A 
HETATM   31  F1  UNL     1       6.918   3.302  -2.940  1.00  0.00    -0.204 F 
HETATM   32  C18 UNL     1       5.371   1.493  -2.734  1.00  0.00     0.073 A 
HETATM   33 CL1  UNL     1       4.388   2.126  -4.051  1.00  0.00    -0.081 Cl
HETATM   34  C19 UNL     1       4.960   0.326  -2.121  1.00  0.00     0.041 A 
ENDBRANCH   4  27
TORSDOF 7
