REMARK  1 active torsions:
REMARK  status: ('A' for Active; 'I' for Inactive)
REMARK    1  A    between atoms: N1_1  and  C1_2 
ROOT
HETATM    1  C1  UNL     1       2.276   0.506  -0.802  1.00  0.00     0.357 C 
HETATM    2  C2  UNL     1       3.317   1.569  -0.762  1.00  0.00     0.076 C 
HETATM    3  C3  UNL     1       4.708   0.969  -0.815  1.00  0.00     0.006 C 
HETATM    4  C4  UNL     1       4.800   0.074   0.404  1.00  0.00     0.030 C 
HETATM    5  C5  UNL     1       3.798  -1.044   0.294  1.00  0.00     0.276 C 
HETATM    6  N2  UNL     1       2.772  -0.852  -0.661  1.00  0.00     0.134 N 
HETATM    7  C6  UNL     1       1.425  -1.133  -0.168  1.00  0.00     0.237 C 
HETATM    8  C7  UNL     1       1.230  -2.282   0.725  1.00  0.00     0.042 C 
HETATM    9  C8  UNL     1       0.303  -3.346   0.176  1.00  0.00     0.083 C 
HETATM   10  C9  UNL     1      -1.097  -2.940   0.023  1.00  0.00     0.359 A 
HETATM   11  O1  UNL     1      -1.561  -1.856   0.441  1.00  0.00    -0.144 OA
HETATM   12  N3  UNL     1      -2.499  -2.644  -0.185  1.00  0.00     0.135 N 
HETATM   13  C10 UNL     1      -3.222  -1.488   0.213  1.00  0.00     0.264 A 
HETATM   14  C11 UNL     1      -3.090  -0.194  -0.179  1.00  0.00     0.077 A 
HETATM   15  C12 UNL     1      -3.782   0.901   0.260  1.00  0.00     0.027 A 
HETATM   16  C13 UNL     1      -3.544   2.175  -0.202  1.00  0.00     0.070 A 
HETATM   17  N4  UNL     1      -4.278   3.172   0.315  1.00  0.00    -0.241 NA
HETATM   18  C14 UNL     1      -5.223   2.907   1.267  1.00  0.00     0.234 A 
HETATM   19  N5  UNL     1      -5.468   1.651   1.734  1.00  0.00    -0.240 NA
HETATM   20  C15 UNL     1      -4.735   0.648   1.220  1.00  0.00     0.088 A 
HETATM   21  C16 UNL     1      -4.901  -0.675   1.647  1.00  0.00     0.151 A 
HETATM   22  N6  UNL     1      -4.159  -1.710   1.151  1.00  0.00    -0.232 NA
HETATM   23  C17 UNL     1      -2.547   2.496  -1.207  1.00  0.00     0.029 C 
HETATM   24  C18 UNL     1      -1.247   2.148  -1.149  1.00  0.00    -0.015 C 
HETATM   25  C19 UNL     1      -0.087   1.520  -0.525  1.00  0.00     0.138 C 
HETATM   26  C20 UNL     1       0.188   0.840   0.627  1.00  0.00     0.102 C 
HETATM   27  F1  UNL     1      -0.076   0.251   1.883  1.00  0.00    -0.248 F 
HETATM   28  C21 UNL     1       1.546   0.240   0.495  1.00  0.00     0.124 C 
HETATM   29  H16 UNL     1      -3.085  -3.376  -0.700  1.00  0.00     0.331 HD
ENDROOT
BRANCH   1  30
HETATM   30  N1  UNL     1       1.383   0.546  -1.939  1.00  0.00     0.119 N 
HETATM   31  H1  UNL     1       1.571  -0.244  -2.609  1.00  0.00     0.316 HD
HETATM   32  H2  UNL     1       1.458   1.454  -2.462  1.00  0.00     0.316 HD
ENDBRANCH   1  30
TORSDOF 1
