REMARK  0 active torsions:
REMARK  status: ('A' for Active; 'I' for Inactive)
ROOT
HETATM    1  F1  UNL     1       6.243   0.098  -2.273  1.00  0.00    -0.370 F 
HETATM    2  C1  UNL     1       5.228  -0.554  -1.714  1.00  0.00     0.101 A 
HETATM    3  C2  UNL     1       4.167  -1.246  -1.211  1.00  0.00     0.118 C 
HETATM    4  C3  UNL     1       3.888  -1.276   0.297  1.00  0.00     0.045 C 
HETATM    5  C4  UNL     1       2.462  -0.950   0.547  1.00  0.00    -0.048 C 
HETATM    6  C5  UNL     1       1.707  -1.872   0.838  1.00  0.00     0.087 C 
HETATM    7  N1  UNL     1       0.607  -2.718   1.192  1.00  0.00    -0.388 N 
HETATM    8  C6  UNL     1      -0.484  -3.557   1.541  1.00  0.00     0.213 C 
HETATM    9  C7  UNL     1      -1.669  -2.826   1.036  1.00  0.00    -0.085 C 
HETATM   10  C8  UNL     1      -2.564  -2.275   0.632  1.00  0.00    -0.074 C 
HETATM   11  C9  UNL     1      -3.762  -1.534   0.054  1.00  0.00     0.369 C 
HETATM   12  N2  UNL     1      -3.106  -0.524  -0.773  1.00  0.00     0.130 N 
HETATM   13  C10 UNL     1      -3.945   0.026  -1.760  1.00  0.00     0.277 C 
HETATM   14  C11 UNL     1      -4.403   1.427  -1.375  1.00  0.00     0.030 C 
HETATM   15  C12 UNL     1      -4.740   1.435   0.116  1.00  0.00     0.006 C 
HETATM   16  C13 UNL     1      -3.472   1.248   0.866  1.00  0.00     0.067 C 
HETATM   17  C14 UNL     1      -2.420   0.447   0.098  1.00  0.00     0.388 C 
HETATM   18  O1  UNL     1      -1.583  -0.264   0.879  1.00  0.00    -0.246 OA
HETATM   19  N3  UNL     1      -0.373   0.126   1.162  1.00  0.00    -0.269 N 
HETATM   20  C15 UNL     1       0.904   0.711   0.711  1.00  0.00     0.182 A 
HETATM   21  N4  UNL     1       0.174   1.859   0.722  1.00  0.00    -0.183 NA
HETATM   22  C16 UNL     1       0.729   3.058   0.331  1.00  0.00     0.094 A 
HETATM   23  N5  UNL     1       1.256   1.759   0.401  1.00  0.00     0.000 N 
HETATM   24  C17 UNL     1       2.565   1.704  -0.002  1.00  0.00     0.253 A 
HETATM   25  C18 UNL     1       2.129   0.435   0.376  1.00  0.00     0.090 A 
HETATM   26  N6  UNL     1       3.889   1.176  -0.354  1.00  0.00     0.110 N 
HETATM   27  C19 UNL     1       5.052   1.997  -0.838  1.00  0.00     0.287 A 
HETATM   28  C20 UNL     1       5.646   0.932  -1.542  1.00  0.00     0.199 A 
HETATM   29 CL1  UNL     1       6.976   2.037  -2.115  1.00  0.00    -0.081 Cl
HETATM   30  H5  UNL     1       0.806  -2.041   2.066  1.00  0.00     0.159 HD
HETATM   31  H19 UNL     1      -0.697  -0.192   2.085  1.00  0.00     0.190 HD
HETATM   32  H21 UNL     1       3.834   2.185  -0.481  1.00  0.00     0.349 HD
ENDROOT
TORSDOF 0
