REMARK  1 active torsions:
REMARK  status: ('A' for Active; 'I' for Inactive)
REMARK    1  A    between atoms: C9_11  and  C10_12 
ROOT
HETATM    1  F1  UNL     1      -2.346  -4.057  -1.356  1.00  0.00    -0.210 F 
HETATM    2  C1  UNL     1      -2.232  -2.992  -0.586  1.00  0.00     0.105 A 
HETATM    3  C2  UNL     1      -2.254  -2.047   0.603  1.00  0.00     0.030 A 
HETATM    4  C3  UNL     1      -1.779  -0.718  -0.006  1.00  0.00     0.047 A 
HETATM    5  C4  UNL     1      -2.126   0.395  -0.470  1.00  0.00     0.018 A 
HETATM    6  C5  UNL     1      -2.188  -0.605  -1.854  1.00  0.00     0.018 A 
HETATM    7  C6  UNL     1      -1.790  -1.775  -1.206  1.00  0.00     0.057 A 
HETATM    8  C7  UNL     1      -0.430  -1.214  -0.615  1.00  0.00     0.050 A 
HETATM    9  C8  UNL     1       0.292  -2.178   0.167  1.00  0.00     0.178 C 
HETATM   10  O1  UNL     1       1.356  -1.624   0.820  1.00  0.00    -0.360 OA
HETATM   11  C9  UNL     1       2.331  -1.040   0.057  1.00  0.00     0.285 C 
HETATM   12  N2  UNL     1       2.547   0.310   0.553  1.00  0.00    -0.264 NA
HETATM   13  C11 UNL     1       1.673   1.205   0.374  1.00  0.00     0.127 C 
HETATM   14  C12 UNL     1       1.713   2.580   0.790  1.00  0.00     0.235 C 
HETATM   15  N3  UNL     1       1.105   3.713   0.815  1.00  0.00    -0.277 NA
HETATM   16  C13 UNL     1      -0.193   3.696   0.168  1.00  0.00     0.168 C 
HETATM   17  N4  UNL     1      -0.967   2.845   0.747  1.00  0.00    -0.272 NA
HETATM   18  C14 UNL     1      -2.295   2.666   0.271  1.00  0.00     0.270 C 
HETATM   19  N5  UNL     1      -2.482   1.697  -0.750  1.00  0.00    -0.374 N 
HETATM   20  H13 UNL     1      -2.886   2.048  -1.638  1.00  0.00     0.161 HD
ENDROOT
BRANCH  11  21
HETATM   21  C10 UNL     1       3.648  -1.767   0.232  1.00  0.00     0.151 C 
HETATM   22  N1  UNL     1       4.628  -1.278  -0.469  1.00  0.00    -0.227 NA
HETATM   23  I1  UNL     1       6.524  -2.056  -0.433  1.00  0.00     0.083 I 
ENDBRANCH  11  21
TORSDOF 1
