REMARK  7 active torsions:
REMARK  status: ('A' for Active; 'I' for Inactive)
REMARK    1  A    between atoms: C2_2  and  N1_3 
REMARK    2  A    between atoms: N1_3  and  C3_4 
REMARK    3  A    between atoms: N1_3  and  C5_6 
REMARK    4  A    between atoms: C5_6  and  C6_7 
REMARK    5  A    between atoms: C6_7  and  C7_8 
REMARK    6  A    between atoms: C8_9  and  C9_10 
REMARK       I    between atoms: C9_10  and  N2_12 
REMARK    7  A    between atoms: N2_12  and  C10_13 
ROOT
HETATM    1  C9  UNL     1       1.725   0.117   0.826  1.00  0.00     0.300 C 
HETATM    2  O1  UNL     1       2.271  -0.752   1.560  1.00  0.00    -0.258 OA
HETATM    3  N2  UNL     1       2.508   1.058   0.092  1.00  0.00    -0.316 N 
HETATM    4  H15 UNL     1       1.934   1.731  -0.485  1.00  0.00     0.170 HD
ENDROOT
BRANCH   3   5
HETATM    5  C10 UNL     1       3.881   0.825   0.344  1.00  0.00     0.036 A 
HETATM    6  C11 UNL     1       4.599   1.437   1.357  1.00  0.00     0.032 A 
HETATM    7  C12 UNL     1       5.952   1.126   1.517  1.00  0.00     0.035 A 
HETATM    8  C13 UNL     1       6.553   0.207   0.657  1.00  0.00     0.069 A 
HETATM    9  C14 UNL     1       5.796  -0.373  -0.336  1.00  0.00     0.024 A 
HETATM   10  N4  UNL     1       7.878  -0.313   0.571  1.00  0.00    -0.258 NA
HETATM   11  C15 UNL     1       4.450  -0.081  -0.517  1.00  0.00     0.045 A 
HETATM   12  C16 UNL     1       6.701  -1.276  -1.046  1.00  0.00     0.078 A 
HETATM   13  N3  UNL     1       6.355  -2.008  -2.069  1.00  0.00    -0.298 NA
HETATM   14  C17 UNL     1       7.995  -1.163  -0.395  1.00  0.00     0.149 A 
HETATM   15  H19 UNL     1       5.366  -1.970  -2.440  1.00  0.00     0.187 HD
ENDBRANCH   3   5
BRANCH   1  16
HETATM   16  C8  UNL     1       0.287   0.072   0.794  1.00  0.00    -0.005 C 
HETATM   17  C7  UNL     1      -0.921   0.036   0.786  1.00  0.00    -0.095 C 
BRANCH  17  18
HETATM   18  C6  UNL     1      -2.398  -0.022   0.797  1.00  0.00     0.114 C 
BRANCH  18  19
HETATM   19  C5  UNL     1      -2.900   0.064  -0.602  1.00  0.00     0.129 C 
BRANCH  19  20
HETATM   20  N1  UNL     1      -4.319   0.023  -0.730  1.00  0.00    -0.412 N 
BRANCH  20  21
HETATM   21  C2  UNL     1      -4.977  -1.183  -0.425  1.00  0.00     0.112 C 
HETATM   22  C1  UNL     1      -5.212  -1.467   1.021  1.00  0.00     0.026 C 
ENDBRANCH  20  21
BRANCH  20  23
HETATM   23  C3  UNL     1      -4.998   1.233  -0.470  1.00  0.00     0.112 C 
HETATM   24  C4  UNL     1      -6.181   1.379  -1.399  1.00  0.00     0.026 C 
ENDBRANCH  20  23
ENDBRANCH  19  20
ENDBRANCH  18  19
ENDBRANCH  17  18
ENDBRANCH   1  16
TORSDOF 7
