REMARK  7 active torsions:
REMARK  status: ('A' for Active; 'I' for Inactive)
REMARK    1  A    between atoms: C2_2  and  N1_3 
REMARK    2  A    between atoms: N1_3  and  C3_4 
REMARK    3  A    between atoms: N1_3  and  C4_6 
REMARK    4  A    between atoms: C4_6  and  C5_7 
REMARK    5  A    between atoms: C5_7  and  C6_8 
REMARK    6  A    between atoms: C7_9  and  C8_10 
REMARK    7  A    between atoms: C16_20  and  N4_21 
ROOT
HETATM    1  C8  UNL     1      -1.997   0.876   1.429  1.00  0.00     0.297 C 
HETATM    2  C9  UNL     1      -2.203   2.066   0.491  1.00  0.00     0.019 C 
HETATM    3  C10 UNL     1      -2.870   2.203  -0.680  1.00  0.00    -0.002 C 
HETATM    4  C11 UNL     1      -3.753   1.042  -1.010  1.00  0.00     0.013 C 
HETATM    5  C12 UNL     1      -4.155  -0.090  -0.244  1.00  0.00     0.168 A 
HETATM    6  N2  UNL     1      -5.185  -0.537  -1.076  1.00  0.00    -0.261 NA
HETATM    7  C13 UNL     1      -5.822  -1.660  -0.691  1.00  0.00     0.225 A 
HETATM    8  N3  UNL     1      -5.184  -1.922   0.396  1.00  0.00    -0.240 NA
HETATM    9  C14 UNL     1      -4.158  -1.317   1.055  1.00  0.00     0.277 A 
HETATM   10  C15 UNL     1      -3.370  -0.327   1.005  1.00  0.00     0.257 A 
HETATM   11  C16 UNL     1      -3.112  -1.174   2.141  1.00  0.00     0.301 A 
HETATM   12  N4  UNL     1      -3.059  -0.171   1.216  1.00  0.00     0.013 N 
ENDROOT
BRANCH   1  13
HETATM   13  C7  UNL     1      -0.709   0.332   1.196  1.00  0.00    -0.069 C 
HETATM   14  C6  UNL     1       0.386  -0.116   0.983  1.00  0.00    -0.102 C 
BRANCH  14  15
HETATM   15  C5  UNL     1       1.724  -0.675   0.705  1.00  0.00     0.114 C 
BRANCH  15  16
HETATM   16  C4  UNL     1       2.444   0.045  -0.399  1.00  0.00     0.137 C 
BRANCH  16  17
HETATM   17  N1  UNL     1       3.751  -0.510  -0.661  1.00  0.00    -0.359 N 
BRANCH  17  18
HETATM   18  C2  UNL     1       5.001  -0.112  -0.049  1.00  0.00     0.120 C 
HETATM   19  C1  UNL     1       5.622   0.986  -0.895  1.00  0.00     0.026 C 
ENDBRANCH  17  18
BRANCH  17  20
HETATM   20  C3  UNL     1       3.648  -1.541  -1.640  1.00  0.00     0.350 C 
HETATM   21  O1  UNL     1       2.652  -2.012  -2.274  1.00  0.00    -0.284 OA
ENDBRANCH  17  20
ENDBRANCH  16  17
ENDBRANCH  15  16
ENDBRANCH  14  15
ENDBRANCH   1  13
TORSDOF 7
