REMARK  6 active torsions:
REMARK  status: ('A' for Active; 'I' for Inactive)
REMARK    1  A    between atoms: C1_2  and  C2_3 
REMARK       I    between atoms: C1_2  and  N2_12 
REMARK    2  A    between atoms: C3_4  and  C4_5 
REMARK    3  A    between atoms: C4_5  and  C5_6 
REMARK    4  A    between atoms: N2_12  and  C10_13 
REMARK    5  A    between atoms: C13_16  and  N3_17 
REMARK    6  A    between atoms: N3_17  and  C14_18 
ROOT
HETATM    1  C10 UNL     1      -1.466   1.365   1.468  1.00  0.00     0.131 A 
HETATM    2  C11 UNL     1      -2.337   0.737   0.608  1.00  0.00     0.068 A 
HETATM    3  C12 UNL     1      -3.475   1.419   0.236  1.00  0.00     0.044 A 
HETATM    4  C13 UNL     1      -4.339   0.772  -0.634  1.00  0.00     0.142 A 
HETATM    5  N4  UNL     1      -5.432   1.462  -0.974  1.00  0.00    -0.224 NA
HETATM    6  C20 UNL     1      -5.696   2.694  -0.520  1.00  0.00     0.236 A 
HETATM    7  N5  UNL     1      -4.833   3.309   0.334  1.00  0.00    -0.240 NA
HETATM    8  C21 UNL     1      -3.711   2.685   0.726  1.00  0.00     0.089 A 
HETATM    9  C22 UNL     1      -2.820   3.318   1.603  1.00  0.00     0.151 A 
HETATM   10  N6  UNL     1      -1.708   2.618   1.947  1.00  0.00    -0.241 NA
ENDROOT
BRANCH   1  11
HETATM   11  N2  UNL     1      -0.211   0.911   2.026  1.00  0.00    -0.301 N 
HETATM   12  C1  UNL     1       0.806   1.277   1.067  1.00  0.00     0.302 C 
HETATM   13  O1  UNL     1       0.655   1.860  -0.031  1.00  0.00    -0.258 OA
HETATM   14  H13 UNL     1       0.090   0.419   2.894  1.00  0.00     0.171 HD
BRANCH  12  15
HETATM   15  C2  UNL     1       2.199   0.957   1.354  1.00  0.00    -0.005 C 
HETATM   16  C3  UNL     1       3.373   0.706   1.598  1.00  0.00    -0.094 C 
BRANCH  16  17
HETATM   17  C4  UNL     1       4.775   0.429   1.899  1.00  0.00     0.130 C 
BRANCH  17  18
HETATM   18  C5  UNL     1       5.562   0.517   0.613  1.00  0.00     0.231 C 
HETATM   19  C6  UNL     1       5.038  -0.494  -0.351  1.00  0.00     0.036 C 
HETATM   20  C7  UNL     1       6.017  -1.638  -0.598  1.00  0.00     0.004 C 
HETATM   21  C8  UNL     1       7.314  -1.041  -1.086  1.00  0.00     0.030 C 
HETATM   22  C9  UNL     1       7.763   0.131  -0.265  1.00  0.00     0.270 C 
HETATM   23  N1  UNL     1       6.959   0.326   0.930  1.00  0.00     0.088 N 
HETATM   24  H12 UNL     1       7.311   1.154   1.432  1.00  0.00     0.316 HD
ENDBRANCH  17  18
ENDBRANCH  16  17
ENDBRANCH  12  15
ENDBRANCH   1  11
BRANCH   4  25
HETATM   25  N3  UNL     1      -3.984  -0.564  -1.061  1.00  0.00    -0.340 N 
HETATM   26  H15 UNL     1      -3.077  -0.770  -1.499  1.00  0.00     0.167 HD
BRANCH  25  27
HETATM   27  C14 UNL     1      -5.061  -1.473  -0.777  1.00  0.00     0.035 A 
HETATM   28  C15 UNL     1      -4.970  -2.642  -0.028  1.00  0.00     0.032 A 
HETATM   29  C16 UNL     1      -6.067  -3.422   0.148  1.00  0.00     0.046 A 
HETATM   30  C17 UNL     1      -7.303  -3.139  -0.374  1.00  0.00     0.138 A 
HETATM   31  F1  UNL     1      -8.364  -3.974  -0.143  1.00  0.00    -0.204 F 
HETATM   32  C18 UNL     1      -7.393  -1.960  -1.130  1.00  0.00     0.074 A 
HETATM   33 CL1  UNL     1      -8.999  -1.660  -1.774  1.00  0.00    -0.081 Cl
HETATM   34  C19 UNL     1      -6.310  -1.156  -1.324  1.00  0.00     0.056 A 
ENDBRANCH  25  27
ENDBRANCH   4  25
TORSDOF 6
