REMARK  3 active torsions:
REMARK  status: ('A' for Active; 'I' for Inactive)
REMARK    1  A    between atoms: N1_2  and  C2_3 
REMARK    2  A    between atoms: C6_7  and  N2_8 
REMARK    3  A    between atoms: C13_15  and  C14_16 
ROOT
HETATM    1  C2  UNL     1      -1.778   3.375  -0.185  1.00  0.00     0.421 C 
HETATM    2  C3  UNL     1      -1.003   2.354  -0.840  1.00  0.00    -0.048 C 
HETATM    3  C4  UNL     1      -0.424   1.567  -1.321  1.00  0.00    -0.100 C 
HETATM    4  C5  UNL     1       0.330   0.514  -1.932  1.00  0.00     0.134 C 
HETATM    5  C6  UNL     1       0.827  -0.343  -0.682  1.00  0.00     0.265 C 
HETATM    6  C12 UNL     1      -0.289  -0.268   0.358  1.00  0.00    -0.011 C 
HETATM    7  C13 UNL     1      -1.233  -1.092   0.792  1.00  0.00     0.072 C 
HETATM    8  N3  UNL     1      -2.394  -0.776   1.531  1.00  0.00    -0.258 NA
HETATM    9  C21 UNL     1      -2.684   0.463   1.893  1.00  0.00     0.144 C 
HETATM   10  C22 UNL     1      -1.858   1.403   1.129  1.00  0.00     0.054 C 
HETATM   11  N4  UNL     1      -2.684   2.403   0.657  1.00  0.00    -0.245 NA
HETATM   12  C23 UNL     1      -0.403   1.003   1.148  1.00  0.00     0.099 C 
ENDROOT
BRANCH   7  13
HETATM   13  C14 UNL     1      -0.957  -2.502   0.412  1.00  0.00     0.001 A 
HETATM   14  C15 UNL     1       0.243  -3.168   0.494  1.00  0.00     0.017 A 
HETATM   15  C16 UNL     1       0.364  -4.478   0.090  1.00  0.00     0.045 A 
HETATM   16  C17 UNL     1      -0.716  -5.174  -0.412  1.00  0.00     0.138 A 
HETATM   17  F1  UNL     1      -0.495  -6.466  -0.785  1.00  0.00    -0.204 F 
HETATM   18  C18 UNL     1      -1.913  -4.511  -0.494  1.00  0.00     0.079 A 
HETATM   19 CL1  UNL     1      -3.245  -5.470  -1.146  1.00  0.00    -0.080 Cl
HETATM   20  C19 UNL     1      -2.063  -3.197  -0.096  1.00  0.00    -0.025 A 
HETATM   21  C20 UNL     1      -3.406  -2.552  -0.219  1.00  0.00     0.051 C 
ENDBRANCH   7  13
BRANCH   5  22
HETATM   22  N2  UNL     1       1.935   0.444  -0.173  1.00  0.00     0.098 N 
HETATM   23  C7  UNL     1       2.505  -0.136   1.029  1.00  0.00     0.273 C 
HETATM   24  C8  UNL     1       3.508   0.869   1.567  1.00  0.00     0.030 C 
HETATM   25  C9  UNL     1       4.692   0.806   0.611  1.00  0.00     0.003 C 
HETATM   26  C10 UNL     1       4.348   0.169  -0.687  1.00  0.00     0.030 C 
HETATM   27  C11 UNL     1       2.957   0.456  -1.199  1.00  0.00     0.273 C 
ENDBRANCH   5  22
BRANCH   1  28
HETATM   28  N1  UNL     1      -2.618   4.069  -1.076  1.00  0.00     0.115 N 
HETATM   29  C1  UNL     1      -3.416   5.091  -0.466  1.00  0.00     0.310 C 
HETATM   30  H4  UNL     1      -3.260   3.402  -1.585  1.00  0.00     0.319 HD
ENDBRANCH   1  28
TORSDOF 3
