REMARK  4 active torsions:
REMARK  status: ('A' for Active; 'I' for Inactive)
REMARK    1  A    between atoms: C3_3  and  C4_4 
REMARK       I    between atoms: C4_4  and  N1_6 
REMARK    2  A    between atoms: N1_6  and  N2_7 
REMARK    3  A    between atoms: C10_15  and  C11_16 
REMARK    4  A    between atoms: C12_17  and  C13_18 
ROOT
HETATM    1  C1  UNL     1       5.423  -1.509  -0.500  1.00  0.00     0.112 C 
HETATM    2  C2  UNL     1       4.155  -0.774  -0.407  1.00  0.00    -0.101 C 
HETATM    3  C3  UNL     1       3.123  -0.155  -0.331  1.00  0.00    -0.004 C 
ENDROOT
BRANCH   3   4
HETATM    4  C4  UNL     1       1.871   0.587  -0.215  1.00  0.00     0.315 C 
HETATM    5  O1  UNL     1       1.429   1.286  -1.173  1.00  0.00    -0.256 OA
HETATM    6  N1  UNL     1       1.070   0.563   0.999  1.00  0.00    -0.252 N 
HETATM    7  H4  UNL     1       1.435  -0.002   1.830  1.00  0.00     0.191 HD
BRANCH   6   8
HETATM    8  N2  UNL     1      -0.016   1.379   0.705  1.00  0.00    -0.260 N 
HETATM    9  C5  UNL     1       0.372   2.737   1.018  1.00  0.00     0.117 A 
HETATM   10  C6  UNL     1      -0.442   3.767   0.829  1.00  0.00     0.022 A 
HETATM   11  C7  UNL     1      -1.767   3.469   0.282  1.00  0.00     0.035 A 
HETATM   12  C8  UNL     1      -2.180   2.268  -0.022  1.00  0.00     0.089 A 
HETATM   13  N3  UNL     1      -3.459   2.038  -0.543  1.00  0.00    -0.242 NA
HETATM   14  C14 UNL     1      -1.299   1.147   0.184  1.00  0.00     0.111 A 
HETATM   15  C9  UNL     1      -3.810   0.825  -0.821  1.00  0.00     0.208 A 
HETATM   16  N4  UNL     1      -2.898  -0.232  -0.591  1.00  0.00    -0.349 N 
HETATM   17  C10 UNL     1      -1.595  -0.093  -0.070  1.00  0.00     0.064 A 
HETATM   18  H9  UNL     1      -3.357  -1.097  -0.867  1.00  0.00     0.167 HD
BRANCH  17  19
HETATM   19  C11 UNL     1      -0.769  -1.213   0.183  1.00  0.00     0.029 C 
HETATM   20  C12 UNL     1      -0.795  -2.513   0.034  1.00  0.00    -0.009 C 
BRANCH  20  21
HETATM   21  C13 UNL     1      -1.679  -3.556  -0.476  1.00  0.00     0.142 C 
HETATM   22 CL1  UNL     1      -2.114  -4.751   0.802  1.00  0.00    -0.126 Cl
ENDBRANCH  20  21
ENDBRANCH  17  19
ENDBRANCH   6   8
ENDBRANCH   3   4
TORSDOF 4
