REMARK  11 active torsions:
REMARK  status: ('A' for Active; 'I' for Inactive)
REMARK    1  A    between atoms: C2_2  and  N1_3 
REMARK    2  A    between atoms: N1_3  and  C3_4 
REMARK    3  A    between atoms: N1_3  and  C5_6 
REMARK    4  A    between atoms: C5_6  and  C6_7 
REMARK    5  A    between atoms: C6_7  and  C7_8 
REMARK    6  A    between atoms: C8_9  and  C9_10 
REMARK    7  A    between atoms: C9_10  and  N2_11 
REMARK    8  A    between atoms: N2_11  and  C10_12 
REMARK    9  A    between atoms: C10_12  and  C11_13 
REMARK   10  A    between atoms: C15_18  and  N4_19 
REMARK   11  A    between atoms: N4_19  and  C16_20 
ROOT
HETATM    1  C11 UNL     1      -2.233   0.509  -0.158  1.00  0.00     0.012 A 
HETATM    2  C12 UNL     1      -1.732   1.639   0.313  1.00  0.00    -0.012 A 
HETATM    3  C13 UNL     1      -2.305   2.632   1.232  1.00  0.00     0.049 A 
HETATM    4  C14 UNL     1      -3.650   2.253   1.715  1.00  0.00     0.155 A 
HETATM    5  N3  UNL     1      -4.152   1.048   1.186  1.00  0.00    -0.272 NA
HETATM    6  C15 UNL     1      -3.552   0.283   0.377  1.00  0.00     0.130 A 
ENDROOT
BRANCH   1   7
HETATM    7  C10 UNL     1      -1.506  -0.354  -1.076  1.00  0.00     0.312 C 
BRANCH   7   8
HETATM    8  N2  UNL     1      -1.229  -1.693  -0.587  1.00  0.00     0.098 N 
HETATM    9  H17 UNL     1      -1.004  -2.363  -1.317  1.00  0.00     0.317 HD
BRANCH   8  10
HETATM   10  C9  UNL     1      -0.280  -1.665   0.511  1.00  0.00     0.363 C 
BRANCH  10  11
HETATM   11  C8  UNL     1       1.045  -1.220   0.074  1.00  0.00    -0.076 C 
HETATM   12  C7  UNL     1       2.153  -0.833  -0.277  1.00  0.00    -0.103 C 
BRANCH  12  13
HETATM   13  C6  UNL     1       3.497  -0.354  -0.683  1.00  0.00     0.113 C 
BRANCH  13  14
HETATM   14  C5  UNL     1       4.468  -0.646   0.423  1.00  0.00     0.129 C 
BRANCH  14  15
HETATM   15  N1  UNL     1       5.802  -0.233   0.229  1.00  0.00    -0.412 N 
BRANCH  15  16
HETATM   16  C2  UNL     1       6.525  -0.912  -0.782  1.00  0.00     0.112 C 
HETATM   17  C1  UNL     1       8.014  -0.999  -0.530  1.00  0.00     0.026 C 
ENDBRANCH  15  16
BRANCH  15  18
HETATM   18  C3  UNL     1       6.112   1.140   0.259  1.00  0.00     0.112 C 
HETATM   19  C4  UNL     1       5.379   1.949   1.303  1.00  0.00     0.026 C 
ENDBRANCH  15  18
ENDBRANCH  14  15
ENDBRANCH  13  14
ENDBRANCH  12  13
ENDBRANCH  10  11
ENDBRANCH   8  10
ENDBRANCH   7   8
ENDBRANCH   1   7
BRANCH   6  20
HETATM   20  N4  UNL     1      -4.257  -0.912  -0.040  1.00  0.00    -0.341 N 
HETATM   21  H25 UNL     1      -3.607  -1.745  -0.198  1.00  0.00     0.167 HD
BRANCH  20  22
HETATM   22  C16 UNL     1      -5.702  -0.863  -0.203  1.00  0.00     0.035 A 
HETATM   23  C17 UNL     1      -6.436  -0.768   0.972  1.00  0.00     0.032 A 
HETATM   24  C18 UNL     1      -7.832  -0.728   0.816  1.00  0.00     0.046 A 
HETATM   25  C19 UNL     1      -8.330  -0.786  -0.464  1.00  0.00     0.138 A 
HETATM   26  F1  UNL     1      -9.705  -0.748  -0.571  1.00  0.00    -0.204 F 
HETATM   27  C20 UNL     1      -7.574  -0.880  -1.611  1.00  0.00     0.074 A 
HETATM   28 CL1  UNL     1      -8.357  -0.948  -3.184  1.00  0.00    -0.081 Cl
HETATM   29  C21 UNL     1      -6.193  -0.921  -1.491  1.00  0.00     0.056 A 
ENDBRANCH  20  22
ENDBRANCH   6  20
TORSDOF 11
