REMARK  7 active torsions:
REMARK  status: ('A' for Active; 'I' for Inactive)
REMARK    1  A    between atoms: C1_2  and  C2_3 
REMARK    2  A    between atoms: C3_4  and  C4_5 
REMARK    3  A    between atoms: C4_5  and  N1_6 
REMARK    4  A    between atoms: N1_6  and  C5_7 
REMARK    5  A    between atoms: C10_14  and  C11_15 
REMARK    6  A    between atoms: C11_15  and  N4_16 
REMARK    7  A    between atoms: N4_16  and  C12_17 
ROOT
HETATM    1  C5  UNL     1       2.381   1.070   0.295  1.00  0.00     0.137 A 
HETATM    2  N2  UNL     1       2.416   1.027  -1.050  1.00  0.00    -0.224 NA
HETATM    3  C6  UNL     1       1.247   0.962  -1.754  1.00  0.00     0.236 A 
HETATM    4  N3  UNL     1       0.052   0.939  -1.142  1.00  0.00    -0.241 NA
HETATM    5  C7  UNL     1      -0.090   0.977   0.188  1.00  0.00     0.080 A 
HETATM    6  C8  UNL     1       1.115   1.042   0.847  1.00  0.00     0.040 A 
HETATM    7  C9  UNL     1       0.330   1.056   2.074  1.00  0.00     0.029 A 
HETATM    8  C10 UNL     1      -0.848   0.993   1.431  1.00  0.00     0.001 A 
ENDROOT
BRANCH   8   9
HETATM    9  C11 UNL     1      -2.257   0.970   1.877  1.00  0.00     0.311 C 
BRANCH   9  10
HETATM   10  N4  UNL     1      -2.887  -0.229   1.454  1.00  0.00     0.096 N 
HETATM   11  H12 UNL     1      -2.323  -1.040   1.787  1.00  0.00     0.316 HD
BRANCH  10  12
HETATM   12  C12 UNL     1      -3.112  -0.399   0.063  1.00  0.00     0.268 C 
HETATM   13  C13 UNL     1      -3.942   0.695  -0.563  1.00  0.00     0.208 C 
HETATM   14  O1  UNL     1      -5.193   0.806   0.040  1.00  0.00    -0.365 OA
HETATM   15  C14 UNL     1      -5.744  -0.441   0.324  1.00  0.00     0.337 C 
HETATM   16  O2  UNL     1      -5.225  -1.422  -0.529  1.00  0.00    -0.365 OA
HETATM   17  C15 UNL     1      -3.927  -1.680  -0.117  1.00  0.00     0.208 C 
ENDBRANCH  10  12
ENDBRANCH   9  10
ENDBRANCH   8   9
BRANCH   1  18
HETATM   18  N1  UNL     1       3.549   1.143   1.103  1.00  0.00    -0.371 N 
HETATM   19  H7  UNL     1       3.421   1.178   2.135  1.00  0.00     0.161 HD
BRANCH  18  20
HETATM   20  C4  UNL     1       4.849   1.166   0.453  1.00  0.00     0.148 C 
BRANCH  20  21
HETATM   21  C3  UNL     1       5.003  -0.115  -0.301  1.00  0.00    -0.010 C 
HETATM   22  C2  UNL     1       4.271  -1.185  -0.490  1.00  0.00    -0.014 C 
BRANCH  22  23
HETATM   23  C1  UNL     1       4.713  -2.343  -1.328  1.00  0.00     0.141 C 
HETATM   24 CL1  UNL     1       6.336  -2.007  -1.986  1.00  0.00    -0.126 Cl
ENDBRANCH  22  23
ENDBRANCH  20  21
ENDBRANCH  18  20
ENDBRANCH   1  18
TORSDOF 7
