REMARK  7 active torsions:
REMARK  status: ('A' for Active; 'I' for Inactive)
REMARK    1  A    between atoms: C2_2  and  N1_3 
REMARK    2  A    between atoms: N1_3  and  C3_4 
REMARK    3  A    between atoms: N1_3  and  C5_6 
REMARK    4  A    between atoms: C5_6  and  C6_7 
REMARK    5  A    between atoms: C6_7  and  C7_8 
REMARK    6  A    between atoms: C8_9  and  C9_10 
REMARK       I    between atoms: C9_10  and  N2_12 
REMARK    7  A    between atoms: N2_12  and  C10_13 
ROOT
HETATM    1  C10 UNL     1      -2.683  -0.645   0.660  1.00  0.00     0.087 A 
HETATM    2  C11 UNL     1      -3.092  -0.133  -0.526  1.00  0.00     0.003 A 
HETATM    3  C12 UNL     1      -4.087  -1.025  -0.308  1.00  0.00     0.095 A 
HETATM    4  C13 UNL     1      -5.165  -0.729  -1.174  1.00  0.00     0.119 A 
HETATM    5  N3  UNL     1      -6.443  -1.117  -1.488  1.00  0.00    -0.228 NA
HETATM    6  C14 UNL     1      -6.946  -2.160  -0.734  1.00  0.00     0.230 A 
HETATM    7  N4  UNL     1      -6.027  -2.548   0.167  1.00  0.00    -0.265 NA
HETATM    8  C15 UNL     1      -4.835  -1.987   0.266  1.00  0.00     0.107 A 
HETATM    9  C16 UNL     1      -4.386  -2.517   1.500  1.00  0.00     0.001 A 
HETATM   10  C17 UNL     1      -3.426  -1.612   1.249  1.00  0.00     0.074 A 
HETATM   11  C18 UNL     1      -2.991  -1.095   2.591  1.00  0.00     0.199 C 
HETATM   12  F1  UNL     1      -3.001  -2.077   3.565  1.00  0.00    -0.247 F 
HETATM   13  C19 UNL     1      -4.185  -0.109   2.962  1.00  0.00     0.132 C 
HETATM   14  C20 UNL     1      -4.635   0.467   1.718  1.00  0.00    -0.102 C 
HETATM   15  C21 UNL     1      -5.001   0.920   0.687  1.00  0.00    -0.087 C 
HETATM   16  C22 UNL     1      -5.431   1.442  -0.561  1.00  0.00     0.215 C 
HETATM   17  N5  UNL     1      -4.945   0.624  -1.731  1.00  0.00    -0.367 N 
HETATM   18  H24 UNL     1      -4.582   1.036  -2.619  1.00  0.00     0.161 HD
ENDROOT
BRANCH   1  19
HETATM   19  N2  UNL     1      -1.506   0.118   0.809  1.00  0.00    -0.335 N 
HETATM   20  C9  UNL     1      -0.336  -0.462   0.260  1.00  0.00     0.297 C 
HETATM   21  O1  UNL     1      -0.427  -1.587  -0.309  1.00  0.00    -0.258 OA
HETATM   22  H15 UNL     1      -1.429   1.045   1.277  1.00  0.00     0.164 HD
BRANCH  20  23
HETATM   23  C8  UNL     1       0.966   0.148   0.307  1.00  0.00    -0.006 C 
HETATM   24  C7  UNL     1       2.063   0.657   0.329  1.00  0.00    -0.095 C 
BRANCH  24  25
HETATM   25  C6  UNL     1       3.391   1.264   0.379  1.00  0.00     0.124 C 
BRANCH  25  26
HETATM   26  C5  UNL     1       4.292   0.358  -0.433  1.00  0.00     0.284 C 
BRANCH  26  27
HETATM   27  N1  UNL     1       5.654   0.806  -0.494  1.00  0.00     0.088 N 
BRANCH  27  28
HETATM   28  C2  UNL     1       5.808   2.030  -1.255  1.00  0.00     0.268 C 
HETATM   29  C1  UNL     1       7.217   2.560  -1.063  1.00  0.00     0.037 C 
ENDBRANCH  27  28
BRANCH  27  30
HETATM   30  C3  UNL     1       6.455  -0.259  -1.047  1.00  0.00     0.268 C 
HETATM   31  C4  UNL     1       6.282  -1.509  -0.250  1.00  0.00     0.037 C 
ENDBRANCH  27  30
ENDBRANCH  26  27
ENDBRANCH  25  26
ENDBRANCH  24  25
ENDBRANCH  20  23
ENDBRANCH   1  19
TORSDOF 7
