REMARK  2 active torsions:
REMARK  status: ('A' for Active; 'I' for Inactive)
REMARK    1  A    between atoms: O1_1  and  C1_2 
REMARK    2  A    between atoms: C7_10  and  C8_11 
ROOT
HETATM    1  C1  UNL     1      -1.436   2.298   0.285  1.00  0.00     0.095 A 
HETATM    2  C2  UNL     1      -0.735   3.474   0.573  1.00  0.00     0.157 A 
HETATM    3  N1  UNL     1       0.610   3.455   0.696  1.00  0.00    -0.233 NA
HETATM    4  C3  UNL     1       1.290   2.307   0.545  1.00  0.00     0.182 A 
HETATM    5  O2  UNL     1       2.578   2.014   0.611  1.00  0.00    -0.290 OA
HETATM    6  C4  UNL     1       2.784   0.757   0.394  1.00  0.00     0.089 A 
HETATM    7  C5  UNL     1       1.571   0.143   0.164  1.00  0.00     0.035 A 
HETATM    8  C6  UNL     1       0.615   1.136   0.260  1.00  0.00     0.046 A 
HETATM    9  C7  UNL     1      -0.760   1.097   0.123  1.00  0.00     0.024 A 
HETATM   10  C14 UNL     1       1.498  -1.151  -0.086  1.00  0.00     0.150 A 
HETATM   11  O3  UNL     1       2.629  -1.951  -0.130  1.00  0.00    -0.358 OA
HETATM   12  C15 UNL     1       3.906  -1.413   0.092  1.00  0.00     0.204 A 
HETATM   13  C16 UNL     1       3.901   0.046   0.366  1.00  0.00     0.038 A 
ENDROOT
BRANCH   9  14
HETATM   14  C8  UNL     1      -1.504  -0.123  -0.177  1.00  0.00    -0.022 A 
HETATM   15  C9  UNL     1      -1.963  -0.919   0.881  1.00  0.00     0.012 A 
HETATM   16  C10 UNL     1      -2.654  -2.049   0.565  1.00  0.00     0.001 A 
HETATM   17  C11 UNL     1      -2.891  -2.393  -0.754  1.00  0.00     0.000 A 
HETATM   18  C12 UNL     1      -2.416  -1.574  -1.759  1.00  0.00     0.001 A 
HETATM   19  C13 UNL     1      -1.702  -0.403  -1.513  1.00  0.00     0.012 A 
ENDBRANCH   9  14
BRANCH   1  20
HETATM   20  O1  UNL     1      -2.835   2.387   0.170  1.00  0.00    -0.358 OA
HETATM   21  H1  UNL     1      -3.328   1.512   0.326  1.00  0.00     0.217 HD
ENDBRANCH   1  20
TORSDOF 2
