REMARK  12 active torsions:
REMARK  status: ('A' for Active; 'I' for Inactive)
REMARK    1  A    between atoms: C2_2  and  C3_3 
REMARK    2  A    between atoms: C3_3  and  N1_4 
REMARK    3  A    between atoms: N1_4  and  C4_5 
REMARK    4  A    between atoms: N1_4  and  C6_7 
REMARK    5  A    between atoms: C6_7  and  C7_8 
REMARK    6  A    between atoms: C7_8  and  C8_9 
REMARK    7  A    between atoms: C8_9  and  C9_10 
REMARK       I    between atoms: C9_10  and  N2_12 
REMARK    8  A    between atoms: N2_12  and  C10_13 
REMARK    9  A    between atoms: C15_20  and  N5_21 
REMARK   10  A    between atoms: N5_21  and  C16_22 
REMARK   11  A    between atoms: C17_23  and  C18_24 
REMARK   12  A    between atoms: C18_24  and  C19_25 
ROOT
HETATM    1  C10 UNL     1       1.267  -0.011   0.745  1.00  0.00     0.035 A 
HETATM    2  C11 UNL     1       1.048   0.332   2.057  1.00  0.00     0.032 A 
HETATM    3  C12 UNL     1       1.997   0.346   3.046  1.00  0.00     0.035 A 
HETATM    4  C13 UNL     1       3.296  -0.005   2.755  1.00  0.00     0.072 A 
HETATM    5  N3  UNL     1       4.288  -0.021   3.651  1.00  0.00    -0.241 NA
HETATM    6  C14 UNL     1       5.541  -0.381   3.274  1.00  0.00     0.236 A 
HETATM    7  N4  UNL     1       5.838  -0.730   2.011  1.00  0.00    -0.224 NA
HETATM    8  C15 UNL     1       4.850  -0.717   1.103  1.00  0.00     0.141 A 
HETATM    9  C20 UNL     1       3.558  -0.359   1.437  1.00  0.00     0.041 A 
HETATM   10  C21 UNL     1       2.574  -0.358   0.478  1.00  0.00     0.047 A 
ENDROOT
BRANCH   1  11
HETATM   11  N2  UNL     1       0.318  -0.030  -0.301  1.00  0.00    -0.327 N 
HETATM   12  C9  UNL     1      -1.059   0.309  -0.285  1.00  0.00     0.222 C 
HETATM   13  O1  UNL     1      -1.522   0.686   0.816  1.00  0.00    -0.273 OA
HETATM   14  H19 UNL     1       0.674  -0.346  -1.246  1.00  0.00     0.169 HD
BRANCH  12  15
HETATM   15  C8  UNL     1      -1.838   0.202  -1.517  1.00  0.00     0.105 C 
BRANCH  15  16
HETATM   16  C7  UNL     1      -3.295   0.493  -1.310  1.00  0.00     0.039 C 
BRANCH  16  17
HETATM   17  C6  UNL     1      -3.893  -0.514  -0.371  1.00  0.00     0.273 C 
BRANCH  17  18
HETATM   18  N1  UNL     1      -5.295  -0.241  -0.174  1.00  0.00     0.088 N 
BRANCH  18  19
HETATM   19  C3  UNL     1      -5.548   0.927   0.573  1.00  0.00     0.272 C 
BRANCH  19  20
HETATM   20  C2  UNL     1      -6.944   1.483   0.427  1.00  0.00     0.026 C 
HETATM   21  C1  UNL     1      -7.279   1.853  -0.990  1.00  0.00     0.007 C 
ENDBRANCH  19  20
ENDBRANCH  18  19
BRANCH  18  22
HETATM   22  C4  UNL     1      -6.014  -1.411   0.271  1.00  0.00     0.268 C 
HETATM   23  C5  UNL     1      -5.683  -2.573  -0.635  1.00  0.00     0.037 C 
ENDBRANCH  18  22
ENDBRANCH  17  18
ENDBRANCH  16  17
ENDBRANCH  15  16
ENDBRANCH  12  15
ENDBRANCH   1  11
BRANCH   8  24
HETATM   24  N5  UNL     1       5.211  -1.094  -0.232  1.00  0.00    -0.350 N 
HETATM   25  H23 UNL     1       5.069  -2.122  -0.207  1.00  0.00     0.166 HD
BRANCH  24  26
HETATM   26  C16 UNL     1       5.652  -0.333  -1.347  1.00  0.00     0.085 C 
HETATM   27  C17 UNL     1       6.718   0.399  -1.552  1.00  0.00    -0.009 C 
BRANCH  27  28
HETATM   28  C18 UNL     1       7.879   0.716  -0.699  1.00  0.00     0.043 C 
BRANCH  28  29
HETATM   29  C19 UNL     1       9.177   0.252  -1.336  1.00  0.00     0.118 C 
HETATM   30 CL1  UNL     1      10.590   0.614  -0.343  1.00  0.00    -0.130 Cl
ENDBRANCH  28  29
ENDBRANCH  27  28
ENDBRANCH  24  26
ENDBRANCH   8  24
TORSDOF 12
