REMARK  6 active torsions:
REMARK  status: ('A' for Active; 'I' for Inactive)
REMARK    1  A    between atoms: C3_3  and  C4_4 
REMARK    2  A    between atoms: C4_4  and  C5_5 
REMARK    3  A    between atoms: C5_5  and  C6_6 
REMARK    4  A    between atoms: C6_6  and  C7_7 
REMARK    5  A    between atoms: C7_7  and  C8_8 
REMARK    6  A    between atoms: C17_20  and  O3_21 
ROOT
HETATM    1  C8  UNL     1       0.141   0.461  -0.809  1.00  0.00    -0.043 A 
HETATM    2  C9  UNL     1      -1.007   0.905  -0.191  1.00  0.00     0.035 A 
HETATM    3  C10 UNL     1      -2.138   0.122  -0.175  1.00  0.00     0.044 A 
HETATM    4  N1  UNL     1      -2.060  -1.037  -0.763  1.00  0.00    -0.226 NA
HETATM    5  C11 UNL     1      -0.994  -1.512  -1.370  1.00  0.00     0.206 A 
HETATM    6  C12 UNL     1       0.176  -0.793  -1.432  1.00  0.00     0.000 A 
HETATM    7  C13 UNL     1       1.272  -1.465  -2.138  1.00  0.00     0.053 C 
HETATM    8  O1  UNL     1      -1.324  -2.792  -1.884  1.00  0.00    -0.176 OA
HETATM    9  O2  UNL     1      -2.287  -2.736  -2.884  1.00  0.00    -0.225 OA
HETATM   10  C14 UNL     1      -3.602  -2.532  -2.610  1.00  0.00     0.228 C 
HETATM   11  C15 UNL     1      -4.702  -1.968  -1.985  1.00  0.00     0.034 C 
HETATM   12  C16 UNL     1      -5.221  -0.998  -0.980  1.00  0.00     0.009 C 
HETATM   13  C17 UNL     1      -4.559  -0.175  -0.191  1.00  0.00     0.045 C 
HETATM   14  C18 UNL     1      -3.432   0.524   0.444  1.00  0.00     0.123 C 
ENDROOT
BRANCH   1  15
HETATM   15  C7  UNL     1       1.412   1.214  -0.891  1.00  0.00     0.066 C 
BRANCH  15  16
HETATM   16  C6  UNL     1       2.415   0.726   0.090  1.00  0.00    -0.022 C 
BRANCH  16  17
HETATM   17  C5  UNL     1       3.281   0.629   1.049  1.00  0.00    -0.007 C 
BRANCH  17  18
HETATM   18  C4  UNL     1       4.243  -0.012   1.930  1.00  0.00    -0.022 C 
BRANCH  18  19
HETATM   19  C3  UNL     1       4.731   0.798   2.763  1.00  0.00     0.013 A 
HETATM   20  C2  UNL     1       5.391   1.582   3.785  1.00  0.00    -0.002 A 
HETATM   21  C1  UNL     1       4.544   2.374   3.086  1.00  0.00     0.014 A 
ENDBRANCH  18  19
ENDBRANCH  17  18
ENDBRANCH  16  17
ENDBRANCH  15  16
ENDBRANCH   1  15
BRANCH  13  22
HETATM   22  O3  UNL     1      -5.604   0.469   0.519  1.00  0.00    -0.365 OA
HETATM   23  H17 UNL     1      -5.953   1.377   0.275  1.00  0.00     0.217 HD
ENDBRANCH  13  22
TORSDOF 6
