REMARK  7 active torsions:
REMARK  status: ('A' for Active; 'I' for Inactive)
REMARK       I    between atoms: N1_2  and  C2_3 
REMARK    1  A    between atoms: C2_3  and  C3_5 
REMARK    2  A    between atoms: C3_5  and  N2_7 
REMARK    3  A    between atoms: N2_7  and  C6_9 
REMARK    4  A    between atoms: C6_9  and  C7_10 
REMARK    5  A    between atoms: C9_12  and  N3_13 
REMARK    6  A    between atoms: N3_13  and  C10_14 
REMARK    7  A    between atoms: C18_26  and  O2_27 
ROOT
HETATM    1  C7  UNL     1      -0.067  -0.726  -0.840  1.00  0.00     0.086 C 
HETATM    2  C8  UNL     1       1.420  -0.462  -0.806  1.00  0.00     0.036 C 
HETATM    3  C9  UNL     1       2.462  -0.719  -0.001  1.00  0.00     0.115 C 
HETATM    4  N4  UNL     1       2.487  -1.424   1.255  1.00  0.00    -0.263 N 
HETATM    5  N5  UNL     1       1.703  -2.488   1.765  1.00  0.00    -0.186 NA
HETATM    6  C16 UNL     1       0.718  -3.200   1.282  1.00  0.00     0.141 C 
HETATM    7  C17 UNL     1       0.017  -3.173  -0.018  1.00  0.00     0.054 C 
HETATM    8  C18 UNL     1      -0.312  -2.202  -0.890  1.00  0.00     0.056 C 
HETATM    9  H22 UNL     1       3.220  -1.069   1.877  1.00  0.00     0.190 HD
ENDROOT
BRANCH   1  10
HETATM   10  C6  UNL     1      -0.688  -0.046   0.327  1.00  0.00     0.132 C 
BRANCH  10  11
HETATM   11  N2  UNL     1      -2.078  -0.156   0.500  1.00  0.00    -0.404 N 
HETATM   12  C5  UNL     1      -2.605  -1.320   1.113  1.00  0.00     0.144 C 
BRANCH  11  13
HETATM   13  C3  UNL     1      -2.940   0.476  -0.433  1.00  0.00     0.167 C 
HETATM   14  C4  UNL     1      -2.382   1.748  -1.020  1.00  0.00     0.042 C 
BRANCH  13  15
HETATM   15  C2  UNL     1      -4.255   0.842   0.211  1.00  0.00     0.239 C 
HETATM   16  N1  UNL     1      -5.169   1.448  -0.726  1.00  0.00    -0.364 N 
HETATM   17  C1  UNL     1      -6.505   1.895  -0.371  1.00  0.00     0.149 C 
HETATM   18  H4  UNL     1      -5.067   1.668  -1.759  1.00  0.00     0.161 HD
HETATM   19  O1  UNL     1      -4.840   0.794   1.323  1.00  0.00    -0.271 OA
ENDBRANCH  13  15
ENDBRANCH  11  13
ENDBRANCH  10  11
ENDBRANCH   1  10
BRANCH   8  20
HETATM   20  O2  UNL     1      -0.964  -2.865  -1.918  1.00  0.00    -0.359 OA
HETATM   21  C19 UNL     1      -2.235  -3.428  -1.860  1.00  0.00     0.209 C 
ENDBRANCH   8  20
BRANCH   3  22
HETATM   22  N3  UNL     1       3.775  -0.255  -0.380  1.00  0.00    -0.364 N 
HETATM   23  H16 UNL     1       4.514  -1.004  -0.382  1.00  0.00     0.162 HD
BRANCH  22  24
HETATM   24  C10 UNL     1       4.046   1.129  -0.728  1.00  0.00     0.150 A 
HETATM   25  C11 UNL     1       3.734   2.043   0.416  1.00  0.00     0.059 A 
HETATM   26  C12 UNL     1       4.894   2.828   0.892  1.00  0.00    -0.022 A 
HETATM   27  C13 UNL     1       6.133   2.813   0.435  1.00  0.00     0.023 A 
HETATM   28  C14 UNL     1       6.467   1.941  -0.669  1.00  0.00     0.070 A 
HETATM   29 CL1  UNL     1       8.065   1.856  -1.334  1.00  0.00    -0.081 Cl
HETATM   30  C15 UNL     1       5.460   1.238  -1.107  1.00  0.00     0.138 A 
HETATM   31  F1  UNL     1       5.686   0.378  -2.158  1.00  0.00    -0.207 F 
ENDBRANCH  22  24
ENDBRANCH   3  22
TORSDOF 7
