REMARK  4 active torsions:
REMARK  status: ('A' for Active; 'I' for Inactive)
REMARK    1  A    between atoms: C5_7  and  O2_8 
REMARK    2  A    between atoms: C6_9  and  C7_10 
REMARK    3  A    between atoms: C14_17  and  C15_18 
REMARK    4  A    between atoms: C15_18  and  C16_19 
ROOT
HETATM    1  C1  UNL     1       3.985   0.240   0.430  1.00  0.00     0.072 C 
HETATM    2  C2  UNL     1       2.809   0.737   0.102  1.00  0.00     0.067 A 
HETATM    3  O1  UNL     1       2.658   1.967  -0.332  1.00  0.00    -0.295 OA
HETATM    4  C3  UNL     1       1.406   2.213  -0.586  1.00  0.00     0.181 A 
HETATM    5  N1  UNL     1       0.849   3.344  -1.043  1.00  0.00    -0.233 NA
HETATM    6  C4  UNL     1      -0.473   3.379  -1.235  1.00  0.00     0.157 A 
HETATM    7  C5  UNL     1      -1.269   2.278  -0.974  1.00  0.00     0.095 A 
HETATM    8  C6  UNL     1      -0.640   1.139  -0.505  1.00  0.00     0.024 A 
HETATM    9  C13 UNL     1       0.716   1.059  -0.293  1.00  0.00     0.044 A 
HETATM   10  C14 UNL     1       1.592   0.108   0.147  1.00  0.00     0.012 A 
ENDROOT
BRANCH   8  11
HETATM   11  C7  UNL     1      -1.517   0.013  -0.247  1.00  0.00    -0.022 A 
HETATM   12  C8  UNL     1      -1.742  -0.865  -1.303  1.00  0.00     0.012 A 
HETATM   13  C9  UNL     1      -2.602  -1.914  -1.007  1.00  0.00     0.001 A 
HETATM   14  C10 UNL     1      -3.170  -2.050   0.234  1.00  0.00     0.000 A 
HETATM   15  C11 UNL     1      -2.913  -1.156   1.240  1.00  0.00     0.001 A 
HETATM   16  C12 UNL     1      -2.068  -0.078   1.037  1.00  0.00     0.012 A 
ENDBRANCH   8  11
BRANCH   7  17
HETATM   17  O2  UNL     1      -2.620   2.406  -1.202  1.00  0.00    -0.358 OA
HETATM   18  H4  UNL     1      -3.326   2.674  -0.553  1.00  0.00     0.217 HD
ENDBRANCH   7  17
BRANCH  10  19
HETATM   19  C15 UNL     1       1.287  -1.112   0.516  1.00  0.00     0.054 C 
BRANCH  19  20
HETATM   20  C16 UNL     1       2.258  -2.119   0.989  1.00  0.00     0.098 A 
HETATM   21  C17 UNL     1       2.669  -3.306   1.445  1.00  0.00     0.179 A 
HETATM   22  O3  UNL     1       3.624  -2.325   1.245  1.00  0.00    -0.318 OA
ENDBRANCH  19  20
ENDBRANCH  10  19
TORSDOF 4
