REMARK  5 active torsions:
REMARK  status: ('A' for Active; 'I' for Inactive)
REMARK    1  A    between atoms: N1_1  and  C1_2 
REMARK    2  A    between atoms: C2_3  and  O1_4 
REMARK    3  A    between atoms: C2_3  and  C9_11 
REMARK    4  A    between atoms: O1_4  and  C3_5 
REMARK    5  A    between atoms: C14_17  and  O3_18 
ROOT
HETATM    1  C1  UNL     1      -0.613   0.925  -1.635  1.00  0.00     0.139 C 
HETATM    2  C2  UNL     1      -0.126  -0.176  -1.117  1.00  0.00     0.133 C 
ENDROOT
BRANCH   2   3
HETATM    3  O1  UNL     1      -1.291  -0.930  -1.058  1.00  0.00    -0.334 OA
BRANCH   3   4
HETATM    4  C3  UNL     1      -2.451  -0.598  -0.419  1.00  0.00     0.070 A 
HETATM    5  C4  UNL     1      -3.423  -1.594  -0.567  1.00  0.00     0.037 A 
HETATM    6  C5  UNL     1      -4.685  -1.455   0.009  1.00  0.00     0.003 A 
HETATM    7  C6  UNL     1      -5.002  -0.314   0.748  1.00  0.00     0.000 A 
HETATM    8  C7  UNL     1      -4.029   0.664   0.887  1.00  0.00     0.003 A 
HETATM    9  C8  UNL     1      -2.778   0.521   0.312  1.00  0.00     0.037 A 
ENDBRANCH   3   4
ENDBRANCH   2   3
BRANCH   2  10
HETATM   10  C9  UNL     1       0.866  -1.160  -0.545  1.00  0.00     0.086 C 
HETATM   11  C10 UNL     1       0.398  -1.468   0.855  1.00  0.00     0.188 C 
HETATM   12  O2  UNL     1       0.737  -0.229   1.500  1.00  0.00    -0.350 OA
HETATM   13  C11 UNL     1       2.025   0.123   1.042  1.00  0.00     0.075 A 
HETATM   14  C12 UNL     1       3.110   0.845   1.534  1.00  0.00     0.040 A 
HETATM   15  C16 UNL     1       2.152  -0.439  -0.237  1.00  0.00    -0.013 A 
HETATM   16  C13 UNL     1       4.256   0.991   0.781  1.00  0.00     0.039 A 
HETATM   17  C14 UNL     1       4.375   0.433  -0.479  1.00  0.00     0.066 A 
HETATM   18  C15 UNL     1       3.297  -0.296  -0.994  1.00  0.00     0.047 A 
BRANCH  17  19
HETATM   19  O3  UNL     1       5.540   0.600  -1.206  1.00  0.00    -0.361 OA
HETATM   20  H14 UNL     1       6.468   0.439  -0.850  1.00  0.00     0.217 HD
ENDBRANCH  17  19
ENDBRANCH   2  10
BRANCH   1  21
HETATM   21  N1  UNL     1      -0.205   2.198  -2.042  1.00  0.00    -0.421 N 
HETATM   22  H1  UNL     1       0.095   3.122  -2.336  1.00  0.00     0.150 HD
HETATM   23  H2  UNL     1      -1.091   2.665  -2.402  1.00  0.00     0.150 HD
ENDBRANCH   1  21
TORSDOF 5
