REMARK  7 active torsions:
REMARK  status: ('A' for Active; 'I' for Inactive)
REMARK    1  A    between atoms: C2_2  and  N1_3 
REMARK    2  A    between atoms: C2_2  and  C3_4 
REMARK    3  A    between atoms: N2_6  and  C6_8 
REMARK    4  A    between atoms: C6_8  and  C7_9 
REMARK    5  A    between atoms: C10_12  and  C11_13 
REMARK    6  A    between atoms: C20_26  and  C21_27 
REMARK    7  A    between atoms: C21_27  and  N5_28 
ROOT
HETATM    1  C7  UNL     1       0.161  -0.514   0.497  1.00  0.00    -0.032 A 
HETATM    2  C8  UNL     1       1.223   0.316  -0.017  1.00  0.00     0.025 A 
HETATM    3  C9  UNL     1       1.790  -0.141  -1.162  1.00  0.00     0.023 A 
HETATM    4  C10 UNL     1       2.741   0.696  -1.648  1.00  0.00     0.084 A 
HETATM    5  N3  UNL     1       3.415   0.470  -2.839  1.00  0.00    -0.240 NA
HETATM    6  C17 UNL     1       3.144  -0.636  -3.591  1.00  0.00     0.234 A 
HETATM    7  N4  UNL     1       2.183  -1.468  -3.030  1.00  0.00    -0.241 NA
HETATM    8  C18 UNL     1       1.569  -1.250  -1.939  1.00  0.00     0.071 A 
HETATM    9  C19 UNL     1       0.552  -2.046  -1.399  1.00  0.00     0.042 A 
HETATM   10  C20 UNL     1      -0.086  -1.672  -0.255  1.00  0.00    -0.020 A 
ENDROOT
BRANCH   1  11
HETATM   11  C6  UNL     1      -0.797  -0.162   1.567  1.00  0.00     0.156 C 
BRANCH  11  12
HETATM   12  N2  UNL     1      -2.153  -0.454   1.334  1.00  0.00    -0.407 N 
HETATM   13  C3  UNL     1      -3.052  -0.090   0.413  1.00  0.00     0.096 C 
HETATM   14  C4  UNL     1      -3.510  -1.068  -0.662  1.00  0.00     0.034 C 
HETATM   15  C5  UNL     1      -2.785  -0.569   2.742  1.00  0.00     0.144 C 
BRANCH  13  16
HETATM   16  C2  UNL     1      -3.400   1.252  -0.006  1.00  0.00     0.092 C 
HETATM   17  C1  UNL     1      -2.932   1.650  -1.416  1.00  0.00     0.033 C 
BRANCH  16  18
HETATM   18  N1  UNL     1      -4.757   1.710   0.132  1.00  0.00    -0.424 N 
HETATM   19  H5  UNL     1      -5.518   1.249  -0.348  1.00  0.00     0.150 HD
HETATM   20  H6  UNL     1      -4.852   2.717   0.146  1.00  0.00     0.150 HD
ENDBRANCH  16  18
ENDBRANCH  13  16
ENDBRANCH  11  12
ENDBRANCH   1  11
BRANCH  10  21
HETATM   21  C21 UNL     1      -0.822  -2.883   0.279  1.00  0.00     0.306 C 
BRANCH  21  22
HETATM   22  N5  UNL     1       0.173  -3.783   0.835  1.00  0.00     0.082 N 
HETATM   23  H24 UNL     1       0.951  -3.211   1.233  1.00  0.00     0.313 HD
HETATM   24  H25 UNL     1      -0.260  -4.353   1.624  1.00  0.00     0.313 HD
ENDBRANCH  21  22
ENDBRANCH  10  21
BRANCH   4  25
HETATM   25  C11 UNL     1       3.354   1.760  -0.842  1.00  0.00     0.034 A 
HETATM   26  C12 UNL     1       4.170   0.724  -0.145  1.00  0.00     0.017 A 
HETATM   27  C13 UNL     1       5.164   0.629   0.851  1.00  0.00     0.003 A 
HETATM   28  C14 UNL     1       5.507   1.903   1.385  1.00  0.00     0.027 A 
HETATM   29  C15 UNL     1       4.839   2.950   0.854  1.00  0.00     0.073 A 
HETATM   30 CL1  UNL     1       4.912   4.703   1.231  1.00  0.00    -0.081 Cl
HETATM   31  C16 UNL     1       3.876   2.787  -0.156  1.00  0.00     0.150 A 
HETATM   32  F1  UNL     1       3.056   3.695  -0.792  1.00  0.00    -0.203 F 
ENDBRANCH   4  25
TORSDOF 7
