REMARK  2 active torsions:
REMARK  status: ('A' for Active; 'I' for Inactive)
REMARK    1  A    between atoms: B1_1  and  C1_2 
REMARK    2  A    between atoms: C7_9  and  C8_10 
ROOT
HETATM    1  C1  UNL     1      -4.464   0.885   0.558  1.00  0.00     0.067 C 
HETATM    2  C2  UNL     1      -3.333   1.912   0.859  1.00  0.00     0.020 C 
HETATM    3  C3  UNL     1      -2.461   2.085  -0.355  1.00  0.00     0.002 C 
HETATM    4  C4  UNL     1      -1.176   2.838  -0.016  1.00  0.00     0.002 C 
HETATM    5  C5  UNL     1      -0.244   1.864   0.723  1.00  0.00     0.020 C 
HETATM    6  C6  UNL     1       0.267   0.845  -0.304  1.00  0.00     0.119 C 
HETATM    7  N1  UNL     1       0.695  -0.332   0.420  1.00  0.00    -0.390 N 
HETATM    8  C7  UNL     1       1.101  -1.238  -0.630  1.00  0.00     0.025 C 
HETATM    9  C17 UNL     1       0.009  -1.810  -1.143  1.00  0.00     0.002 C 
HETATM   10  C18 UNL     1      -1.415  -1.956  -1.137  1.00  0.00     0.032 C 
HETATM   11  C19 UNL     1      -2.061  -1.472   0.115  1.00  0.00     0.035 C 
HETATM   12  C20 UNL     1      -3.604  -1.282  -0.024  1.00  0.00     0.117 C 
HETATM   13  C21 UNL     1      -4.313  -2.557  -0.240  1.00  0.00     0.039 C 
HETATM   14  O2  UNL     1      -4.011  -0.372   0.849  1.00  0.00    -0.392 OA
HETATM   15  H14 UNL     1       0.928  -1.019   1.165  1.00  0.00     0.159 HD
ENDROOT
BRANCH   8  16
HETATM   16  C8  UNL     1       2.429  -1.529  -1.094  1.00  0.00     0.046 C 
HETATM   17  C9  UNL     1       3.710  -1.323  -1.006  1.00  0.00     0.047 A 
HETATM   18  C10 UNL     1       4.817  -1.927  -1.792  1.00  0.00     0.257 A 
HETATM   19  C16 UNL     1       4.319  -0.403  -0.054  1.00  0.00     0.008 A 
HETATM   20  O1  UNL     1       4.698  -2.767  -2.708  1.00  0.00    -0.267 OA
HETATM   21  N2  UNL     1       5.979  -1.336  -1.262  1.00  0.00    -0.322 N 
HETATM   22  C11 UNL     1       5.682  -0.426  -0.224  1.00  0.00     0.046 A 
HETATM   23  H16 UNL     1       6.890  -1.618  -1.672  1.00  0.00     0.169 HD
HETATM   24  C12 UNL     1       6.618   0.301   0.479  1.00  0.00     0.032 A 
HETATM   25  C13 UNL     1       6.183   1.152   1.467  1.00  0.00     0.021 A 
HETATM   26  C14 UNL     1       4.830   1.240   1.709  1.00  0.00     0.011 A 
HETATM   27 BR1  UNL     1       4.194   2.402   3.060  1.00  0.00    -0.051 Br
HETATM   28  C15 UNL     1       3.992   0.467   0.943  1.00  0.00     0.033 A 
ENDBRANCH   8  16
BRANCH   1  29
HETATM   29  B1  UNL     1      -5.703   1.277   1.434  1.00  0.00     0.172 B 
HETATM   30  H1  UNL     1      -6.384   2.165   1.049  1.00  0.00    -0.029 HD
HETATM   31  H2  UNL     1      -5.872   0.869   2.536  1.00  0.00    -0.029 HD
ENDBRANCH   1  29
TORSDOF 2
