REMARK  7 active torsions:
REMARK  status: ('A' for Active; 'I' for Inactive)
REMARK    1  A    between atoms: C1_2  and  O2_3 
REMARK    2  A    between atoms: C1_2  and  C2_4 
REMARK    3  A    between atoms: C2_4  and  C3_5 
REMARK    4  A    between atoms: C3_5  and  C4_6 
REMARK    5  A    between atoms: C5_7  and  C6_8 
REMARK    6  A    between atoms: C5_7  and  N2_20 
REMARK    7  A    between atoms: N2_20  and  C15_21 
ROOT
HETATM    1  C4  UNL     1       0.689   1.970   0.223  1.00  0.00     0.003 C 
HETATM    2  C5  UNL     1       0.315   0.746   0.653  1.00  0.00     0.029 C 
ENDROOT
BRANCH   2   3
HETATM    3  C6  UNL     1      -0.967   0.207   0.275  1.00  0.00     0.047 C 
HETATM    4  C7  UNL     1      -1.507  -0.949   0.587  1.00  0.00     0.047 A 
HETATM    5  C8  UNL     1      -1.041  -2.068   1.391  1.00  0.00     0.257 A 
HETATM    6  C14 UNL     1      -2.837  -1.396   0.137  1.00  0.00     0.008 A 
HETATM    7  O3  UNL     1       0.055  -2.140   1.985  1.00  0.00    -0.267 OA
HETATM    8  N1  UNL     1      -1.985  -3.126   1.447  1.00  0.00    -0.322 N 
HETATM    9  C9  UNL     1      -3.059  -2.648   0.659  1.00  0.00     0.046 A 
HETATM   10  H8  UNL     1      -1.915  -4.040   1.946  1.00  0.00     0.169 HD
HETATM   11  C10 UNL     1      -4.275  -3.245   0.343  1.00  0.00     0.032 A 
HETATM   12  C11 UNL     1      -5.246  -2.665  -0.445  1.00  0.00     0.021 A 
HETATM   13  C12 UNL     1      -5.016  -1.419  -0.960  1.00  0.00     0.011 A 
HETATM   14 BR1  UNL     1      -6.279  -0.500  -2.067  1.00  0.00    -0.051 Br
HETATM   15  C13 UNL     1      -3.821  -0.806  -0.663  1.00  0.00     0.033 A 
ENDBRANCH   2   3
BRANCH   2  16
HETATM   16  N2  UNL     1       1.354   0.170   1.474  1.00  0.00    -0.362 N 
HETATM   17  H12 UNL     1       1.538   0.067   2.514  1.00  0.00     0.165 HD
BRANCH  16  18
HETATM   18  C15 UNL     1       2.354  -0.370   0.581  1.00  0.00     0.003 A 
HETATM   19  C16 UNL     1       3.341  -0.246  -0.298  1.00  0.00     0.021 A 
HETATM   20  C17 UNL     1       4.412  -0.645  -1.254  1.00  0.00     0.017 C 
HETATM   21  C20 UNL     1       2.880  -1.624   0.108  1.00  0.00     0.047 A 
HETATM   22  C18 UNL     1       5.045  -1.912  -0.665  1.00  0.00     0.002 C 
HETATM   23  C19 UNL     1       4.217  -2.174   0.601  1.00  0.00     0.011 C 
ENDBRANCH  16  18
ENDBRANCH   2  16
BRANCH   1  24
HETATM   24  C3  UNL     1       0.048   3.001  -0.627  1.00  0.00     0.040 C 
BRANCH  24  25
HETATM   25  C2  UNL     1      -0.106   4.310   0.137  1.00  0.00     0.113 C 
BRANCH  25  26
HETATM   26  C1  UNL     1      -0.753   5.296  -0.767  1.00  0.00     0.139 C 
HETATM   27  O1  UNL     1      -0.862   6.368  -0.096  1.00  0.00    -0.650 OA
BRANCH  26  28
HETATM   28  O2  UNL     1      -1.246   5.388  -2.056  1.00  0.00    -0.776 OA
HETATM   29  H1  UNL     1      -2.170   5.796  -2.182  1.00  0.00     0.167 HD
ENDBRANCH  26  28
ENDBRANCH  25  26
ENDBRANCH  24  25
ENDBRANCH   1  24
TORSDOF 7
