REMARK  7 active torsions:
REMARK  status: ('A' for Active; 'I' for Inactive)
REMARK    1  A    between atoms: C1_2  and  O2_3 
REMARK    2  A    between atoms: C1_2  and  C2_4 
REMARK    3  A    between atoms: C2_4  and  C3_5 
REMARK    4  A    between atoms: C3_5  and  C4_6 
REMARK    5  A    between atoms: C4_6  and  C5_7 
REMARK    6  A    between atoms: C4_6  and  C15_20 
REMARK    7  A    between atoms: C6_8  and  C7_9 
ROOT
HETATM    1  C5  UNL     1      -0.320   0.668  -0.251  1.00  0.00     0.010 C 
HETATM    2  C6  UNL     1      -1.389  -0.215   0.151  1.00  0.00     0.018 C 
ENDROOT
BRANCH   1   3
HETATM    3  C4  UNL     1       0.964   0.923  -0.383  1.00  0.00    -0.033 C 
BRANCH   3   4
HETATM    4  C3  UNL     1       1.345   2.251  -0.967  1.00  0.00     0.051 C 
BRANCH   4   5
HETATM    5  C2  UNL     1       2.086   2.039  -2.239  1.00  0.00     0.114 C 
BRANCH   5   6
HETATM    6  C1  UNL     1       2.441   3.402  -2.778  1.00  0.00     0.139 C 
HETATM    7  O1  UNL     1       2.079   4.424  -2.112  1.00  0.00    -0.650 OA
BRANCH   6   8
HETATM    8  O2  UNL     1       3.136   3.654  -3.950  1.00  0.00    -0.776 OA
HETATM    9  H1  UNL     1       3.014   4.482  -4.491  1.00  0.00     0.167 HD
ENDBRANCH   6   8
ENDBRANCH   5   6
ENDBRANCH   4   5
ENDBRANCH   3   4
BRANCH   3  10
HETATM   10  C15 UNL     1       2.113   0.051   0.000  1.00  0.00     0.035 C 
HETATM   11  N2  UNL     1       3.290   0.459  -0.184  1.00  0.00    -0.294 NA
HETATM   12  C16 UNL     1       4.485  -0.264   0.133  1.00  0.00     0.149 C 
HETATM   13  C17 UNL     1       4.406  -0.622   1.631  1.00  0.00     0.022 C 
HETATM   14  C18 UNL     1       3.056  -1.274   1.875  1.00  0.00     0.008 C 
HETATM   15  C19 UNL     1       2.243  -1.274   0.589  1.00  0.00     0.059 C 
ENDBRANCH   3  10
ENDBRANCH   1   3
BRANCH   2  16
HETATM   16  C7  UNL     1      -2.702  -0.137   0.138  1.00  0.00     0.044 A 
HETATM   17  C8  UNL     1      -3.476   0.998  -0.343  1.00  0.00     0.257 A 
HETATM   18  O3  UNL     1      -3.152   2.097  -0.827  1.00  0.00    -0.267 OA
HETATM   19  N1  UNL     1      -4.828   0.623  -0.158  1.00  0.00    -0.322 N 
HETATM   20  C9  UNL     1      -4.813  -0.674   0.406  1.00  0.00     0.046 A 
HETATM   21  H8  UNL     1      -5.675   1.182  -0.388  1.00  0.00     0.169 HD
HETATM   22  C10 UNL     1      -5.871  -1.489   0.778  1.00  0.00     0.032 A 
HETATM   23  C14 UNL     1      -3.558  -1.200   0.615  1.00  0.00     0.008 A 
HETATM   24  C11 UNL     1      -5.674  -2.738   1.319  1.00  0.00     0.021 A 
HETATM   25  C12 UNL     1      -4.389  -3.244   1.519  1.00  0.00     0.011 A 
HETATM   26 BR1  UNL     1      -3.975  -4.943   2.252  1.00  0.00    -0.051 Br
HETATM   27  C13 UNL     1      -3.337  -2.447   1.154  1.00  0.00     0.033 A 
ENDBRANCH   2  16
TORSDOF 7
