REMARK  3 active torsions:
REMARK  status: ('A' for Active; 'I' for Inactive)
REMARK    1  A    between atoms: C11_13  and  C12_14 
REMARK    2  A    between atoms: C12_14  and  C13_15 
REMARK    3  A    between atoms: C13_15  and  O2_16 
ROOT
HETATM    1  C1  UNL     1       2.448   1.484  -1.428  1.00  0.00     0.048 C 
HETATM    2  C2  UNL     1       2.781   0.648  -0.257  1.00  0.00    -0.029 C 
HETATM    3  C3  UNL     1       4.114   0.388  -0.172  1.00  0.00     0.008 C 
HETATM    4  C4  UNL     1       5.001  -0.336   0.767  1.00  0.00     0.018 C 
HETATM    5  C5  UNL     1       4.352  -0.845   1.847  1.00  0.00     0.098 C 
HETATM    6  N1  UNL     1       2.990  -0.473   1.752  1.00  0.00    -0.287 N 
HETATM    7  C6  UNL     1       2.238  -0.087   2.962  1.00  0.00     0.250 A 
HETATM    8  O1  UNL     1       2.527  -0.025   4.216  1.00  0.00    -0.268 OA
HETATM    9  C7  UNL     1       0.872   0.306   2.646  1.00  0.00     0.083 A 
HETATM   10  C8  UNL     1       0.819   0.161   1.334  1.00  0.00    -0.010 A 
HETATM   11  C9  UNL     1       0.013   0.249   0.068  1.00  0.00     0.067 C 
HETATM   12  C10 UNL     1      -1.468   0.108   0.393  1.00  0.00     0.019 C 
HETATM   13  C11 UNL     1      -2.335   0.192  -0.792  1.00  0.00    -0.012 C 
HETATM   14  C14 UNL     1      -2.504  -1.227  -1.353  1.00  0.00     0.005 C 
HETATM   15  C15 UNL     1      -1.331  -1.635  -2.181  1.00  0.00     0.006 C 
HETATM   16  C16 UNL     1      -0.222  -2.193  -1.278  1.00  0.00     0.055 C 
HETATM   17  C17 UNL     1       0.411  -1.128  -0.453  1.00  0.00     0.019 C 
HETATM   18  N2  UNL     1       1.630  -1.404  -0.050  1.00  0.00    -0.256 NA
HETATM   19  C18 UNL     1       2.038  -0.232   0.714  1.00  0.00     0.183 A 
ENDROOT
BRANCH  13  20
HETATM   20  C12 UNL     1      -3.714   0.630  -0.383  1.00  0.00     0.030 C 
BRANCH  20  21
HETATM   21  C13 UNL     1      -3.798   1.962   0.280  1.00  0.00     0.164 C 
BRANCH  21  22
HETATM   22  O2  UNL     1      -5.152   2.240   0.599  1.00  0.00    -0.401 OA
HETATM   23  H16 UNL     1      -5.556   1.467   1.032  1.00  0.00     0.209 HD
ENDBRANCH  21  22
ENDBRANCH  20  21
ENDBRANCH  13  20
TORSDOF 3
