REMARK  8 active torsions:
REMARK  status: ('A' for Active; 'I' for Inactive)
REMARK    1  A    between atoms: C1_2  and  O2_3 
REMARK    2  A    between atoms: C1_2  and  C2_4 
REMARK    3  A    between atoms: C2_4  and  C3_5 
REMARK    4  A    between atoms: C3_5  and  C4_6 
REMARK    5  A    between atoms: C5_7  and  C6_8 
REMARK    6  A    between atoms: C7_9  and  C8_10 
REMARK       I    between atoms: C8_10  and  N1_12 
REMARK    7  A    between atoms: N1_12  and  C9_13 
REMARK    8  A    between atoms: C9_13  and  C10_14 
ROOT
HETATM    1  C4  UNL     1      -0.501  -0.238   0.854  1.00  0.00    -0.013 A 
HETATM    2  C5  UNL     1       0.711   0.086   0.459  1.00  0.00     0.105 A 
HETATM    3  O4  UNL     1       0.896   1.192  -0.331  1.00  0.00    -0.237 OA
HETATM    4  N2  UNL     1      -0.118   2.001  -0.745  1.00  0.00    -0.264 N 
HETATM    5  C11 UNL     1      -1.435   1.667  -0.325  1.00  0.00     0.039 A 
HETATM    6  C12 UNL     1      -1.663   0.590   0.451  1.00  0.00    -0.025 A 
HETATM    7  C13 UNL     1      -3.084   0.486   0.764  1.00  0.00     0.041 C 
HETATM    8  C14 UNL     1      -3.954   0.438  -0.485  1.00  0.00     0.005 C 
HETATM    9  C15 UNL     1      -3.574   1.546  -1.409  1.00  0.00     0.006 C 
HETATM   10  C16 UNL     1      -2.604   2.513  -0.748  1.00  0.00     0.059 C 
HETATM   11  H11 UNL     1       0.087   2.846  -1.358  1.00  0.00     0.194 HD
ENDROOT
BRANCH   2  12
HETATM   12  C6  UNL     1       1.748  -0.813   0.935  1.00  0.00     0.045 C 
HETATM   13  C7  UNL     1       3.024  -0.730   0.702  1.00  0.00     0.077 C 
BRANCH  13  14
HETATM   14  C8  UNL     1       4.200  -0.124   0.123  1.00  0.00     0.244 C 
HETATM   15  O3  UNL     1       5.460  -0.357   0.109  1.00  0.00    -0.268 OA
HETATM   16  N1  UNL     1       4.211   1.042  -0.681  1.00  0.00    -0.334 N 
HETATM   17  H8  UNL     1       3.402   1.625  -0.970  1.00  0.00     0.168 HD
BRANCH  16  18
HETATM   18  C9  UNL     1       5.434   1.513  -1.174  1.00  0.00     0.103 C 
BRANCH  18  19
HETATM   19  C10 UNL     1       6.704   1.707  -1.483  1.00  0.00     0.459 C 
HETATM   20  F1  UNL     1       7.812   1.007  -1.154  1.00  0.00    -0.451 F 
ENDBRANCH  18  19
ENDBRANCH  16  18
ENDBRANCH  13  14
ENDBRANCH   2  12
BRANCH   1  21
HETATM   21  C3  UNL     1      -0.878  -1.362   1.690  1.00  0.00     0.052 C 
BRANCH  21  22
HETATM   22  C2  UNL     1      -1.551  -2.402   0.781  1.00  0.00     0.115 C 
BRANCH  22  23
HETATM   23  C1  UNL     1      -1.997  -3.591   1.511  1.00  0.00     0.139 C 
HETATM   24  O1  UNL     1      -1.906  -3.870   2.749  1.00  0.00    -0.650 OA
BRANCH  23  25
HETATM   25  O2  UNL     1      -2.610  -4.556   0.726  1.00  0.00    -0.776 OA
HETATM   26  H1  UNL     1      -2.793  -5.509   1.034  1.00  0.00     0.167 HD
ENDBRANCH  23  25
ENDBRANCH  22  23
ENDBRANCH  21  22
ENDBRANCH   1  21
TORSDOF 8
