REMARK  8 active torsions:
REMARK  status: ('A' for Active; 'I' for Inactive)
REMARK    1  A    between atoms: B1_1  and  C1_2 
REMARK    2  A    between atoms: C1_2  and  C2_3 
REMARK    3  A    between atoms: C2_3  and  C3_4 
REMARK    4  A    between atoms: C3_4  and  C4_5 
REMARK    5  A    between atoms: C5_7  and  C6_8 
REMARK    6  A    between atoms: C6_8  and  C7_9 
REMARK    7  A    between atoms: C7_9  and  C8_10 
REMARK    8  A    between atoms: C12_14  and  C13_15 
ROOT
HETATM    1  C4  UNL     1      -1.496   0.609  -1.058  1.00  0.00     0.155 C 
HETATM    2  O1  UNL     1      -0.121   0.663  -1.124  1.00  0.00    -0.355 OA
HETATM    3  C5  UNL     1       0.554   1.050  -0.045  1.00  0.00     0.247 C 
HETATM    4  N1  UNL     1       1.337   2.284  -0.169  1.00  0.00    -0.253 NA
HETATM    5  C15 UNL     1       0.866   3.478  -0.491  1.00  0.00     0.204 C 
HETATM    6  N2  UNL     1      -0.465   3.876  -0.794  1.00  0.00    -0.354 N 
HETATM    7  C16 UNL     1      -1.749   3.228  -0.885  1.00  0.00     0.015 C 
HETATM    8  C17 UNL     1      -2.159   1.950  -0.991  1.00  0.00    -0.029 C 
HETATM    9  C18 UNL     1      -3.608   1.681  -1.116  1.00  0.00     0.039 C 
HETATM   10  C19 UNL     1      -4.406   2.721  -1.821  1.00  0.00     0.005 C 
HETATM   11  C20 UNL     1      -3.726   4.046  -1.977  1.00  0.00     0.006 C 
HETATM   12  C21 UNL     1      -2.796   4.308  -0.806  1.00  0.00     0.057 C 
HETATM   13  H19 UNL     1      -0.607   4.910  -1.036  1.00  0.00     0.166 HD
ENDROOT
BRANCH   3  14
HETATM   14  C6  UNL     1       1.559  -0.000   0.356  1.00  0.00     0.031 C 
BRANCH  14  15
HETATM   15  C7  UNL     1       2.403  -0.802   0.848  1.00  0.00     0.065 C 
BRANCH  15  16
HETATM   16  C8  UNL     1       3.220  -1.241   1.993  1.00  0.00    -0.052 A 
HETATM   17  C9  UNL     1       3.503  -0.906   3.304  1.00  0.00     0.007 A 
HETATM   18  C10 UNL     1       4.341  -1.583   4.103  1.00  0.00     0.002 A 
HETATM   19  C11 UNL     1       4.947  -2.699   3.535  1.00  0.00     0.014 A 
HETATM   20  C12 UNL     1       4.661  -3.024   2.230  1.00  0.00     0.004 A 
HETATM   21  C14 UNL     1       3.820  -2.362   1.389  1.00  0.00     0.022 A 
BRANCH  20  22
HETATM   22  C13 UNL     1       5.451  -4.233   1.953  1.00  0.00     0.154 A 
HETATM   23  O2  UNL     1       5.286  -4.702   0.787  1.00  0.00    -0.188 OA
HETATM   24  O3  UNL     1       6.165  -5.324   1.704  1.00  0.00     0.000 OA
HETATM   25  H16 UNL     1       7.057  -5.516   2.197  1.00  0.00     0.000 HD
ENDBRANCH  20  22
ENDBRANCH  15  16
ENDBRANCH  14  15
ENDBRANCH   3  14
BRANCH   1  26
HETATM   26  C3  UNL     1      -2.021  -0.336  -0.024  1.00  0.00     0.036 C 
BRANCH  26  27
HETATM   27  C2  UNL     1      -1.601  -1.774  -0.240  1.00  0.00    -0.008 C 
BRANCH  27  28
HETATM   28  C1  UNL     1      -2.076  -2.341  -1.559  1.00  0.00    -0.059 C 
BRANCH  28  29
HETATM   29  B1  UNL     1      -1.604  -3.873  -1.703  1.00  0.00     0.134 B 
HETATM   30  H1  UNL     1      -1.422  -4.518  -0.710  1.00  0.00    -0.032 HD
HETATM   31  H2  UNL     1      -1.923  -4.494  -2.667  1.00  0.00    -0.032 HD
ENDBRANCH  28  29
ENDBRANCH  27  28
ENDBRANCH  26  27
ENDBRANCH   1  26
TORSDOF 8
