REMARK  7 active torsions:
REMARK  status: ('A' for Active; 'I' for Inactive)
REMARK    1  A    between atoms: C1_2  and  C2_3 
REMARK    2  A    between atoms: C2_3  and  C3_4 
REMARK    3  A    between atoms: C7_8  and  C8_9 
REMARK    4  A    between atoms: C9_10  and  C10_11 
REMARK    5  A    between atoms: C10_11  and  C11_12 
REMARK    6  A    between atoms: C11_12  and  C12_13 
REMARK    7  A    between atoms: C12_13  and  O3_15 
ROOT
HETATM    1  C3  UNL     1       4.372  -0.896   1.309  1.00  0.00     0.039 A 
HETATM    2  C4  UNL     1       3.259  -1.741   0.851  1.00  0.00    -0.017 A 
HETATM    3  C5  UNL     1       2.116  -1.208   0.492  1.00  0.00     0.011 A 
HETATM    4  C6  UNL     1       1.785   0.207   0.488  1.00  0.00     0.007 A 
HETATM    5  C7  UNL     1       0.674   0.815   0.146  1.00  0.00     0.056 A 
HETATM    6  C19 UNL     1       1.006   2.214   0.373  1.00  0.00     0.258 A 
HETATM    7  O4  UNL     1       0.391   3.298   0.242  1.00  0.00    -0.267 OA
HETATM    8  N1  UNL     1       2.331   2.394   0.853  1.00  0.00    -0.322 N 
HETATM    9  C20 UNL     1       2.851   1.092   0.932  1.00  0.00     0.043 A 
HETATM   10  C21 UNL     1       3.980   0.518   1.284  1.00  0.00     0.012 A 
HETATM   11  H20 UNL     1       2.924   3.206   1.125  1.00  0.00     0.169 HD
ENDROOT
BRANCH   5  12
HETATM   12  C8  UNL     1      -0.603   0.330  -0.340  1.00  0.00    -0.006 A 
HETATM   13  C9  UNL     1      -1.751   0.868  -0.701  1.00  0.00    -0.039 A 
HETATM   14  C13 UNL     1      -2.317  -0.481  -1.003  1.00  0.00    -0.044 A 
HETATM   15  C14 UNL     1      -1.125  -1.001  -0.624  1.00  0.00    -0.039 A 
HETATM   16  C18 UNL     1      -3.459  -1.362  -1.472  1.00  0.00     0.040 C 
HETATM   17  C15 UNL     1      -1.270  -2.450  -0.785  1.00  0.00     0.040 C 
HETATM   18  C16 UNL     1      -2.407  -2.980   0.092  1.00  0.00     0.005 C 
HETATM   19  C17 UNL     1      -3.727  -2.415  -0.410  1.00  0.00     0.005 C 
BRANCH  13  20
HETATM   20  C10 UNL     1      -2.494   2.123  -0.863  1.00  0.00     0.050 C 
BRANCH  20  21
HETATM   21  C11 UNL     1      -3.734   2.052   0.055  1.00  0.00     0.114 C 
BRANCH  21  22
HETATM   22  C12 UNL     1      -4.519   3.305  -0.075  1.00  0.00     0.139 C 
HETATM   23  O2  UNL     1      -4.123   4.220  -0.873  1.00  0.00    -0.650 OA
BRANCH  22  24
HETATM   24  O3  UNL     1      -5.681   3.567   0.624  1.00  0.00    -0.776 OA
HETATM   25  H11 UNL     1      -5.775   4.492   1.074  1.00  0.00     0.167 HD
ENDBRANCH  22  24
ENDBRANCH  21  22
ENDBRANCH  20  21
ENDBRANCH  13  20
ENDBRANCH   5  12
BRANCH   1  26
HETATM   26  C2  UNL     1       5.627  -1.128   0.469  1.00  0.00     0.082 C 
BRANCH  26  27
HETATM   27  C1  UNL     1       6.741  -0.268   0.947  1.00  0.00     0.232 C 
HETATM   28  O1  UNL     1       6.931   0.921   0.773  1.00  0.00    -0.307 OA
ENDBRANCH  26  27
ENDBRANCH   1  26
TORSDOF 7
