REMARK  6 active torsions:
REMARK  status: ('A' for Active; 'I' for Inactive)
REMARK    1  A    between atoms: C1_2  and  O2_3 
REMARK    2  A    between atoms: C1_2  and  C2_4 
REMARK    3  A    between atoms: C2_4  and  C3_5 
REMARK    4  A    between atoms: C3_5  and  C4_6 
REMARK    5  A    between atoms: C14_19  and  C15_20 
REMARK    6  A    between atoms: C15_20  and  O5_22 
ROOT
HETATM    1  C4  UNL     1       1.784   0.690  -0.660  1.00  0.00    -0.022 A 
HETATM    2  C5  UNL     1       1.367  -0.612  -0.940  1.00  0.00    -0.026 A 
HETATM    3  C6  UNL     1      -0.005  -0.783  -0.703  1.00  0.00     0.024 A 
HETATM    4  N1  UNL     1      -0.380   0.464  -0.272  1.00  0.00    -0.312 N 
HETATM    5  C7  UNL     1       0.639   1.338  -0.243  1.00  0.00     0.047 A 
HETATM    6  C8  UNL     1       0.690   2.785   0.053  1.00  0.00     0.036 C 
HETATM    7  C9  UNL     1      -0.242   3.737  -0.105  1.00  0.00     0.076 C 
HETATM    8  C10 UNL     1      -1.633   3.771  -0.604  1.00  0.00     0.245 C 
HETATM    9  O3  UNL     1      -1.994   4.880  -1.062  1.00  0.00    -0.268 OA
HETATM   10  N2  UNL     1      -2.721   2.823  -0.705  1.00  0.00    -0.322 N 
HETATM   11  C11 UNL     1      -2.765   1.472  -0.181  1.00  0.00     0.062 A 
HETATM   12  C12 UNL     1      -4.071   1.233   0.176  1.00  0.00     0.033 A 
HETATM   13  C13 UNL     1      -4.347   0.023   0.763  1.00  0.00     0.021 A 
HETATM   14  C14 UNL     1      -3.352  -0.927   0.993  1.00  0.00     0.040 A 
HETATM   15  C16 UNL     1      -2.009  -0.711   0.640  1.00  0.00     0.050 A 
HETATM   16  C17 UNL     1      -1.788   0.520   0.049  1.00  0.00     0.067 A 
HETATM   17  C18 UNL     1      -0.547  -2.083  -1.031  1.00  0.00     0.058 C 
HETATM   18  C19 UNL     1       0.350  -3.199  -0.540  1.00  0.00     0.006 C 
HETATM   19  C20 UNL     1       1.765  -3.067  -0.928  1.00  0.00     0.005 C 
HETATM   20  C21 UNL     1       2.193  -1.722  -1.435  1.00  0.00     0.041 C 
HETATM   21  H8  UNL     1      -3.599   3.072  -1.180  1.00  0.00     0.169 HD
ENDROOT
BRANCH   1  22
HETATM   22  C3  UNL     1       3.075   1.314  -0.765  1.00  0.00     0.052 C 
BRANCH  22  23
HETATM   23  C2  UNL     1       4.138   0.935   0.201  1.00  0.00     0.115 C 
BRANCH  23  24
HETATM   24  C1  UNL     1       3.691   1.198   1.590  1.00  0.00     0.139 C 
HETATM   25  O1  UNL     1       2.776   1.607   2.317  1.00  0.00    -0.650 OA
BRANCH  24  26
HETATM   26  O2  UNL     1       4.705   0.844   2.445  1.00  0.00    -0.776 OA
HETATM   27  H1  UNL     1       4.704   0.786   3.432  1.00  0.00     0.167 HD
ENDBRANCH  24  26
ENDBRANCH  23  24
ENDBRANCH  22  23
ENDBRANCH   1  22
BRANCH  14  28
HETATM   28  C15 UNL     1      -3.699  -2.196   1.621  1.00  0.00     0.176 C 
HETATM   29  O4  UNL     1      -2.827  -3.074   1.842  1.00  0.00    -0.646 OA
BRANCH  28  30
HETATM   30  O5  UNL     1      -5.015  -2.450   1.985  1.00  0.00    -0.773 OA
HETATM   31  H11 UNL     1      -5.299  -3.338   2.400  1.00  0.00     0.167 HD
ENDBRANCH  28  30
ENDBRANCH  14  28
TORSDOF 6
