REMARK  7 active torsions:
REMARK  status: ('A' for Active; 'I' for Inactive)
REMARK    1  A    between atoms: C4_4  and  S1_5 
REMARK    2  A    between atoms: S1_5  and  N1_6 
REMARK    3  A    between atoms: C6_10  and  C7_11 
REMARK    4  A    between atoms: N2_19  and  C15_20 
REMARK    5  A    between atoms: C15_20  and  C16_21 
REMARK    6  A    between atoms: C16_21  and  C17_22 
REMARK    7  A    between atoms: C17_22  and  O4_24 
ROOT
HETATM    1  C1  UNL     1      -4.460   0.445   1.969  1.00  0.00     0.040 C 
HETATM    2  C2  UNL     1      -4.049  -0.262   0.677  1.00  0.00     0.061 C 
HETATM    3  C3  UNL     1      -4.096   0.639  -0.472  1.00  0.00     0.026 C 
HETATM    4  C4  UNL     1      -2.961   0.942  -1.037  1.00  0.00     0.079 C 
HETATM    5  C5  UNL     1      -1.908   0.228  -0.277  1.00  0.00    -0.028 C 
HETATM    6  C6  UNL     1      -0.612   0.374  -0.466  1.00  0.00     0.018 C 
HETATM    7  C18 UNL     1      -2.603  -0.662   0.715  1.00  0.00     0.074 C 
HETATM    8  C19 UNL     1      -2.645  -2.081   0.240  1.00  0.00     0.205 C 
HETATM    9  O5  UNL     1      -3.940  -2.376  -0.119  1.00  0.00    -0.304 OA
HETATM   10  N3  UNL     1      -4.758  -1.489   0.492  1.00  0.00    -0.192 NA
HETATM   11  H27 UNL     1      -5.064  -1.917   1.392  1.00  0.00     0.155 HD
ENDROOT
BRANCH   4  12
HETATM   12  S1  UNL     1      -2.690   1.997  -2.432  1.00  0.00     0.239 S 
HETATM   13  O1  UNL     1      -3.853   1.999  -3.351  1.00  0.00    -0.206 OA
HETATM   14  O2  UNL     1      -1.499   1.546  -3.210  1.00  0.00    -0.206 OA
BRANCH  12  15
HETATM   15  N1  UNL     1      -2.455   3.600  -1.877  1.00  0.00    -0.225 NA
HETATM   16  H5  UNL     1      -1.504   3.930  -2.148  1.00  0.00     0.136 HD
HETATM   17  H6  UNL     1      -3.193   4.274  -2.176  1.00  0.00     0.136 HD
ENDBRANCH  12  15
ENDBRANCH   4  12
BRANCH   6  18
HETATM   18  C7  UNL     1       0.612  -0.165   0.101  1.00  0.00     0.073 A 
HETATM   19  C8  UNL     1       0.567  -1.138   1.220  1.00  0.00     0.048 C 
HETATM   20  C9  UNL     1       1.524  -0.724  -0.964  1.00  0.00    -0.026 A 
HETATM   21  C10 UNL     1       2.524   0.131  -0.821  1.00  0.00     0.013 A 
HETATM   22  C14 UNL     1       1.879  -1.696  -2.048  1.00  0.00     0.039 C 
HETATM   23  C11 UNL     1       3.784   0.095  -1.635  1.00  0.00     0.057 C 
HETATM   24  N2  UNL     1       1.730   0.746   0.218  1.00  0.00    -0.367 N 
HETATM   25  C12 UNL     1       4.317  -1.324  -1.639  1.00  0.00     0.006 C 
HETATM   26  C13 UNL     1       3.188  -2.335  -1.567  1.00  0.00     0.005 C 
BRANCH  24  27
HETATM   27  C15 UNL     1       1.995   1.877   1.049  1.00  0.00     0.134 C 
BRANCH  27  28
HETATM   28  C16 UNL     1       2.186   1.496   2.477  1.00  0.00     0.130 C 
BRANCH  28  29
HETATM   29  C17 UNL     1       3.327   0.573   2.674  1.00  0.00     0.140 C 
HETATM   30  O3  UNL     1       3.992   0.203   1.677  1.00  0.00    -0.650 OA
BRANCH  29  31
HETATM   31  O4  UNL     1       4.278  -0.253   3.207  1.00  0.00    -0.776 OA
HETATM   32  H23 UNL     1       4.628  -0.267   4.149  1.00  0.00     0.167 HD
ENDBRANCH  29  31
ENDBRANCH  28  29
ENDBRANCH  27  28
ENDBRANCH  24  27
ENDBRANCH   6  18
TORSDOF 7
