REMARK  4 active torsions:
REMARK  status: ('A' for Active; 'I' for Inactive)
REMARK    1  A    between atoms: C2_2  and  O1_3 
REMARK    2  A    between atoms: O1_3  and  C3_4 
REMARK    3  A    between atoms: C3_4  and  C4_6 
REMARK    4  A    between atoms: C8_12  and  C9_13 
ROOT
HETATM    1  C9  UNL     1      -0.306  -0.921   0.060  1.00  0.00     0.029 C 
HETATM    2  C10 UNL     1      -1.176  -1.585  -0.686  1.00  0.00     0.007 C 
HETATM    3  C11 UNL     1      -2.593  -1.749  -1.011  1.00  0.00     0.010 C 
HETATM    4  C12 UNL     1      -2.941  -3.245  -0.963  1.00  0.00     0.014 C 
HETATM    5  C13 UNL     1      -3.546  -1.067  -0.113  1.00  0.00     0.044 C 
HETATM    6  C14 UNL     1      -3.115   0.217   0.472  1.00  0.00    -0.057 C 
HETATM    7  C15 UNL     1      -2.040   0.854   0.967  1.00  0.00     0.012 C 
HETATM    8  C16 UNL     1      -1.798   2.209   1.535  1.00  0.00     0.057 C 
HETATM    9  C17 UNL     1      -3.142   2.872   1.723  1.00  0.00     0.006 C 
HETATM   10  C18 UNL     1      -3.936   2.563   0.451  1.00  0.00     0.005 C 
HETATM   11  C19 UNL     1      -4.326   1.127   0.531  1.00  0.00     0.036 C 
HETATM   12  N2  UNL     1      -0.813   0.085   0.967  1.00  0.00    -0.360 N 
HETATM   13  H26 UNL     1      -0.154   0.297   1.783  1.00  0.00     0.166 HD
ENDROOT
BRANCH   1  14
HETATM   14  C8  UNL     1       1.109  -1.125   0.028  1.00  0.00     0.043 C 
HETATM   15  C7  UNL     1       2.220  -1.659  -0.360  1.00  0.00     0.027 C 
HETATM   16  C4  UNL     1       3.704  -1.630  -0.162  1.00  0.00     0.142 C 
HETATM   17  C6  UNL     1       2.219  -2.736  -1.380  1.00  0.00     0.248 C 
HETATM   18  C5  UNL     1       4.186  -1.575  -1.618  1.00  0.00     0.142 C 
HETATM   19  N1  UNL     1       3.351  -2.582  -2.261  1.00  0.00    -0.356 N 
HETATM   20  H9  UNL     1       3.679  -2.980  -3.156  1.00  0.00     0.162 HD
HETATM   21  O3  UNL     1       1.492  -3.748  -1.679  1.00  0.00    -0.268 OA
BRANCH  16  22
HETATM   22  C3  UNL     1       4.175  -0.397   0.495  1.00  0.00     0.269 C 
HETATM   23  O2  UNL     1       4.947  -0.374   1.498  1.00  0.00    -0.264 OA
BRANCH  22  24
HETATM   24  O1  UNL     1       3.818   0.856   0.079  1.00  0.00    -0.321 OA
BRANCH  24  25
HETATM   25  C2  UNL     1       4.295   2.031   0.742  1.00  0.00     0.174 C 
HETATM   26  C1  UNL     1       3.698   3.213   0.012  1.00  0.00     0.034 C 
ENDBRANCH  24  25
ENDBRANCH  22  24
ENDBRANCH  16  22
ENDBRANCH   1  14
TORSDOF 4
