REMARK  5 active torsions:
REMARK  status: ('A' for Active; 'I' for Inactive)
REMARK    1  A    between atoms: O1_2  and  C2_3 
REMARK    2  A    between atoms: C16_19  and  C17_20 
REMARK    3  A    between atoms: C17_20  and  C18_21 
REMARK    4  A    between atoms: C18_21  and  C19_22 
REMARK    5  A    between atoms: C19_22  and  O3_24 
ROOT
HETATM    1  C2  UNL     1       2.756  -0.721   2.102  1.00  0.00     0.082 C 
HETATM    2  C3  UNL     1       3.128   0.512   1.884  1.00  0.00     0.021 C 
HETATM    3  C4  UNL     1       1.981   1.363   1.476  1.00  0.00     0.045 C 
HETATM    4  C5  UNL     1       0.796   1.930   1.118  1.00  0.00    -0.008 C 
HETATM    5  C6  UNL     1      -0.563   1.442   0.926  1.00  0.00    -0.040 C 
HETATM    6  C7  UNL     1      -0.721   0.546   1.886  1.00  0.00     0.010 C 
HETATM    7  C8  UNL     1      -0.956  -0.898   1.652  1.00  0.00     0.141 C 
HETATM    8  N1  UNL     1       0.241  -1.648   1.924  1.00  0.00    -0.289 NA
HETATM    9  C9  UNL     1       1.423  -1.244   2.013  1.00  0.00     0.147 C 
HETATM   10  C10 UNL     1      -1.723  -1.299   0.498  1.00  0.00     0.063 C 
HETATM   11  C11 UNL     1      -0.885  -2.141  -0.441  1.00  0.00     0.013 C 
HETATM   12  C12 UNL     1      -1.776  -2.963  -1.356  1.00  0.00     0.005 C 
HETATM   13  C13 UNL     1      -3.186  -2.413  -1.393  1.00  0.00     0.029 C 
HETATM   14  C14 UNL     1      -3.179  -0.912  -1.290  1.00  0.00    -0.002 C 
HETATM   15  C15 UNL     1      -2.431  -0.317  -0.324  1.00  0.00     0.008 C 
HETATM   16  N2  UNL     1      -2.529   1.110  -0.390  1.00  0.00    -0.384 N 
HETATM   17  C16 UNL     1      -1.321   1.967  -0.168  1.00  0.00     0.114 C 
HETATM   18  H18 UNL     1      -3.484   1.425  -0.600  1.00  0.00     0.160 HD
ENDROOT
BRANCH  17  19
HETATM   19  C17 UNL     1      -0.689   2.137  -1.510  1.00  0.00     0.040 C 
BRANCH  19  20
HETATM   20  C18 UNL     1       0.502   3.012  -1.622  1.00  0.00     0.112 C 
BRANCH  20  21
HETATM   21  C19 UNL     1       0.947   3.127  -3.075  1.00  0.00     0.139 C 
HETATM   22  O2  UNL     1       1.944   3.798  -3.425  1.00  0.00    -0.650 OA
BRANCH  21  23
HETATM   23  O3  UNL     1       0.436   2.591  -4.251  1.00  0.00    -0.776 OA
HETATM   24  H24 UNL     1      -0.054   3.207  -4.916  1.00  0.00     0.167 HD
ENDBRANCH  21  23
ENDBRANCH  20  21
ENDBRANCH  19  20
ENDBRANCH  17  19
BRANCH   1  25
HETATM   25  O1  UNL     1       4.058  -0.904   2.359  1.00  0.00    -0.355 OA
HETATM   26  C1  UNL     1       4.782  -2.107   2.465  1.00  0.00     0.210 C 
ENDBRANCH   1  25
TORSDOF 5
