REMARK  4 active torsions:
REMARK  status: ('A' for Active; 'I' for Inactive)
REMARK    1  A    between atoms: C1_2  and  O2_3 
REMARK    2  A    between atoms: C1_2  and  C2_4 
REMARK    3  A    between atoms: C2_4  and  C3_5 
REMARK    4  A    between atoms: C3_5  and  C4_6 
ROOT
HETATM    1  C4  UNL     1       0.835  -0.368   0.121  1.00  0.00     0.027 C 
HETATM    2  C5  UNL     1       0.102   0.908   0.022  1.00  0.00    -0.071 C 
HETATM    3  C6  UNL     1      -1.026   1.245   0.663  1.00  0.00    -0.050 C 
HETATM    4  C7  UNL     1      -1.357   2.666   0.202  1.00  0.00     0.036 C 
HETATM    5  C8  UNL     1      -0.526   3.010  -0.956  1.00  0.00     0.009 C 
HETATM    6  C9  UNL     1       0.595   2.006  -0.848  1.00  0.00     0.035 C 
HETATM    7  C10 UNL     1      -2.017   0.709   1.658  1.00  0.00     0.304 C 
HETATM    8  N1  UNL     1      -3.001  -0.169   1.222  1.00  0.00     0.091 NA
HETATM    9  C11 UNL     1      -2.875  -1.528   0.983  1.00  0.00     0.312 C 
HETATM   10  C12 UNL     1      -1.973  -2.004  -0.086  1.00  0.00     0.012 C 
HETATM   11  C13 UNL     1      -1.480  -3.061  -0.708  1.00  0.00    -0.013 C 
HETATM   12  C14 UNL     1       0.009  -2.639  -0.835  1.00  0.00     0.041 C 
HETATM   13  C15 UNL     1      -0.154  -1.454   0.072  1.00  0.00     0.072 C 
HETATM   14  C16 UNL     1      -1.268  -0.922  -0.756  1.00  0.00     0.162 C 
HETATM   15  O3  UNL     1      -1.610  -0.066  -1.593  1.00  0.00    -0.292 OA
HETATM   16  H15 UNL     1      -3.492   0.280   0.389  1.00  0.00     0.316 HD
ENDROOT
BRANCH   1  17
HETATM   17  C3  UNL     1       1.938  -0.699  -0.760  1.00  0.00     0.020 C 
BRANCH  17  18
HETATM   18  C2  UNL     1       3.169   0.111  -0.833  1.00  0.00     0.110 C 
BRANCH  18  19
HETATM   19  C1  UNL     1       3.864   0.265   0.470  1.00  0.00     0.139 C 
HETATM   20  O1  UNL     1       3.861   1.455   0.942  1.00  0.00    -0.650 OA
BRANCH  19  21
HETATM   21  O2  UNL     1       4.519  -0.661   1.269  1.00  0.00    -0.776 OA
HETATM   22  H1  UNL     1       4.791  -0.423   2.241  1.00  0.00     0.167 HD
ENDBRANCH  19  21
ENDBRANCH  18  19
ENDBRANCH  17  18
ENDBRANCH   1  17
TORSDOF 4
