REMARK  10 active torsions:
REMARK  status: ('A' for Active; 'I' for Inactive)
REMARK    1  A    between atoms: C2_2  and  C3_3 
REMARK    2  A    between atoms: C3_3  and  C4_4 
REMARK    3  A    between atoms: C4_4  and  C5_5 
REMARK    4  A    between atoms: C6_7  and  C7_8 
REMARK       I    between atoms: C7_8  and  N2_10 
REMARK    5  A    between atoms: N2_10  and  C8_11 
REMARK    6  A    between atoms: C12_15  and  O2_16 
REMARK    7  A    between atoms: C17_21  and  C18_22 
REMARK    8  A    between atoms: C18_22  and  C19_23 
REMARK    9  A    between atoms: C19_23  and  C20_24 
REMARK   10  A    between atoms: C20_24  and  O4_26 
ROOT
HETATM    1  C5  UNL     1      -2.184   0.149   0.590  1.00  0.00     0.111 A 
HETATM    2  N1  UNL     1      -0.764  -0.138   0.605  1.00  0.00    -0.377 N 
HETATM    3  C6  UNL     1       0.280   0.822   0.505  1.00  0.00     0.097 A 
HETATM    4  C15 UNL     1      -0.049   2.099   0.389  1.00  0.00     0.035 A 
HETATM    5  C16 UNL     1      -1.434   2.557   0.360  1.00  0.00     0.007 A 
HETATM    6  C17 UNL     1      -2.368   1.624   0.455  1.00  0.00    -0.057 A 
HETATM    7  H11 UNL     1      -0.422  -1.119   0.696  1.00  0.00     0.160 HD
ENDROOT
BRANCH   3   8
HETATM    8  C7  UNL     1       1.696   0.492   0.522  1.00  0.00     0.272 C 
HETATM    9  O1  UNL     1       2.592   1.371   0.431  1.00  0.00    -0.266 OA
HETATM   10  N2  UNL     1       2.206  -0.829   0.640  1.00  0.00    -0.322 N 
HETATM   11  H12 UNL     1       1.546  -1.628   0.722  1.00  0.00     0.169 HD
BRANCH  10  12
HETATM   12  C8  UNL     1       3.651  -0.790   0.623  1.00  0.00     0.037 A 
HETATM   13  C9  UNL     1       4.285  -0.659   1.843  1.00  0.00     0.029 A 
HETATM   14  C10 UNL     1       5.676  -0.617   1.881  1.00  0.00     0.005 A 
HETATM   15  C11 UNL     1       6.323  -0.712   0.669  1.00  0.00     0.037 A 
HETATM   16  C12 UNL     1       5.698  -0.843  -0.554  1.00  0.00     0.070 A 
HETATM   17  C14 UNL     1       4.319  -0.885  -0.588  1.00  0.00     0.066 A 
BRANCH  16  18
HETATM   18  O2  UNL     1       6.399  -0.936  -1.750  1.00  0.00    -0.356 OA
HETATM   19  C13 UNL     1       7.820  -0.897  -1.754  1.00  0.00     0.210 C 
ENDBRANCH  16  18
ENDBRANCH  10  12
ENDBRANCH   3   8
BRANCH   1  20
HETATM   20  C4  UNL     1      -2.914  -0.608  -0.475  1.00  0.00     0.029 C 
BRANCH  20  21
HETATM   21  C3  UNL     1      -2.732  -2.081  -0.228  1.00  0.00     0.002 C 
BRANCH  21  22
HETATM   22  C2  UNL     1      -3.452  -2.910  -1.275  1.00  0.00    -0.004 C 
HETATM   23  C1  UNL     1      -3.206  -4.372  -0.935  1.00  0.00     0.005 C 
ENDBRANCH  21  22
ENDBRANCH  20  21
ENDBRANCH   1  20
BRANCH   6  24
HETATM   24  C18 UNL     1      -3.772   2.103   0.425  1.00  0.00     0.046 C 
BRANCH  24  25
HETATM   25  C19 UNL     1      -3.869   3.601   0.290  1.00  0.00     0.114 C 
BRANCH  25  26
HETATM   26  C20 UNL     1      -5.344   3.907   0.276  1.00  0.00     0.139 C 
HETATM   27  O3  UNL     1      -6.212   2.998   0.368  1.00  0.00    -0.650 OA
BRANCH  26  28
HETATM   28  O4  UNL     1      -5.673   5.265   0.155  1.00  0.00    -0.776 OA
HETATM   29  H26 UNL     1      -6.607   5.506  -0.133  1.00  0.00     0.167 HD
ENDBRANCH  26  28
ENDBRANCH  25  26
ENDBRANCH  24  25
ENDBRANCH   6  24
TORSDOF 10
