REMARK  10 active torsions:
REMARK  status: ('A' for Active; 'I' for Inactive)
REMARK    1  A    between atoms: B1_1  and  O1_2 
REMARK    2  A    between atoms: O1_2  and  C1_3 
REMARK    3  A    between atoms: C4_6  and  C5_7 
REMARK    4  A    between atoms: C5_7  and  O2_8 
REMARK    5  A    between atoms: O2_8  and  C6_9 
REMARK    6  A    between atoms: C7_10  and  C8_11 
REMARK    7  A    between atoms: C8_11  and  C9_12 
REMARK    8  A    between atoms: C9_12  and  C10_13 
REMARK    9  A    between atoms: C10_13  and  O4_15 
REMARK   10  A    between atoms: C17_23  and  N2_24 
ROOT
HETATM    1  C6  UNL     1      -0.775  -0.201   0.791  1.00  0.00     0.079 C 
HETATM    2  C7  UNL     1      -1.861   0.486   0.383  1.00  0.00    -0.015 C 
HETATM    3  C11 UNL     1      -3.094  -0.063   1.002  1.00  0.00     0.255 C 
HETATM    4  C12 UNL     1      -4.300  -0.061   0.158  1.00  0.00     0.041 C 
HETATM    5  C13 UNL     1      -5.175  -1.270   0.231  1.00  0.00     0.004 C 
HETATM    6  C14 UNL     1      -4.573  -2.499   0.806  1.00  0.00     0.030 C 
HETATM    7  C15 UNL     1      -3.068  -2.447   0.717  1.00  0.00     0.273 C 
HETATM    8  N1  UNL     1      -2.678  -1.310   1.532  1.00  0.00     0.103 N 
HETATM    9  C16 UNL     1      -1.246  -1.265   1.716  1.00  0.00     0.337 C 
ENDROOT
BRANCH   1  10
HETATM   10  O2  UNL     1       0.584  -0.177   0.587  1.00  0.00    -0.349 OA
BRANCH  10  11
HETATM   11  C5  UNL     1       1.346   0.760  -0.091  1.00  0.00     0.216 C 
BRANCH  11  12
HETATM   12  C4  UNL     1       2.822   0.449  -0.004  1.00  0.00    -0.008 A 
HETATM   13  C3  UNL     1       3.606   1.202   0.857  1.00  0.00     0.014 A 
HETATM   14  C2  UNL     1       4.963   0.913   0.934  1.00  0.00     0.035 A 
HETATM   15  C1  UNL     1       5.490  -0.101   0.162  1.00  0.00     0.051 A 
HETATM   16  C19 UNL     1       4.700  -0.843  -0.691  1.00  0.00     0.064 A 
HETATM   17  C17 UNL     1       3.346  -0.578  -0.788  1.00  0.00     0.038 A 
BRANCH  15  18
HETATM   18  O1  UNL     1       6.836  -0.421   0.209  1.00  0.00    -0.428 OA
BRANCH  18  19
HETATM   19  B1  UNL     1       7.801   0.120   1.183  1.00  0.00     0.300 B 
HETATM   20  H1  UNL     1       8.852   0.489   0.767  1.00  0.00     0.002 HD
HETATM   21  H2  UNL     1       7.582   0.324   2.322  1.00  0.00     0.002 HD
ENDBRANCH  18  19
ENDBRANCH  15  18
BRANCH  17  22
HETATM   22  N2  UNL     1       2.561  -1.348  -1.662  1.00  0.00    -0.394 N 
HETATM   23  C18 UNL     1       3.151  -2.416  -2.467  1.00  0.00     0.146 C 
HETATM   24  H23 UNL     1       1.534  -1.184  -1.764  1.00  0.00     0.159 HD
ENDBRANCH  17  22
ENDBRANCH  11  12
ENDBRANCH  10  11
ENDBRANCH   1  10
BRANCH   2  25
HETATM   25  C8  UNL     1      -1.946   1.633  -0.533  1.00  0.00     0.049 C 
BRANCH  25  26
HETATM   26  C9  UNL     1      -2.522   2.880   0.093  1.00  0.00     0.114 C 
BRANCH  26  27
HETATM   27  C10 UNL     1      -2.545   3.956  -0.963  1.00  0.00     0.139 C 
HETATM   28  O3  UNL     1      -3.003   5.087  -0.618  1.00  0.00    -0.650 OA
BRANCH  27  29
HETATM   29  O4  UNL     1      -2.170   4.039  -2.306  1.00  0.00    -0.776 OA
HETATM   30  H11 UNL     1      -2.760   4.287  -3.062  1.00  0.00     0.167 HD
ENDBRANCH  27  29
ENDBRANCH  26  27
ENDBRANCH  25  26
ENDBRANCH   2  25
TORSDOF 10
