REMARK  4 active torsions:
REMARK  status: ('A' for Active; 'I' for Inactive)
REMARK    1  A    between atoms: C1_2  and  O2_3 
REMARK    2  A    between atoms: C1_2  and  C2_4 
REMARK    3  A    between atoms: C2_4  and  C3_5 
REMARK    4  A    between atoms: C3_5  and  C4_6 
ROOT
HETATM    1  C4  UNL     1       1.241  -0.623  -0.396  1.00  0.00    -0.048 C 
HETATM    2  C5  UNL     1       0.420  -1.648  -0.710  1.00  0.00     0.014 C 
HETATM    3  C6  UNL     1      -0.820  -2.323  -1.162  1.00  0.00     0.179 C 
HETATM    4  C7  UNL     1      -1.767  -1.390  -1.828  1.00  0.00     0.025 C 
HETATM    5  C8  UNL     1      -2.504  -0.538  -1.129  1.00  0.00     0.016 C 
HETATM    6  C9  UNL     1      -2.692   0.851  -1.615  1.00  0.00     0.169 C 
HETATM    7  O3  UNL     1      -2.746   1.044  -2.871  1.00  0.00    -0.292 OA
HETATM    8  C10 UNL     1      -2.729   1.395  -0.232  1.00  0.00     0.112 C 
HETATM    9  C11 UNL     1      -3.756   0.463   0.369  1.00  0.00    -0.004 C 
HETATM   10  C12 UNL     1      -3.211  -0.753   0.156  1.00  0.00    -0.038 C 
HETATM   11  C13 UNL     1      -3.314  -1.979   0.972  1.00  0.00     0.150 C 
HETATM   12  C14 UNL     1      -2.054  -2.715   1.057  1.00  0.00     0.264 C 
HETATM   13  O4  UNL     1      -1.769  -2.984   2.256  1.00  0.00    -0.265 OA
HETATM   14  O5  UNL     1      -1.364  -3.013  -0.092  1.00  0.00    -0.308 OA
HETATM   15  C15 UNL     1      -1.334   1.125   0.355  1.00  0.00     0.289 C 
HETATM   16  N1  UNL     1      -0.404   1.181  -0.718  1.00  0.00     0.098 N 
HETATM   17  C16 UNL     1      -0.401   2.583  -1.167  1.00  0.00     0.273 C 
HETATM   18  C17 UNL     1       0.051   3.493  -0.053  1.00  0.00     0.030 C 
HETATM   19  C18 UNL     1       1.202   3.028   0.744  1.00  0.00     0.004 C 
HETATM   20  C19 UNL     1       1.567   1.598   0.711  1.00  0.00     0.040 C 
HETATM   21  C20 UNL     1       0.955   0.868  -0.439  1.00  0.00     0.252 C 
ENDROOT
BRANCH   1  22
HETATM   22  C3  UNL     1       2.669  -0.773   0.100  1.00  0.00     0.046 C 
BRANCH  22  23
HETATM   23  C2  UNL     1       3.078  -2.221   0.218  1.00  0.00     0.114 C 
BRANCH  23  24
HETATM   24  C1  UNL     1       4.504  -2.189   0.718  1.00  0.00     0.139 C 
HETATM   25  O1  UNL     1       5.439  -1.602   0.120  1.00  0.00    -0.650 OA
BRANCH  24  26
HETATM   26  O2  UNL     1       4.985  -2.797   1.902  1.00  0.00    -0.776 OA
HETATM   27  H1  UNL     1       5.646  -2.282   2.502  1.00  0.00     0.167 HD
ENDBRANCH  24  26
ENDBRANCH  23  24
ENDBRANCH  22  23
ENDBRANCH   1  22
TORSDOF 4
