REMARK  11 active torsions:
REMARK  status: ('A' for Active; 'I' for Inactive)
REMARK    1  A    between atoms: N1_1  and  C1_2 
REMARK    2  A    between atoms: C1_2  and  N2_3 
REMARK    3  A    between atoms: N2_3  and  C2_4 
REMARK    4  A    between atoms: C5_7  and  C6_8 
REMARK    5  A    between atoms: C6_8  and  O2_10 
REMARK    6  A    between atoms: C8_12  and  C9_13 
REMARK    7  A    between atoms: C10_14  and  C11_15 
REMARK    8  A    between atoms: C12_16  and  C13_17 
REMARK    9  A    between atoms: C13_17  and  C14_18 
REMARK   10  A    between atoms: C14_18  and  C15_19 
REMARK   11  A    between atoms: C15_19  and  O4_21 
ROOT
HETATM    1  C9  UNL     1       1.366  -1.212   0.223  1.00  0.00     0.016 C 
HETATM    2  C10 UNL     1       0.074  -1.033   0.262  1.00  0.00     0.040 C 
ENDROOT
BRANCH   1   3
HETATM    3  C8  UNL     1       2.502  -0.354   0.131  1.00  0.00    -0.009 A 
HETATM    4  C2  UNL     1       3.772  -0.950   0.154  1.00  0.00     0.039 A 
HETATM    5  C3  UNL     1       4.907  -0.199   0.064  1.00  0.00     0.031 A 
HETATM    6  C4  UNL     1       4.904   1.162  -0.053  1.00  0.00     0.020 A 
HETATM    7  C5  UNL     1       3.679   1.792  -0.080  1.00  0.00     0.038 A 
HETATM    8  C7  UNL     1       2.562   0.995   0.014  1.00  0.00     0.032 A 
BRANCH   4   9
HETATM    9  N2  UNL     1       3.947  -2.378   0.289  1.00  0.00    -0.365 N 
HETATM   10  H5  UNL     1       3.275  -3.143   0.391  1.00  0.00     0.161 HD
BRANCH   9  11
HETATM   11  C1  UNL     1       5.254  -2.947   0.297  1.00  0.00     0.389 C 
BRANCH  11  12
HETATM   12  N1  UNL     1       5.855  -2.710  -1.027  1.00  0.00     0.095 N 
HETATM   13  H1  UNL     1       5.103  -2.796  -1.731  1.00  0.00     0.314 HD
HETATM   14  H2  UNL     1       6.615  -3.420  -1.120  1.00  0.00     0.314 HD
ENDBRANCH  11  12
ENDBRANCH   9  11
ENDBRANCH   4   9
BRANCH   7  15
HETATM   15  C6  UNL     1       3.635   3.242  -0.205  1.00  0.00     0.176 C 
HETATM   16  O1  UNL     1       4.731   3.853  -0.282  1.00  0.00    -0.646 OA
BRANCH  15  17
HETATM   17  O2  UNL     1       2.405   3.875  -0.231  1.00  0.00    -0.773 OA
HETATM   18  H8  UNL     1       2.380   4.799  -0.682  1.00  0.00     0.167 HD
ENDBRANCH  15  17
ENDBRANCH   7  15
ENDBRANCH   1   3
BRANCH   2  19
HETATM   19  C11 UNL     1      -0.879   0.040   0.239  1.00  0.00     0.096 C 
HETATM   20  C12 UNL     1      -2.197  -0.228   0.304  1.00  0.00    -0.024 C 
HETATM   21  C16 UNL     1      -2.915   1.095   0.262  1.00  0.00     0.118 C 
HETATM   22  C17 UNL     1      -4.170   1.062  -0.575  1.00  0.00     0.027 C 
HETATM   23  N3  UNL     1      -1.937   1.913  -0.431  1.00  0.00    -0.182 NA
HETATM   24  C18 UNL     1      -4.449   2.530  -0.927  1.00  0.00     0.003 C 
HETATM   25  C19 UNL     1      -3.708   3.450   0.026  1.00  0.00     0.017 C 
HETATM   26  C20 UNL     1      -2.206   3.295  -0.089  1.00  0.00     0.122 C 
HETATM   27  O5  UNL     1      -0.794   1.438   0.157  1.00  0.00    -0.261 OA
BRANCH  20  28
HETATM   28  C13 UNL     1      -3.108  -1.326   0.402  1.00  0.00     0.049 C 
BRANCH  28  29
HETATM   29  C14 UNL     1      -2.664  -2.740   0.489  1.00  0.00     0.114 C 
BRANCH  29  30
HETATM   30  C15 UNL     1      -3.900  -3.651   0.577  1.00  0.00     0.139 C 
HETATM   31  O3  UNL     1      -3.680  -4.889   0.656  1.00  0.00    -0.650 OA
BRANCH  30  32
HETATM   32  O4  UNL     1      -5.272  -3.434   0.592  1.00  0.00    -0.776 OA
HETATM   33  H16 UNL     1      -5.798  -3.785  -0.202  1.00  0.00     0.167 HD
ENDBRANCH  30  32
ENDBRANCH  29  30
ENDBRANCH  28  29
ENDBRANCH  20  28
ENDBRANCH   2  19
TORSDOF 11
