REMARK  5 active torsions:
REMARK  status: ('A' for Active; 'I' for Inactive)
REMARK    1  A    between atoms: O1_2  and  C2_3 
REMARK    2  A    between atoms: C9_12  and  C10_13 
REMARK    3  A    between atoms: C10_13  and  C11_14 
REMARK    4  A    between atoms: C11_14  and  C12_15 
REMARK    5  A    between atoms: C12_15  and  O4_17 
ROOT
HETATM    1  C2  UNL     1       3.485   1.777   0.182  1.00  0.00     0.062 C 
HETATM    2  C3  UNL     1       4.377   1.434  -0.685  1.00  0.00     0.023 C 
HETATM    3  C4  UNL     1       4.878   0.248  -0.775  1.00  0.00     0.106 C 
HETATM    4  N1  UNL     1       4.222  -0.894  -0.260  1.00  0.00    -0.332 N 
HETATM    5  C5  UNL     1       2.860  -1.037   0.182  1.00  0.00     0.254 C 
HETATM    6  O2  UNL     1       2.500  -2.124   0.664  1.00  0.00    -0.268 OA
HETATM    7  C6  UNL     1       1.814  -0.034   0.137  1.00  0.00     0.042 C 
HETATM    8  C7  UNL     1       0.545  -0.398   0.023  1.00  0.00     0.040 C 
HETATM    9  C8  UNL     1      -0.605   0.526  -0.036  1.00  0.00     0.032 C 
HETATM   10  C9  UNL     1      -1.931   0.278  -0.115  1.00  0.00    -0.077 C 
HETATM   11  C13 UNL     1      -2.960  -0.762   0.031  1.00  0.00     0.034 C 
HETATM   12  C14 UNL     1      -2.571  -2.088   0.508  1.00  0.00     0.004 C 
HETATM   13  C15 UNL     1      -2.238  -3.261  -0.253  1.00  0.00     0.002 C 
HETATM   14  C16 UNL     1      -1.099  -3.456  -1.142  1.00  0.00     0.020 C 
HETATM   15  C17 UNL     1       0.227  -3.214  -0.386  1.00  0.00     0.119 C 
HETATM   16  N2  UNL     1       0.373  -1.818  -0.194  1.00  0.00    -0.389 N 
HETATM   17  C18 UNL     1       2.030   1.431   0.218  1.00  0.00     0.112 C 
HETATM   18  H5  UNL     1       4.726  -1.797  -0.154  1.00  0.00     0.168 HD
HETATM   19  H22 UNL     1      -0.259  -1.471  -0.931  1.00  0.00     0.159 HD
ENDROOT
BRANCH  10  20
HETATM   20  C10 UNL     1      -2.621   1.590  -0.182  1.00  0.00     0.044 C 
BRANCH  20  21
HETATM   21  C11 UNL     1      -3.588   1.929   0.891  1.00  0.00     0.114 C 
BRANCH  21  22
HETATM   22  C12 UNL     1      -4.062   3.348   0.529  1.00  0.00     0.139 C 
HETATM   23  O3  UNL     1      -3.641   3.882  -0.525  1.00  0.00    -0.650 OA
BRANCH  22  24
HETATM   24  O4  UNL     1      -4.908   4.244   1.133  1.00  0.00    -0.776 OA
HETATM   25  H11 UNL     1      -5.771   4.518   0.639  1.00  0.00     0.167 HD
ENDBRANCH  22  24
ENDBRANCH  21  22
ENDBRANCH  20  21
ENDBRANCH  10  20
BRANCH   1  26
HETATM   26  O1  UNL     1       4.118   2.581   1.148  1.00  0.00    -0.359 OA
HETATM   27  C1  UNL     1       5.472   2.489   1.463  1.00  0.00     0.209 C 
ENDBRANCH   1  26
TORSDOF 5
