REMARK  5 active torsions:
REMARK  status: ('A' for Active; 'I' for Inactive)
REMARK    1  A    between atoms: C1_2  and  O2_3 
REMARK    2  A    between atoms: C1_2  and  C2_4 
REMARK    3  A    between atoms: C2_4  and  C3_5 
REMARK    4  A    between atoms: C3_5  and  C4_6 
REMARK    5  A    between atoms: C14_18  and  C15_19 
ROOT
HETATM    1  C4  UNL     1      -1.339   0.144  -0.602  1.00  0.00     0.020 C 
HETATM    2  C5  UNL     1      -2.053  -0.975  -1.323  1.00  0.00     0.009 C 
HETATM    3  C6  UNL     1      -2.347  -2.100  -0.344  1.00  0.00     0.001 C 
HETATM    4  C7  UNL     1      -3.271  -1.502   0.688  1.00  0.00     0.004 C 
HETATM    5  C8  UNL     1      -3.221  -2.550   1.824  1.00  0.00     0.028 C 
HETATM    6  C9  UNL     1      -1.806  -2.553   2.273  1.00  0.00    -0.009 C 
HETATM    7  C10 UNL     1      -0.580  -2.032   2.081  1.00  0.00     0.041 A 
HETATM    8  C11 UNL     1       0.371  -2.636   3.053  1.00  0.00     0.256 A 
HETATM    9  O3  UNL     1       0.364  -3.482   4.022  1.00  0.00    -0.267 OA
HETATM   10  N1  UNL     1       1.623  -2.058   2.759  1.00  0.00    -0.322 N 
HETATM   11  C12 UNL     1       1.401  -1.173   1.680  1.00  0.00     0.047 A 
HETATM   12  C13 UNL     1       2.519  -0.473   1.191  1.00  0.00     0.042 A 
HETATM   13  C14 UNL     1       2.233   0.360   0.140  1.00  0.00    -0.023 A 
HETATM   14  C21 UNL     1       0.938   0.429  -0.318  1.00  0.00     0.020 A 
HETATM   15  C22 UNL     1      -0.163  -0.285   0.192  1.00  0.00    -0.040 A 
HETATM   16  C23 UNL     1       0.088  -1.115   1.228  1.00  0.00     0.013 A 
HETATM   17  H16 UNL     1       2.485  -2.312   3.304  1.00  0.00     0.169 HD
ENDROOT
BRANCH   1  18
HETATM   18  C3  UNL     1      -1.111   1.228  -1.597  1.00  0.00     0.020 C 
BRANCH  18  19
HETATM   19  C2  UNL     1      -2.450   1.709  -2.134  1.00  0.00     0.110 C 
BRANCH  19  20
HETATM   20  C1  UNL     1      -3.357   2.209  -1.084  1.00  0.00     0.139 C 
HETATM   21  O1  UNL     1      -4.158   1.587  -0.345  1.00  0.00    -0.650 OA
BRANCH  20  22
HETATM   22  O2  UNL     1      -3.550   3.513  -0.649  1.00  0.00    -0.776 OA
HETATM   23  H1  UNL     1      -3.327   3.821   0.306  1.00  0.00     0.167 HD
ENDBRANCH  20  22
ENDBRANCH  19  20
ENDBRANCH  18  19
ENDBRANCH   1  18
BRANCH  13  24
HETATM   24  C15 UNL     1       3.356   1.107  -0.404  1.00  0.00    -0.026 A 
HETATM   25  C16 UNL     1       4.405   1.517   0.401  1.00  0.00     0.012 A 
HETATM   26  C17 UNL     1       5.473   2.227  -0.114  1.00  0.00     0.001 A 
HETATM   27  C18 UNL     1       5.403   2.486  -1.470  1.00  0.00     0.000 A 
HETATM   28  C19 UNL     1       4.383   2.102  -2.315  1.00  0.00     0.001 A 
HETATM   29  C20 UNL     1       3.332   1.392  -1.760  1.00  0.00     0.012 A 
ENDBRANCH  13  24
TORSDOF 5
