REMARK  6 active torsions:
REMARK  status: ('A' for Active; 'I' for Inactive)
REMARK    1  A    between atoms: C2_2  and  N1_3 
REMARK    2  A    between atoms: N1_3  and  C3_4 
REMARK    3  A    between atoms: N1_3  and  C15_21 
REMARK    4  A    between atoms: C5_6  and  N2_7 
REMARK    5  A    between atoms: N2_7  and  C6_8 
REMARK    6  A    between atoms: C15_21  and  C17_23 
ROOT
HETATM    1  C3  UNL     1      -1.189  -0.423  -0.721  1.00  0.00     0.060 C 
HETATM    2  C4  UNL     1       0.081  -0.810  -1.042  1.00  0.00     0.060 C 
HETATM    3  C5  UNL     1       1.172   0.226  -0.700  1.00  0.00     0.153 C 
HETATM    4  C12 UNL     1       0.462   0.679   0.627  1.00  0.00     0.122 C 
HETATM    5  C13 UNL     1      -0.741   0.952  -0.299  1.00  0.00     0.067 C 
HETATM    6  N3  UNL     1      -0.777   2.301  -0.347  1.00  0.00    -0.244 NA
HETATM    7  C14 UNL     1       0.497   2.583  -1.163  1.00  0.00     0.230 C 
HETATM    8  N4  UNL     1       1.096   1.428  -1.483  1.00  0.00    -0.246 NA
ENDROOT
BRANCH   3   9
HETATM    9  N2  UNL     1       2.396  -0.389  -0.494  1.00  0.00    -0.356 N 
HETATM   10  H5  UNL     1       2.301  -1.431  -0.671  1.00  0.00     0.162 HD
BRANCH   9  11
HETATM   11  C6  UNL     1       3.694  -0.076  -0.134  1.00  0.00     0.071 A 
HETATM   12  C7  UNL     1       4.712  -1.036  -0.025  1.00  0.00     0.032 A 
HETATM   13  C8  UNL     1       6.009  -0.780   0.330  1.00  0.00     0.004 A 
HETATM   14  C9  UNL     1       6.328   0.528   0.600  1.00  0.00     0.027 A 
HETATM   15  C10 UNL     1       5.417   1.557   0.528  1.00  0.00     0.074 A 
HETATM   16 CL1  UNL     1       5.926   3.190   0.892  1.00  0.00    -0.081 Cl
HETATM   17  C11 UNL     1       4.143   1.193   0.163  1.00  0.00     0.164 A 
HETATM   18  F1  UNL     1       3.314   2.252   0.114  1.00  0.00    -0.202 F 
ENDBRANCH   9  11
ENDBRANCH   3   9
BRANCH   1  19
HETATM   19  N1  UNL     1      -2.582  -0.568  -0.594  1.00  0.00    -0.345 N 
BRANCH  19  20
HETATM   20  C2  UNL     1      -3.459   0.286  -1.334  1.00  0.00     0.082 C 
HETATM   21  C1  UNL     1      -4.469   0.081  -2.153  1.00  0.00     0.030 C 
ENDBRANCH  19  20
BRANCH  19  22
HETATM   22  C15 UNL     1      -3.244  -1.529   0.241  1.00  0.00     0.154 C 
HETATM   23  C16 UNL     1      -2.282  -2.415   0.994  1.00  0.00     0.041 C 
BRANCH  22  24
HETATM   24  C17 UNL     1      -4.114  -0.807   1.227  1.00  0.00     0.145 C 
HETATM   25  C18 UNL     1      -4.242   0.679   1.300  1.00  0.00     0.093 C 
HETATM   26  O1  UNL     1      -4.749  -1.516   2.014  1.00  0.00    -0.296 OA
ENDBRANCH  22  24
ENDBRANCH  19  22
ENDBRANCH   1  19
TORSDOF 6
