REMARK  6 active torsions:
REMARK  status: ('A' for Active; 'I' for Inactive)
REMARK    1  A    between atoms: C8_10  and  C9_11 
REMARK    2  A    between atoms: C10_12  and  C11_13 
REMARK    3  A    between atoms: C11_13  and  C12_14 
REMARK    4  A    between atoms: C12_14  and  C13_15 
REMARK    5  A    between atoms: C13_15  and  O2_17 
REMARK    6  A    between atoms: C19_24  and  O3_25 
ROOT
HETATM    1  C1  UNL     1      -1.774   2.743   1.426  1.00  0.00    -0.052 C 
HETATM    2  B1  UNL     1      -1.404   1.190   1.649  1.00  0.00     0.200 B 
HETATM    3  C2  UNL     1      -0.347   0.868   2.734  1.00  0.00     0.068 C 
HETATM    4  N1  UNL     1       0.809   0.036   2.339  1.00  0.00    -0.398 N 
HETATM    5  C3  UNL     1       0.196  -1.140   1.761  1.00  0.00     0.038 A 
HETATM    6  C4  UNL     1      -0.467  -1.931   2.695  1.00  0.00     0.030 A 
HETATM    7  C5  UNL     1      -1.275  -2.963   2.203  1.00  0.00     0.003 A 
HETATM    8  C6  UNL     1      -1.492  -3.281   0.887  1.00  0.00     0.008 A 
HETATM    9  C7  UNL     1      -0.803  -2.459   0.072  1.00  0.00    -0.042 A 
HETATM   10  C8  UNL     1       0.044  -1.411   0.426  1.00  0.00     0.005 A 
HETATM   11  C17 UNL     1      -1.159  -2.416  -1.381  1.00  0.00     0.069 C 
HETATM   12  C18 UNL     1      -1.695  -0.958  -1.463  1.00  0.00     0.009 C 
HETATM   13  C19 UNL     1      -2.106  -0.061  -0.517  1.00  0.00     0.031 C 
HETATM   14  C20 UNL     1      -2.339   0.170   0.931  1.00  0.00     0.016 C 
HETATM   15  H6  UNL     1       1.688  -0.453   2.112  1.00  0.00     0.158 HD
ENDROOT
BRANCH  10  16
HETATM   16  C9  UNL     1       0.873  -0.907  -0.649  1.00  0.00    -0.021 C 
HETATM   17  C10 UNL     1       1.329   0.008  -1.408  1.00  0.00    -0.048 C 
HETATM   18  C14 UNL     1       2.255   0.006  -2.516  1.00  0.00     0.024 C 
HETATM   19  C15 UNL     1       2.809  -1.133  -2.915  1.00  0.00     0.083 C 
HETATM   20  N2  UNL     1       2.325  -2.179  -2.096  1.00  0.00    -0.395 N 
HETATM   21  C16 UNL     1       1.707  -2.172  -0.807  1.00  0.00     0.159 C 
HETATM   22  H17 UNL     1       2.435  -3.166  -2.490  1.00  0.00     0.159 HD
BRANCH  17  23
HETATM   23  C11 UNL     1       0.799   1.338  -1.143  1.00  0.00     0.049 C 
BRANCH  23  24
HETATM   24  C12 UNL     1       2.012   2.281  -0.868  1.00  0.00     0.114 C 
BRANCH  24  25
HETATM   25  C13 UNL     1       1.468   3.644  -0.603  1.00  0.00     0.139 C 
HETATM   26  O1  UNL     1       0.337   4.196  -0.556  1.00  0.00    -0.650 OA
BRANCH  25  27
HETATM   27  O2  UNL     1       2.500   4.553  -0.335  1.00  0.00    -0.776 OA
HETATM   28  H14 UNL     1       2.352   5.475   0.056  1.00  0.00     0.167 HD
ENDBRANCH  25  27
ENDBRANCH  24  25
ENDBRANCH  23  24
ENDBRANCH  17  23
ENDBRANCH  10  16
BRANCH  13  29
HETATM   29  O3  UNL     1      -2.478   1.139  -1.189  1.00  0.00    -0.366 OA
HETATM   30  H23 UNL     1      -3.453   1.161  -1.459  1.00  0.00     0.217 HD
ENDBRANCH  13  29
TORSDOF 6
