REMARK  4 active torsions:
REMARK  status: ('A' for Active; 'I' for Inactive)
REMARK    1  A    between atoms: C1_2  and  O2_3 
REMARK    2  A    between atoms: C1_2  and  C2_4 
REMARK    3  A    between atoms: C2_4  and  C3_5 
REMARK    4  A    between atoms: C3_5  and  C4_6 
ROOT
HETATM    1  C4  UNL     1      -0.124   0.157   0.161  1.00  0.00     0.089 C 
HETATM    2  N1  UNL     1      -0.755  -0.045  -1.154  1.00  0.00    -0.377 N 
HETATM    3  C5  UNL     1      -1.958  -0.797  -1.017  1.00  0.00     0.007 C 
HETATM    4  C6  UNL     1      -3.218  -1.059  -1.403  1.00  0.00    -0.002 C 
HETATM    5  C7  UNL     1      -3.785  -2.181  -0.560  1.00  0.00     0.030 C 
HETATM    6  C8  UNL     1      -2.897  -2.138   0.699  1.00  0.00     0.016 C 
HETATM    7  C9  UNL     1      -1.601  -1.746   0.099  1.00  0.00     0.053 C 
HETATM    8  C10 UNL     1      -0.630  -1.017   0.957  1.00  0.00     0.113 C 
HETATM    9  S1  UNL     1       0.794  -2.139   1.129  1.00  0.00    -0.040 SA
HETATM   10  N2  UNL     1       1.888  -1.184   0.087  1.00  0.00    -0.298 N 
HETATM   11  C11 UNL     1       2.998  -1.855  -0.470  1.00  0.00     0.101 C 
HETATM   12  C12 UNL     1       4.067  -1.349  -1.071  1.00  0.00    -0.005 C 
HETATM   13  C13 UNL     1       4.771  -0.126  -1.515  1.00  0.00     0.055 C 
HETATM   14  C14 UNL     1       4.453   1.083  -0.722  1.00  0.00    -0.023 C 
HETATM   15  C15 UNL     1       3.462   1.735  -0.083  1.00  0.00    -0.002 C 
HETATM   16  C16 UNL     1       2.054   1.274   0.010  1.00  0.00     0.028 C 
HETATM   17  C17 UNL     1       1.318   0.145   0.078  1.00  0.00     0.052 C 
HETATM   18  H6  UNL     1      -0.414   0.298  -2.097  1.00  0.00     0.160 HD
ENDROOT
BRANCH   1  19
HETATM   19  C3  UNL     1      -0.638   1.471   0.657  1.00  0.00     0.049 C 
BRANCH  19  20
HETATM   20  C2  UNL     1      -2.166   1.497   0.822  1.00  0.00     0.112 C 
BRANCH  20  21
HETATM   21  C1  UNL     1      -2.424   2.897   1.329  1.00  0.00     0.139 C 
HETATM   22  O1  UNL     1      -2.382   3.869   0.527  1.00  0.00    -0.650 OA
BRANCH  21  23
HETATM   23  O2  UNL     1      -2.721   3.296   2.639  1.00  0.00    -0.776 OA
HETATM   24  H1  UNL     1      -2.200   4.044   3.091  1.00  0.00     0.167 HD
ENDBRANCH  21  23
ENDBRANCH  20  21
ENDBRANCH  19  20
ENDBRANCH   1  19
TORSDOF 4
