REMARK  5 active torsions:
REMARK  status: ('A' for Active; 'I' for Inactive)
REMARK    1  A    between atoms: N1_2  and  C2_3 
REMARK    2  A    between atoms: C5_6  and  C6_7 
REMARK    3  A    between atoms: C6_7  and  C7_8 
REMARK    4  A    between atoms: C11_14  and  C12_15 
REMARK    5  A    between atoms: C14_17  and  O2_18 
ROOT
HETATM    1  C7  UNL     1       0.324   0.215  -0.491  1.00  0.00     0.031 A 
HETATM    2  C8  UNL     1       0.454   1.067  -1.675  1.00  0.00     0.253 A 
HETATM    3  O1  UNL     1      -0.105   1.771  -2.586  1.00  0.00    -0.268 OA
HETATM    4  N2  UNL     1       1.848   1.148  -1.921  1.00  0.00    -0.322 N 
HETATM    5  C9  UNL     1       2.562   0.397  -0.958  1.00  0.00     0.046 A 
HETATM    6  C10 UNL     1       3.880   0.075  -0.644  1.00  0.00     0.042 A 
HETATM    7  C11 UNL     1       4.306  -0.711   0.395  1.00  0.00    -0.027 A 
HETATM    8  C18 UNL     1       3.364  -1.256   1.238  1.00  0.00     0.013 A 
HETATM    9  C19 UNL     1       2.047  -0.974   0.977  1.00  0.00     0.015 A 
HETATM   10  C20 UNL     1       1.676  -0.174  -0.086  1.00  0.00     0.003 A 
HETATM   11  H8  UNL     1       2.493   1.613  -2.624  1.00  0.00     0.169 HD
ENDROOT
BRANCH   1  12
HETATM   12  C6  UNL     1      -0.882   0.019  -0.100  1.00  0.00     0.060 C 
BRANCH  12  13
HETATM   13  C5  UNL     1      -2.105  -0.323   0.491  1.00  0.00    -0.009 C 
HETATM   14  C4  UNL     1      -3.176   0.197  -0.115  1.00  0.00    -0.059 C 
HETATM   15  C3  UNL     1      -4.502  -0.025   0.325  1.00  0.00     0.034 C 
HETATM   16  C21 UNL     1      -2.925   1.050  -1.284  1.00  0.00     0.048 C 
HETATM   17  C2  UNL     1      -5.775  -0.143   0.585  1.00  0.00     0.034 C 
HETATM   18  C24 UNL     1      -6.756   0.450  -0.399  1.00  0.00     0.177 C 
HETATM   19  O4  UNL     1      -6.324   1.736  -0.755  1.00  0.00    -0.310 OA
HETATM   20  C25 UNL     1      -6.908  -0.491  -1.575  1.00  0.00     0.046 C 
HETATM   21  C23 UNL     1      -5.090   2.293  -1.189  1.00  0.00     0.259 C 
HETATM   22  C22 UNL     1      -4.075   1.625  -2.011  1.00  0.00     0.116 C 
HETATM   23  O3  UNL     1      -4.727   3.468  -0.898  1.00  0.00    -0.265 OA
BRANCH  17  24
HETATM   24  N1  UNL     1      -6.346  -0.783   1.705  1.00  0.00    -0.395 N 
HETATM   25  C1  UNL     1      -6.723  -0.272   2.984  1.00  0.00     0.146 C 
HETATM   26  H4  UNL     1      -6.561  -1.820   1.663  1.00  0.00     0.159 HD
ENDBRANCH  17  24
ENDBRANCH  12  13
ENDBRANCH   1  12
BRANCH   7  27
HETATM   27  C12 UNL     1       5.723  -0.964   0.613  1.00  0.00    -0.042 A 
HETATM   28  C13 UNL     1       6.681  -0.453  -0.156  1.00  0.00     0.044 A 
HETATM   29  C14 UNL     1       7.962  -0.892   0.325  1.00  0.00     0.065 A 
HETATM   30  C16 UNL     1       7.800  -1.668   1.381  1.00  0.00     0.014 A 
HETATM   31  C17 UNL     1       6.334  -1.795   1.673  1.00  0.00     0.069 A 
BRANCH  29  32
HETATM   32  O2  UNL     1       9.253  -0.617  -0.152  1.00  0.00    -0.356 OA
HETATM   33  C15 UNL     1       9.572   0.725  -0.444  1.00  0.00     0.210 C 
ENDBRANCH  29  32
ENDBRANCH   7  27
TORSDOF 5
