REMARK  3 active torsions:
REMARK  status: ('A' for Active; 'I' for Inactive)
REMARK    1  A    between atoms: O1_2  and  C2_3 
REMARK    2  A    between atoms: C7_8  and  C8_9 
REMARK    3  A    between atoms: C24_27  and  C25_28 
ROOT
HETATM    1  C8  UNL     1      -3.127  -0.458  -0.031  1.00  0.00    -0.021 A 
HETATM    2  C9  UNL     1      -2.330  -1.534   0.292  1.00  0.00     0.013 A 
HETATM    3  C10 UNL     1      -0.986  -1.357   0.149  1.00  0.00     0.016 A 
HETATM    4  C11 UNL     1      -0.346  -0.218  -0.284  1.00  0.00     0.008 A 
HETATM    5  C12 UNL     1      -1.227   0.806  -0.585  1.00  0.00     0.047 A 
HETATM    6  C13 UNL     1      -2.599   0.730  -0.475  1.00  0.00     0.042 A 
HETATM    7  N1  UNL     1      -0.429   1.894  -1.020  1.00  0.00    -0.322 N 
HETATM    8  C14 UNL     1       0.936   1.521  -0.979  1.00  0.00     0.259 A 
HETATM    9  O2  UNL     1       1.756   2.381  -1.335  1.00  0.00    -0.267 OA
HETATM   10  C15 UNL     1       1.031   0.169  -0.510  1.00  0.00     0.067 A 
HETATM   11  C16 UNL     1       2.094  -0.515  -0.303  1.00  0.00     0.026 C 
HETATM   12  C17 UNL     1       2.493  -1.939   0.232  1.00  0.00     0.071 C 
HETATM   13  C18 UNL     1       3.488  -1.403   1.246  1.00  0.00     0.003 A 
HETATM   14  C19 UNL     1       4.297  -0.812   0.428  1.00  0.00     0.043 A 
HETATM   15  C20 UNL     1       5.833  -0.625   0.012  1.00  0.00     0.039 C 
HETATM   16  C21 UNL     1       5.411   0.863   0.126  1.00  0.00     0.018 C 
HETATM   17  C22 UNL     1       4.624   0.726   1.448  1.00  0.00     0.010 C 
HETATM   18  C23 UNL     1       4.623  -0.716   2.059  1.00  0.00     0.042 A 
HETATM   19  C24 UNL     1       4.484   0.713  -1.154  1.00  0.00     0.150 C 
HETATM   20  N2  UNL     1       3.473  -0.144  -0.584  1.00  0.00    -0.361 N 
HETATM   21  H11 UNL     1      -0.837   2.830  -1.321  1.00  0.00     0.169 HD
ENDROOT
BRANCH  19  22
HETATM   22  C25 UNL     1       5.228   0.057  -2.187  1.00  0.00     0.256 C 
HETATM   23  O3  UNL     1       6.148   0.814  -2.528  1.00  0.00    -0.305 OA
ENDBRANCH  19  22
BRANCH   1  24
HETATM   24  C7  UNL     1      -4.575  -0.536   0.085  1.00  0.00     0.007 A 
HETATM   25  C2  UNL     1      -5.416   0.424   0.662  1.00  0.00     0.079 A 
HETATM   26  C3  UNL     1      -6.771   0.158   0.673  1.00  0.00     0.037 A 
HETATM   27  C4  UNL     1      -7.279  -0.996   0.144  1.00  0.00     0.003 A 
HETATM   28  C5  UNL     1      -6.476  -1.961  -0.431  1.00  0.00     0.001 A 
HETATM   29  C6  UNL     1      -5.123  -1.698  -0.444  1.00  0.00     0.015 A 
BRANCH  25  30
HETATM   30  O1  UNL     1      -4.706   1.504   1.133  1.00  0.00    -0.355 OA
HETATM   31  C1  UNL     1      -5.237   2.629   1.760  1.00  0.00     0.210 C 
ENDBRANCH  25  30
ENDBRANCH   1  24
TORSDOF 3
