REMARK  6 active torsions:
REMARK  status: ('A' for Active; 'I' for Inactive)
REMARK    1  A    between atoms: C2_2  and  N1_3 
REMARK       I    between atoms: N1_3  and  C3_4 
REMARK    2  A    between atoms: C3_4  and  C4_6 
REMARK    3  A    between atoms: C5_7  and  C6_8 
REMARK    4  A    between atoms: C14_17  and  C15_18 
REMARK    5  A    between atoms: C18_21  and  C19_22 
REMARK    6  A    between atoms: C19_22  and  N3_23 
ROOT
HETATM    1  C6  UNL     1       0.398   0.040  -0.469  1.00  0.00    -0.028 C 
HETATM    2  C7  UNL     1      -0.188  -1.186  -0.553  1.00  0.00     0.014 C 
HETATM    3  C8  UNL     1      -1.608  -1.529  -0.873  1.00  0.00     0.030 C 
HETATM    4  C9  UNL     1      -2.645  -0.727  -1.252  1.00  0.00     0.035 C 
HETATM    5  N2  UNL     1      -2.733   0.427  -2.147  1.00  0.00    -0.378 N 
HETATM    6  C10 UNL     1      -2.739   1.545  -1.225  1.00  0.00     0.128 C 
HETATM    7  C11 UNL     1      -3.918   1.597  -0.326  1.00  0.00     0.002 C 
HETATM    8  C12 UNL     1      -4.891   0.760   0.106  1.00  0.00    -0.001 C 
HETATM    9  C13 UNL     1      -4.763  -0.723  -0.028  1.00  0.00     0.009 C 
HETATM   10  C14 UNL     1      -3.671  -1.443  -0.400  1.00  0.00    -0.032 C 
HETATM   11  C17 UNL     1      -1.457   1.815  -0.559  1.00  0.00     0.011 C 
HETATM   12  C18 UNL     1      -0.222   1.371  -0.397  1.00  0.00    -0.022 C 
HETATM   13  H11 UNL     1      -2.792   0.626  -3.209  1.00  0.00     0.160 HD
ENDROOT
BRANCH   1  14
HETATM   14  C5  UNL     1       1.806  -0.096  -0.453  1.00  0.00     0.017 C 
HETATM   15  C4  UNL     1       3.025   0.353  -0.405  1.00  0.00     0.075 C 
BRANCH  15  16
HETATM   16  C3  UNL     1       4.350  -0.234  -0.419  1.00  0.00     0.241 C 
HETATM   17  N1  UNL     1       4.522  -1.656  -0.503  1.00  0.00    -0.358 N 
HETATM   18  H6  UNL     1       3.722  -2.350  -0.559  1.00  0.00     0.162 HD
HETATM   19  O1  UNL     1       5.445   0.305  -0.367  1.00  0.00    -0.269 OA
BRANCH  17  20
HETATM   20  C2  UNL     1       5.891  -2.157  -0.511  1.00  0.00     0.118 C 
HETATM   21  C1  UNL     1       6.646  -1.777   0.728  1.00  0.00     0.026 C 
ENDBRANCH  17  20
ENDBRANCH  15  16
ENDBRANCH   1  14
BRANCH  12  22
HETATM   22  C19 UNL     1       0.773   2.389  -0.066  1.00  0.00     0.308 C 
BRANCH  22  23
HETATM   23  N3  UNL     1       0.099   3.677   0.034  1.00  0.00     0.083 N 
HETATM   24  C20 UNL     1       1.051   4.734   0.366  1.00  0.00     0.307 C 
HETATM   25  H24 UNL     1      -0.248   3.937  -0.934  1.00  0.00     0.315 HD
ENDBRANCH  22  23
ENDBRANCH  12  22
BRANCH  10  26
HETATM   26  C15 UNL     1      -3.369  -2.811  -0.077  1.00  0.00     0.036 C 
HETATM   27  C16 UNL     1      -4.630  -3.172   0.741  1.00  0.00     0.010 C 
ENDBRANCH  10  26
TORSDOF 6
