REMARK  3 active torsions:
REMARK  status: ('A' for Active; 'I' for Inactive)
REMARK    1  A    between atoms: O1_2  and  C2_3 
REMARK    2  A    between atoms: C16_19  and  C17_20 
REMARK    3  A    between atoms: C17_20  and  S1_21 
ROOT
HETATM    1  C2  UNL     1      -1.606   1.892   0.179  1.00  0.00     0.064 C 
HETATM    2  C3  UNL     1      -2.760   1.389   0.751  1.00  0.00     0.034 C 
HETATM    3  C4  UNL     1      -3.846   0.374   0.973  1.00  0.00    -0.001 C 
HETATM    4  C5  UNL     1      -4.897  -0.458   1.266  1.00  0.00    -0.022 C 
HETATM    5  C6  UNL     1      -4.783  -1.799   0.538  1.00  0.00     0.065 C 
HETATM    6  C7  UNL     1      -3.292  -1.991   0.324  1.00  0.00    -0.053 A 
HETATM    7  C8  UNL     1      -2.516  -2.105  -0.800  1.00  0.00     0.008 A 
HETATM    8  C9  UNL     1      -1.154  -1.963  -0.448  1.00  0.00     0.011 A 
HETATM    9  C10 UNL     1      -1.143  -1.776   0.866  1.00  0.00    -0.012 A 
HETATM   10  C11 UNL     1      -1.594  -1.632   2.151  1.00  0.00     0.042 A 
HETATM   11  C12 UNL     1      -2.869  -1.782   1.656  1.00  0.00     0.037 A 
HETATM   12  N1  UNL     1      -0.589  -1.464   3.139  1.00  0.00    -0.326 N 
HETATM   13  C13 UNL     1       0.620  -1.511   2.301  1.00  0.00     0.236 C 
HETATM   14  O2  UNL     1       1.557  -2.017   3.023  1.00  0.00    -0.272 OA
HETATM   15  C14 UNL     1       0.019  -0.936   1.111  1.00  0.00     0.165 C 
HETATM   16  C15 UNL     1       0.854  -0.445   0.031  1.00  0.00     0.049 A 
HETATM   17  C16 UNL     1       2.136  -0.709  -0.372  1.00  0.00     0.048 A 
HETATM   18  C19 UNL     1       2.450   0.098  -1.440  1.00  0.00    -0.015 A 
HETATM   19  C20 UNL     1       1.338   0.852  -1.678  1.00  0.00     0.020 A 
HETATM   20  N2  UNL     1       0.327   0.539  -0.783  1.00  0.00    -0.345 N 
HETATM   21  C21 UNL     1      -0.920   1.130  -0.847  1.00  0.00     0.193 C 
HETATM   22  C22 UNL     1       1.666   1.751  -2.854  1.00  0.00     0.058 C 
HETATM   23  C23 UNL     1       2.868   2.575  -2.452  1.00  0.00     0.006 C 
HETATM   24  C24 UNL     1       4.089   1.695  -2.386  1.00  0.00     0.005 C 
HETATM   25  C25 UNL     1       3.669   0.268  -2.287  1.00  0.00     0.042 C 
HETATM   26  H12 UNL     1      -1.043  -1.385   4.099  1.00  0.00     0.169 HD
ENDROOT
BRANCH  17  27
HETATM   27  C17 UNL     1       2.976  -1.650   0.189  1.00  0.00    -0.069 C 
BRANCH  27  28
HETATM   28  S1  UNL     1       3.830  -2.645   0.763  1.00  0.00    -0.071 SA
HETATM   29  C18 UNL     1       4.819  -3.831   1.459  1.00  0.00     0.083 A 
HETATM   30  O3  UNL     1       5.066  -2.752   2.117  1.00  0.00     0.000 OA
HETATM   31  O4  UNL     1       5.740  -3.860   2.488  1.00  0.00     0.000 OA
HETATM   32  H14 UNL     1       5.824  -4.701   3.096  1.00  0.00     0.000 HD
ENDBRANCH  27  28
ENDBRANCH  17  27
BRANCH   1  33
HETATM   33  O1  UNL     1      -1.384   3.116   0.766  1.00  0.00    -0.359 OA
HETATM   34  C1  UNL     1      -2.169   4.264   0.505  1.00  0.00     0.209 C 
ENDBRANCH   1  33
TORSDOF 3
