REMARK  6 active torsions:
REMARK  status: ('A' for Active; 'I' for Inactive)
REMARK    1  A    between atoms: N1_9  and  C7_10 
REMARK    2  A    between atoms: C11_16  and  O1_17 
REMARK    3  A    between atoms: C13_19  and  C14_20 
REMARK    4  A    between atoms: C14_20  and  N4_21 
REMARK    5  A    between atoms: N4_21  and  C16_23 
REMARK    6  A    between atoms: C16_23  and  C18_25 
REMARK       I    between atoms: C18_25  and  N5_26 
ROOT
HETATM    1  C7  UNL     1       2.626   0.851   0.719  1.00  0.00     0.144 A 
HETATM    2  N2  UNL     1       3.607   1.728   1.068  1.00  0.00    -0.223 NA
HETATM    3  C8  UNL     1       3.415   3.059   1.107  1.00  0.00     0.236 A 
HETATM    4  N3  UNL     1       2.202   3.554   0.788  1.00  0.00    -0.241 NA
HETATM    5  C9  UNL     1       1.207   2.739   0.439  1.00  0.00     0.074 A 
HETATM    6  C10 UNL     1      -0.061   3.160   0.094  1.00  0.00     0.070 A 
HETATM    7  C11 UNL     1      -1.055   2.243  -0.267  1.00  0.00     0.078 A 
HETATM    8  C13 UNL     1      -0.803   0.864  -0.293  1.00  0.00     0.004 A 
HETATM    9  C19 UNL     1       0.466   0.447   0.054  1.00  0.00     0.029 A 
HETATM   10  C20 UNL     1       1.400   1.391   0.399  1.00  0.00     0.040 A 
ENDROOT
BRANCH   8  11
HETATM   11  C14 UNL     1      -1.857  -0.091  -0.676  1.00  0.00     0.314 C 
BRANCH  11  12
HETATM   12  N4  UNL     1      -2.840  -0.330   0.333  1.00  0.00     0.101 N 
HETATM   13  C15 UNL     1      -2.250  -0.870   1.536  1.00  0.00     0.311 C 
BRANCH  12  14
HETATM   14  C16 UNL     1      -3.709  -1.392  -0.200  1.00  0.00     0.309 C 
HETATM   15  C17 UNL     1      -4.362  -0.951  -1.492  1.00  0.00     0.053 C 
BRANCH  14  16
HETATM   16  C18 UNL     1      -4.677  -1.871   0.801  1.00  0.00     0.248 C 
HETATM   17  N5  UNL     1      -5.526  -2.910   0.277  1.00  0.00    -0.368 N 
HETATM   18  H21 UNL     1      -5.945  -3.174  -0.657  1.00  0.00     0.159 HD
HETATM   19  H22 UNL     1      -5.923  -3.698   0.860  1.00  0.00     0.159 HD
HETATM   20  O2  UNL     1      -4.948  -1.596   2.009  1.00  0.00    -0.271 OA
ENDBRANCH  14  16
ENDBRANCH  12  14
ENDBRANCH  11  12
ENDBRANCH   8  11
BRANCH   7  21
HETATM   21  O1  UNL     1      -2.328   2.683  -0.612  1.00  0.00    -0.355 OA
HETATM   22  C12 UNL     1      -2.596   4.088  -0.590  1.00  0.00     0.210 C 
ENDBRANCH   7  21
BRANCH   1  23
HETATM   23  N1  UNL     1       3.072  -0.507   0.774  1.00  0.00    -0.323 N 
HETATM   24  C3  UNL     1       4.058  -0.898  -0.191  1.00  0.00     0.072 A 
HETATM   25  C2  UNL     1       4.644  -0.209  -1.143  1.00  0.00     0.002 C 
HETATM   26  C4  UNL     1       4.392  -2.314   0.010  1.00  0.00     0.162 A 
HETATM   27  C1  UNL     1       5.647  -0.828  -2.036  1.00  0.00     0.038 C 
HETATM   28  F1  UNL     1       5.228  -3.198  -0.579  1.00  0.00    -0.202 F 
HETATM   29  C5  UNL     1       3.642  -2.707   1.028  1.00  0.00     0.070 A 
HETATM   30 CL1  UNL     1       3.542  -4.285   1.791  1.00  0.00    -0.084 Cl
HETATM   31  C6  UNL     1       2.766  -1.652   1.594  1.00  0.00     0.185 A 
ENDBRANCH   1  23
TORSDOF 6
