REMARK  9 active torsions:
REMARK  status: ('A' for Active; 'I' for Inactive)
REMARK    1  A    between atoms: O1_2  and  C2_3 
REMARK    2  A    between atoms: C2_3  and  C3_5 
REMARK    3  A    between atoms: C3_5  and  C4_6 
REMARK    4  A    between atoms: C9_11  and  C10_12 
REMARK    5  A    between atoms: C13_15  and  O3_16 
REMARK    6  A    between atoms: C22_27  and  C23_28 
REMARK    7  A    between atoms: C23_28  and  C24_29 
REMARK    8  A    between atoms: C24_29  and  C25_30 
REMARK    9  A    between atoms: C25_30  and  N2_31 
ROOT
HETATM    1  C4  UNL     1      -2.202   0.917   0.628  1.00  0.00    -0.056 A 
HETATM    2  C5  UNL     1      -1.015   1.302   0.583  1.00  0.00     0.012 A 
HETATM    3  C6  UNL     1      -0.620   0.523  -0.560  1.00  0.00    -0.044 A 
HETATM    4  C7  UNL     1      -0.087  -0.175  -1.554  1.00  0.00     0.009 C 
HETATM    5  C8  UNL     1       1.324  -0.458  -1.701  1.00  0.00     0.013 C 
HETATM    6  C9  UNL     1       2.303  -0.161  -0.911  1.00  0.00    -0.024 C 
HETATM    7  C17 UNL     1       1.559  -0.491   0.385  1.00  0.00     0.037 C 
HETATM    8  C18 UNL     1       0.342  -1.015   0.762  1.00  0.00     0.013 C 
HETATM    9  C19 UNL     1      -0.958  -1.570   1.341  1.00  0.00     0.072 C 
HETATM   10  C20 UNL     1      -1.959  -1.432   0.210  1.00  0.00     0.101 C 
HETATM   11  C21 UNL     1      -1.271  -2.321  -0.750  1.00  0.00     0.227 C 
HETATM   12  O4  UNL     1      -1.776  -3.020  -1.610  1.00  0.00    -0.273 OA
HETATM   13  N1  UNL     1       0.087  -2.050  -0.296  1.00  0.00    -0.330 N 
HETATM   14  C22 UNL     1      -1.978  -0.033  -0.428  1.00  0.00     0.023 A 
HETATM   15  H20 UNL     1       0.815  -2.681  -0.829  1.00  0.00     0.168 HD
ENDROOT
BRANCH   6  16
HETATM   16  C10 UNL     1       3.571   0.005  -0.309  1.00  0.00    -0.026 A 
HETATM   17  C11 UNL     1       4.480  -0.624  -1.181  1.00  0.00     0.015 A 
HETATM   18  C12 UNL     1       5.858  -0.643  -0.938  1.00  0.00     0.037 A 
HETATM   19  C13 UNL     1       6.269   0.003   0.225  1.00  0.00     0.068 A 
HETATM   20  C15 UNL     1       5.368   0.602   1.049  1.00  0.00     0.037 A 
HETATM   21  C16 UNL     1       4.034   0.622   0.817  1.00  0.00     0.015 A 
BRANCH  19  22
HETATM   22  O3  UNL     1       7.602   0.045   0.558  1.00  0.00    -0.356 OA
HETATM   23  C14 UNL     1       8.037   0.690   1.724  1.00  0.00     0.210 C 
ENDBRANCH  19  22
ENDBRANCH   6  16
BRANCH  14  24
HETATM   24  C23 UNL     1      -2.898  -0.014  -1.578  1.00  0.00     0.021 C 
BRANCH  24  25
HETATM   25  C24 UNL     1      -2.939   1.274  -2.338  1.00  0.00     0.031 C 
BRANCH  25  26
HETATM   26  C25 UNL     1      -3.947   1.062  -3.475  1.00  0.00     0.267 C 
BRANCH  26  27
HETATM   27  N2  UNL     1      -4.000   2.304  -4.230  1.00  0.00     0.078 N 
HETATM   28  H27 UNL     1      -4.422   3.064  -3.681  1.00  0.00     0.312 HD
HETATM   29  H28 UNL     1      -3.039   2.551  -4.549  1.00  0.00     0.312 HD
ENDBRANCH  26  27
ENDBRANCH  25  26
ENDBRANCH  24  25
ENDBRANCH  14  24
BRANCH   1  30
HETATM   30  C3  UNL     1      -3.299   1.283   1.544  1.00  0.00     0.146 C 
BRANCH  30  31
HETATM   31  C2  UNL     1      -3.871   0.166   2.311  1.00  0.00     0.262 C 
HETATM   32  O2  UNL     1      -4.723  -0.753   2.213  1.00  0.00    -0.265 OA
BRANCH  31  33
HETATM   33  O1  UNL     1      -3.554  -0.246   3.599  1.00  0.00    -0.326 OA
HETATM   34  C1  UNL     1      -4.202  -1.352   4.198  1.00  0.00     0.213 C 
ENDBRANCH  31  33
ENDBRANCH  30  31
ENDBRANCH   1  30
TORSDOF 9
