REMARK  4 active torsions:
REMARK  status: ('A' for Active; 'I' for Inactive)
REMARK    1  A    between atoms: O1_2  and  C2_3 
REMARK    2  A    between atoms: C9_12  and  C10_13 
REMARK    3  A    between atoms: C10_13  and  C11_14 
REMARK    4  A    between atoms: C11_14  and  C12_15 
ROOT
HETATM    1  C2  UNL     1       3.459   1.360  -0.001  1.00  0.00     0.082 C 
HETATM    2  C3  UNL     1       2.792   0.209  -0.385  1.00  0.00     0.092 C 
HETATM    3  C4  UNL     1       2.991  -0.320  -1.685  1.00  0.00     0.004 C 
HETATM    4  C5  UNL     1       2.316  -1.388  -1.981  1.00  0.00    -0.058 C 
HETATM    5  C6  UNL     1       2.578  -1.898  -3.353  1.00  0.00     0.046 C 
HETATM    6  C7  UNL     1       1.255  -2.160  -1.315  1.00  0.00     0.235 C 
HETATM    7  O2  UNL     1       0.924  -1.558  -0.100  1.00  0.00    -0.273 OA
HETATM    8  N1  UNL     1      -0.418  -1.711   0.142  1.00  0.00    -0.249 N 
HETATM    9  C8  UNL     1      -1.118  -0.447   0.155  1.00  0.00     0.065 C 
HETATM   10  C9  UNL     1      -2.416  -0.551   0.060  1.00  0.00    -0.021 C 
HETATM   11  C13 UNL     1      -2.767  -1.965   0.091  1.00  0.00    -0.028 C 
HETATM   12  C14 UNL     1      -3.764  -2.779  -0.042  1.00  0.00    -0.017 C 
HETATM   13  C15 UNL     1      -3.741  -4.244   0.067  1.00  0.00     0.028 C 
HETATM   14  C16 UNL     1      -2.437  -4.834  -0.292  1.00  0.00     0.006 C 
HETATM   15  C17 UNL     1      -1.427  -3.789  -0.653  1.00  0.00     0.033 C 
HETATM   16  C18 UNL     1      -1.469  -2.683   0.373  1.00  0.00     0.148 C 
HETATM   17  C19 UNL     1      -0.603   0.863   0.337  1.00  0.00     0.041 C 
HETATM   18  C20 UNL     1      -0.210   2.060   0.583  1.00  0.00    -0.020 C 
HETATM   19  C21 UNL     1      -0.880   2.801   1.654  1.00  0.00     0.309 C 
HETATM   20  N2  UNL     1      -0.276   4.113   1.598  1.00  0.00     0.091 N 
HETATM   21  C22 UNL     1       1.058   3.915   1.039  1.00  0.00     0.309 C 
HETATM   22  C23 UNL     1       0.896   2.852   0.045  1.00  0.00    -0.022 C 
HETATM   23  C24 UNL     1       1.686   2.843  -1.008  1.00  0.00     0.010 C 
HETATM   24  C25 UNL     1       2.779   3.447  -1.730  1.00  0.00     0.012 C 
HETATM   25  C26 UNL     1       3.862   2.762  -2.008  1.00  0.00    -0.027 C 
HETATM   26  C27 UNL     1       4.333   1.976  -1.046  1.00  0.00     0.022 C 
HETATM   27  H27 UNL     1      -0.868   4.688   0.943  1.00  0.00     0.316 HD
ENDROOT
BRANCH  10  28
HETATM   28  C10 UNL     1      -3.433   0.506   0.025  1.00  0.00     0.048 C 
BRANCH  28  29
HETATM   29  C11 UNL     1      -4.327   0.451   1.266  1.00  0.00     0.075 C 
BRANCH  29  30
HETATM   30  C12 UNL     1      -3.506   0.610   2.502  1.00  0.00     0.117 A 
HETATM   31  O3  UNL     1      -4.288   0.670   3.513  1.00  0.00    -0.194 OA
HETATM   32  O4  UNL     1      -2.859   0.758   3.703  1.00  0.00     0.000 OA
HETATM   33  H15 UNL     1      -1.867   0.524   3.740  1.00  0.00     0.000 HD
ENDBRANCH  29  30
ENDBRANCH  28  29
ENDBRANCH  10  28
BRANCH   1  34
HETATM   34  O1  UNL     1       3.951   2.480   0.734  1.00  0.00    -0.382 OA
HETATM   35  C1  UNL     1       5.045   2.186   1.610  1.00  0.00     0.202 C 
ENDBRANCH   1  34
TORSDOF 4
