REMARK  7 active torsions:
REMARK  status: ('A' for Active; 'I' for Inactive)
REMARK    1  A    between atoms: N1_2  and  C2_3 
REMARK    2  A    between atoms: C2_3  and  N2_4 
REMARK    3  A    between atoms: N2_4  and  C3_5 
REMARK    4  A    between atoms: C11_16  and  C12_17 
REMARK    5  A    between atoms: C12_17  and  N4_18 
REMARK    6  A    between atoms: N4_18  and  C14_20 
REMARK    7  A    between atoms: C14_20  and  C16_22 
REMARK       I    between atoms: C16_22  and  N5_23 
ROOT
HETATM    1  C2  UNL     1       2.473   0.608  -0.031  1.00  0.00     0.138 C 
HETATM    2  C9  UNL     1       1.200   0.803   0.355  1.00  0.00     0.029 A 
HETATM    3  C10 UNL     1       0.574   1.043   1.663  1.00  0.00     0.132 A 
HETATM    4  N3  UNL     1      -0.694   1.164   1.489  1.00  0.00    -0.263 NA
HETATM    5  C11 UNL     1      -1.059   1.030   0.133  1.00  0.00     0.063 A 
HETATM    6  C17 UNL     1       0.053   0.815  -0.552  1.00  0.00     0.045 A 
ENDROOT
BRANCH   1   7
HETATM    7  N1  UNL     1       2.769   0.393  -1.427  1.00  0.00    -0.253 NA
HETATM    8  C1  UNL     1       2.748   1.496  -2.134  1.00  0.00     0.151 C 
ENDBRANCH   1   7
BRANCH   1   9
HETATM    9  N2  UNL     1       3.509   0.615   0.937  1.00  0.00    -0.338 N 
HETATM   10  H3  UNL     1       3.428   1.194   1.810  1.00  0.00     0.167 HD
BRANCH   9  11
HETATM   11  C3  UNL     1       4.642  -0.219   0.619  1.00  0.00     0.074 A 
HETATM   12  C4  UNL     1       5.706   0.259  -0.089  1.00  0.00     0.033 A 
HETATM   13  C5  UNL     1       6.732  -0.619  -0.338  1.00  0.00     0.004 A 
HETATM   14  C6  UNL     1       6.720  -1.936   0.094  1.00  0.00     0.027 A 
HETATM   15  C7  UNL     1       5.615  -2.385   0.814  1.00  0.00     0.074 A 
HETATM   16 CL1  UNL     1       5.609  -4.052   1.358  1.00  0.00    -0.081 Cl
HETATM   17  C8  UNL     1       4.586  -1.528   1.072  1.00  0.00     0.164 A 
HETATM   18  F1  UNL     1       3.513  -1.981   1.776  1.00  0.00    -0.202 F 
ENDBRANCH   9  11
ENDBRANCH   1   9
BRANCH   5  19
HETATM   19  C12 UNL     1      -2.457   1.115  -0.432  1.00  0.00     0.332 C 
BRANCH  19  20
HETATM   20  N4  UNL     1      -3.309   0.114   0.132  1.00  0.00     0.103 N 
HETATM   21  C13 UNL     1      -2.914  -1.191  -0.302  1.00  0.00     0.311 C 
BRANCH  20  22
HETATM   22  C14 UNL     1      -4.690   0.430  -0.084  1.00  0.00     0.309 C 
HETATM   23  C15 UNL     1      -5.107   0.532  -1.519  1.00  0.00     0.053 C 
BRANCH  22  24
HETATM   24  C16 UNL     1      -5.498  -0.566   0.672  1.00  0.00     0.248 C 
HETATM   25  N5  UNL     1      -6.897  -0.349   0.517  1.00  0.00    -0.368 N 
HETATM   26  H17 UNL     1      -7.911  -0.075   0.522  1.00  0.00     0.159 HD
HETATM   27  H18 UNL     1      -7.533  -0.850  -0.163  1.00  0.00     0.159 HD
HETATM   28  O1  UNL     1      -5.307  -1.565   1.425  1.00  0.00    -0.271 OA
ENDBRANCH  22  24
ENDBRANCH  20  22
ENDBRANCH  19  20
ENDBRANCH   5  19
TORSDOF 7
