REMARK  3 active torsions:
REMARK  status: ('A' for Active; 'I' for Inactive)
REMARK       I    between atoms: C1_2  and  N1_3 
REMARK    1  A    between atoms: C1_2  and  C8_10 
REMARK    2  A    between atoms: N1_3  and  C2_4 
REMARK    3  A    between atoms: C16_19  and  C17_20 
ROOT
HETATM    1  C8  UNL     1      -0.439   0.453   1.047  1.00  0.00     0.114 A 
HETATM    2  C9  UNL     1      -1.716   0.940   0.053  1.00  0.00     0.011 A 
HETATM    3  C10 UNL     1      -2.861   0.711   0.814  1.00  0.00     0.028 C 
HETATM    4  C11 UNL     1      -3.402  -0.200  -0.337  1.00  0.00     0.096 C 
HETATM    5  N2  UNL     1      -2.176  -0.489  -1.166  1.00  0.00    -0.407 N 
HETATM    6  C12 UNL     1      -1.138   0.224  -0.080  1.00  0.00     0.040 A 
HETATM    7  C13 UNL     1      -0.649   1.366  -0.732  1.00  0.00     0.033 A 
HETATM    8  C14 UNL     1      -1.218  -0.779   1.081  1.00  0.00     0.015 A 
HETATM    9  C15 UNL     1      -2.024  -1.771   0.798  1.00  0.00     0.019 C 
HETATM   10  C16 UNL     1      -3.447  -1.631   0.244  1.00  0.00     0.121 C 
HETATM   11  H10 UNL     1      -2.650  -1.007  -2.018  1.00  0.00     0.154 HD
ENDROOT
BRANCH   1  12
HETATM   12  C1  UNL     1       0.850   0.441   0.567  1.00  0.00     0.229 C 
HETATM   13  O1  UNL     1       1.347  -0.736   0.528  1.00  0.00    -0.273 OA
HETATM   14  N1  UNL     1       1.717   1.465   0.115  1.00  0.00    -0.327 N 
HETATM   15  H1  UNL     1       1.326   2.424   0.150  1.00  0.00     0.169 HD
BRANCH  14  16
HETATM   16  C2  UNL     1       3.018   1.040  -0.322  1.00  0.00     0.034 A 
HETATM   17  C3  UNL     1       4.117   0.942   0.509  1.00  0.00     0.029 A 
HETATM   18  C4  UNL     1       5.321   0.521  -0.021  1.00  0.00     0.002 A 
HETATM   19  C5  UNL     1       5.378   0.211  -1.372  1.00  0.00     0.000 A 
HETATM   20  C6  UNL     1       4.273   0.313  -2.193  1.00  0.00     0.002 A 
HETATM   21  C7  UNL     1       3.072   0.731  -1.674  1.00  0.00     0.029 A 
ENDBRANCH  14  16
ENDBRANCH   1  12
BRANCH  10  22
HETATM   22  C17 UNL     1      -4.357  -1.754   1.415  1.00  0.00     0.393 C 
HETATM   23  F1  UNL     1      -5.663  -1.435   1.140  1.00  0.00    -0.171 F 
HETATM   24  F2  UNL     1      -4.356  -3.105   1.766  1.00  0.00    -0.171 F 
HETATM   25  F3  UNL     1      -3.839  -1.098   2.513  1.00  0.00    -0.171 F 
ENDBRANCH  10  22
TORSDOF 3
