REMARK  6 active torsions:
REMARK  status: ('A' for Active; 'I' for Inactive)
REMARK    1  A    between atoms: O1_2  and  C2_3 
REMARK    2  A    between atoms: C9_10  and  S1_11 
REMARK    3  A    between atoms: S1_11  and  S2_12 
REMARK    4  A    between atoms: S2_12  and  C10_13 
REMARK    5  A    between atoms: C10_13  and  C11_14 
REMARK       I    between atoms: C11_14  and  N1_16 
REMARK    6  A    between atoms: N1_16  and  C12_17 
ROOT
HETATM    1  S1  UNL     1       0.211   1.278   1.014  1.00  0.00    -0.039 SA
ENDROOT
BRANCH   1   2
HETATM    2  C9  UNL     1      -1.500   0.962   0.498  1.00  0.00     0.083 A 
HETATM    3  C8  UNL     1      -2.450   1.065   1.519  1.00  0.00     0.051 A 
HETATM    4  C6  UNL     1      -3.678   0.755   0.936  1.00  0.00    -0.004 A 
HETATM    5  C5  UNL     1      -3.389   0.487  -0.392  1.00  0.00     0.045 A 
HETATM    6  C7  UNL     1      -4.991   0.642   1.347  1.00  0.00     0.050 A 
HETATM    7  C4  UNL     1      -4.336   0.118  -1.325  1.00  0.00     0.033 A 
HETATM    8  N2  UNL     1      -2.082   0.613  -0.660  1.00  0.00    -0.344 N 
HETATM    9  C3  UNL     1      -5.657   0.012  -0.884  1.00  0.00     0.039 A 
HETATM   10  C2  UNL     1      -5.963   0.273   0.437  1.00  0.00     0.069 A 
HETATM   11  C18 UNL     1      -1.301   0.445  -1.871  1.00  0.00     0.157 C 
BRANCH  10  12
HETATM   12  O1  UNL     1      -7.262   0.170   0.891  1.00  0.00    -0.356 OA
HETATM   13  C1  UNL     1      -8.275  -0.218  -0.017  1.00  0.00     0.210 C 
ENDBRANCH  10  12
ENDBRANCH   1   2
BRANCH   1  14
HETATM   14  S2  UNL     1       1.090  -0.551   1.675  1.00  0.00    -0.082 SA
BRANCH  14  15
HETATM   15  C10 UNL     1       1.904  -1.454   0.354  1.00  0.00     0.189 C 
BRANCH  15  16
HETATM   16  C11 UNL     1       3.143  -0.774  -0.121  1.00  0.00     0.232 C 
HETATM   17  O2  UNL     1       3.629  -0.015  -1.007  1.00  0.00    -0.272 OA
HETATM   18  N1  UNL     1       4.278  -1.053   0.735  1.00  0.00    -0.327 N 
HETATM   19  H10 UNL     1       4.290  -1.667   1.607  1.00  0.00     0.169 HD
BRANCH  18  20
HETATM   20  C12 UNL     1       5.546  -0.461   0.392  1.00  0.00     0.034 A 
HETATM   21  C13 UNL     1       5.897   0.784   0.852  1.00  0.00     0.029 A 
HETATM   22  C14 UNL     1       7.132   1.236   0.463  1.00  0.00     0.002 A 
HETATM   23  C15 UNL     1       7.948   0.452  -0.348  1.00  0.00     0.000 A 
HETATM   24  C16 UNL     1       7.559  -0.794  -0.789  1.00  0.00     0.002 A 
HETATM   25  C17 UNL     1       6.314  -1.260  -0.401  1.00  0.00     0.029 A 
ENDBRANCH  18  20
ENDBRANCH  15  16
ENDBRANCH  14  15
ENDBRANCH   1  14
TORSDOF 6
