REMARK  7 active torsions:
REMARK  status: ('A' for Active; 'I' for Inactive)
REMARK    1  A    between atoms: C2_2  and  C3_3 
REMARK    2  A    between atoms: C3_3  and  C4_4 
REMARK    3  A    between atoms: C4_4  and  C5_5 
REMARK    4  A    between atoms: C5_5  and  C6_6 
REMARK    5  A    between atoms: C6_6  and  N1_7 
REMARK       I    between atoms: N1_7  and  C7_8 
REMARK    6  A    between atoms: C7_8  and  C8_10 
REMARK    7  A    between atoms: C8_10  and  C9_11 
ROOT
HETATM    1  C9  UNL     1      -0.997   0.364  -0.012  1.00  0.00    -0.052 C 
HETATM    2  C10 UNL     1      -1.384   1.597   0.056  1.00  0.00     0.092 C 
HETATM    3  N2  UNL     1      -2.630   2.214   0.103  1.00  0.00    -0.365 N 
HETATM    4  C11 UNL     1      -3.771   1.397   0.041  1.00  0.00     0.035 C 
HETATM    5  C12 UNL     1      -5.058   1.766   0.315  1.00  0.00     0.009 C 
HETATM    6  C13 UNL     1      -6.484   1.213   0.363  1.00  0.00     0.030 A 
HETATM    7  C14 UNL     1      -7.070   0.111   0.087  1.00  0.00     0.064 A 
HETATM    8  C15 UNL     1      -6.361  -1.119  -0.494  1.00  0.00     0.082 A 
HETATM    9  O2  UNL     1      -6.194   0.052  -0.202  1.00  0.00     0.000 OA
HETATM   10  O3  UNL     1      -5.840  -2.227  -0.984  1.00  0.00    -0.349 OA
HETATM   11  C16 UNL     1      -4.469  -2.162  -1.563  1.00  0.00     0.203 C 
HETATM   12  C17 UNL     1      -3.912  -0.978  -0.804  1.00  0.00     0.009 C 
HETATM   13  C18 UNL     1      -3.376  -0.025  -0.130  1.00  0.00    -0.029 C 
HETATM   14  C19 UNL     1      -2.120  -0.663   0.244  1.00  0.00     0.076 C 
HETATM   15  H14 UNL     1      -2.822   3.232   0.172  1.00  0.00     0.165 HD
ENDROOT
BRANCH   1  16
HETATM   16  C8  UNL     1       0.306  -0.244  -0.080  1.00  0.00     0.138 C 
BRANCH  16  17
HETATM   17  C7  UNL     1       1.459   0.723   0.039  1.00  0.00     0.221 C 
HETATM   18  N1  UNL     1       2.810   0.163   0.168  1.00  0.00    -0.357 N 
HETATM   19  H10 UNL     1       2.784  -0.899   0.157  1.00  0.00     0.162 HD
HETATM   20  O1  UNL     1       1.571   2.005   0.062  1.00  0.00    -0.273 OA
BRANCH  18  21
HETATM   21  C6  UNL     1       3.740   1.299   0.274  1.00  0.00     0.149 C 
BRANCH  21  22
HETATM   22  C5  UNL     1       5.139   0.852   0.431  1.00  0.00    -0.011 C 
BRANCH  22  23
HETATM   23  C4  UNL     1       6.290   0.121   0.556  1.00  0.00    -0.023 C 
BRANCH  23  24
HETATM   24  C3  UNL     1       5.378  -0.946   0.445  1.00  0.00     0.020 C 
BRANCH  24  25
HETATM   25  C2  UNL     1       6.286  -2.005   0.557  1.00  0.00    -0.006 C 
HETATM   26  C1  UNL     1       7.660  -1.443   0.732  1.00  0.00     0.011 C 
ENDBRANCH  24  25
ENDBRANCH  23  24
ENDBRANCH  22  23
ENDBRANCH  21  22
ENDBRANCH  18  21
ENDBRANCH  16  17
ENDBRANCH   1  16
TORSDOF 7
