REMARK  5 active torsions:
REMARK  status: ('A' for Active; 'I' for Inactive)
REMARK    1  A    between atoms: C2_2  and  C3_3 
REMARK    2  A    between atoms: C4_4  and  C5_5 
REMARK    3  A    between atoms: C6_6  and  N1_7 
REMARK       I    between atoms: N1_7  and  C7_8 
REMARK    4  A    between atoms: C7_8  and  C8_10 
REMARK    5  A    between atoms: C14_17  and  C15_18 
ROOT
HETATM    1  C8  UNL     1      -1.457   1.008  -0.404  1.00  0.00     0.185 A 
HETATM    2  C9  UNL     1      -1.247   1.961  -1.492  1.00  0.00     0.089 C 
HETATM    3  N2  UNL     1      -1.099   2.714  -2.340  1.00  0.00    -0.195 NA
HETATM    4  C10 UNL     1      -2.743   1.239   0.347  1.00  0.00    -0.012 A 
HETATM    5  C11 UNL     1      -3.863   1.597   1.105  1.00  0.00     0.010 A 
HETATM    6  C12 UNL     1      -4.911   0.721   1.022  1.00  0.00     0.001 A 
HETATM    7  C13 UNL     1      -4.830  -0.403   0.249  1.00  0.00     0.009 A 
HETATM    8  C14 UNL     1      -3.679  -0.706  -0.487  1.00  0.00    -0.036 A 
HETATM    9  C17 UNL     1      -2.573   0.109  -0.471  1.00  0.00    -0.005 A 
ENDROOT
BRANCH   1  10
HETATM   10  C7  UNL     1      -0.308   0.784   0.543  1.00  0.00     0.254 C 
HETATM   11  N1  UNL     1       0.916   1.488   0.358  1.00  0.00    -0.335 N 
HETATM   12  H8  UNL     1       0.960   2.149  -0.457  1.00  0.00     0.168 HD
HETATM   13  O1  UNL     1      -0.358  -0.017   1.531  1.00  0.00    -0.270 OA
BRANCH  11  14
HETATM   14  C6  UNL     1       1.843   1.099   1.389  1.00  0.00     0.091 C 
HETATM   15  C5  UNL     1       3.000   0.538   1.041  1.00  0.00     0.017 C 
BRANCH  15  16
HETATM   16  C4  UNL     1       3.276   0.343  -0.376  1.00  0.00     0.001 C 
HETATM   17  C3  UNL     1       4.423  -0.213  -0.726  1.00  0.00    -0.004 C 
BRANCH  17  18
HETATM   18  C2  UNL     1       5.414  -0.635   0.252  1.00  0.00    -0.026 C 
HETATM   19  C1  UNL     1       6.582  -1.198  -0.020  1.00  0.00     0.031 C 
ENDBRANCH  17  18
ENDBRANCH  15  16
ENDBRANCH  11  14
ENDBRANCH   1  10
BRANCH   8  20
HETATM   20  C15 UNL     1      -3.685  -1.968  -1.310  1.00  0.00     0.163 C 
HETATM   21  C16 UNL     1      -2.890  -3.009  -0.650  1.00  0.00     0.063 C 
HETATM   22  N3  UNL     1      -2.274  -3.834  -0.111  1.00  0.00    -0.197 NA
ENDBRANCH   8  20
TORSDOF 5
