REMARK  1 active torsions:
REMARK  status: ('A' for Active; 'I' for Inactive)
REMARK    1  A    between atoms: C7_7  and  C8_8 
ROOT
HETATM    1  C1  UNL     1      -0.623  -1.468   4.819  1.00  0.00     0.049 C 
HETATM    2  C2  UNL     1      -0.977  -0.713   3.596  1.00  0.00    -0.044 C 
HETATM    3  C3  UNL     1      -1.084   0.625   3.604  1.00  0.00     0.009 C 
HETATM    4  C4  UNL     1      -1.127   1.507   2.399  1.00  0.00     0.009 C 
HETATM    5  C5  UNL     1      -1.483   1.124   1.147  1.00  0.00    -0.042 C 
HETATM    6  C6  UNL     1      -2.426   0.028   0.869  1.00  0.00     0.078 C 
HETATM    7  C7  UNL     1      -1.974  -1.297   1.374  1.00  0.00    -0.024 C 
HETATM    8  C9  UNL     1      -1.177  -1.566   2.424  1.00  0.00     0.023 C 
HETATM    9  S1  UNL     1      -0.201  -3.104   2.476  1.00  0.00    -0.052 SA
HETATM   10  S2  UNL     1       0.215  -3.568   0.408  1.00  0.00    -0.063 SA
HETATM   11  C10 UNL     1       1.754  -2.757  -0.084  1.00  0.00     0.070 C 
HETATM   12  C11 UNL     1       1.942  -1.972  -1.133  1.00  0.00     0.035 C 
HETATM   13  C12 UNL     1       3.071  -1.239  -1.691  1.00  0.00     0.186 C 
HETATM   14  O2  UNL     1       4.070  -1.007  -0.911  1.00  0.00    -0.291 OA
HETATM   15  C13 UNL     1       2.759  -0.930  -3.100  1.00  0.00     0.356 C 
HETATM   16  N1  UNL     1       1.541  -1.668  -3.356  1.00  0.00     0.105 N 
HETATM   17  C14 UNL     1       0.794  -0.829  -4.309  1.00  0.00     0.311 C 
HETATM   18  C15 UNL     1       0.873  -1.666  -2.067  1.00  0.00     0.334 C 
HETATM   19  C16 UNL     1       0.129  -0.408  -1.843  1.00  0.00     0.394 A 
HETATM   20  O3  UNL     1      -0.430   0.698  -1.596  1.00  0.00    -0.142 OA
HETATM   21  N2  UNL     1       0.788   0.581  -1.003  1.00  0.00     0.122 N 
HETATM   22  C17 UNL     1       0.296   1.866  -0.622  1.00  0.00     0.181 A 
HETATM   23  C18 UNL     1       0.798   3.018  -1.185  1.00  0.00     0.041 A 
HETATM   24  C19 UNL     1       0.427   4.322  -0.919  1.00  0.00     0.002 A 
HETATM   25  C20 UNL     1      -0.564   4.502   0.023  1.00  0.00     0.001 A 
HETATM   26  C21 UNL     1      -1.110   3.358   0.628  1.00  0.00     0.014 A 
HETATM   27  C22 UNL     1      -0.695   2.079   0.317  1.00  0.00     0.008 A 
HETATM   28  H16 UNL     1       1.723   0.662  -0.480  1.00  0.00     0.329 HD
ENDROOT
BRANCH   7  29
HETATM   29  C8  UNL     1      -2.385  -2.528   0.713  1.00  0.00     0.427 C 
HETATM   30  O1  UNL     1      -3.146  -2.497  -0.300  1.00  0.00    -0.426 OA
ENDBRANCH   7  29
TORSDOF 1
