REMARK  5 active torsions:
REMARK  status: ('A' for Active; 'I' for Inactive)
REMARK    1  A    between atoms: N1_3  and  C4_5 
REMARK    2  A    between atoms: C7_8  and  C8_9 
REMARK    3  A    between atoms: C10_14  and  C11_15 
REMARK    4  A    between atoms: C11_15  and  C12_16 
REMARK       I    between atoms: C12_16  and  N2_18 
REMARK    5  A    between atoms: N2_18  and  C13_19 
ROOT
HETATM    1  C1  UNL     1      -3.680  -2.002   2.690  1.00  0.00     0.037 C 
HETATM    2  C2  UNL     1      -2.931  -1.671   1.769  1.00  0.00     0.002 C 
HETATM    3  N1  UNL     1      -2.045  -1.297   0.716  1.00  0.00    -0.311 N 
HETATM    4  C3  UNL     1      -1.229  -2.440   0.303  1.00  0.00     0.167 C 
ENDROOT
BRANCH   3   5
HETATM    5  C4  UNL     1      -2.217   0.072   0.379  1.00  0.00     0.048 A 
HETATM    6  C5  UNL     1      -3.503   0.333  -0.101  1.00  0.00     0.031 A 
HETATM    7  C6  UNL     1      -3.925   1.606  -0.493  1.00  0.00     0.018 A 
HETATM    8  C7  UNL     1      -2.967   2.590  -0.368  1.00  0.00     0.048 A 
HETATM    9  C9  UNL     1      -1.686   2.388   0.098  1.00  0.00     0.026 A 
HETATM   10  C10 UNL     1      -1.323   1.115   0.470  1.00  0.00    -0.021 A 
BRANCH   8  11
HETATM   11  C8  UNL     1      -3.351   3.967  -0.768  1.00  0.00     0.417 C 
HETATM   12  F1  UNL     1      -2.677   4.876   0.019  1.00  0.00    -0.166 F 
HETATM   13  F2  UNL     1      -3.063   4.153  -2.116  1.00  0.00    -0.166 F 
HETATM   14  F3  UNL     1      -4.691   4.121  -0.513  1.00  0.00    -0.166 F 
ENDBRANCH   8  11
BRANCH  10  15
HETATM   15  C11 UNL     1       0.021   0.796   0.970  1.00  0.00     0.144 C 
BRANCH  15  16
HETATM   16  C12 UNL     1       0.906   0.165  -0.056  1.00  0.00     0.226 C 
HETATM   17  O1  UNL     1       1.005  -0.228  -1.234  1.00  0.00    -0.273 OA
HETATM   18  N2  UNL     1       2.172  -0.108   0.547  1.00  0.00    -0.327 N 
HETATM   19  H10 UNL     1       2.607   0.026   1.508  1.00  0.00     0.169 HD
BRANCH  18  20
HETATM   20  C13 UNL     1       3.269  -0.712  -0.141  1.00  0.00     0.034 A 
HETATM   21  C14 UNL     1       3.456  -2.090  -0.168  1.00  0.00     0.029 A 
HETATM   22  C15 UNL     1       4.561  -2.565  -0.870  1.00  0.00     0.002 A 
HETATM   23  C16 UNL     1       5.445  -1.724  -1.518  1.00  0.00     0.000 A 
HETATM   24  C17 UNL     1       5.210  -0.363  -1.457  1.00  0.00     0.002 A 
HETATM   25  C18 UNL     1       4.123   0.194  -0.773  1.00  0.00     0.029 A 
ENDBRANCH  18  20
ENDBRANCH  15  16
ENDBRANCH  10  15
ENDBRANCH   3   5
TORSDOF 5
