REMARK  2 active torsions:
REMARK  status: ('A' for Active; 'I' for Inactive)
REMARK    1  A    between atoms: C2_2  and  N1_3 
REMARK    2  A    between atoms: C11_15  and  O2_16 
ROOT
HETATM    1  N1  UNL     1      -3.336  -0.256   0.527  1.00  0.00    -0.379 N 
HETATM    2  C3  UNL     1      -2.728  -0.333   1.859  1.00  0.00     0.132 C 
HETATM    3  C4  UNL     1      -1.900  -1.592   1.976  1.00  0.00     0.011 C 
HETATM    4  C5  UNL     1      -3.102  -2.468   1.904  1.00  0.00     0.398 C 
HETATM    5  O1  UNL     1      -4.022  -3.366   1.860  1.00  0.00    -0.429 OA
HETATM    6  C6  UNL     1      -0.919  -0.804   2.030  1.00  0.00     0.122 C 
HETATM    7  S1  UNL     1       0.460  -1.888   2.187  1.00  0.00    -0.084 SA
HETATM    8  S2  UNL     1       2.196  -0.635   2.014  1.00  0.00    -0.038 SA
HETATM    9  C7  UNL     1       2.578  -0.585   0.281  1.00  0.00     0.098 C 
HETATM   10  C8  UNL     1       2.063   0.351  -0.531  1.00  0.00     0.066 C 
HETATM   11  C9  UNL     1       3.015   1.219  -1.092  1.00  0.00     0.022 C 
HETATM   12  C10 UNL     1       4.374   1.242  -0.903  1.00  0.00     0.037 C 
HETATM   13  C11 UNL     1       5.571   1.112  -0.231  1.00  0.00     0.065 C 
HETATM   14  C12 UNL     1       6.366  -0.017  -0.217  1.00  0.00     0.038 C 
HETATM   15  C13 UNL     1       5.973  -1.328  -0.090  1.00  0.00     0.020 C 
HETATM   16  C14 UNL     1       4.726  -1.593   0.369  1.00  0.00     0.091 C 
HETATM   17  N2  UNL     1       3.396  -1.647   0.227  1.00  0.00    -0.354 N 
HETATM   18  C15 UNL     1       2.749  -2.918  -0.000  1.00  0.00     0.156 C 
HETATM   19  C16 UNL     1       0.736   0.686  -0.970  1.00  0.00     0.259 C 
HETATM   20  O3  UNL     1       0.663   0.454  -2.196  1.00  0.00    -0.267 OA
HETATM   21  N3  UNL     1      -0.554   1.136  -0.802  1.00  0.00    -0.321 N 
HETATM   22  C17 UNL     1      -1.853   1.586  -0.642  1.00  0.00     0.061 A 
HETATM   23  C18 UNL     1      -1.884   2.857  -1.144  1.00  0.00     0.032 A 
HETATM   24  C19 UNL     1      -3.018   3.685  -1.182  1.00  0.00     0.002 A 
HETATM   25  C20 UNL     1      -4.114   3.060  -0.647  1.00  0.00     0.002 A 
HETATM   26  C21 UNL     1      -4.037   1.752  -0.139  1.00  0.00     0.031 A 
HETATM   27  C22 UNL     1      -2.896   0.950  -0.112  1.00  0.00     0.057 A 
HETATM   28  H19 UNL     1      -0.296   1.320   0.185  1.00  0.00     0.169 HD
ENDROOT
BRANCH   1  29
HETATM   29  C2  UNL     1      -4.288  -0.986  -0.269  1.00  0.00     0.118 C 
HETATM   30  C1  UNL     1      -4.532  -0.414  -1.649  1.00  0.00     0.026 C 
ENDBRANCH   1  29
BRANCH  13  31
HETATM   31  O2  UNL     1       6.126   2.142   0.527  1.00  0.00    -0.361 OA
HETATM   32  H12 UNL     1       5.661   2.631   1.277  1.00  0.00     0.217 HD
ENDBRANCH  13  31
TORSDOF 2
