REMARK  0 active torsions:
REMARK  status: ('A' for Active; 'I' for Inactive)
ROOT
HETATM    1  C1  UNL     1      -1.662   4.360   2.544  1.00  0.00     0.184 C 
HETATM    2  N1  UNL     1      -1.623   3.183   1.702  1.00  0.00    -0.271 N 
HETATM    3  C2  UNL     1      -0.343   2.711   1.225  1.00  0.00     0.123 C 
HETATM    4  C3  UNL     1      -0.492   2.120   0.037  1.00  0.00    -0.010 C 
HETATM    5  C4  UNL     1       0.251   1.414  -1.067  1.00  0.00     0.068 C 
HETATM    6  C5  UNL     1       1.434   0.707  -0.443  1.00  0.00     0.119 C 
HETATM    7  C6  UNL     1       2.337   1.770   0.105  1.00  0.00     0.416 C 
HETATM    8  O1  UNL     1       3.166   2.609   0.484  1.00  0.00    -0.428 OA
HETATM    9  N2  UNL     1       2.112  -0.050  -1.462  1.00  0.00    -0.382 N 
HETATM   10  C7  UNL     1       3.179  -0.807  -0.883  1.00  0.00     0.035 A 
HETATM   11  C8  UNL     1       4.472  -0.334  -0.974  1.00  0.00     0.029 A 
HETATM   12  C9  UNL     1       5.635  -0.929  -0.464  1.00  0.00     0.002 A 
HETATM   13  C10 UNL     1       5.418  -2.122   0.197  1.00  0.00     0.001 A 
HETATM   14  C11 UNL     1       4.139  -2.624   0.306  1.00  0.00     0.010 A 
HETATM   15  C12 UNL     1       2.997  -2.006  -0.214  1.00  0.00    -0.028 A 
HETATM   16  C13 UNL     1       1.777  -2.801   0.061  1.00  0.00     0.068 C 
HETATM   17  C14 UNL     1       1.188  -2.572   1.387  1.00  0.00    -0.022 C 
HETATM   18  C15 UNL     1       0.009  -2.151   1.818  1.00  0.00    -0.004 C 
HETATM   19  C16 UNL     1      -1.027  -1.806   0.940  1.00  0.00     0.001 C 
HETATM   20  C17 UNL     1      -1.710  -1.592  -0.144  1.00  0.00     0.013 C 
HETATM   21  C18 UNL     1      -2.947  -1.161  -0.769  1.00  0.00    -0.010 A 
HETATM   22  C19 UNL     1      -3.842  -2.199  -0.930  1.00  0.00     0.013 A 
HETATM   23  C20 UNL     1      -5.084  -1.990  -1.473  1.00  0.00     0.001 A 
HETATM   24  C21 UNL     1      -5.388  -0.709  -1.846  1.00  0.00     0.002 A 
HETATM   25  C22 UNL     1      -4.504   0.335  -1.693  1.00  0.00     0.030 A 
HETATM   26  C23 UNL     1      -3.262   0.116  -1.147  1.00  0.00     0.040 A 
HETATM   27  N3  UNL     1      -2.511   1.309  -1.084  1.00  0.00    -0.358 N 
HETATM   28  C24 UNL     1      -1.975   2.276  -0.180  1.00  0.00     0.283 C 
HETATM   29  O2  UNL     1      -2.429   2.228   1.113  1.00  0.00    -0.248 OA
HETATM   30  H9  UNL     1       2.308  -0.400  -2.419  1.00  0.00     0.160 HD
HETATM   31  H24 UNL     1      -2.268   1.582  -2.086  1.00  0.00     0.162 HD
ENDROOT
TORSDOF 0
