REMARK  4 active torsions:
REMARK  status: ('A' for Active; 'I' for Inactive)
REMARK    1  A    between atoms: C2_2  and  O2_4 
REMARK    2  A    between atoms: O2_4  and  C3_5 
REMARK    3  A    between atoms: C8_10  and  C9_11 
REMARK       I    between atoms: C9_11  and  N1_13 
REMARK    4  A    between atoms: N1_13  and  C10_14 
ROOT
HETATM    1  C3  UNL     1      -3.069  -0.536   0.884  1.00  0.00     0.106 A 
HETATM    2  C4  UNL     1      -2.920  -0.773   2.232  1.00  0.00     0.040 A 
HETATM    3  C5  UNL     1      -1.641  -0.857   2.744  1.00  0.00     0.004 A 
HETATM    4  C6  UNL     1      -0.594  -0.697   1.861  1.00  0.00     0.015 A 
HETATM    5  C7  UNL     1      -0.744  -0.461   0.513  1.00  0.00     0.012 A 
HETATM    6  C8  UNL     1       0.332  -0.304  -0.354  1.00  0.00     0.076 A 
HETATM    7  P1  UNL     1      -0.533  -0.024  -1.967  1.00  0.00     0.080 P 
HETATM    8  N2  UNL     1      -2.161  -0.143  -1.331  1.00  0.00    -0.348 N 
HETATM    9  C16 UNL     1      -3.342  -0.010  -2.124  1.00  0.00     0.155 C 
HETATM   10  C17 UNL     1      -2.012  -0.379   0.018  1.00  0.00     0.079 A 
ENDROOT
BRANCH   6  11
HETATM   11  C9  UNL     1       1.731  -0.325  -0.203  1.00  0.00     0.260 C 
HETATM   12  O3  UNL     1       2.204  -0.524   0.942  1.00  0.00    -0.267 OA
HETATM   13  N1  UNL     1       2.579  -0.125  -1.321  1.00  0.00    -0.323 N 
HETATM   14  H7  UNL     1       2.170   0.039  -2.262  1.00  0.00     0.169 HD
BRANCH  13  15
HETATM   15  C10 UNL     1       4.004  -0.152  -1.132  1.00  0.00     0.035 A 
HETATM   16  C11 UNL     1       4.625  -1.379  -1.265  1.00  0.00     0.029 A 
HETATM   17  C12 UNL     1       6.000  -1.384  -1.079  1.00  0.00     0.002 A 
HETATM   18  C13 UNL     1       6.735  -0.239  -0.778  1.00  0.00     0.000 A 
HETATM   19  C14 UNL     1       6.029   0.952  -0.663  1.00  0.00     0.002 A 
HETATM   20  C15 UNL     1       4.664   1.017  -0.837  1.00  0.00     0.029 A 
ENDBRANCH  13  15
ENDBRANCH   6  11
BRANCH   1  21
HETATM   21  O2  UNL     1      -4.389  -0.469   0.469  1.00  0.00    -0.277 OA
BRANCH  21  22
HETATM   22  C2  UNL     1      -5.042   0.752   0.498  1.00  0.00     0.260 C 
HETATM   23  C1  UNL     1      -5.885   1.987   0.469  1.00  0.00     0.126 C 
HETATM   24  O1  UNL     1      -3.859   0.971   0.926  1.00  0.00    -0.265 OA
ENDBRANCH  21  22
ENDBRANCH   1  21
TORSDOF 4
