REMARK  2 active torsions:
REMARK  status: ('A' for Active; 'I' for Inactive)
REMARK    1  A    between atoms: C10_11  and  C11_12 
REMARK       I    between atoms: C11_12  and  N1_14 
REMARK    2  A    between atoms: N1_14  and  C12_15 
ROOT
HETATM    1  C1  UNL     1      -3.761   0.237   1.853  1.00  0.00     0.049 C 
HETATM    2  C2  UNL     1      -3.027  -0.525   0.794  1.00  0.00    -0.052 A 
HETATM    3  C3  UNL     1      -3.242  -1.895   0.618  1.00  0.00     0.007 A 
HETATM    4  C4  UNL     1      -2.559  -2.591  -0.362  1.00  0.00     0.001 A 
HETATM    5  C5  UNL     1      -1.661  -1.887  -1.157  1.00  0.00     0.009 A 
HETATM    6  C6  UNL     1      -1.440  -0.523  -0.990  1.00  0.00    -0.031 A 
HETATM    7  C7  UNL     1      -2.126   0.145  -0.015  1.00  0.00    -0.005 A 
HETATM    8  C8  UNL     1      -1.475   1.423  -0.357  1.00  0.00     0.144 A 
HETATM    9  C9  UNL     1      -2.551   2.391  -0.864  1.00  0.00     0.058 C 
HETATM   10  F1  UNL     1      -0.818   1.914   0.737  1.00  0.00    -0.237 F 
HETATM   11  C10 UNL     1      -0.758   0.701  -1.383  1.00  0.00     0.156 A 
ENDROOT
BRANCH  11  12
HETATM   12  C11 UNL     1       0.696   0.536  -1.332  1.00  0.00     0.234 C 
HETATM   13  O1  UNL     1       1.409   0.684  -2.361  1.00  0.00    -0.272 OA
HETATM   14  N1  UNL     1       1.390   0.205  -0.155  1.00  0.00    -0.326 N 
HETATM   15  H11 UNL     1       0.747   0.094   0.668  1.00  0.00     0.169 HD
BRANCH  14  16
HETATM   16  C12 UNL     1       2.769   0.001   0.114  1.00  0.00     0.034 A 
HETATM   17  C13 UNL     1       3.194  -0.321   1.384  1.00  0.00     0.029 A 
HETATM   18  C14 UNL     1       4.505  -0.529   1.702  1.00  0.00     0.002 A 
HETATM   19  C15 UNL     1       5.499  -0.428   0.755  1.00  0.00     0.000 A 
HETATM   20  C16 UNL     1       5.123  -0.109  -0.528  1.00  0.00     0.002 A 
HETATM   21  C17 UNL     1       3.791   0.092  -0.801  1.00  0.00     0.029 A 
ENDBRANCH  14  16
ENDBRANCH  11  12
TORSDOF 2
