REMARK  2 active torsions:
REMARK  status: ('A' for Active; 'I' for Inactive)
REMARK    1  A    between atoms: C4_6  and  N2_8 
REMARK    2  A    between atoms: N2_8  and  C5_9 
ROOT
HETATM    1  C1  UNL     1      -1.917  -3.316   1.430  1.00  0.00     0.111 C 
HETATM    2  N1  UNL     1      -2.127  -2.294   0.353  1.00  0.00    -0.306 N 
HETATM    3  C2  UNL     1      -1.450  -2.736  -0.802  1.00  0.00     0.169 C 
HETATM    4  S1  UNL     1       0.396  -2.644  -0.906  1.00  0.00    -0.084 SA
HETATM    5  C3  UNL     1       0.882  -0.735  -0.713  1.00  0.00     0.246 A 
HETATM    6  C4  UNL     1       1.628  -0.585   0.465  1.00  0.00     0.192 A 
HETATM    7  O1  UNL     1       2.183  -0.221  -0.652  1.00  0.00    -0.283 OA
HETATM    8  C11 UNL     1      -0.544  -0.618  -0.550  1.00  0.00    -0.036 C 
HETATM    9  C12 UNL     1      -1.554  -0.554  -0.443  1.00  0.00    -0.090 C 
HETATM   10  C13 UNL     1      -2.785  -0.492  -0.334  1.00  0.00     0.107 A 
HETATM   11  C14 UNL     1      -3.985  -0.626  -0.148  1.00  0.00    -0.070 A 
HETATM   12  C15 UNL     1      -4.611   0.584  -0.603  1.00  0.00     0.059 C 
HETATM   13  C16 UNL     1      -3.942   1.767  -1.115  1.00  0.00     0.179 C 
HETATM   14  O2  UNL     1      -2.985   2.100  -2.064  1.00  0.00    -0.351 OA
HETATM   15  C17 UNL     1      -1.647   1.815  -2.018  1.00  0.00     0.070 A 
HETATM   16  C18 UNL     1      -1.082   3.117  -1.773  1.00  0.00     0.037 A 
HETATM   17  C19 UNL     1       0.295   3.433  -1.627  1.00  0.00     0.005 A 
HETATM   18  C20 UNL     1       1.280   2.430  -1.716  1.00  0.00     0.024 A 
HETATM   19  C21 UNL     1       0.928   1.080  -1.950  1.00  0.00     0.015 A 
HETATM   20  C22 UNL     1      -0.407   1.337  -2.006  1.00  0.00     0.060 A 
HETATM   21  N3  UNL     1       1.405  -0.320  -2.014  1.00  0.00    -0.239 NA
HETATM   22  C23 UNL     1      -3.523  -1.930   0.368  1.00  0.00     0.125 A 
HETATM   23  H21 UNL     1       1.681   0.148  -2.823  1.00  0.00     0.132 HD
ENDROOT
BRANCH   6  24
HETATM   24  N2  UNL     1       2.288  -0.479   1.713  1.00  0.00    -0.335 N 
HETATM   25  H6  UNL     1       1.396  -0.894   2.129  1.00  0.00     0.168 HD
BRANCH  24  26
HETATM   26  C5  UNL     1       3.595   0.015   1.972  1.00  0.00     0.033 A 
HETATM   27  C6  UNL     1       3.901   1.322   2.286  1.00  0.00     0.029 A 
HETATM   28  C7  UNL     1       5.221   1.661   2.509  1.00  0.00     0.002 A 
HETATM   29  C8  UNL     1       6.154   0.657   2.400  1.00  0.00     0.000 A 
HETATM   30  C9  UNL     1       5.890  -0.657   2.089  1.00  0.00     0.002 A 
HETATM   31  C10 UNL     1       4.570  -0.978   1.870  1.00  0.00     0.029 A 
ENDBRANCH  24  26
ENDBRANCH   6  24
TORSDOF 2
