REMARK  2 active torsions:
REMARK  status: ('A' for Active; 'I' for Inactive)
REMARK    1  A    between atoms: C3_5  and  C4_6 
REMARK       I    between atoms: C4_6  and  N2_8 
REMARK    2  A    between atoms: N2_8  and  C5_9 
ROOT
HETATM    1  C1  UNL     1      -3.498  -2.781  -0.025  1.00  0.00     0.165 C 
HETATM    2  N1  UNL     1      -2.607  -1.700   0.340  1.00  0.00    -0.321 N 
HETATM    3  C2  UNL     1      -1.357  -1.562   1.011  1.00  0.00     0.103 A 
HETATM    4  S1  UNL     1      -0.602  -2.906   1.579  1.00  0.00    -0.063 SA
HETATM    5  C3  UNL     1      -0.749  -0.262   1.197  1.00  0.00     0.181 A 
HETATM    6  C11 UNL     1      -1.566   0.816   0.625  1.00  0.00     0.012 A 
HETATM    7  C12 UNL     1      -1.606   2.137   0.452  1.00  0.00     0.017 A 
HETATM    8  C13 UNL     1      -2.716   2.834  -0.237  1.00  0.00     0.002 A 
HETATM    9  C14 UNL     1      -3.833   2.368  -0.798  1.00  0.00     0.008 A 
HETATM   10  C15 UNL     1      -4.101   0.926  -0.781  1.00  0.00     0.060 A 
HETATM   11  S2  UNL     1      -3.012  -0.024  -0.074  1.00  0.00    -0.068 SA
ENDROOT
BRANCH   5  12
HETATM   12  C4  UNL     1       0.598  -0.097   0.616  1.00  0.00     0.238 C 
HETATM   13  O1  UNL     1       0.904   0.765  -0.277  1.00  0.00    -0.272 OA
HETATM   14  N2  UNL     1       1.748  -0.886   0.977  1.00  0.00    -0.326 N 
HETATM   15  H5  UNL     1       1.605  -1.635   1.713  1.00  0.00     0.169 HD
BRANCH  14  16
HETATM   16  C5  UNL     1       2.877  -0.437   0.204  1.00  0.00     0.034 A 
HETATM   17  C6  UNL     1       3.205  -0.973  -1.041  1.00  0.00     0.029 A 
HETATM   18  C7  UNL     1       4.312  -0.480  -1.720  1.00  0.00     0.002 A 
HETATM   19  C8  UNL     1       5.069   0.534  -1.147  1.00  0.00     0.000 A 
HETATM   20  C9  UNL     1       4.723   1.051   0.093  1.00  0.00     0.002 A 
HETATM   21  C10 UNL     1       3.618   0.571   0.789  1.00  0.00     0.029 A 
ENDBRANCH  14  16
ENDBRANCH   5  12
TORSDOF 2
