REMARK  6 active torsions:
REMARK  status: ('A' for Active; 'I' for Inactive)
REMARK    1  A    between atoms: N1_2  and  C2_3 
REMARK    2  A    between atoms: C4_5  and  O1_6 
REMARK    3  A    between atoms: O1_6  and  C5_7 
REMARK    4  A    between atoms: C9_12  and  C10_13 
REMARK    5  A    between atoms: C10_13  and  C12_15 
REMARK       I    between atoms: C12_15  and  N2_17 
REMARK    6  A    between atoms: N2_17  and  C13_18 
ROOT
HETATM    1  C2  UNL     1      -1.501  -1.406   0.646  1.00  0.00     0.037 A 
HETATM    2  C3  UNL     1      -2.651  -0.644   0.626  1.00  0.00     0.067 A 
HETATM    3  C4  UNL     1      -2.722   0.617   0.023  1.00  0.00     0.081 A 
HETATM    4  C7  UNL     1      -1.586   1.119  -0.579  1.00  0.00     0.038 A 
HETATM    5  C8  UNL     1      -0.414   0.384  -0.579  1.00  0.00     0.013 A 
HETATM    6  C9  UNL     1      -0.402  -0.854   0.031  1.00  0.00    -0.019 A 
ENDROOT
BRANCH   6   7
HETATM    7  C10 UNL     1       0.859  -1.599   0.012  1.00  0.00     0.109 C 
HETATM    8  C11 UNL     1       0.991  -2.515  -1.175  1.00  0.00     0.025 C 
BRANCH   7   9
HETATM    9  C12 UNL     1       2.043  -0.691  -0.003  1.00  0.00     0.230 C 
HETATM   10  O3  UNL     1       2.888  -0.696  -0.931  1.00  0.00    -0.272 OA
HETATM   11  N2  UNL     1       2.330   0.267   1.026  1.00  0.00    -0.327 N 
HETATM   12  H15 UNL     1       1.665   0.328   1.837  1.00  0.00     0.169 HD
BRANCH  11  13
HETATM   13  C13 UNL     1       3.535   0.959   0.684  1.00  0.00     0.034 A 
HETATM   14  C14 UNL     1       4.845   0.650   0.997  1.00  0.00     0.029 A 
HETATM   15  C15 UNL     1       5.847   1.479   0.549  1.00  0.00     0.002 A 
HETATM   16  C16 UNL     1       5.579   2.595  -0.195  1.00  0.00     0.000 A 
HETATM   17  C17 UNL     1       4.268   2.927  -0.524  1.00  0.00     0.002 A 
HETATM   18  C18 UNL     1       3.268   2.085  -0.066  1.00  0.00     0.029 A 
ENDBRANCH  11  13
ENDBRANCH   7   9
ENDBRANCH   6   7
BRANCH   1  19
HETATM   19  N1  UNL     1      -1.522  -2.678   1.281  1.00  0.00    -0.394 N 
HETATM   20  C1  UNL     1      -2.736  -3.171   1.903  1.00  0.00     0.146 C 
HETATM   21  H4  UNL     1      -0.689  -3.304   1.330  1.00  0.00     0.159 HD
ENDBRANCH   1  19
BRANCH   3  22
HETATM   22  O1  UNL     1      -3.927   1.338   0.040  1.00  0.00    -0.279 OA
BRANCH  22  23
HETATM   23  C5  UNL     1      -4.866   1.217  -0.962  1.00  0.00     0.260 C 
HETATM   24  C6  UNL     1      -6.056   2.085  -0.713  1.00  0.00     0.126 C 
HETATM   25  O2  UNL     1      -4.769   0.470  -1.986  1.00  0.00    -0.265 OA
ENDBRANCH  22  23
ENDBRANCH   3  22
TORSDOF 6
