REMARK  5 active torsions:
REMARK  status: ('A' for Active; 'I' for Inactive)
REMARK    1  A    between atoms: C6_6  and  C7_7 
REMARK    2  A    between atoms: C7_7  and  C8_8 
REMARK    3  A    between atoms: C8_8  and  C9_9 
REMARK    4  A    between atoms: C10_10  and  C11_11 
REMARK       I    between atoms: C11_11  and  N1_13 
REMARK    5  A    between atoms: N1_13  and  C12_14 
ROOT
HETATM    1  C9  UNL     1       0.097   0.640  -0.007  1.00  0.00    -0.096 C 
HETATM    2  C10 UNL     1       1.264   0.626   0.299  1.00  0.00    -0.005 C 
ENDROOT
BRANCH   2   3
HETATM    3  C11 UNL     1       2.657   0.589   0.651  1.00  0.00     0.300 C 
HETATM    4  O1  UNL     1       3.081   0.972   1.772  1.00  0.00    -0.258 OA
HETATM    5  N1  UNL     1       3.557   0.087  -0.353  1.00  0.00    -0.316 N 
HETATM    6  H11 UNL     1       3.239  -0.241  -1.297  1.00  0.00     0.170 HD
BRANCH   5   7
HETATM    7  C12 UNL     1       4.968  -0.094  -0.366  1.00  0.00     0.035 A 
HETATM    8  C13 UNL     1       5.361  -1.346   0.089  1.00  0.00     0.029 A 
HETATM    9  C14 UNL     1       6.727  -1.629   0.117  1.00  0.00     0.002 A 
HETATM   10  C15 UNL     1       7.700  -0.748  -0.276  1.00  0.00     0.000 A 
HETATM   11  C16 UNL     1       7.266   0.497  -0.725  1.00  0.00     0.002 A 
HETATM   12  C17 UNL     1       5.925   0.814  -0.768  1.00  0.00     0.029 A 
ENDBRANCH   5   7
ENDBRANCH   2   3
BRANCH   1  13
HETATM   13  C8  UNL     1      -1.320   0.639  -0.398  1.00  0.00     0.099 C 
BRANCH  13  14
HETATM   14  C7  UNL     1      -2.187   0.748   0.865  1.00  0.00     0.051 C 
BRANCH  14  15
HETATM   15  C6  UNL     1      -3.605   0.740   0.373  1.00  0.00    -0.057 A 
HETATM   16  C5  UNL     1      -4.353   1.852   0.025  1.00  0.00     0.007 A 
HETATM   17  C4  UNL     1      -5.652   1.671  -0.411  1.00  0.00     0.001 A 
HETATM   18  C3  UNL     1      -6.229   0.416  -0.512  1.00  0.00     0.007 A 
HETATM   19  C2  UNL     1      -5.521  -0.715  -0.175  1.00  0.00    -0.061 A 
HETATM   20  C1  UNL     1      -6.081  -2.086  -0.260  1.00  0.00     0.048 C 
HETATM   21  C18 UNL     1      -4.233  -0.496   0.254  1.00  0.00     0.013 A 
ENDBRANCH  14  15
ENDBRANCH  13  14
ENDBRANCH   1  13
TORSDOF 5
