REMARK  0 active torsions:
REMARK  status: ('A' for Active; 'I' for Inactive)
ROOT
HETATM    1  C1  UNL     1      -0.228  -1.596   1.820  1.00  0.00     0.045 C 
HETATM    2  C2  UNL     1       0.606  -1.002   0.705  1.00  0.00    -0.062 C 
HETATM    3  C3  UNL     1       1.827  -1.109   0.266  1.00  0.00     0.049 C 
HETATM    4  C4  UNL     1       3.035  -1.861   0.580  1.00  0.00    -0.021 C 
HETATM    5  C5  UNL     1       4.127  -1.648  -0.150  1.00  0.00    -0.027 C 
HETATM    6  C6  UNL     1       4.100  -0.601  -1.255  1.00  0.00     0.021 C 
HETATM    7  C7  UNL     1       3.473   0.408  -1.952  1.00  0.00     0.143 C 
HETATM    8  N1  UNL     1       2.175   0.804  -1.525  1.00  0.00    -0.349 N 
HETATM    9  C8  UNL     1       0.877   1.200  -1.099  1.00  0.00     0.254 C 
HETATM   10  O1  UNL     1       0.142   0.739  -1.985  1.00  0.00    -0.267 OA
HETATM   11  C9  UNL     1      -0.158   1.801  -0.301  1.00  0.00     0.048 C 
HETATM   12  S1  UNL     1      -1.179   0.899   0.510  1.00  0.00    -0.104 SA
HETATM   13  C10 UNL     1      -0.661  -0.539   0.232  1.00  0.00    -0.018 C 
HETATM   14  C11 UNL     1      -1.324  -1.641  -0.517  1.00  0.00     0.050 C 
HETATM   15  C12 UNL     1      -2.626  -2.096   0.085  1.00  0.00     0.033 C 
HETATM   16  C13 UNL     1      -3.779  -1.635  -0.773  1.00  0.00    -0.019 C 
HETATM   17  C14 UNL     1      -3.832  -0.288  -0.727  1.00  0.00     0.052 C 
HETATM   18  S2  UNL     1      -3.129   1.196  -0.087  1.00  0.00    -0.076 SA
HETATM   19  C15 UNL     1      -0.988   1.471   2.159  1.00  0.00     0.155 C 
HETATM   20  N2  UNL     1      -0.868   2.724   2.167  1.00  0.00    -0.295 NA
HETATM   21  C16 UNL     1      -0.862   3.678   1.146  1.00  0.00     0.154 C 
HETATM   22  C17 UNL     1      -0.336   3.231  -0.198  1.00  0.00     0.073 C 
HETATM   23  H9  UNL     1       2.236   1.517  -0.693  1.00  0.00     0.163 HD
ENDROOT
TORSDOF 0
