REMARK  4 active torsions:
REMARK  status: ('A' for Active; 'I' for Inactive)
REMARK    1  A    between atoms: C3_5  and  C4_6 
REMARK    2  A    between atoms: C4_6  and  N2_7 
REMARK    3  A    between atoms: C4_6  and  S2_14 
REMARK    4  A    between atoms: N2_7  and  C5_8 
ROOT
HETATM    1  C1  UNL     1      -4.201  -2.098   0.485  1.00  0.00     0.157 C 
HETATM    2  N1  UNL     1      -2.931  -1.473   0.171  1.00  0.00    -0.344 N 
HETATM    3  C2  UNL     1      -1.675  -2.133   0.261  1.00  0.00     0.095 A 
HETATM    4  S1  UNL     1      -1.470  -3.686   0.700  1.00  0.00    -0.064 SA
HETATM    5  C3  UNL     1      -0.503  -1.292  -0.083  1.00  0.00     0.141 A 
HETATM    6  C11 UNL     1      -1.231  -0.021  -0.441  1.00  0.00    -0.014 A 
HETATM    7  C12 UNL     1      -0.847   1.224  -0.884  1.00  0.00     0.011 A 
HETATM    8  C13 UNL     1      -1.685   2.282  -1.155  1.00  0.00     0.001 A 
HETATM    9  C14 UNL     1      -3.045   2.087  -0.967  1.00  0.00     0.002 A 
HETATM   10  C15 UNL     1      -3.493   0.862  -0.525  1.00  0.00     0.030 A 
HETATM   11  C16 UNL     1      -2.606  -0.162  -0.270  1.00  0.00     0.042 A 
ENDROOT
BRANCH   5  12
HETATM   12  C4  UNL     1       0.371  -0.938   1.037  1.00  0.00     0.093 C 
BRANCH  12  13
HETATM   13  N2  UNL     1       1.605  -0.291   1.264  1.00  0.00    -0.351 N 
HETATM   14  H5  UNL     1       2.061  -0.147   2.183  1.00  0.00     0.166 HD
BRANCH  13  15
HETATM   15  C5  UNL     1       2.621   0.343   0.540  1.00  0.00     0.032 A 
HETATM   16  C6  UNL     1       3.627  -0.466  -0.004  1.00  0.00     0.029 A 
HETATM   17  C7  UNL     1       4.697   0.002  -0.740  1.00  0.00     0.002 A 
HETATM   18  C8  UNL     1       4.754   1.385  -0.942  1.00  0.00     0.000 A 
HETATM   19  C9  UNL     1       3.779   2.200  -0.419  1.00  0.00     0.002 A 
HETATM   20  C10 UNL     1       2.701   1.704   0.327  1.00  0.00     0.029 A 
ENDBRANCH  13  15
ENDBRANCH  12  13
BRANCH  12  21
HETATM   21  S2  UNL     1      -0.273  -1.472   2.482  1.00  0.00     0.084 SA
HETATM   22  O1  UNL     1       0.342  -2.897   2.743  1.00  0.00    -0.143 OA
ENDBRANCH  12  21
ENDBRANCH   5  12
TORSDOF 4
