REMARK  4 active torsions:
REMARK  status: ('A' for Active; 'I' for Inactive)
REMARK    1  A    between atoms: C2_2  and  C3_3 
REMARK    2  A    between atoms: C3_3  and  C4_4 
REMARK    3  A    between atoms: C7_7  and  C8_8 
REMARK       I    between atoms: C8_8  and  N1_10 
REMARK    4  A    between atoms: N1_10  and  C9_11 
ROOT
HETATM    1  C4  UNL     1      -3.253  -1.337   1.169  1.00  0.00     0.033 C 
HETATM    2  C5  UNL     1      -2.152  -0.764   0.745  1.00  0.00     0.013 C 
HETATM    3  C6  UNL     1      -0.758  -0.708   1.305  1.00  0.00     0.078 C 
HETATM    4  C7  UNL     1      -0.373   0.726   0.920  1.00  0.00     0.145 C 
HETATM    5  C15 UNL     1      -0.991   0.916  -0.437  1.00  0.00     0.093 C 
HETATM    6  S1  UNL     1      -0.468   1.959  -1.562  1.00  0.00    -0.064 SA
HETATM    7  N2  UNL     1      -2.093  -0.010  -0.465  1.00  0.00    -0.348 N 
HETATM    8  C16 UNL     1      -2.933  -0.043  -1.644  1.00  0.00     0.156 C 
ENDROOT
BRANCH   4   9
HETATM    9  C8  UNL     1       1.101   0.865   0.889  1.00  0.00     0.233 C 
HETATM   10  O1  UNL     1       1.640   1.700   1.657  1.00  0.00    -0.272 OA
HETATM   11  N1  UNL     1       1.935   0.104   0.037  1.00  0.00    -0.327 N 
HETATM   12  H8  UNL     1       1.378  -0.555  -0.553  1.00  0.00     0.169 HD
BRANCH  11  13
HETATM   13  C9  UNL     1       3.337   0.122  -0.107  1.00  0.00     0.034 A 
HETATM   14  C10 UNL     1       4.237   0.905   0.568  1.00  0.00     0.029 A 
HETATM   15  C11 UNL     1       5.600   0.888   0.394  1.00  0.00     0.002 A 
HETATM   16  C12 UNL     1       6.139   0.025  -0.526  1.00  0.00     0.000 A 
HETATM   17  C13 UNL     1       5.273  -0.782  -1.227  1.00  0.00     0.002 A 
HETATM   18  C14 UNL     1       3.917  -0.726  -1.016  1.00  0.00     0.029 A 
ENDBRANCH  11  13
ENDBRANCH   4   9
BRANCH   1  19
HETATM   19  C3  UNL     1      -4.605  -1.397   0.634  1.00  0.00     0.052 C 
BRANCH  19  20
HETATM   20  C2  UNL     1      -5.406  -0.347   0.749  1.00  0.00    -0.155 C 
HETATM   21  C1  UNL     1      -5.979   0.821   1.000  1.00  0.00     0.096 C 
ENDBRANCH  19  20
ENDBRANCH   1  19
TORSDOF 4
