REMARK  3 active torsions:
REMARK  status: ('A' for Active; 'I' for Inactive)
REMARK    1  A    between atoms: C3_5  and  C4_6 
REMARK    2  A    between atoms: C4_6  and  N2_7 
REMARK    3  A    between atoms: C9_12  and  O1_13 
ROOT
HETATM    1  C1  UNL     1      -2.960  -1.707   1.852  1.00  0.00     0.157 C 
HETATM    2  N1  UNL     1      -2.036  -1.201   0.814  1.00  0.00    -0.345 N 
HETATM    3  C2  UNL     1      -0.820  -1.647   0.150  1.00  0.00     0.090 A 
HETATM    4  S1  UNL     1      -0.406  -3.120   0.793  1.00  0.00    -0.064 SA
HETATM    5  C3  UNL     1      -0.423  -0.659  -0.844  1.00  0.00     0.111 A 
HETATM    6  C10 UNL     1      -1.484   0.429  -0.674  1.00  0.00    -0.017 A 
HETATM    7  C11 UNL     1      -1.520   1.606  -1.384  1.00  0.00     0.034 A 
HETATM    8  C12 UNL     1      -2.517   2.529  -1.175  1.00  0.00     0.034 A 
HETATM    9 CL1  UNL     1      -2.557   4.034  -2.080  1.00  0.00    -0.084 Cl
HETATM   10  C13 UNL     1      -3.487   2.221  -0.215  1.00  0.00     0.026 A 
HETATM   11  C14 UNL     1      -3.428   1.028   0.487  1.00  0.00     0.032 A 
HETATM   12  C15 UNL     1      -2.425   0.085   0.287  1.00  0.00     0.042 A 
ENDROOT
BRANCH   5  13
HETATM   13  C4  UNL     1       0.865   0.026  -0.775  1.00  0.00     0.292 C 
BRANCH  13  14
HETATM   14  N2  UNL     1       2.088  -0.711  -0.796  1.00  0.00     0.125 N 
HETATM   15  C5  UNL     1       3.215   0.249  -1.059  1.00  0.00     0.304 C 
HETATM   16  C6  UNL     1       3.196   1.342  -0.057  1.00  0.00     0.015 C 
HETATM   17  C7  UNL     1       3.208   0.832   1.149  1.00  0.00    -0.028 C 
HETATM   18  C8  UNL     1       3.571  -0.443   1.142  1.00  0.00     0.048 C 
HETATM   19  C9  UNL     1       2.411  -1.224   0.554  1.00  0.00     0.382 C 
BRANCH  19  20
HETATM   20  O1  UNL     1       2.849  -2.539   0.514  1.00  0.00    -0.365 OA
HETATM   21  H12 UNL     1       3.731  -2.588   0.090  1.00  0.00     0.212 HD
ENDBRANCH  19  20
ENDBRANCH  13  14
ENDBRANCH   5  13
TORSDOF 3
