REMARK  4 active torsions:
REMARK  status: ('A' for Active; 'I' for Inactive)
REMARK    1  A    between atoms: C5_5  and  C6_6 
REMARK    2  A    between atoms: C6_6  and  C7_7 
REMARK    3  A    between atoms: C6_6  and  C14_16 
REMARK       I    between atoms: C7_7  and  N1_9 
REMARK    4  A    between atoms: N1_9  and  C8_10 
ROOT
HETATM    1  C1  UNL     1       4.702  -0.339   2.211  1.00  0.00     0.021 C 
HETATM    2  C2  UNL     1       4.020   0.170   1.280  1.00  0.00     0.022 C 
HETATM    3  C3  UNL     1       3.355   0.845   0.190  1.00  0.00    -0.050 A 
HETATM    4  C4  UNL     1       2.189   0.399  -0.087  1.00  0.00     0.023 A 
HETATM    5  C5  UNL     1       1.488   1.054  -1.164  1.00  0.00    -0.001 A 
HETATM    6  S1  UNL     1       2.585   2.231  -1.656  1.00  0.00    -0.105 SA
HETATM    7  C16 UNL     1       3.806   1.923  -0.598  1.00  0.00     0.057 A 
ENDROOT
BRANCH   5   8
HETATM    8  C6  UNL     1       0.169   0.970  -1.897  1.00  0.00     0.151 C 
BRANCH   8   9
HETATM    9  C7  UNL     1      -0.931   1.074  -0.888  1.00  0.00     0.234 C 
HETATM   10  O1  UNL     1      -1.555   2.190  -0.805  1.00  0.00    -0.272 OA
HETATM   11  N1  UNL     1      -1.289   0.007  -0.048  1.00  0.00    -0.326 N 
HETATM   12  H6  UNL     1      -0.700  -0.829  -0.246  1.00  0.00     0.169 HD
BRANCH  11  13
HETATM   13  C8  UNL     1      -2.148  -0.436   0.985  1.00  0.00     0.034 A 
HETATM   14  C9  UNL     1      -1.570  -0.288   2.190  1.00  0.00     0.029 A 
HETATM   15  C10 UNL     1      -2.385  -0.727   3.275  1.00  0.00     0.002 A 
HETATM   16  C11 UNL     1      -3.668  -1.256   3.032  1.00  0.00     0.000 A 
HETATM   17  C12 UNL     1      -4.096  -1.327   1.695  1.00  0.00     0.002 A 
HETATM   18  C13 UNL     1      -3.370  -0.929   0.621  1.00  0.00     0.029 A 
ENDBRANCH  11  13
ENDBRANCH   8   9
BRANCH   8  19
HETATM   19  C14 UNL     1       0.094  -0.249  -2.749  1.00  0.00     0.184 C 
HETATM   20  C15 UNL     1      -1.233  -0.348  -3.480  1.00  0.00     0.046 C 
HETATM   21  F1  UNL     1       1.096  -0.262  -3.701  1.00  0.00    -0.249 F 
ENDBRANCH   8  19
ENDBRANCH   5   8
TORSDOF 4
