REMARK  3 active torsions:
REMARK  status: ('A' for Active; 'I' for Inactive)
REMARK    1  A    between atoms: C2_2  and  N1_3 
REMARK    2  A    between atoms: N1_3  and  C3_4 
REMARK    3  A    between atoms: C11_14  and  S1_15 
ROOT
HETATM    1  C1  UNL     1      -0.978  -1.927  -0.969  1.00  0.00     0.046 C 
HETATM    2  C2  UNL     1      -0.334  -0.936  -0.061  1.00  0.00     0.077 C 
HETATM    3  C8  UNL     1      -0.257  -1.424   1.387  1.00  0.00     0.140 C 
HETATM    4  C9  UNL     1       0.708  -0.422   1.958  1.00  0.00     0.231 C 
HETATM    5  O1  UNL     1       0.719   0.054   3.142  1.00  0.00    -0.273 OA
HETATM    6  N2  UNL     1       1.613  -0.118   0.883  1.00  0.00    -0.293 N 
HETATM    7  C10 UNL     1       2.801   0.673   1.101  1.00  0.00     0.118 C 
HETATM    8  C11 UNL     1       3.889   0.698   0.320  1.00  0.00     0.015 C 
HETATM    9  C12 UNL     1       4.141  -0.050  -0.918  1.00  0.00     0.043 C 
HETATM   10  C13 UNL     1       3.291  -0.762  -1.650  1.00  0.00     0.037 C 
HETATM   11 CL1  UNL     1       3.877  -1.559  -3.099  1.00  0.00    -0.084 Cl
HETATM   12  C14 UNL     1       1.857  -0.982  -1.396  1.00  0.00     0.052 C 
HETATM   13  C15 UNL     1       1.113  -0.719  -0.329  1.00  0.00     0.049 C 
ENDROOT
BRANCH   2  14
HETATM   14  N1  UNL     1      -0.948   0.392  -0.116  1.00  0.00    -0.378 N 
HETATM   15  H4  UNL     1      -0.469   1.279  -0.387  1.00  0.00     0.160 HD
BRANCH  14  16
HETATM   16  C3  UNL     1      -2.293   0.741   0.181  1.00  0.00     0.009 A 
HETATM   17  C4  UNL     1      -3.341   0.594  -0.616  1.00  0.00     0.024 A 
HETATM   18  C5  UNL     1      -4.555   1.067   0.040  1.00  0.00    -0.002 A 
HETATM   19  C6  UNL     1      -4.184   1.498   1.256  1.00  0.00    -0.021 A 
HETATM   20  C7  UNL     1      -2.711   1.339   1.478  1.00  0.00     0.083 A 
ENDBRANCH  14  16
ENDBRANCH   2  14
BRANCH   8  21
HETATM   21  S1  UNL     1       5.193   1.784   0.866  1.00  0.00    -0.142 SA
HETATM   22  H13 UNL     1       4.734   3.117   0.678  1.00  0.00     0.107 HD
ENDBRANCH   8  21
TORSDOF 3
