REMARK  2 active torsions:
REMARK  status: ('A' for Active; 'I' for Inactive)
REMARK       I    between atoms: C1_2  and  N1_3 
REMARK    1  A    between atoms: C1_2  and  C8_10 
REMARK    2  A    between atoms: N1_3  and  C2_4 
ROOT
HETATM    1  C8  UNL     1      -0.994  -0.442   0.223  1.00  0.00     0.153 C 
HETATM    2  C9  UNL     1      -1.123  -0.986  -1.182  1.00  0.00     0.005 C 
HETATM    3  S1  UNL     1      -0.276  -0.521  -2.270  1.00  0.00    -0.088 SA
HETATM    4  C10 UNL     1      -2.209  -2.019  -1.228  1.00  0.00     0.053 C 
HETATM    5  C11 UNL     1      -3.483  -1.356  -0.806  1.00  0.00     0.065 C 
HETATM    6  C12 UNL     1      -3.302  -0.044  -0.144  1.00  0.00     0.042 A 
HETATM    7  N2  UNL     1      -4.471   0.651  -0.097  1.00  0.00    -0.265 NA
HETATM    8  C13 UNL     1      -4.528   1.881   0.469  1.00  0.00     0.117 A 
HETATM    9  C14 UNL     1      -3.362   2.437   1.011  1.00  0.00     0.020 A 
HETATM   10  C15 UNL     1      -2.183   1.723   0.958  1.00  0.00     0.012 A 
HETATM   11  C16 UNL     1      -2.131   0.473   0.381  1.00  0.00    -0.015 A 
ENDROOT
BRANCH   1  12
HETATM   12  C1  UNL     1       0.318   0.249   0.277  1.00  0.00     0.235 C 
HETATM   13  O1  UNL     1       0.823   1.396   0.416  1.00  0.00    -0.272 OA
HETATM   14  N1  UNL     1       1.393  -0.658   0.121  1.00  0.00    -0.326 N 
HETATM   15  H1  UNL     1       1.438  -1.708  -0.022  1.00  0.00     0.169 HD
BRANCH  14  16
HETATM   16  C2  UNL     1       2.765  -0.311   0.127  1.00  0.00     0.034 A 
HETATM   17  C3  UNL     1       3.411  -0.321   1.347  1.00  0.00     0.029 A 
HETATM   18  C4  UNL     1       4.765   0.014   1.412  1.00  0.00     0.002 A 
HETATM   19  C5  UNL     1       5.426   0.351   0.229  1.00  0.00     0.000 A 
HETATM   20  C6  UNL     1       4.776   0.360  -0.995  1.00  0.00     0.002 A 
HETATM   21  C7  UNL     1       3.434   0.026  -1.037  1.00  0.00     0.029 A 
ENDBRANCH  14  16
ENDBRANCH   1  12
TORSDOF 2
