REMARK  6 active torsions:
REMARK  status: ('A' for Active; 'I' for Inactive)
REMARK    1  A    between atoms: N1_1  and  C1_2 
REMARK    2  A    between atoms: C1_2  and  C2_3 
REMARK    3  A    between atoms: C2_3  and  C3_4 
REMARK    4  A    between atoms: C6_8  and  C7_9 
REMARK    5  A    between atoms: C8_11  and  C9_12 
REMARK       I    between atoms: C9_12  and  N3_14 
REMARK    6  A    between atoms: N3_14  and  C10_15 
ROOT
HETATM    1  C3  UNL     1      -1.915   1.120   0.681  1.00  0.00     0.015 C 
HETATM    2  C4  UNL     1      -1.936  -0.154   0.353  1.00  0.00    -0.036 C 
HETATM    3  C5  UNL     1      -3.281  -0.681  -0.076  1.00  0.00     0.305 C 
HETATM    4  N2  UNL     1      -3.027  -2.029  -0.522  1.00  0.00     0.097 N 
HETATM    5  C6  UNL     1      -1.617  -2.100  -0.848  1.00  0.00     0.271 C 
HETATM    6  C8  UNL     1      -1.000  -1.285   0.273  1.00  0.00     0.146 C 
HETATM    7  H6  UNL     1      -3.298  -2.723   0.196  1.00  0.00     0.317 HD
ENDROOT
BRANCH   6   8
HETATM    8  C9  UNL     1       0.377  -0.930  -0.097  1.00  0.00     0.233 C 
HETATM    9  O1  UNL     1       0.975  -1.376  -1.133  1.00  0.00    -0.272 OA
HETATM   10  N3  UNL     1       1.188  -0.048   0.669  1.00  0.00    -0.327 N 
HETATM   11  H10 UNL     1       0.817   0.385   1.541  1.00  0.00     0.169 HD
BRANCH  10  12
HETATM   12  C10 UNL     1       2.525   0.342   0.377  1.00  0.00     0.034 A 
HETATM   13  C11 UNL     1       2.665   1.470  -0.405  1.00  0.00     0.029 A 
HETATM   14  C12 UNL     1       3.947   1.903  -0.726  1.00  0.00     0.002 A 
HETATM   15  C13 UNL     1       5.041   1.191  -0.251  1.00  0.00     0.000 A 
HETATM   16  C14 UNL     1       4.874   0.056   0.537  1.00  0.00     0.002 A 
HETATM   17  C15 UNL     1       3.611  -0.386   0.864  1.00  0.00     0.029 A 
ENDBRANCH  10  12
ENDBRANCH   6   8
BRANCH   5  18
HETATM   18  C7  UNL     1      -1.109  -3.484  -0.871  1.00  0.00     0.090 C 
HETATM   19  S1  UNL     1      -1.126  -4.118   0.427  1.00  0.00    -0.095 SA
ENDBRANCH   5  18
BRANCH   1  20
HETATM   20  C2  UNL     1      -3.215   1.769   0.560  1.00  0.00     0.076 C 
BRANCH  20  21
HETATM   21  C1  UNL     1      -3.290   3.073   0.339  1.00  0.00    -0.025 C 
BRANCH  21  22
HETATM   22  N1  UNL     1      -3.137   4.270  -0.112  1.00  0.00    -0.258 NA
HETATM   23  H1  UNL     1      -3.022   4.409  -1.153  1.00  0.00     0.197 HD
ENDBRANCH  21  22
ENDBRANCH  20  21
ENDBRANCH   1  20
TORSDOF 6
