REMARK  3 active torsions:
REMARK  status: ('A' for Active; 'I' for Inactive)
REMARK       I    between atoms: C1_2  and  N1_3 
REMARK    1  A    between atoms: C1_2  and  C8_10 
REMARK    2  A    between atoms: N1_3  and  C2_4 
REMARK    3  A    between atoms: C8_10  and  C9_11 
ROOT
HETATM    1  C8  UNL     1      -0.566  -0.941  -0.790  1.00  0.00     0.105 C 
HETATM    2  C10 UNL     1      -0.948   0.049  -1.816  1.00  0.00     0.109 C 
HETATM    3  N2  UNL     1      -2.109   0.503  -1.587  1.00  0.00    -0.287 NA
HETATM    4  C11 UNL     1      -2.705  -0.069  -0.414  1.00  0.00     0.091 A 
HETATM    5  C12 UNL     1      -4.114  -0.499  -0.692  1.00  0.00     0.122 A 
HETATM    6  N3  UNL     1      -5.295  -0.184  -0.220  1.00  0.00    -0.275 NA
HETATM    7  C13 UNL     1      -5.321   0.813   0.825  1.00  0.00     0.112 A 
HETATM    8  C14 UNL     1      -4.083   1.215   1.095  1.00  0.00    -0.005 A 
HETATM    9  C15 UNL     1      -2.679   0.975   0.676  1.00  0.00     0.067 A 
HETATM   10  C16 UNL     1      -1.846  -1.264  -0.060  1.00  0.00     0.069 C 
ENDROOT
BRANCH   1  11
HETATM   11  C1  UNL     1       0.474  -0.497   0.142  1.00  0.00     0.240 C 
HETATM   12  O1  UNL     1       0.502  -0.312   1.388  1.00  0.00    -0.272 OA
HETATM   13  N1  UNL     1       1.705  -0.222  -0.529  1.00  0.00    -0.326 N 
HETATM   14  H1  UNL     1       1.943  -0.295  -1.552  1.00  0.00     0.169 HD
BRANCH  13  15
HETATM   15  C2  UNL     1       2.914   0.224   0.055  1.00  0.00     0.034 A 
HETATM   16  C3  UNL     1       3.819  -0.742   0.489  1.00  0.00     0.029 A 
HETATM   17  C4  UNL     1       5.029  -0.368   1.073  1.00  0.00     0.002 A 
HETATM   18  C5  UNL     1       5.371   0.969   1.242  1.00  0.00     0.000 A 
HETATM   19  C6  UNL     1       4.475   1.919   0.814  1.00  0.00     0.002 A 
HETATM   20  C7  UNL     1       3.297   1.533   0.244  1.00  0.00     0.029 A 
ENDBRANCH  13  15
ENDBRANCH   1  11
BRANCH   1  21
HETATM   21  C9  UNL     1      -0.161  -2.199  -1.509  1.00  0.00     0.079 C 
HETATM   22  S1  UNL     1       0.280  -2.503  -2.838  1.00  0.00    -0.096 SA
ENDBRANCH   1  21
TORSDOF 3
