REMARK  3 active torsions:
REMARK  status: ('A' for Active; 'I' for Inactive)
REMARK    1  A    between atoms: C3_5  and  C4_6 
REMARK       I    between atoms: C4_6  and  N2_8 
REMARK    2  A    between atoms: N2_8  and  C5_9 
REMARK    3  A    between atoms: C5_9  and  C6_10 
ROOT
HETATM    1  C1  UNL     1      -4.891  -0.418  -1.980  1.00  0.00     0.158 C 
HETATM    2  N1  UNL     1      -3.737   0.045  -1.258  1.00  0.00    -0.329 N 
HETATM    3  C2  UNL     1      -2.646   0.739  -1.850  1.00  0.00     0.098 A 
HETATM    4  S1  UNL     1      -2.401   1.189  -3.411  1.00  0.00    -0.064 SA
HETATM    5  C3  UNL     1      -1.592   1.082  -0.830  1.00  0.00     0.176 A 
HETATM    6  C11 UNL     1      -2.181   0.528   0.411  1.00  0.00     0.008 A 
HETATM    7  C12 UNL     1      -1.851   0.436   1.747  1.00  0.00     0.013 A 
HETATM    8  C13 UNL     1      -2.634  -0.166   2.705  1.00  0.00     0.020 A 
HETATM    9  C14 UNL     1      -3.835  -0.724   2.332  1.00  0.00     0.119 A 
HETATM   10  N3  UNL     1      -4.192  -0.657   1.050  1.00  0.00    -0.243 NA
HETATM   11  C15 UNL     1      -3.417  -0.065   0.123  1.00  0.00     0.137 A 
ENDROOT
BRANCH   5  12
HETATM   12  C4  UNL     1      -0.307   0.459  -1.213  1.00  0.00     0.233 C 
HETATM   13  O1  UNL     1      -0.217  -0.142  -2.337  1.00  0.00    -0.272 OA
HETATM   14  N2  UNL     1       0.868   0.467  -0.425  1.00  0.00    -0.354 N 
HETATM   15  H5  UNL     1       0.854   0.935   0.484  1.00  0.00     0.162 HD
BRANCH  14  16
HETATM   16  C5  UNL     1       1.952  -0.233  -1.091  1.00  0.00     0.187 C 
BRANCH  16  17
HETATM   17  C6  UNL     1       3.188  -0.234  -0.281  1.00  0.00     0.064 A 
HETATM   18  C7  UNL     1       4.270   0.329  -0.805  1.00  0.00     0.034 A 
HETATM   19  C8  UNL     1       5.513   0.347  -0.032  1.00  0.00     0.001 A 
HETATM   20  C9  UNL     1       5.453  -0.220   1.166  1.00  0.00    -0.000 A 
HETATM   21  C10 UNL     1       4.284  -0.868   1.816  1.00  0.00     0.202 A 
HETATM   22  O2  UNL     1       3.156  -0.816   0.967  1.00  0.00    -0.350 OA
ENDBRANCH  16  17
ENDBRANCH  14  16
ENDBRANCH   5  12
TORSDOF 3
