REMARK  2 active torsions:
REMARK  status: ('A' for Active; 'I' for Inactive)
REMARK    1  A    between atoms: C3_5  and  C4_6 
REMARK       I    between atoms: C4_6  and  N2_8 
REMARK    2  A    between atoms: N2_8  and  C5_9 
ROOT
HETATM    1  C1  UNL     1      -3.410   2.415  -0.995  1.00  0.00     0.158 C 
HETATM    2  N1  UNL     1      -2.613   1.480  -0.204  1.00  0.00    -0.329 N 
HETATM    3  C2  UNL     1      -1.517   1.817   0.657  1.00  0.00     0.098 A 
HETATM    4  S1  UNL     1      -0.938   3.322   0.924  1.00  0.00    -0.064 SA
HETATM    5  C3  UNL     1      -0.985   0.588   1.270  1.00  0.00     0.176 A 
HETATM    6  C11 UNL     1      -1.842  -0.497   0.713  1.00  0.00     0.008 A 
HETATM    7  C12 UNL     1      -1.901  -1.865   0.856  1.00  0.00     0.013 A 
HETATM    8  C13 UNL     1      -2.837  -2.652   0.192  1.00  0.00     0.020 A 
HETATM    9  C14 UNL     1      -3.742  -2.027  -0.645  1.00  0.00     0.119 A 
HETATM   10  N3  UNL     1      -3.703  -0.687  -0.802  1.00  0.00    -0.243 NA
HETATM   11  C15 UNL     1      -2.783   0.054  -0.144  1.00  0.00     0.137 A 
ENDROOT
BRANCH   5  12
HETATM   12  C4  UNL     1       0.421   0.313   0.950  1.00  0.00     0.237 C 
HETATM   13  O1  UNL     1       1.297   0.160   1.862  1.00  0.00    -0.272 OA
HETATM   14  N2  UNL     1       0.963   0.187  -0.344  1.00  0.00    -0.326 N 
HETATM   15  H5  UNL     1       0.302   0.299  -1.170  1.00  0.00     0.169 HD
BRANCH  14  16
HETATM   16  C5  UNL     1       2.379  -0.084  -0.278  1.00  0.00     0.034 A 
HETATM   17  C6  UNL     1       3.207   1.026  -0.271  1.00  0.00     0.029 A 
HETATM   18  C7  UNL     1       4.583   0.881  -0.209  1.00  0.00     0.002 A 
HETATM   19  C8  UNL     1       5.104  -0.410  -0.155  1.00  0.00     0.000 A 
HETATM   20  C9  UNL     1       4.273  -1.511  -0.162  1.00  0.00     0.002 A 
HETATM   21  C10 UNL     1       2.914  -1.356  -0.223  1.00  0.00     0.029 A 
ENDBRANCH  14  16
ENDBRANCH   5  12
TORSDOF 2
