REMARK  4 active torsions:
REMARK  status: ('A' for Active; 'I' for Inactive)
REMARK    1  A    between atoms: C8_9  and  C9_10 
REMARK    2  A    between atoms: C8_9  and  S2_12 
REMARK    3  A    between atoms: S2_12  and  C10_13 
REMARK       I    between atoms: C10_13  and  N2_15 
REMARK    4  A    between atoms: N2_15  and  C11_16 
ROOT
HETATM    1  C1  UNL     1      -5.786  -0.236  -0.286  1.00  0.00     0.049 C 
HETATM    2  C2  UNL     1      -4.310   0.105  -0.105  1.00  0.00    -0.047 C 
HETATM    3  C3  UNL     1      -3.388  -0.669  -0.804  1.00  0.00     0.094 C 
HETATM    4  N1  UNL     1      -2.247   0.007  -0.329  1.00  0.00    -0.366 N 
HETATM    5  C4  UNL     1      -1.446   1.187  -0.620  1.00  0.00     0.136 C 
HETATM    6  C5  UNL     1      -1.605   1.493   0.884  1.00  0.00     0.070 C 
HETATM    7  C6  UNL     1      -3.054   1.779   1.178  1.00  0.00    -0.016 C 
HETATM    8  C7  UNL     1      -4.298   1.284   0.865  1.00  0.00     0.004 C 
HETATM    9  C8  UNL     1      -1.383  -0.027   0.869  1.00  0.00     0.126 C 
ENDROOT
BRANCH   9  10
HETATM   10  C9  UNL     1      -2.107  -0.551   2.080  1.00  0.00     0.097 C 
HETATM   11  S1  UNL     1      -2.967  -1.572   2.604  1.00  0.00    -0.094 SA
ENDBRANCH   9  10
BRANCH   9  12
HETATM   12  S2  UNL     1       0.179  -0.676   0.695  1.00  0.00    -0.032 SA
BRANCH  12  13
HETATM   13  C10 UNL     1       1.491   0.041  -0.165  1.00  0.00     0.287 C 
HETATM   14  O1  UNL     1       2.204   0.854  -0.870  1.00  0.00    -0.260 OA
HETATM   15  N2  UNL     1       2.563  -0.930   0.010  1.00  0.00    -0.318 N 
HETATM   16  H11 UNL     1       2.743  -1.877   0.481  1.00  0.00     0.169 HD
BRANCH  15  17
HETATM   17  C11 UNL     1       3.904  -0.811  -0.522  1.00  0.00     0.035 A 
HETATM   18  C12 UNL     1       4.874  -0.175   0.261  1.00  0.00     0.029 A 
HETATM   19  C13 UNL     1       6.164  -0.070  -0.273  1.00  0.00     0.002 A 
HETATM   20  C14 UNL     1       6.501  -0.563  -1.517  1.00  0.00     0.000 A 
HETATM   21  C15 UNL     1       5.518  -1.180  -2.252  1.00  0.00     0.002 A 
HETATM   22  C16 UNL     1       4.214  -1.320  -1.784  1.00  0.00     0.029 A 
ENDBRANCH  15  17
ENDBRANCH  12  13
ENDBRANCH   9  12
TORSDOF 4
