REMARK  2 active torsions:
REMARK  status: ('A' for Active; 'I' for Inactive)
REMARK    1  A    between atoms: C3_5  and  C5_7 
REMARK       I    between atoms: C5_7  and  N2_9 
REMARK    2  A    between atoms: N2_9  and  C6_10 
ROOT
HETATM    1  C1  UNL     1      -3.273  -1.943   1.423  1.00  0.00     0.157 C 
HETATM    2  N1  UNL     1      -2.425  -0.828   1.001  1.00  0.00    -0.346 N 
HETATM    3  C2  UNL     1      -1.381  -0.207   1.779  1.00  0.00     0.100 C 
HETATM    4  S1  UNL     1      -0.899  -0.707   3.261  1.00  0.00    -0.064 SA
HETATM    5  C3  UNL     1      -0.829   0.945   1.012  1.00  0.00     0.118 C 
HETATM    6  C4  UNL     1      -0.817   2.214   1.839  1.00  0.00     0.036 C 
HETATM    7  C12 UNL     1      -1.831   1.130  -0.080  1.00  0.00     0.182 C 
HETATM    8  N3  UNL     1      -1.295   1.470  -1.360  1.00  0.00    -0.274 NA
HETATM    9  C13 UNL     1      -2.049   1.333  -2.373  1.00  0.00     0.080 C 
HETATM   10  C14 UNL     1      -2.926   0.374  -2.473  1.00  0.00     0.035 C 
HETATM   11  C15 UNL     1      -3.045  -0.587  -1.383  1.00  0.00     0.030 C 
HETATM   12  C16 UNL     1      -2.506  -0.191  -0.241  1.00  0.00     0.038 C 
ENDROOT
BRANCH   5  13
HETATM   13  C5  UNL     1       0.553   0.701   0.526  1.00  0.00     0.240 C 
HETATM   14  O1  UNL     1       1.563   1.409   0.836  1.00  0.00    -0.272 OA
HETATM   15  N2  UNL     1       0.881  -0.368  -0.350  1.00  0.00    -0.326 N 
HETATM   16  H7  UNL     1       0.110  -1.012  -0.665  1.00  0.00     0.169 HD
BRANCH  15  17
HETATM   17  C6  UNL     1       2.289  -0.356  -0.649  1.00  0.00     0.034 A 
HETATM   18  C7  UNL     1       2.921   0.293  -1.677  1.00  0.00     0.029 A 
HETATM   19  C8  UNL     1       4.288   0.180  -1.795  1.00  0.00     0.002 A 
HETATM   20  C9  UNL     1       5.041  -0.569  -0.906  1.00  0.00     0.000 A 
HETATM   21  C10 UNL     1       4.393  -1.224   0.134  1.00  0.00     0.002 A 
HETATM   22  C11 UNL     1       3.035  -1.104   0.240  1.00  0.00     0.029 A 
ENDBRANCH  15  17
ENDBRANCH   5  13
TORSDOF 2
