REMARK  7 active torsions:
REMARK  status: ('A' for Active; 'I' for Inactive)
REMARK    1  A    between atoms: C2_2  and  C3_3 
REMARK    2  A    between atoms: C2_2  and  N2_6 
REMARK       I    between atoms: C3_3  and  N1_4 
REMARK    3  A    between atoms: N2_6  and  C5_8 
REMARK    4  A    between atoms: C5_8  and  C6_9 
REMARK    5  A    between atoms: C11_16  and  N5_17 
REMARK    6  A    between atoms: N5_17  and  C12_18 
REMARK    7  A    between atoms: C20_28  and  O2_29 
ROOT
HETATM    1  C6  UNL     1      -1.085  -1.014  -0.398  1.00  0.00    -0.019 C 
HETATM    2  C7  UNL     1       0.128  -0.625   0.029  1.00  0.00     0.025 C 
HETATM    3  C8  UNL     1       1.292  -1.490   0.169  1.00  0.00     0.039 A 
HETATM    4  C9  UNL     1       1.314  -2.864   0.277  1.00  0.00     0.072 A 
HETATM    5  N3  UNL     1       2.506  -3.429   0.398  1.00  0.00    -0.241 NA
HETATM    6  C10 UNL     1       3.634  -2.697   0.415  1.00  0.00     0.236 A 
HETATM    7  N4  UNL     1       3.586  -1.367   0.308  1.00  0.00    -0.224 NA
HETATM    8  C11 UNL     1       2.413  -0.721   0.182  1.00  0.00     0.142 A 
HETATM    9  C18 UNL     1       0.171  -3.771   0.272  1.00  0.00     0.031 C 
HETATM   10  C19 UNL     1      -1.029  -3.481  -0.204  1.00  0.00     0.011 C 
HETATM   11  C20 UNL     1      -1.655  -2.306  -0.839  1.00  0.00     0.172 C 
ENDROOT
BRANCH   1  12
HETATM   12  C5  UNL     1      -2.103   0.082  -0.446  1.00  0.00     0.310 C 
BRANCH  12  13
HETATM   13  N2  UNL     1      -3.228  -0.189   0.395  1.00  0.00     0.101 N 
HETATM   14  C4  UNL     1      -2.806  -0.627   1.682  1.00  0.00     0.311 C 
BRANCH  13  15
HETATM   15  C2  UNL     1      -4.213   0.843   0.367  1.00  0.00     0.309 C 
HETATM   16  C1  UNL     1      -3.748   2.092   1.047  1.00  0.00     0.053 C 
BRANCH  15  17
HETATM   17  C3  UNL     1      -4.420   1.195  -1.084  1.00  0.00     0.248 C 
HETATM   18  N1  UNL     1      -5.414   2.239  -1.115  1.00  0.00    -0.368 N 
HETATM   19  H5  UNL     1      -6.401   2.498  -1.382  1.00  0.00     0.159 HD
HETATM   20  H6  UNL     1      -5.241   3.209  -0.760  1.00  0.00     0.159 HD
HETATM   21  O1  UNL     1      -4.356   1.247  -2.339  1.00  0.00    -0.271 OA
ENDBRANCH  15  17
ENDBRANCH  13  15
ENDBRANCH  12  13
ENDBRANCH   1  12
BRANCH  11  22
HETATM   22  O2  UNL     1      -1.619  -2.406  -2.242  1.00  0.00    -0.387 OA
HETATM   23  H21 UNL     1      -2.227  -3.116  -2.558  1.00  0.00     0.210 HD
ENDBRANCH  11  22
BRANCH   8  24
HETATM   24  N5  UNL     1       2.489   0.672   0.075  1.00  0.00    -0.338 N 
HETATM   25  H14 UNL     1       1.899   1.516  -0.039  1.00  0.00     0.167 HD
BRANCH  24  26
HETATM   26  C12 UNL     1       3.728   1.400   0.106  1.00  0.00     0.074 A 
HETATM   27  C13 UNL     1       4.211   2.377   0.951  1.00  0.00     0.033 A 
HETATM   28  C14 UNL     1       5.465   2.905   0.739  1.00  0.00     0.004 A 
HETATM   29  C15 UNL     1       6.257   2.485  -0.297  1.00  0.00     0.027 A 
HETATM   30  C16 UNL     1       5.796   1.513  -1.150  1.00  0.00     0.074 A 
HETATM   31 CL1  UNL     1       6.879   1.048  -2.436  1.00  0.00    -0.081 Cl
HETATM   32  C17 UNL     1       4.527   0.960  -0.957  1.00  0.00     0.164 A 
HETATM   33  F1  UNL     1       4.234   0.020  -1.886  1.00  0.00    -0.202 F 
ENDBRANCH  24  26
ENDBRANCH   8  24
TORSDOF 7
