REMARK  3 active torsions:
REMARK  status: ('A' for Active; 'I' for Inactive)
REMARK    1  A    between atoms: C3_3  and  C4_4 
REMARK    2  A    between atoms: C9_10  and  C11_12 
REMARK       I    between atoms: C11_12  and  N2_14 
REMARK    3  A    between atoms: N2_14  and  C12_15 
ROOT
HETATM    1  C4  UNL     1       1.172   0.558  -0.465  1.00  0.00     0.055 C 
HETATM    2  C5  UNL     1       1.766  -0.402  -1.467  1.00  0.00     0.282 C 
HETATM    3  N1  UNL     1       1.963  -1.643  -0.791  1.00  0.00     0.090 N 
HETATM    4  C6  UNL     1       1.817  -2.775  -1.667  1.00  0.00     0.310 C 
HETATM    5  C7  UNL     1       0.954  -1.734   0.247  1.00  0.00     0.236 C 
HETATM    6  C8  UNL     1       1.619  -2.308   1.462  1.00  0.00     0.044 C 
HETATM    7  C9  UNL     1       0.376  -0.356   0.452  1.00  0.00     0.076 C 
HETATM    8  C10 UNL     1       0.484   0.038   1.905  1.00  0.00     0.028 C 
ENDROOT
BRANCH   7   9
HETATM    9  C11 UNL     1      -1.057  -0.358   0.055  1.00  0.00     0.233 C 
HETATM   10  O1  UNL     1      -1.773  -1.335  -0.319  1.00  0.00    -0.272 OA
HETATM   11  N2  UNL     1      -1.733   0.908   0.095  1.00  0.00    -0.326 N 
HETATM   12  H19 UNL     1      -1.232   1.796   0.394  1.00  0.00     0.169 HD
BRANCH  11  13
HETATM   13  C12 UNL     1      -3.097   1.134  -0.241  1.00  0.00     0.034 A 
HETATM   14  C13 UNL     1      -3.897   0.984   0.897  1.00  0.00     0.029 A 
HETATM   15  C14 UNL     1      -5.283   1.157   0.826  1.00  0.00     0.002 A 
HETATM   16  C15 UNL     1      -5.855   1.479  -0.389  1.00  0.00     0.000 A 
HETATM   17  C16 UNL     1      -5.050   1.622  -1.502  1.00  0.00     0.002 A 
HETATM   18  C17 UNL     1      -3.693   1.453  -1.430  1.00  0.00     0.029 A 
ENDBRANCH  11  13
ENDBRANCH   7   9
BRANCH   1  19
HETATM   19  C3  UNL     1       2.138   1.312   0.326  1.00  0.00    -0.023 C 
HETATM   20  C2  UNL     1       3.422   1.545   0.486  1.00  0.00    -0.034 C 
HETATM   21  C1  UNL     1       4.752   1.180  -0.054  1.00  0.00     0.036 C 
ENDBRANCH   1  19
TORSDOF 3
