REMARK  3 active torsions:
REMARK  status: ('A' for Active; 'I' for Inactive)
REMARK    1  A    between atoms: C2_2  and  S1_3 
REMARK    2  A    between atoms: S1_3  and  C3_4 
REMARK       I    between atoms: C3_4  and  N1_6 
REMARK    3  A    between atoms: N1_6  and  C4_7 
ROOT
HETATM    1  C1  UNL     1      -1.536  -1.605   2.191  1.00  0.00     0.035 C 
HETATM    2  C2  UNL     1      -1.701  -0.495   1.169  1.00  0.00     0.070 C 
HETATM    3  C10 UNL     1      -2.970   0.287   1.330  1.00  0.00     0.055 C 
HETATM    4  C11 UNL     1      -3.074   1.523   0.564  1.00  0.00    -0.025 C 
HETATM    5  C12 UNL     1      -3.772   1.886  -0.507  1.00  0.00    -0.005 C 
HETATM    6  C13 UNL     1      -4.682   1.153  -1.338  1.00  0.00    -0.014 C 
HETATM    7  C14 UNL     1      -5.023  -0.120  -1.293  1.00  0.00    -0.058 C 
HETATM    8  B1  UNL     1      -4.703  -1.580  -0.405  1.00  0.00     0.335 B 
HETATM    9  N2  UNL     1      -3.199  -1.970   0.050  1.00  0.00    -0.350 NA
HETATM   10  C15 UNL     1      -1.972  -1.217  -0.191  1.00  0.00     0.098 C 
HETATM   11  S2  UNL     1      -1.436  -1.451  -1.732  1.00  0.00    -0.064 SA
ENDROOT
BRANCH   2  12
HETATM   12  S1  UNL     1      -0.299   0.533   0.991  1.00  0.00    -0.052 SA
BRANCH  12  13
HETATM   13  C3  UNL     1       1.134  -0.309   0.290  1.00  0.00     0.285 C 
HETATM   14  O1  UNL     1       1.641  -1.388  -0.170  1.00  0.00    -0.260 OA
HETATM   15  N1  UNL     1       2.181   0.651   0.207  1.00  0.00    -0.318 N 
HETATM   16  H4  UNL     1       2.269   1.681   0.458  1.00  0.00     0.169 HD
BRANCH  15  17
HETATM   17  C4  UNL     1       3.517   0.426  -0.295  1.00  0.00     0.035 A 
HETATM   18  C5  UNL     1       3.919   0.585  -1.605  1.00  0.00     0.029 A 
HETATM   19  C6  UNL     1       5.227   0.339  -1.959  1.00  0.00     0.002 A 
HETATM   20  C7  UNL     1       6.104  -0.068  -0.959  1.00  0.00     0.000 A 
HETATM   21  C8  UNL     1       5.721  -0.234   0.361  1.00  0.00     0.002 A 
HETATM   22  C9  UNL     1       4.391   0.020   0.707  1.00  0.00     0.029 A 
ENDBRANCH  15  17
ENDBRANCH  12  13
ENDBRANCH   2  12
TORSDOF 3
