REMARK  4 active torsions:
REMARK  status: ('A' for Active; 'I' for Inactive)
REMARK    1  A    between atoms: C2_2  and  C3_3 
REMARK    2  A    between atoms: C3_3  and  N1_4 
REMARK    3  A    between atoms: N1_4  and  C4_5 
REMARK    4  A    between atoms: N2_17  and  O1_18 
ROOT
HETATM    1  C1  UNL     1      -1.076  -2.100   1.054  1.00  0.00     0.037 C 
HETATM    2  C2  UNL     1      -0.948  -0.834   0.229  1.00  0.00     0.080 C 
HETATM    3  C10 UNL     1      -1.904   0.158   0.683  1.00  0.00    -0.151 C 
HETATM    4  C11 UNL     1      -2.668   0.968   1.034  1.00  0.00     0.044 A 
HETATM    5  C12 UNL     1      -3.562   1.944   1.432  1.00  0.00     0.023 A 
HETATM    6  C13 UNL     1      -3.986   1.792   0.202  1.00  0.00     0.037 A 
HETATM    7  C14 UNL     1      -3.890   1.154  -1.070  1.00  0.00    -0.000 C 
HETATM    8  C15 UNL     1      -3.395   0.321  -1.945  1.00  0.00     0.120 C 
HETATM    9  N2  UNL     1      -2.364  -0.653  -2.007  1.00  0.00    -0.228 N 
HETATM   10  C16 UNL     1      -1.314  -1.204  -1.179  1.00  0.00     0.127 C 
HETATM   11  S1  UNL     1      -0.324  -2.392  -1.682  1.00  0.00    -0.061 SA
ENDROOT
BRANCH   2  12
HETATM   12  C3  UNL     1       0.399  -0.205   0.360  1.00  0.00     0.148 C 
BRANCH  12  13
HETATM   13  N1  UNL     1       1.525  -0.977  -0.017  1.00  0.00    -0.388 N 
HETATM   14  H6  UNL     1       1.725  -1.943  -0.368  1.00  0.00     0.159 HD
BRANCH  13  15
HETATM   15  C4  UNL     1       2.741  -0.217   0.133  1.00  0.00     0.028 A 
HETATM   16  C5  UNL     1       2.791   1.084   0.586  1.00  0.00     0.029 A 
HETATM   17  C6  UNL     1       3.937   1.839   0.740  1.00  0.00     0.002 A 
HETATM   18  C7  UNL     1       5.135   1.242   0.411  1.00  0.00     0.000 A 
HETATM   19  C8  UNL     1       5.193  -0.054  -0.051  1.00  0.00     0.002 A 
HETATM   20  C9  UNL     1       3.996  -0.721  -0.168  1.00  0.00     0.029 A 
ENDBRANCH  13  15
ENDBRANCH  12  13
ENDBRANCH   2  12
BRANCH   9  21
HETATM   21  O1  UNL     1      -2.297  -1.310  -3.202  1.00  0.00    -0.282 OA
HETATM   22  H16 UNL     1      -3.050  -1.944  -3.205  1.00  0.00     0.245 HD
ENDBRANCH   9  21
TORSDOF 4
