REMARK  1 active torsions:
REMARK  status: ('A' for Active; 'I' for Inactive)
REMARK    1  A    between atoms: C3_5  and  C4_6 
ROOT
HETATM    1  C1  UNL     1      -1.695  -2.698   0.529  1.00  0.00     0.161 C 
HETATM    2  N1  UNL     1      -1.085  -1.433   0.193  1.00  0.00    -0.302 N 
HETATM    3  C2  UNL     1       0.261  -1.363   0.196  1.00  0.00     0.260 A 
HETATM    4  O1  UNL     1       1.028  -2.308   0.466  1.00  0.00    -0.267 OA
HETATM    5  C3  UNL     1       0.857  -0.174  -0.120  1.00  0.00     0.047 A 
HETATM    6  C10 UNL     1       0.086   0.927  -0.433  1.00  0.00     0.034 A 
HETATM    7  C11 UNL     1      -1.288   0.858  -0.436  1.00  0.00     0.028 A 
HETATM    8  C12 UNL     1      -1.855  -0.353  -0.114  1.00  0.00     0.139 A 
HETATM    9  N2  UNL     1      -3.099  -0.628  -0.059  1.00  0.00    -0.267 NA
HETATM   10  C13 UNL     1      -4.353   0.034  -0.260  1.00  0.00     0.197 A 
HETATM   11  C14 UNL     1      -4.169   1.445  -0.642  1.00  0.00     0.111 A 
HETATM   12  N3  UNL     1      -3.234   2.306  -0.863  1.00  0.00    -0.274 NA
HETATM   13  C15 UNL     1      -1.842   2.014  -0.761  1.00  0.00     0.131 A 
ENDROOT
BRANCH   5  14
HETATM   14  C4  UNL     1       2.312   0.083  -0.167  1.00  0.00     0.023 A 
HETATM   15  C5  UNL     1       3.110  -0.075  -1.275  1.00  0.00     0.046 A 
HETATM   16 CL1  UNL     1       2.342  -0.623  -2.745  1.00  0.00    -0.083 Cl
HETATM   17  C6  UNL     1       4.450   0.215  -1.130  1.00  0.00     0.025 A 
HETATM   18  C7  UNL     1       4.981   0.643   0.063  1.00  0.00     0.003 A 
HETATM   19  C8  UNL     1       4.155   0.794   1.164  1.00  0.00     0.025 A 
HETATM   20  C9  UNL     1       2.806   0.512   1.055  1.00  0.00     0.046 A 
HETATM   21 CL2  UNL     1       1.840   0.731   2.498  1.00  0.00    -0.083 Cl
ENDBRANCH   5  14
TORSDOF 1
