REMARK  5 active torsions:
REMARK  status: ('A' for Active; 'I' for Inactive)
REMARK    1  A    between atoms: S1_2  and  C2_3 
REMARK    2  A    between atoms: N1_5  and  C4_6 
REMARK    3  A    between atoms: C9_11  and  C10_12 
REMARK    4  A    between atoms: C10_12  and  C11_13 
REMARK       I    between atoms: C11_13  and  N2_15 
REMARK    5  A    between atoms: N2_15  and  C12_16 
ROOT
HETATM    1  C4  UNL     1       2.462  -1.610  -0.004  1.00  0.00     0.046 A 
HETATM    2  C5  UNL     1       3.542  -2.126   0.668  1.00  0.00     0.030 A 
HETATM    3  C6  UNL     1       3.485  -3.376   1.242  1.00  0.00     0.002 A 
HETATM    4  C7  UNL     1       2.294  -4.085   1.112  1.00  0.00     0.001 A 
HETATM    5  C8  UNL     1       1.218  -3.552   0.433  1.00  0.00     0.010 A 
HETATM    6  C9  UNL     1       1.275  -2.284  -0.149  1.00  0.00    -0.022 A 
ENDROOT
BRANCH   6   7
HETATM    7  C10 UNL     1       0.095  -1.764  -0.863  1.00  0.00     0.144 C 
BRANCH   7   8
HETATM    8  C11 UNL     1      -0.640  -0.742  -0.078  1.00  0.00     0.226 C 
HETATM    9  O1  UNL     1      -0.451  -0.240   1.069  1.00  0.00    -0.273 OA
HETATM   10  N2  UNL     1      -1.765  -0.275  -0.811  1.00  0.00    -0.327 N 
HETATM   11  H11 UNL     1      -2.140  -0.516  -1.754  1.00  0.00     0.169 HD
BRANCH  10  12
HETATM   12  C12 UNL     1      -2.689   0.707  -0.356  1.00  0.00     0.034 A 
HETATM   13  C13 UNL     1      -2.690   2.083  -0.495  1.00  0.00     0.029 A 
HETATM   14  C14 UNL     1      -3.704   2.819   0.041  1.00  0.00     0.002 A 
HETATM   15  C15 UNL     1      -4.742   2.237   0.723  1.00  0.00     0.000 A 
HETATM   16  C16 UNL     1      -4.781   0.864   0.885  1.00  0.00     0.002 A 
HETATM   17  C17 UNL     1      -3.743   0.107   0.338  1.00  0.00     0.029 A 
ENDBRANCH  10  12
ENDBRANCH   7   8
ENDBRANCH   6   7
BRANCH   1  18
HETATM   18  N1  UNL     1       2.575  -0.323  -0.573  1.00  0.00    -0.312 N 
HETATM   19  C2  UNL     1       2.473   1.100  -0.570  1.00  0.00     0.092 A 
HETATM   20  C3  UNL     1       2.910   0.543  -1.679  1.00  0.00     0.135 A 
BRANCH  19  21
HETATM   21  S1  UNL     1       2.017   2.486   0.431  1.00  0.00    -0.115 SA
HETATM   22  C1  UNL     1       2.236   4.038  -0.488  1.00  0.00     0.097 C 
ENDBRANCH  19  21
ENDBRANCH   1  18
TORSDOF 5
