REMARK  8 active torsions:
REMARK  status: ('A' for Active; 'I' for Inactive)
REMARK    1  A    between atoms: C1_2  and  S1_3 
REMARK    2  A    between atoms: S1_3  and  C2_4 
REMARK    3  A    between atoms: C2_4  and  C3_5 
REMARK    4  A    between atoms: C3_5  and  C4_6 
REMARK    5  A    between atoms: C5_7  and  C6_8 
REMARK    6  A    between atoms: C10_13  and  C11_14 
REMARK    7  A    between atoms: C11_14  and  N2_15 
REMARK    8  A    between atoms: N2_15  and  C12_16 
ROOT
HETATM    1  C6  UNL     1       0.566   0.033   0.637  1.00  0.00     0.009 C 
HETATM    2  C7  UNL     1      -0.369   0.785   0.077  1.00  0.00    -0.031 C 
HETATM    3  C8  UNL     1      -0.326   1.585  -1.174  1.00  0.00     0.158 C 
HETATM    4  N1  UNL     1      -1.151   2.730  -0.761  1.00  0.00    -0.394 N 
HETATM    5  C9  UNL     1      -2.136   2.143   0.111  1.00  0.00     0.092 C 
HETATM    6  C10 UNL     1      -1.724   0.983   0.639  1.00  0.00    -0.018 C 
HETATM    7  H11 UNL     1      -1.086   3.741  -1.006  1.00  0.00     0.159 HD
ENDROOT
BRANCH   1   8
HETATM    8  C5  UNL     1       1.862  -0.078  -0.012  1.00  0.00    -0.003 C 
HETATM    9  C4  UNL     1       2.787  -0.829   0.559  1.00  0.00    -0.026 C 
BRANCH   9  10
HETATM   10  C3  UNL     1       4.179  -1.162   0.187  1.00  0.00     0.037 C 
BRANCH  10  11
HETATM   11  C2  UNL     1       4.635  -0.519  -1.101  1.00  0.00     0.085 C 
BRANCH  11  12
HETATM   12  S1  UNL     1       6.351  -0.983  -1.490  1.00  0.00    -0.101 SA
BRANCH  12  13
HETATM   13  C1  UNL     1       7.503  -0.327  -0.304  1.00  0.00     0.304 C 
HETATM   14  O1  UNL     1       7.488   0.807   0.134  1.00  0.00    -0.295 OA
ENDBRANCH  12  13
ENDBRANCH  11  12
ENDBRANCH  10  11
ENDBRANCH   9  10
ENDBRANCH   1   8
BRANCH   6  15
HETATM   15  C11 UNL     1      -2.406   0.082   1.569  1.00  0.00     0.155 C 
BRANCH  15  16
HETATM   16  N2  UNL     1      -2.650  -1.240   1.121  1.00  0.00    -0.407 N 
HETATM   17  H15 UNL     1      -1.856  -1.874   1.021  1.00  0.00     0.154 HD
BRANCH  16  18
HETATM   18  C12 UNL     1      -3.602  -1.420   0.081  1.00  0.00     0.123 A 
HETATM   19  C13 UNL     1      -4.956  -0.964   0.467  1.00  0.00     0.002 A 
HETATM   20  C14 UNL     1      -5.439  -0.070  -0.407  1.00  0.00    -0.002 A 
HETATM   21  C15 UNL     1      -4.412   0.108  -1.426  1.00  0.00    -0.002 A 
HETATM   22  C16 UNL     1      -3.365  -0.662  -1.147  1.00  0.00     0.002 A 
ENDBRANCH  16  18
ENDBRANCH  15  16
ENDBRANCH   6  15
TORSDOF 8
