REMARK  7 active torsions:
REMARK  status: ('A' for Active; 'I' for Inactive)
REMARK    1  A    between atoms: N1_2  and  C2_3 
REMARK    2  A    between atoms: N1_2  and  C3_5 
REMARK    3  A    between atoms: C2_3  and  S1_4 
REMARK    4  A    between atoms: C4_6  and  C5_7 
REMARK       I    between atoms: C5_7  and  N2_9 
REMARK    5  A    between atoms: N2_9  and  C6_10 
REMARK    6  A    between atoms: C13_17  and  S2_18 
REMARK    7  A    between atoms: S2_18  and  C14_19 
ROOT
HETATM    1  C3  UNL     1       0.063  -1.416   0.460  1.00  0.00     0.042 A 
HETATM    2  C4  UNL     1       0.478  -0.170   0.325  1.00  0.00     0.038 A 
HETATM    3  C12 UNL     1      -0.420   0.989   0.301  1.00  0.00     0.066 A 
HETATM    4  C13 UNL     1      -1.867   0.678   0.441  1.00  0.00     0.079 A 
HETATM    5  C20 UNL     1      -2.211  -0.737   0.584  1.00  0.00    -0.009 A 
HETATM    6  C21 UNL     1      -1.366  -1.737   0.599  1.00  0.00     0.027 A 
ENDROOT
BRANCH   2   7
HETATM    7  C5  UNL     1       1.908   0.077   0.192  1.00  0.00     0.254 C 
HETATM    8  O1  UNL     1       2.658  -0.930   0.215  1.00  0.00    -0.268 OA
HETATM    9  N2  UNL     1       2.486   1.359   0.041  1.00  0.00    -0.323 N 
HETATM   10  H7  UNL     1       1.752   2.099   0.039  1.00  0.00     0.169 HD
BRANCH   9  11
HETATM   11  C6  UNL     1       3.847   1.718  -0.096  1.00  0.00     0.035 A 
HETATM   12  C7  UNL     1       4.935   0.879  -0.113  1.00  0.00     0.029 A 
HETATM   13  C8  UNL     1       6.229   1.312  -0.251  1.00  0.00     0.002 A 
HETATM   14  C9  UNL     1       6.498   2.638  -0.381  1.00  0.00     0.000 A 
HETATM   15  C10 UNL     1       5.446   3.496  -0.368  1.00  0.00     0.002 A 
HETATM   16  C11 UNL     1       4.149   3.053  -0.229  1.00  0.00     0.029 A 
ENDBRANCH   9  11
ENDBRANCH   2   7
BRANCH   1  17
HETATM   17  N1  UNL     1       0.927  -2.570   0.486  1.00  0.00    -0.376 N 
HETATM   18  C1  UNL     1       1.676  -3.080   1.644  1.00  0.00     0.150 C 
BRANCH  17  19
HETATM   19  C2  UNL     1       1.121  -3.358  -0.736  1.00  0.00     0.193 C 
BRANCH  19  20
HETATM   20  S1  UNL     1       0.581  -5.072  -0.479  1.00  0.00    -0.163 SA
HETATM   21  H6  UNL     1       1.356  -5.740   0.467  1.00  0.00     0.103 HD
ENDBRANCH  19  20
ENDBRANCH  17  19
ENDBRANCH   1  17
BRANCH   4  22
HETATM   22  S2  UNL     1      -2.715   1.285  -1.065  1.00  0.00    -0.121 SA
BRANCH  22  23
HETATM   23  C14 UNL     1      -4.450   0.916  -0.904  1.00  0.00     0.001 A 
HETATM   24  C15 UNL     1      -5.173   1.931  -0.294  1.00  0.00     0.018 A 
HETATM   25  C16 UNL     1      -6.549   1.827  -0.079  1.00  0.00     0.001 A 
HETATM   26  C17 UNL     1      -7.190   0.657  -0.500  1.00  0.00     0.000 A 
HETATM   27  C18 UNL     1      -6.432  -0.343  -1.110  1.00  0.00     0.001 A 
HETATM   28  C19 UNL     1      -5.076  -0.236  -1.320  1.00  0.00     0.018 A 
ENDBRANCH  22  23
ENDBRANCH   4  22
TORSDOF 7
