REMARK  5 active torsions:
REMARK  status: ('A' for Active; 'I' for Inactive)
REMARK    1  A    between atoms: C2_2  and  C3_3 
REMARK    2  A    between atoms: C4_4  and  C5_5 
REMARK    3  A    between atoms: C5_5  and  N1_6 
REMARK       I    between atoms: N1_6  and  C6_7 
REMARK    4  A    between atoms: C6_7  and  C7_9 
REMARK    5  A    between atoms: C8_10  and  S1_11 
ROOT
HETATM    1  C7  UNL     1      -1.233  -0.231  -0.415  1.00  0.00     0.078 A 
HETATM    2  C8  UNL     1      -1.597  -0.665  -1.676  1.00  0.00     0.088 A 
HETATM    3  N2  UNL     1      -2.771  -0.074  -1.969  1.00  0.00    -0.345 N 
HETATM    4  C10 UNL     1      -3.489  -0.289  -3.238  1.00  0.00     0.157 C 
HETATM    5  C11 UNL     1      -3.223   0.741  -0.969  1.00  0.00     0.031 A 
HETATM    6  C12 UNL     1      -2.239   0.615  -0.021  1.00  0.00     0.007 A 
HETATM    7  C13 UNL     1      -2.311   1.273   1.156  1.00  0.00    -0.001 C 
HETATM    8  C14 UNL     1      -3.264   2.130   1.649  1.00  0.00    -0.081 C 
HETATM    9  B1  UNL     1      -4.217   2.915   0.162  1.00  0.00     0.200 B 
HETATM   10  C15 UNL     1      -4.363   1.480  -0.951  1.00  0.00    -0.052 C 
ENDROOT
BRANCH   1  11
HETATM   11  C6  UNL     1       0.008  -0.739   0.108  1.00  0.00     0.255 C 
HETATM   12  N1  UNL     1       0.732  -0.605   1.290  1.00  0.00    -0.353 N 
HETATM   13  H8  UNL     1       0.295   0.011   2.002  1.00  0.00     0.163 HD
HETATM   14  O1  UNL     1       0.742  -1.523  -0.569  1.00  0.00    -0.268 OA
BRANCH  12  15
HETATM   15  C5  UNL     1       1.992  -1.304   1.441  1.00  0.00     0.150 C 
BRANCH  15  16
HETATM   16  C4  UNL     1       2.534  -0.980   2.782  1.00  0.00    -0.008 C 
HETATM   17  C3  UNL     1       3.699  -0.386   2.932  1.00  0.00    -0.006 C 
BRANCH  17  18
HETATM   18  C2  UNL     1       4.591   0.024   1.880  1.00  0.00    -0.027 C 
HETATM   19  C1  UNL     1       5.759   0.617   1.939  1.00  0.00     0.031 C 
ENDBRANCH  17  18
ENDBRANCH  15  16
ENDBRANCH  12  15
ENDBRANCH   1  11
BRANCH   2  20
HETATM   20  S1  UNL     1      -0.792  -1.792  -2.845  1.00  0.00    -0.116 SA
HETATM   21  C9  UNL     1       0.293  -0.751  -3.870  1.00  0.00     0.097 C 
ENDBRANCH   2  20
TORSDOF 5
