REMARK  3 active torsions:
REMARK  status: ('A' for Active; 'I' for Inactive)
REMARK    1  A    between atoms: S1_2  and  C2_3 
REMARK    2  A    between atoms: C3_4  and  C4_5 
REMARK       I    between atoms: C4_5  and  N1_7 
REMARK    3  A    between atoms: N1_7  and  C5_8 
ROOT
HETATM    1  C2  UNL     1      -1.112  -1.049  -0.285  1.00  0.00     0.088 A 
HETATM    2  C3  UNL     1      -0.252   0.054  -0.276  1.00  0.00     0.078 A 
HETATM    3  C10 UNL     1      -1.075   1.120  -0.508  1.00  0.00     0.009 A 
HETATM    4  C11 UNL     1      -0.710   2.438  -0.594  1.00  0.00     0.015 A 
HETATM    5  C12 UNL     1      -1.686   3.379  -0.835  1.00  0.00     0.001 A 
HETATM    6  C13 UNL     1      -3.020   3.068  -0.997  1.00  0.00     0.002 A 
HETATM    7  C14 UNL     1      -3.346   1.731  -0.904  1.00  0.00     0.030 A 
HETATM    8  C15 UNL     1      -2.395   0.766  -0.663  1.00  0.00     0.046 A 
HETATM    9  N2  UNL     1      -2.369  -0.567  -0.519  1.00  0.00    -0.344 N 
HETATM   10  C16 UNL     1      -3.632  -1.298  -0.626  1.00  0.00     0.157 C 
ENDROOT
BRANCH   2  11
HETATM   11  C4  UNL     1       1.139  -0.220  -0.044  1.00  0.00     0.259 C 
HETATM   12  O1  UNL     1       1.494  -1.417   0.134  1.00  0.00    -0.267 OA
HETATM   13  N1  UNL     1       2.304   0.553   0.044  1.00  0.00    -0.323 N 
HETATM   14  H4  UNL     1       2.134   1.568  -0.088  1.00  0.00     0.169 HD
BRANCH  13  15
HETATM   15  C5  UNL     1       3.626   0.113   0.283  1.00  0.00     0.035 C 
HETATM   16  C6  UNL     1       4.210  -1.053   0.491  1.00  0.00     0.030 C 
HETATM   17  C7  UNL     1       5.671  -0.949   0.694  1.00  0.00     0.014 C 
HETATM   18  C8  UNL     1       5.793   0.363   0.822  1.00  0.00    -0.024 C 
HETATM   19  C9  UNL     1       4.781   1.034   0.353  1.00  0.00     0.042 C 
ENDBRANCH  13  15
ENDBRANCH   2  11
BRANCH   1  20
HETATM   20  S1  UNL     1      -0.919  -2.816  -0.070  1.00  0.00    -0.116 SA
HETATM   21  C1  UNL     1      -1.090  -3.224   1.698  1.00  0.00     0.097 C 
ENDBRANCH   1  20
TORSDOF 3
