REMARK  1 active torsions:
REMARK  status: ('A' for Active; 'I' for Inactive)
REMARK    1  A    between atoms: C4_4  and  C5_5 
ROOT
HETATM    1  C1  UNL     1       4.588   3.708   1.618  1.00  0.00     0.017 C 
HETATM    2  C2  UNL     1       3.728   2.899   1.340  1.00  0.00    -0.089 C 
HETATM    3  C3  UNL     1       2.711   1.913   0.994  1.00  0.00     0.064 C 
HETATM    4  C4  UNL     1       2.992   0.812   0.330  1.00  0.00     0.024 C 
ENDROOT
BRANCH   4   5
HETATM    5  C5  UNL     1       2.155  -0.291  -0.115  1.00  0.00     0.009 C 
HETATM    6  C6  UNL     1       2.713  -1.278  -0.772  1.00  0.00    -0.001 C 
HETATM    7  C7  UNL     1       2.247  -2.528  -1.373  1.00  0.00     0.114 C 
HETATM    8  S1  UNL     1       1.097  -2.245  -2.747  1.00  0.00    -0.092 SA
HETATM    9  S2  UNL     1      -0.262  -0.675  -2.253  1.00  0.00    -0.074 SA
HETATM   10  C8  UNL     1      -0.526  -0.713  -0.437  1.00  0.00     0.114 C 
HETATM   11  C9  UNL     1      -0.868  -2.112  -0.063  1.00  0.00     0.054 C 
HETATM   12  C16 UNL     1      -1.620   0.274  -0.115  1.00  0.00    -0.004 A 
HETATM   13  C17 UNL     1       0.729  -0.251   0.192  1.00  0.00     0.183 C 
HETATM   14  C10 UNL     1      -2.270  -2.369   0.350  1.00  0.00     0.122 C 
HETATM   15  N1  UNL     1      -2.932  -1.324   1.055  1.00  0.00    -0.389 N 
HETATM   16  C11 UNL     1      -2.772   0.007   0.594  1.00  0.00     0.036 A 
HETATM   17  H11 UNL     1      -3.537  -1.482   1.905  1.00  0.00     0.159 HD
HETATM   18  C12 UNL     1      -3.693   0.997   0.821  1.00  0.00     0.030 A 
HETATM   19  C13 UNL     1      -3.525   2.278   0.368  1.00  0.00     0.002 A 
HETATM   20  C14 UNL     1      -2.366   2.512  -0.336  1.00  0.00     0.001 A 
HETATM   21  C15 UNL     1      -1.392   1.545  -0.599  1.00  0.00     0.011 A 
HETATM   22  O1  UNL     1       0.470   0.337   1.301  1.00  0.00    -0.290 OA
ENDBRANCH   4   5
TORSDOF 1
