REMARK  4 active torsions:
REMARK  status: ('A' for Active; 'I' for Inactive)
REMARK    1  A    between atoms: N1_7  and  C7_8 
REMARK    2  A    between atoms: C15_18  and  O2_20 
REMARK    3  A    between atoms: O2_20  and  N3_21 
REMARK    4  A    between atoms: N3_21  and  C17_22 
ROOT
HETATM    1  C7  UNL     1       1.635  -0.322  -0.475  1.00  0.00     0.141 C 
HETATM    2  C8  UNL     1       2.099  -0.631  -1.890  1.00  0.00     0.181 C 
HETATM    3  N2  UNL     1       1.550  -1.890  -2.346  1.00  0.00    -0.276 NA
HETATM    4  C9  UNL     1       0.398  -2.207  -2.849  1.00  0.00     0.246 C 
HETATM    5  O1  UNL     1      -0.856  -1.691  -2.534  1.00  0.00    -0.331 OA
HETATM    6  C10 UNL     1      -1.598  -1.166  -1.526  1.00  0.00     0.104 C 
HETATM    7  C11 UNL     1      -2.949  -1.830  -1.486  1.00  0.00     0.050 C 
HETATM    8  C12 UNL     1      -1.789   0.318  -1.462  1.00  0.00     0.069 C 
HETATM    9  C13 UNL     1      -0.524   0.704  -0.766  1.00  0.00    -0.015 C 
HETATM   10  C14 UNL     1       0.137  -0.396  -0.415  1.00  0.00    -0.020 C 
HETATM   11  C15 UNL     1      -1.017  -1.335  -0.105  1.00  0.00     0.135 C 
HETATM   12  C16 UNL     1      -0.590  -2.722   0.187  1.00  0.00     0.057 C 
ENDROOT
BRANCH   1  13
HETATM   13  N1  UNL     1       2.200   0.838   0.109  1.00  0.00    -0.350 N 
HETATM   14  C2  UNL     1       3.143   1.811  -0.309  1.00  0.00     0.012 A 
HETATM   15  C1  UNL     1       3.597   1.590  -1.509  1.00  0.00     0.063 C 
HETATM   16  C3  UNL     1       3.535   2.924   0.545  1.00  0.00     0.025 A 
HETATM   17  C4  UNL     1       3.008   3.048   1.752  1.00  0.00     0.003 A 
HETATM   18  C5  UNL     1       2.037   2.057   2.201  1.00  0.00     0.017 A 
HETATM   19  C6  UNL     1       1.654   1.021   1.438  1.00  0.00     0.092 A 
ENDBRANCH   1  13
BRANCH  11  20
HETATM   20  O2  UNL     1      -1.931  -0.787   0.752  1.00  0.00    -0.287 OA
BRANCH  20  21
HETATM   21  N3  UNL     1      -1.610  -0.834   2.040  1.00  0.00    -0.205 NA
HETATM   22  H20 UNL     1      -2.247  -1.543   2.505  1.00  0.00     0.153 HD
BRANCH  21  23
HETATM   23  C17 UNL     1      -1.999   0.461   2.615  1.00  0.00     0.113 C 
HETATM   24  C18 UNL     1      -3.477   0.727   2.470  1.00  0.00     0.023 C 
ENDBRANCH  21  23
ENDBRANCH  20  21
ENDBRANCH  11  20
TORSDOF 4
