REMARK  6 active torsions:
REMARK  status: ('A' for Active; 'I' for Inactive)
REMARK    1  A    between atoms: C5_5  and  S1_6 
REMARK    2  A    between atoms: S1_6  and  C6_7 
REMARK    3  A    between atoms: C7_9  and  N2_10 
REMARK       I    between atoms: N3_11  and  C8_12 
REMARK    4  A    between atoms: C8_12  and  C9_14 
REMARK    5  A    between atoms: C15_23  and  S2_24 
REMARK    6  A    between atoms: S2_24  and  N5_25 
ROOT
HETATM    1  C6  UNL     1      -0.537   1.325   0.027  1.00  0.00     0.231 A 
HETATM    2  N1  UNL     1       0.090   1.532  -1.157  1.00  0.00    -0.035 NA
HETATM    3  C7  UNL     1       1.410   1.240  -0.968  1.00  0.00     0.726 A 
HETATM    4  N3  UNL     1       1.580   0.863   0.303  1.00  0.00    -0.020 N 
HETATM    5  C8  UNL     1       2.763   0.450   0.889  1.00  0.00     0.301 C 
HETATM    6  O1  UNL     1       2.659   0.271   2.155  1.00  0.00    -0.264 OA
HETATM    7  N4  UNL     1       0.400   0.920   0.889  1.00  0.00    -0.121 NA
ENDROOT
BRANCH   1   8
HETATM    8  S1  UNL     1      -2.236   1.497   0.540  1.00  0.00    -0.047 SA
BRANCH   8   9
HETATM    9  C5  UNL     1      -3.069  -0.074   0.249  1.00  0.00     0.032 A 
HETATM   10  C4  UNL     1      -2.455  -1.280  -0.312  1.00  0.00     0.021 A 
HETATM   11  C3  UNL     1      -3.333  -2.270  -0.401  1.00  0.00     0.013 A 
HETATM   12  C2  UNL     1      -4.586  -1.728   0.114  1.00  0.00    -0.021 A 
HETATM   13  C1  UNL     1      -5.770  -2.345   0.229  1.00  0.00     0.025 C 
HETATM   14  C15 UNL     1      -4.352  -0.345   0.505  1.00  0.00     0.101 A 
BRANCH  14  15
HETATM   15  S2  UNL     1      -5.535   0.750   1.182  1.00  0.00     0.241 S 
HETATM   16  O2  UNL     1      -6.597  -0.015   1.937  1.00  0.00    -0.206 OA
HETATM   17  O3  UNL     1      -4.881   1.753   2.090  1.00  0.00    -0.206 OA
BRANCH  15  18
HETATM   18  N5  UNL     1      -6.339   1.613  -0.088  1.00  0.00    -0.225 NA
HETATM   19  H10 UNL     1      -5.869   2.527  -0.302  1.00  0.00     0.136 HD
HETATM   20  H11 UNL     1      -6.236   1.032  -0.967  1.00  0.00     0.136 HD
ENDBRANCH  15  18
ENDBRANCH  14  15
ENDBRANCH   8   9
ENDBRANCH   1   8
BRANCH   3  21
HETATM   21  N2  UNL     1       2.205   1.441  -2.111  1.00  0.00    -0.231 N 
HETATM   22  H5  UNL     1       2.095   0.827  -2.966  1.00  0.00     0.174 HD
HETATM   23  H6  UNL     1       2.844   2.257  -1.899  1.00  0.00     0.174 HD
ENDBRANCH   3  21
BRANCH   5  24
HETATM   24  C9  UNL     1       4.123   0.138   0.574  1.00  0.00     0.111 A 
HETATM   25  C10 UNL     1       5.106   0.464   1.516  1.00  0.00     0.135 A 
HETATM   26  F1  UNL     1       4.808   1.094   2.702  1.00  0.00    -0.205 F 
HETATM   27  C11 UNL     1       6.465   0.181   1.334  1.00  0.00     0.043 A 
HETATM   28  C12 UNL     1       6.799  -0.444   0.166  1.00  0.00     0.006 A 
HETATM   29  C13 UNL     1       5.910  -0.808  -0.822  1.00  0.00     0.043 A 
HETATM   30  C14 UNL     1       4.601  -0.490  -0.553  1.00  0.00     0.135 A 
HETATM   31  F2  UNL     1       3.763  -0.916  -1.521  1.00  0.00    -0.205 F 
ENDBRANCH   5  24
TORSDOF 6
