REMARK  2 active torsions:
REMARK  status: ('A' for Active; 'I' for Inactive)
REMARK    1  A    between atoms: S1_1  and  C1_2 
REMARK    2  A    between atoms: C1_2  and  C2_3 
ROOT
HETATM    1  C2  UNL     1       2.851   0.179   1.738  1.00  0.00     0.052 A 
HETATM    2  C3  UNL     1       1.399   0.038   1.879  1.00  0.00    -0.003 A 
HETATM    3  C4  UNL     1       1.149  -0.562   0.726  1.00  0.00    -0.014 A 
HETATM    4  C5  UNL     1       2.584  -0.495   0.440  1.00  0.00    -0.037 A 
HETATM    5  C6  UNL     1       2.572  -1.083  -0.759  1.00  0.00     0.021 A 
HETATM    6  C7  UNL     1       1.236  -1.519  -1.256  1.00  0.00    -0.017 A 
HETATM    7  C8  UNL     1       0.339  -1.187  -0.313  1.00  0.00     0.026 A 
HETATM    8  S2  UNL     1      -1.347  -1.525  -0.489  1.00  0.00    -0.088 SA
HETATM    9  C9  UNL     1      -2.525  -0.434   0.203  1.00  0.00     0.013 A 
HETATM   10  C10 UNL     1      -3.603  -1.138   0.760  1.00  0.00     0.019 A 
HETATM   11  C11 UNL     1      -4.684  -0.487   1.376  1.00  0.00     0.001 A 
HETATM   12  C12 UNL     1      -4.696   0.894   1.441  1.00  0.00     0.001 A 
HETATM   13  C13 UNL     1      -3.627   1.576   0.889  1.00  0.00     0.010 A 
HETATM   14  C14 UNL     1      -2.562   0.945   0.283  1.00  0.00    -0.024 A 
HETATM   15  C15 UNL     1      -1.424   1.707  -0.304  1.00  0.00     0.158 C 
HETATM   16  N1  UNL     1      -1.114   1.176  -1.650  1.00  0.00    -0.397 N 
HETATM   17  C16 UNL     1      -0.098   1.397  -2.673  1.00  0.00     0.065 C 
HETATM   18  C17 UNL     1       0.579   0.268  -2.786  1.00  0.00     0.059 C 
HETATM   19  C18 UNL     1       1.676  -0.191  -3.579  1.00  0.00    -0.004 C 
HETATM   20  C19 UNL     1       1.216  -1.421  -3.664  1.00  0.00    -0.028 C 
HETATM   21  C20 UNL     1       1.295  -2.180  -2.582  1.00  0.00     0.024 C 
HETATM   22  H13 UNL     1      -1.814   0.442  -1.995  1.00  0.00     0.158 HD
ENDROOT
BRANCH   1  23
HETATM   23  C1  UNL     1       3.700  -0.645   2.669  1.00  0.00     0.084 C 
BRANCH  23  24
HETATM   24  S1  UNL     1       3.303  -0.177   4.375  1.00  0.00    -0.181 SA
HETATM   25  H1  UNL     1       4.050   0.968   4.702  1.00  0.00     0.101 HD
ENDBRANCH  23  24
ENDBRANCH   1  23
TORSDOF 2
