REMARK  7 active torsions:
REMARK  status: ('A' for Active; 'I' for Inactive)
REMARK    1  A    between atoms: C2_2  and  C3_3 
REMARK    2  A    between atoms: C5_5  and  C6_6 
REMARK    3  A    between atoms: C7_7  and  C8_9 
REMARK    4  A    between atoms: C8_9  and  C9_10 
REMARK       I    between atoms: C9_10  and  N1_12 
REMARK    5  A    between atoms: N3_15  and  C11_16 
REMARK    6  A    between atoms: C14_19  and  S1_20 
REMARK    7  A    between atoms: S1_20  and  N4_21 
ROOT
HETATM    1  C9  UNL     1      -0.326  -0.028  -1.412  1.00  0.00     0.266 C 
HETATM    2  O1  UNL     1      -0.802  -0.803  -0.518  1.00  0.00    -0.269 OA
HETATM    3  N1  UNL     1      -1.057   1.062  -2.004  1.00  0.00    -0.128 N 
HETATM    4  N2  UNL     1      -0.948   2.024  -2.885  1.00  0.00    -0.141 NA
HETATM    5  C10 UNL     1      -2.195   2.461  -2.670  1.00  0.00     0.259 A 
HETATM    6  N3  UNL     1      -2.307   1.470  -1.763  1.00  0.00    -0.223 N 
ENDROOT
BRANCH   1   7
HETATM    7  C8  UNL     1       1.073  -0.164  -1.958  1.00  0.00     0.176 C 
BRANCH   7   8
HETATM    8  C7  UNL     1       1.705  -1.316  -1.265  1.00  0.00     0.102 C 
HETATM    9  C6  UNL     1       2.794  -1.335  -0.513  1.00  0.00     0.038 C 
HETATM   10  F1  UNL     1       0.940  -2.389  -1.550  1.00  0.00    -0.210 F 
BRANCH   9  11
HETATM   11  C5  UNL     1       3.613  -0.172  -0.211  1.00  0.00     0.005 C 
HETATM   12  C3  UNL     1       4.692  -0.250   0.547  1.00  0.00    -0.084 C 
HETATM   13  C4  UNL     1       5.525   0.932   0.854  1.00  0.00     0.043 C 
BRANCH  12  14
HETATM   14  C2  UNL     1       5.299  -1.407   1.224  1.00  0.00     0.029 C 
HETATM   15  C1  UNL     1       6.723  -1.621   0.719  1.00  0.00     0.010 C 
ENDBRANCH  12  14
ENDBRANCH   9  11
ENDBRANCH   7   8
ENDBRANCH   1   7
BRANCH   6  16
HETATM   16  C11 UNL     1      -3.412   1.119  -0.938  1.00  0.00     0.059 A 
HETATM   17  C12 UNL     1      -3.406   1.503   0.389  1.00  0.00     0.033 A 
HETATM   18  C13 UNL     1      -4.424   1.212   1.258  1.00  0.00     0.025 A 
HETATM   19  C14 UNL     1      -5.523   0.502   0.825  1.00  0.00     0.047 A 
HETATM   20  C15 UNL     1      -5.553   0.104  -0.505  1.00  0.00     0.025 A 
HETATM   21  C16 UNL     1      -4.518   0.410  -1.355  1.00  0.00     0.033 A 
BRANCH  19  22
HETATM   22  S1  UNL     1      -6.930   0.037   1.811  1.00  0.00     0.122 S 
HETATM   23  O2  UNL     1      -7.245   1.127   2.806  1.00  0.00    -0.236 OA
BRANCH  22  24
HETATM   24  N4  UNL     1      -6.654  -1.509   2.538  1.00  0.00    -0.248 NA
HETATM   25  H16 UNL     1      -6.285  -1.398   3.493  1.00  0.00     0.134 HD
HETATM   26  H17 UNL     1      -7.523  -2.066   2.481  1.00  0.00     0.134 HD
ENDBRANCH  22  24
ENDBRANCH  19  22
ENDBRANCH   6  16
TORSDOF 7
