REMARK  0 active torsions:
REMARK  status: ('A' for Active; 'I' for Inactive)
REMARK       I    between atoms: N1_1  and  C1_2 
ROOT
HETATM    1  N1  UNL     1      -1.414  -4.019   0.939  1.00  0.00    -0.233 N 
HETATM    2  C1  UNL     1      -1.199  -2.617   1.209  1.00  0.00     0.690 C 
HETATM    3  N2  UNL     1      -1.544  -1.351   1.287  1.00  0.00    -0.089 NA
HETATM    4  C2  UNL     1      -2.912  -1.081   0.905  1.00  0.00     0.285 C 
HETATM    5  N3  UNL     1      -2.966  -0.384  -0.373  1.00  0.00    -0.397 N 
HETATM    6  C3  UNL     1      -2.668   1.025  -0.507  1.00  0.00     0.106 C 
HETATM    7  C4  UNL     1      -3.014   2.313  -0.718  1.00  0.00     0.025 C 
HETATM    8  C5  UNL     1      -1.615   2.877  -0.586  1.00  0.00     0.022 C 
HETATM    9  C6  UNL     1      -1.070   4.142  -0.672  1.00  0.00    -0.021 C 
HETATM   10  C7  UNL     1       0.384   4.256  -0.470  1.00  0.00    -0.000 C 
HETATM   11  C8  UNL     1       1.614   3.840  -0.229  1.00  0.00     0.049 C 
HETATM   12  C9  UNL     1       2.218   2.549   0.042  1.00  0.00     0.166 A 
HETATM   13  O1  UNL     1       3.472   2.384   0.251  1.00  0.00    -0.247 OA
HETATM   14  S1  UNL     1       2.769   0.916   0.351  1.00  0.00     0.117 S 
HETATM   15  O2  UNL     1       2.155   0.351   1.642  1.00  0.00    -0.236 OA
HETATM   16  C10 UNL     1       2.481  -0.201  -1.022  1.00  0.00     0.132 C 
HETATM   17  C11 UNL     1       2.957  -1.589  -0.764  1.00  0.00     0.016 C 
HETATM   18  C12 UNL     1       2.374  -2.216   0.473  1.00  0.00     0.021 C 
HETATM   19  C13 UNL     1       0.891  -2.195   0.355  1.00  0.00     0.138 C 
HETATM   20  N4  UNL     1       0.207  -2.748   1.536  1.00  0.00    -0.225 N 
HETATM   21  H1  UNL     1      -1.728  -4.587   1.775  1.00  0.00     0.174 HD
HETATM   22  H2  UNL     1      -1.239  -4.336  -0.059  1.00  0.00     0.174 HD
HETATM   23  H5  UNL     1      -3.229  -1.119  -1.119  1.00  0.00     0.155 HD
HETATM   24  H20 UNL     1       0.595  -3.154   2.430  1.00  0.00     0.177 HD
ENDROOT
TORSDOF 0
