REMARK  9 active torsions:
REMARK  status: ('A' for Active; 'I' for Inactive)
REMARK    1  A    between atoms: C5_6  and  C6_7 
REMARK       I    between atoms: C6_7  and  N1_9 
REMARK    2  A    between atoms: C8_12  and  C9_13 
REMARK    3  A    between atoms: C9_13  and  C10_14 
REMARK    4  A    between atoms: C11_15  and  N3_16 
REMARK    5  A    between atoms: C11_15  and  C12_17 
REMARK    6  A    between atoms: C12_17  and  C13_18 
REMARK    7  A    between atoms: C13_18  and  C14_19 
REMARK    8  A    between atoms: C14_19  and  S2_20 
REMARK    9  A    between atoms: S2_20  and  N4_21 
ROOT
HETATM    1  C9  UNL     1       0.332   1.553   0.521  1.00  0.00     0.112 C 
ENDROOT
BRANCH   1   2
HETATM    2  C8  UNL     1      -0.794   0.629   0.876  1.00  0.00     0.151 A 
HETATM    3  N2  UNL     1      -0.853  -0.369   1.762  1.00  0.00    -0.225 NA
HETATM    4  C7  UNL     1      -2.090  -0.922   1.729  1.00  0.00     0.240 A 
HETATM    5  N1  UNL     1      -2.753  -0.218   0.797  1.00  0.00    -0.188 N 
HETATM    6  C6  UNL     1      -4.105  -0.523   0.487  1.00  0.00     0.286 C 
HETATM    7  N5  UNL     1      -1.992   0.724   0.269  1.00  0.00    -0.148 NA
HETATM    8  O1  UNL     1      -4.701  -1.441   1.064  1.00  0.00    -0.265 OA
BRANCH   6   9
HETATM    9  C5  UNL     1      -4.781   0.271  -0.531  1.00  0.00     0.080 A 
HETATM   10  C2  UNL     1      -6.075   0.151  -0.980  1.00  0.00    -0.039 A 
HETATM   11  C1  UNL     1      -6.964  -0.904  -0.398  1.00  0.00     0.050 C 
HETATM   12  C3  UNL     1      -6.531   0.985  -1.940  1.00  0.00     0.015 A 
HETATM   13  C4  UNL     1      -5.545   1.972  -2.416  1.00  0.00     0.051 A 
HETATM   14  S1  UNL     1      -4.056   1.578  -1.412  1.00  0.00    -0.096 SA
ENDBRANCH   6   9
ENDBRANCH   1   2
BRANCH   1  15
HETATM   15  C10 UNL     1       1.069   0.874  -0.569  1.00  0.00     0.010 C 
HETATM   16  C11 UNL     1       2.336   0.584  -0.402  1.00  0.00     0.021 C 
BRANCH  16  17
HETATM   17  N3  UNL     1       2.649   1.052   0.898  1.00  0.00    -0.399 N 
HETATM   18  H10 UNL     1       2.891   1.469   1.825  1.00  0.00     0.156 HD
HETATM   19  H11 UNL     1       2.696   0.578   1.814  1.00  0.00     0.156 HD
ENDBRANCH  16  17
BRANCH  16  20
HETATM   20  C12 UNL     1       3.666   0.091  -0.654  1.00  0.00     0.025 C 
BRANCH  20  21
HETATM   21  C13 UNL     1       4.917  -0.124  -0.327  1.00  0.00    -0.008 C 
BRANCH  21  22
HETATM   22  C14 UNL     1       5.745   0.162   0.862  1.00  0.00     0.184 C 
BRANCH  22  23
HETATM   23  S2  UNL     1       6.351  -1.402   1.508  1.00  0.00     0.210 S 
HETATM   24  O2  UNL     1       5.214  -2.231   1.977  1.00  0.00    -0.211 OA
HETATM   25  O3  UNL     1       7.278  -1.095   2.669  1.00  0.00    -0.211 OA
BRANCH  23  26
HETATM   26  N4  UNL     1       7.280  -2.146   0.263  1.00  0.00    -0.229 NA
HETATM   27  H16 UNL     1       7.660  -3.049   0.586  1.00  0.00     0.136 HD
HETATM   28  H17 UNL     1       6.775  -2.170  -0.644  1.00  0.00     0.136 HD
ENDBRANCH  23  26
ENDBRANCH  22  23
ENDBRANCH  21  22
ENDBRANCH  20  21
ENDBRANCH  16  20
ENDBRANCH   1  15
TORSDOF 9
