REMARK  9 active torsions:
REMARK  status: ('A' for Active; 'I' for Inactive)
REMARK    1  A    between atoms: O1_2  and  C2_3 
REMARK    2  A    between atoms: C3_4  and  C4_5 
REMARK    3  A    between atoms: C6_9  and  N3_10 
REMARK    4  A    between atoms: N3_10  and  C7_11 
REMARK    5  A    between atoms: C13_19  and  C14_20 
REMARK    6  A    between atoms: C14_20  and  N4_21 
REMARK    7  A    between atoms: N4_21  and  C16_23 
REMARK    8  A    between atoms: C16_23  and  C17_24 
REMARK    9  A    between atoms: C17_24  and  N5_25 
ROOT
HETATM    1  C4  UNL     1      -1.306   1.155  -1.055  1.00  0.00     0.071 A 
HETATM    2  N1  UNL     1      -0.856   2.405  -1.251  1.00  0.00    -0.241 NA
HETATM    3  C5  UNL     1       0.458   2.691  -1.194  1.00  0.00     0.235 A 
HETATM    4  N2  UNL     1       1.338   1.680  -0.930  1.00  0.00    -0.224 NA
HETATM    5  C6  UNL     1       0.860   0.426  -0.734  1.00  0.00     0.139 A 
HETATM    6  C13 UNL     1      -0.495   0.096  -0.786  1.00  0.00     0.045 A 
ENDROOT
BRANCH   5   7
HETATM    7  N3  UNL     1       1.874  -0.531  -0.465  1.00  0.00    -0.338 N 
HETATM    8  H7  UNL     1       1.881  -1.555  -0.274  1.00  0.00     0.167 HD
BRANCH   7   9
HETATM    9  C7  UNL     1       3.243  -0.153  -0.411  1.00  0.00     0.074 A 
HETATM   10  C8  UNL     1       3.977  -0.345   0.763  1.00  0.00     0.033 A 
HETATM   11  C9  UNL     1       5.304  -0.024   0.946  1.00  0.00     0.004 A 
HETATM   12  C10 UNL     1       5.902   0.532  -0.162  1.00  0.00     0.027 A 
HETATM   13  C11 UNL     1       5.272   0.765  -1.365  1.00  0.00     0.074 A 
HETATM   14 CL1  UNL     1       6.136   1.477  -2.706  1.00  0.00    -0.081 Cl
HETATM   15  C12 UNL     1       3.922   0.410  -1.469  1.00  0.00     0.164 A 
HETATM   16  F1  UNL     1       3.264   0.618  -2.621  1.00  0.00    -0.202 F 
ENDBRANCH   7   9
ENDBRANCH   5   7
BRANCH   6  17
HETATM   17  C14 UNL     1      -0.876  -1.271  -0.508  1.00  0.00     0.317 C 
BRANCH  17  18
HETATM   18  N4  UNL     1      -1.219  -1.610   0.841  1.00  0.00     0.090 NA
HETATM   19  C15 UNL     1      -2.250  -0.852   1.445  1.00  0.00     0.310 C 
BRANCH  18  20
HETATM   20  C16 UNL     1      -1.412  -3.026   1.020  1.00  0.00     0.296 C 
BRANCH  20  21
HETATM   21  C17 UNL     1      -1.794  -3.402   2.405  1.00  0.00     0.212 C 
BRANCH  21  22
HETATM   22  N5  UNL     1      -1.935  -4.840   2.467  1.00  0.00    -0.139 NA
HETATM   23  O2  UNL     1      -0.914  -5.470   2.637  1.00  0.00    -0.067 OA
ENDBRANCH  21  22
ENDBRANCH  20  21
ENDBRANCH  18  20
ENDBRANCH  17  18
ENDBRANCH   6  17
BRANCH   1  24
HETATM   24  C3  UNL     1      -2.725   0.924  -1.177  1.00  0.00     0.056 C 
HETATM   25  C2  UNL     1      -3.521   1.941  -1.456  1.00  0.00     0.136 C 
BRANCH  25  26
HETATM   26  O1  UNL     1      -3.336   3.291  -1.683  1.00  0.00    -0.368 OA
HETATM   27  C1  UNL     1      -3.480   4.226  -0.649  1.00  0.00     0.208 C 
ENDBRANCH  25  26
ENDBRANCH   1  24
TORSDOF 9
