REMARK  9 active torsions:
REMARK  status: ('A' for Active; 'I' for Inactive)
REMARK    1  A    between atoms: N1_1  and  C1_2 
REMARK    2  A    between atoms: C2_4  and  N3_5 
REMARK    3  A    between atoms: N3_5  and  C3_6 
REMARK    4  A    between atoms: C6_9  and  S1_10 
REMARK    5  A    between atoms: S1_10  and  N4_11 
REMARK       I    between atoms: N6_17  and  C9_18 
REMARK    6  A    between atoms: C9_18  and  C10_20 
REMARK    7  A    between atoms: C10_20  and  C11_21 
REMARK    8  A    between atoms: C12_23  and  C13_24 
REMARK    9  A    between atoms: C14_25  and  C15_26 
ROOT
HETATM    1  C1  UNL     1       0.261   1.435  -0.186  1.00  0.00     0.740 A 
HETATM    2  N2  UNL     1      -0.996   0.979  -0.079  1.00  0.00     0.131 NA
HETATM    3  C2  UNL     1      -0.937  -0.330   0.126  1.00  0.00     0.760 A 
HETATM    4  N5  UNL     1       0.341  -0.650   0.141  1.00  0.00     0.045 NA
HETATM    5  N6  UNL     1       1.131   0.390  -0.045  1.00  0.00    -0.011 N 
HETATM    6  C9  UNL     1       2.584   0.441  -0.093  1.00  0.00     0.268 C 
HETATM    7  O3  UNL     1       2.994   1.636  -0.292  1.00  0.00    -0.270 OA
ENDROOT
BRANCH   3   8
HETATM    8  N3  UNL     1      -1.970  -1.268   0.302  1.00  0.00    -0.186 N 
HETATM    9  H3  UNL     1      -1.737  -2.295   0.458  1.00  0.00     0.184 HD
BRANCH   8  10
HETATM   10  C3  UNL     1      -3.358  -0.978   0.296  1.00  0.00     0.049 A 
HETATM   11  C4  UNL     1      -4.303  -1.991   0.482  1.00  0.00     0.031 A 
HETATM   12  C5  UNL     1      -5.643  -1.787   0.488  1.00  0.00     0.027 A 
HETATM   13  C6  UNL     1      -6.163  -0.536   0.305  1.00  0.00     0.074 A 
HETATM   14  C7  UNL     1      -5.275   0.502   0.117  1.00  0.00     0.027 A 
HETATM   15  C8  UNL     1      -3.940   0.249   0.119  1.00  0.00     0.031 A 
BRANCH  13  16
HETATM   16  S1  UNL     1      -7.883  -0.245   0.308  1.00  0.00     0.239 S 
HETATM   17  O1  UNL     1      -8.243   1.113   0.840  1.00  0.00    -0.206 OA
HETATM   18  O2  UNL     1      -8.569  -1.330   1.109  1.00  0.00    -0.206 OA
BRANCH  16  19
HETATM   19  N4  UNL     1      -8.486  -0.405  -1.312  1.00  0.00    -0.225 NA
HETATM   20  H6  UNL     1      -9.510  -0.400  -1.364  1.00  0.00     0.136 HD
HETATM   21  H7  UNL     1      -7.993  -1.202  -1.735  1.00  0.00     0.136 HD
ENDBRANCH  16  19
ENDBRANCH  13  16
ENDBRANCH   8  10
ENDBRANCH   3   8
BRANCH   1  22
HETATM   22  N1  UNL     1       0.605   2.797  -0.410  1.00  0.00    -0.230 N 
HETATM   23  H1  UNL     1       0.700   3.370   0.465  1.00  0.00     0.174 HD
HETATM   24  H2  UNL     1       0.770   3.275  -1.339  1.00  0.00     0.174 HD
ENDBRANCH   1  22
BRANCH   6  25
HETATM   25  C10 UNL     1       3.184  -0.924   0.107  1.00  0.00     0.175 C 
BRANCH  25  26
HETATM   26  C11 UNL     1       4.618  -1.004   0.077  1.00  0.00     0.102 C 
HETATM   27  F1  UNL     1       4.792  -2.364   0.314  1.00  0.00    -0.210 F 
HETATM   28  C12 UNL     1       5.795  -0.432  -0.059  1.00  0.00     0.038 C 
BRANCH  28  29
HETATM   29  C13 UNL     1       6.477   0.803  -0.297  1.00  0.00     0.001 C 
HETATM   30  C14 UNL     1       7.643   1.388  -0.435  1.00  0.00     0.004 C 
BRANCH  30  31
HETATM   31  C15 UNL     1       8.970   0.738  -0.361  1.00  0.00     0.249 C 
HETATM   32  F2  UNL     1       9.663   1.352   0.689  1.00  0.00    -0.251 F 
ENDBRANCH  30  31
ENDBRANCH  28  29
ENDBRANCH  25  26
ENDBRANCH   6  25
TORSDOF 9
