REMARK  7 active torsions:
REMARK  status: ('A' for Active; 'I' for Inactive)
REMARK    1  A    between atoms: N1_1  and  C1_2 
REMARK    2  A    between atoms: C2_4  and  N3_5 
REMARK    3  A    between atoms: C5_8  and  S1_9 
REMARK    4  A    between atoms: S1_9  and  N4_10 
REMARK    5  A    between atoms: N6_16  and  C8_17 
REMARK    6  A    between atoms: C8_17  and  N7_19 
REMARK    7  A    between atoms: N7_19  and  C9_20 
ROOT
HETATM    1  C1  UNL     1      -0.573   1.608   0.337  1.00  0.00     0.739 A 
HETATM    2  N2  UNL     1       0.724   1.669  -0.022  1.00  0.00     0.132 NA
HETATM    3  C2  UNL     1       1.264   0.437   0.193  1.00  0.00     0.766 A 
HETATM    4  N5  UNL     1       0.287  -0.349   0.680  1.00  0.00     0.045 NA
HETATM    5  N6  UNL     1      -0.834   0.358   0.770  1.00  0.00    -0.018 N 
ENDROOT
BRANCH   3   6
HETATM    6  N3  UNL     1       2.599   0.049  -0.046  1.00  0.00    -0.162 N 
HETATM    7  C3  UNL     1       3.158  -1.237   0.178  1.00  0.00     0.128 C 
HETATM    8  C4  UNL     1       4.325  -1.597  -0.319  1.00  0.00     0.016 C 
HETATM    9  C5  UNL     1       5.223  -0.703  -0.521  1.00  0.00     0.088 C 
HETATM   10  C6  UNL     1       4.757   0.648  -0.788  1.00  0.00     0.044 C 
HETATM   11  C7  UNL     1       3.524   1.023  -0.572  1.00  0.00     0.116 C 
BRANCH   9  12
HETATM   12  S1  UNL     1       6.956  -0.923  -0.511  1.00  0.00     0.240 S 
HETATM   13  O1  UNL     1       7.621   0.072  -1.427  1.00  0.00    -0.206 OA
HETATM   14  O2  UNL     1       7.363  -2.299  -0.965  1.00  0.00    -0.206 OA
BRANCH  12  15
HETATM   15  N4  UNL     1       7.579  -0.671   1.078  1.00  0.00    -0.225 NA
HETATM   16  H4  UNL     1       8.093  -1.513   1.428  1.00  0.00     0.136 HD
HETATM   17  H5  UNL     1       8.169   0.198   1.128  1.00  0.00     0.136 HD
ENDBRANCH  12  15
ENDBRANCH   9  12
ENDBRANCH   3   6
BRANCH   1  18
HETATM   18  N1  UNL     1      -1.311   2.833   0.176  1.00  0.00    -0.230 N 
HETATM   19  H1  UNL     1      -1.711   2.933  -0.797  1.00  0.00     0.174 HD
HETATM   20  H2  UNL     1      -1.260   3.327   1.100  1.00  0.00     0.174 HD
ENDBRANCH   1  18
BRANCH   5  21
HETATM   21  C8  UNL     1      -2.193   0.187   1.178  1.00  0.00     0.218 C 
HETATM   22  S2  UNL     1      -2.925   0.389   2.633  1.00  0.00    -0.038 SA
BRANCH  21  23
HETATM   23  N7  UNL     1      -3.065  -0.234   0.140  1.00  0.00    -0.326 N 
HETATM   24  H8  UNL     1      -2.799  -0.423  -0.868  1.00  0.00     0.168 HD
BRANCH  23  25
HETATM   25  C9  UNL     1      -4.436  -0.533   0.022  1.00  0.00     0.112 A 
HETATM   26  C10 UNL     1      -5.230   0.571  -0.298  1.00  0.00     0.146 A 
HETATM   27  F1  UNL     1      -4.705   1.829  -0.478  1.00  0.00    -0.204 F 
HETATM   28  C11 UNL     1      -6.617   0.470  -0.459  1.00  0.00     0.045 A 
HETATM   29  C12 UNL     1      -7.150  -0.790  -0.280  1.00  0.00     0.006 A 
HETATM   30  C13 UNL     1      -6.409  -1.911   0.037  1.00  0.00     0.045 A 
HETATM   31  C14 UNL     1      -5.041  -1.777   0.188  1.00  0.00     0.146 A 
HETATM   32  F2  UNL     1      -4.198  -2.793   0.497  1.00  0.00    -0.204 F 
ENDBRANCH  23  25
ENDBRANCH  21  23
ENDBRANCH   5  21
TORSDOF 7
