REMARK  6 active torsions:
REMARK  status: ('A' for Active; 'I' for Inactive)
REMARK    1  A    between atoms: C5_6  and  C6_7 
REMARK    2  A    between atoms: C6_7  and  N1_8 
REMARK    3  A    between atoms: N3_10  and  C7_11 
REMARK    4  A    between atoms: C10_14  and  S2_15 
REMARK    5  A    between atoms: S2_15  and  N4_16 
REMARK    6  A    between atoms: C14_23  and  O3_24 
ROOT
HETATM    1  N1  UNL     1      -1.593   1.290   0.353  1.00  0.00    -0.254 N 
HETATM    2  N2  UNL     1      -0.921   0.053   0.159  1.00  0.00    -0.139 NA
HETATM    3  N3  UNL     1       0.240   0.045   0.944  1.00  0.00    -0.275 N 
HETATM    4  C13 UNL     1      -0.023   0.429   2.314  1.00  0.00     0.298 C 
HETATM    5  N5  UNL     1      -0.360   1.849   2.316  1.00  0.00    -0.229 NA
HETATM    6  C14 UNL     1      -1.124   2.225   1.347  1.00  0.00     0.255 C 
HETATM    7  H8  UNL     1      -0.606   0.046  -0.853  1.00  0.00     0.173 HD
ENDROOT
BRANCH   3   8
HETATM    8  C7  UNL     1       1.524  -0.306   0.463  1.00  0.00     0.049 A 
HETATM    9  C8  UNL     1       1.748  -0.859  -0.774  1.00  0.00     0.032 A 
HETATM   10  C9  UNL     1       2.993  -1.194  -1.249  1.00  0.00     0.027 A 
HETATM   11  C10 UNL     1       4.113  -0.989  -0.495  1.00  0.00     0.074 A 
HETATM   12  C11 UNL     1       3.924  -0.431   0.763  1.00  0.00     0.027 A 
HETATM   13  C12 UNL     1       2.660  -0.106   1.209  1.00  0.00     0.032 A 
BRANCH  11  14
HETATM   14  S2  UNL     1       5.693  -1.409  -1.079  1.00  0.00     0.239 S 
HETATM   15  O1  UNL     1       5.673  -2.637  -1.969  1.00  0.00    -0.206 OA
HETATM   16  O2  UNL     1       6.611  -1.759   0.085  1.00  0.00    -0.206 OA
BRANCH  14  17
HETATM   17  N4  UNL     1       6.445  -0.127  -1.946  1.00  0.00    -0.225 NA
HETATM   18  H11 UNL     1       5.933   0.792  -1.847  1.00  0.00     0.136 HD
HETATM   19  H12 UNL     1       7.405   0.081  -1.598  1.00  0.00     0.136 HD
ENDBRANCH  14  17
ENDBRANCH  11  14
ENDBRANCH   3   8
BRANCH   1  20
HETATM   20  C6  UNL     1      -2.755   1.642  -0.438  1.00  0.00     0.195 C 
BRANCH  20  21
HETATM   21  C5  UNL     1      -3.880   0.769  -0.319  1.00  0.00     0.008 A 
HETATM   22  C2  UNL     1      -4.221  -0.498  -0.812  1.00  0.00    -0.047 A 
HETATM   23  C1  UNL     1      -3.268  -1.233  -1.703  1.00  0.00     0.049 C 
HETATM   24  C3  UNL     1      -5.429  -1.048  -0.480  1.00  0.00     0.015 A 
HETATM   25  C4  UNL     1      -6.272  -0.287   0.357  1.00  0.00     0.051 A 
HETATM   26  S1  UNL     1      -5.377   1.233   0.698  1.00  0.00    -0.104 SA
ENDBRANCH  20  21
ENDBRANCH   1  20
BRANCH   6  27
HETATM   27  O3  UNL     1      -1.509   3.539   1.245  1.00  0.00    -0.330 OA
HETATM   28  H17 UNL     1      -1.403   4.152   2.028  1.00  0.00     0.221 HD
ENDBRANCH   6  27
TORSDOF 6
