REMARK  3 active torsions:
REMARK  status: ('A' for Active; 'I' for Inactive)
REMARK    1  A    between atoms: C5_6  and  C6_7 
REMARK       I    between atoms: C6_7  and  N1_9 
REMARK    2  A    between atoms: C11_17  and  S2_18 
REMARK    3  A    between atoms: S2_18  and  N5_19 
ROOT
HETATM    1  C6  UNL     1      -2.096   0.490   0.418  1.00  0.00     0.362 C 
HETATM    2  O1  UNL     1      -2.330   1.096   1.561  1.00  0.00    -0.158 OA
HETATM    3  N1  UNL     1      -0.981  -0.074  -0.456  1.00  0.00     0.360 N 
HETATM    4  N2  UNL     1      -0.151  -0.654  -1.436  1.00  0.00     0.211 NA
HETATM    5  C7  UNL     1       1.083  -0.685  -0.960  1.00  0.00     0.391 A 
HETATM    6  N3  UNL     1      -0.058  -0.359  -0.713  1.00  0.00     0.364 N 
HETATM    7  C8  UNL     1      -0.103   0.184   0.518  1.00  0.00     0.535 A 
HETATM    8  N4  UNL     1       0.506   0.624   1.769  1.00  0.00    -0.206 NA
HETATM    9  C9  UNL     1       1.670   1.308   1.890  1.00  0.00     0.123 C 
HETATM   10  C10 UNL     1       2.979   0.816   1.336  1.00  0.00     0.063 C 
HETATM   11  C11 UNL     1       3.281  -0.023   0.305  1.00  0.00     0.149 C 
HETATM   12  N6  UNL     1       2.377  -0.743  -0.516  1.00  0.00    -0.304 N 
HETATM   13  C12 UNL     1       2.624  -1.936  -1.204  1.00  0.00     0.160 C 
ENDROOT
BRANCH   1  14
HETATM   14  C5  UNL     1      -3.428   0.330  -0.155  1.00  0.00     0.077 A 
HETATM   15  C2  UNL     1      -4.700   0.329   0.366  1.00  0.00    -0.040 A 
HETATM   16  C1  UNL     1      -4.800   0.460   1.833  1.00  0.00     0.049 C 
HETATM   17  C3  UNL     1      -5.774   0.183  -0.453  1.00  0.00     0.015 A 
HETATM   18  C4  UNL     1      -5.490   0.031  -1.865  1.00  0.00     0.051 A 
HETATM   19  S1  UNL     1      -3.677   0.107  -1.957  1.00  0.00    -0.097 SA
ENDBRANCH   1  14
BRANCH  11  20
HETATM   20  S2  UNL     1       4.847  -0.384  -0.209  1.00  0.00     0.255 S 
HETATM   21  O2  UNL     1       5.764  -0.026   0.980  1.00  0.00    -0.205 OA
HETATM   22  O3  UNL     1       5.086  -1.819  -0.418  1.00  0.00    -0.205 OA
BRANCH  20  23
HETATM   23  N5  UNL     1       5.431   0.617  -1.490  1.00  0.00    -0.224 NA
HETATM   24  H8  UNL     1       4.983   1.548  -1.500  1.00  0.00     0.136 HD
HETATM   25  H9  UNL     1       6.447   0.737  -1.417  1.00  0.00     0.136 HD
ENDBRANCH  20  23
ENDBRANCH  11  20
TORSDOF 3
