REMARK  7 active torsions:
REMARK  status: ('A' for Active; 'I' for Inactive)
REMARK    1  A    between atoms: S1_2  and  C2_4 
REMARK    2  A    between atoms: C5_7  and  N1_8 
REMARK    3  A    between atoms: N1_8  and  C6_9 
REMARK    4  A    between atoms: C7_11  and  N3_12 
REMARK    5  A    between atoms: N4_13  and  C8_14 
REMARK    6  A    between atoms: C8_14  and  N5_16 
REMARK    7  A    between atoms: N5_16  and  C9_17 
ROOT
HETATM    1  C6  UNL     1       0.226  -0.547  -0.086  1.00  0.00     0.760 A 
HETATM    2  N2  UNL     1      -0.150  -0.162  -1.332  1.00  0.00     0.131 NA
HETATM    3  C7  UNL     1      -1.441   0.283  -1.173  1.00  0.00     0.739 A 
HETATM    4  N4  UNL     1      -1.839   0.170   0.134  1.00  0.00    -0.018 N 
HETATM    5  N6  UNL     1      -0.786  -0.342   0.765  1.00  0.00     0.044 NA
ENDROOT
BRANCH   1   6
HETATM    6  N1  UNL     1       1.481  -1.095   0.265  1.00  0.00    -0.186 N 
HETATM    7  H7  UNL     1       1.489  -2.138   0.332  1.00  0.00     0.184 HD
BRANCH   6   8
HETATM    8  C5  UNL     1       2.765  -0.528   0.555  1.00  0.00     0.050 C 
HETATM    9  C4  UNL     1       3.374  -0.003  -0.692  1.00  0.00     0.029 C 
HETATM   10  C3  UNL     1       4.704   0.135  -0.811  1.00  0.00     0.015 C 
HETATM   11  C2  UNL     1       5.894  -0.113   0.039  1.00  0.00     0.223 C 
HETATM   12  N7  UNL     1       5.659   0.211   1.405  1.00  0.00    -0.280 NA
HETATM   13  C16 UNL     1       4.603   0.048   2.111  1.00  0.00     0.114 C 
HETATM   14  C15 UNL     1       3.277  -0.517   1.787  1.00  0.00     0.049 C 
BRANCH  11  15
HETATM   15  S1  UNL     1       7.336   0.705  -0.642  1.00  0.00     0.040 S 
HETATM   16  C1  UNL     1       8.773   0.412   0.371  1.00  0.00     0.129 C 
HETATM   17  O1  UNL     1       7.619   0.113  -2.028  1.00  0.00    -0.256 OA
ENDBRANCH  11  15
ENDBRANCH   6   8
ENDBRANCH   1   6
BRANCH   3  18
HETATM   18  N3  UNL     1      -2.035   0.744  -2.403  1.00  0.00    -0.230 N 
HETATM   19  H8  UNL     1      -2.474   0.019  -3.037  1.00  0.00     0.174 HD
HETATM   20  H9  UNL     1      -1.917   1.774  -2.451  1.00  0.00     0.174 HD
ENDBRANCH   3  18
BRANCH   4  21
HETATM   21  C8  UNL     1      -3.192   0.628   0.303  1.00  0.00     0.218 C 
HETATM   22  S2  UNL     1      -2.994   2.209   0.670  1.00  0.00    -0.038 SA
BRANCH  21  23
HETATM   23  N5  UNL     1      -4.292  -0.248   0.152  1.00  0.00    -0.326 N 
HETATM   24  H10 UNL     1      -3.934  -1.217  -0.081  1.00  0.00     0.168 HD
BRANCH  23  25
HETATM   25  C9  UNL     1      -5.689  -0.133   0.241  1.00  0.00     0.112 A 
HETATM   26  C10 UNL     1      -6.373   1.011   0.574  1.00  0.00     0.146 A 
HETATM   27  F1  UNL     1      -5.704   2.144   0.867  1.00  0.00    -0.204 F 
HETATM   28  C11 UNL     1      -7.739   1.138   0.650  1.00  0.00     0.045 A 
HETATM   29  C12 UNL     1      -8.463   0.002   0.362  1.00  0.00     0.006 A 
HETATM   30  C13 UNL     1      -7.855  -1.167   0.024  1.00  0.00     0.045 A 
HETATM   31  C14 UNL     1      -6.487  -1.194  -0.024  1.00  0.00     0.146 A 
HETATM   32  F2  UNL     1      -5.923  -2.393  -0.372  1.00  0.00    -0.204 F 
ENDBRANCH  23  25
ENDBRANCH  21  23
ENDBRANCH   4  21
TORSDOF 7
