REMARK  7 active torsions:
REMARK  status: ('A' for Active; 'I' for Inactive)
REMARK    1  A    between atoms: N1_1  and  C1_2 
REMARK    2  A    between atoms: C2_4  and  N3_5 
REMARK    3  A    between atoms: N3_5  and  C3_6 
REMARK    4  A    between atoms: N4_11  and  O2_12 
REMARK    5  A    between atoms: N6_18  and  C10_19 
REMARK    6  A    between atoms: C10_19  and  N7_21 
REMARK    7  A    between atoms: N7_21  and  C11_22 
ROOT
HETATM    1  C1  UNL     1       1.216   0.858  -1.512  1.00  0.00     0.739 A 
HETATM    2  N2  UNL     1       0.037   0.228  -1.809  1.00  0.00     0.131 NA
HETATM    3  C2  UNL     1      -0.251  -0.683  -0.851  1.00  0.00     0.760 A 
HETATM    4  N5  UNL     1       0.761  -0.605   0.032  1.00  0.00     0.044 NA
HETATM    5  N6  UNL     1       1.634   0.297  -0.341  1.00  0.00    -0.018 N 
ENDROOT
BRANCH   3   6
HETATM    6  N3  UNL     1      -1.443  -1.503  -0.886  1.00  0.00    -0.183 N 
HETATM    7  H3  UNL     1      -1.023  -2.307  -1.381  1.00  0.00     0.184 HD
BRANCH   6   8
HETATM    8  C3  UNL     1      -2.765  -1.229  -0.376  1.00  0.00     0.085 C 
HETATM    9  C4  UNL     1      -3.422  -2.290  -0.805  1.00  0.00     0.146 C 
HETATM   10  F1  UNL     1      -3.044  -3.347  -1.524  1.00  0.00    -0.206 F 
HETATM   11  C5  UNL     1      -4.793  -2.236  -0.157  1.00  0.00     0.269 C 
HETATM   12  O1  UNL     1      -4.866  -1.142   0.656  1.00  0.00    -0.272 OA
HETATM   13  N4  UNL     1      -6.106  -0.692   0.955  1.00  0.00    -0.071 NA
HETATM   14  C6  UNL     1      -6.244   0.634   0.344  1.00  0.00     0.157 C 
HETATM   15  C7  UNL     1      -5.132   1.541   0.842  1.00  0.00     0.046 C 
HETATM   16  C8  UNL     1      -3.820   0.961   0.586  1.00  0.00    -0.023 C 
HETATM   17  C9  UNL     1      -2.871   0.085   0.199  1.00  0.00     0.029 C 
BRANCH  13  18
HETATM   18  O2  UNL     1      -7.093  -1.510   0.593  1.00  0.00    -0.289 OA
HETATM   19  H6  UNL     1      -7.489  -1.172  -0.264  1.00  0.00     0.239 HD
ENDBRANCH  13  18
ENDBRANCH   6   8
ENDBRANCH   3   6
BRANCH   1  20
HETATM   20  N1  UNL     1       1.916   1.878  -2.215  1.00  0.00    -0.230 N 
HETATM   21  H1  UNL     1       1.766   2.925  -2.209  1.00  0.00     0.174 HD
HETATM   22  H2  UNL     1       2.707   1.620  -2.849  1.00  0.00     0.174 HD
ENDBRANCH   1  20
BRANCH   5  23
HETATM   23  C10 UNL     1       2.854   0.666   0.327  1.00  0.00     0.218 C 
HETATM   24  S1  UNL     1       2.355   1.886   1.326  1.00  0.00    -0.038 SA
BRANCH  23  25
HETATM   25  N7  UNL     1       4.133   0.048   0.099  1.00  0.00    -0.329 N 
HETATM   26  H13 UNL     1       3.949  -0.697  -0.640  1.00  0.00     0.168 HD
BRANCH  25  27
HETATM   27  C11 UNL     1       5.471   0.135   0.538  1.00  0.00     0.073 A 
HETATM   28  C12 UNL     1       6.426  -0.700   0.019  1.00  0.00     0.033 A 
HETATM   29  C13 UNL     1       7.711  -0.586   0.467  1.00  0.00     0.002 A 
HETATM   30  C14 UNL     1       8.033   0.348   1.417  1.00  0.00     0.003 A 
HETATM   31  C15 UNL     1       7.105   1.204   1.962  1.00  0.00     0.044 A 
HETATM   32  C16 UNL     1       5.820   1.068   1.493  1.00  0.00     0.143 A 
HETATM   33  F2  UNL     1       4.974   1.932   2.068  1.00  0.00    -0.204 F 
ENDBRANCH  25  27
ENDBRANCH  23  25
ENDBRANCH   5  23
TORSDOF 7
