REMARK  6 active torsions:
REMARK  status: ('A' for Active; 'I' for Inactive)
REMARK    1  A    between atoms: C4_4  and  C5_5 
REMARK    2  A    between atoms: C6_6  and  C7_7 
REMARK    3  A    between atoms: C7_7  and  N1_8 
REMARK    4  A    between atoms: C9_10  and  C10_11 
REMARK    5  A    between atoms: C11_12  and  C13_15 
REMARK    6  A    between atoms: C13_15  and  C14_17 
ROOT
HETATM    1  C10 UNL     1       1.582   0.107   0.292  1.00  0.00     0.011 C 
HETATM    2  C11 UNL     1       1.797  -0.080  -0.993  1.00  0.00     0.068 C 
HETATM    3  C12 UNL     1       0.771   0.067  -1.984  1.00  0.00     0.101 C 
HETATM    4  N2  UNL     1      -0.058   0.180  -2.811  1.00  0.00    -0.191 NA
ENDROOT
BRANCH   2   5
HETATM    5  C13 UNL     1       3.143  -0.453  -1.433  1.00  0.00     0.077 C 
HETATM    6  N3  UNL     1       3.359  -0.646  -2.710  1.00  0.00    -0.301 NA
HETATM    7  H14 UNL     1       2.600  -0.540  -3.413  1.00  0.00     0.186 HD
BRANCH   5   8
HETATM    8  C14 UNL     1       4.302  -0.623  -0.517  1.00  0.00     0.251 C 
HETATM    9  C15 UNL     1       5.493  -1.029  -1.267  1.00  0.00     0.085 C 
HETATM   10  N4  UNL     1       6.445  -1.367  -1.855  1.00  0.00    -0.195 NA
HETATM   11  C16 UNL     1       4.543   0.682   0.124  1.00  0.00     0.085 C 
HETATM   12  N5  UNL     1       4.733   1.696   0.643  1.00  0.00    -0.195 NA
ENDBRANCH   5   8
ENDBRANCH   2   5
BRANCH   1  13
HETATM   13  C9  UNL     1       0.405   0.478   1.067  1.00  0.00     0.061 A 
HETATM   14  C2  UNL     1       0.126  -0.640   2.036  1.00  0.00    -0.072 A 
HETATM   15  C1  UNL     1       1.177  -1.071   3.002  1.00  0.00     0.044 C 
HETATM   16  C3  UNL     1      -1.085  -1.121   1.894  1.00  0.00     0.014 A 
HETATM   17  C4  UNL     1      -1.687  -0.345   0.816  1.00  0.00    -0.039 A 
HETATM   18  C8  UNL     1      -0.856   0.573   0.329  1.00  0.00    -0.003 A 
BRANCH  17  19
HETATM   19  C5  UNL     1      -3.046  -0.548   0.322  1.00  0.00     0.009 C 
HETATM   20  C6  UNL     1      -3.542   0.186  -0.661  1.00  0.00     0.003 C 
BRANCH  20  21
HETATM   21  C7  UNL     1      -4.853   0.167  -1.312  1.00  0.00     0.294 C 
BRANCH  21  22
HETATM   22  N1  UNL     1      -5.501   1.454  -1.151  1.00  0.00     0.081 N 
HETATM   23  H9  UNL     1      -6.539   1.331  -1.112  1.00  0.00     0.313 HD
HETATM   24  H10 UNL     1      -5.149   1.833  -0.225  1.00  0.00     0.313 HD
ENDBRANCH  21  22
ENDBRANCH  20  21
ENDBRANCH  17  19
ENDBRANCH   1  13
TORSDOF 6
