REMARK  4 active torsions:
REMARK  status: ('A' for Active; 'I' for Inactive)
REMARK    1  A    between atoms: C2_2  and  C3_3 
REMARK    2  A    between atoms: C5_5  and  C6_6 
REMARK    3  A    between atoms: N3_14  and  C12_15 
REMARK    4  A    between atoms: C12_15  and  C13_16 
ROOT
HETATM    1  C6  UNL     1      -3.451   0.769   0.700  1.00  0.00     0.020 C 
HETATM    2  C7  UNL     1      -4.691   0.714   1.161  1.00  0.00     0.121 C 
HETATM    3  C8  UNL     1      -5.691   1.564   0.580  1.00  0.00     0.110 C 
HETATM    4  N1  UNL     1      -6.483   2.260   0.101  1.00  0.00    -0.191 NA
HETATM    5  C9  UNL     1      -4.961  -0.206   2.230  1.00  0.00     0.110 C 
HETATM    6  N2  UNL     1      -5.186  -0.958   3.090  1.00  0.00    -0.191 NA
ENDROOT
BRANCH   1   7
HETATM    7  C5  UNL     1      -2.130   0.117   0.967  1.00  0.00     0.058 A 
HETATM    8  C4  UNL     1      -1.744  -0.658  -0.242  1.00  0.00     0.011 A 
HETATM    9  C3  UNL     1      -0.599  -0.472  -0.876  1.00  0.00     0.008 A 
HETATM   10  N3  UNL     1       0.335   0.500  -0.421  1.00  0.00    -0.356 N 
HETATM   11  C11 UNL     1       0.032   1.284   0.735  1.00  0.00     0.088 A 
HETATM   12  C10 UNL     1      -1.106   1.094   1.360  1.00  0.00     0.003 A 
BRANCH   9  13
HETATM   13  C2  UNL     1      -0.246  -1.258  -2.073  1.00  0.00     0.052 C 
HETATM   14  C1  UNL     1      -1.302  -2.247  -2.456  1.00  0.00     0.011 C 
ENDBRANCH   9  13
BRANCH  10  15
HETATM   15  C12 UNL     1       1.597   0.738  -1.082  1.00  0.00     0.166 C 
BRANCH  15  16
HETATM   16  C13 UNL     1       2.778   0.515  -0.245  1.00  0.00    -0.040 A 
HETATM   17  C14 UNL     1       3.369  -0.752  -0.206  1.00  0.00     0.009 A 
HETATM   18  C15 UNL     1       4.490  -0.954   0.591  1.00  0.00     0.001 A 
HETATM   19  C16 UNL     1       5.048   0.064   1.355  1.00  0.00     0.000 A 
HETATM   20  C17 UNL     1       4.477   1.319   1.328  1.00  0.00     0.001 A 
HETATM   21  C18 UNL     1       3.364   1.496   0.528  1.00  0.00     0.009 A 
ENDBRANCH  15  16
ENDBRANCH  10  15
ENDBRANCH   1   7
TORSDOF 4
