REMARK  3 active torsions:
REMARK  status: ('A' for Active; 'I' for Inactive)
REMARK    1  A    between atoms: C4_6  and  C5_7 
REMARK    2  A    between atoms: N3_15  and  C13_16 
REMARK    3  A    between atoms: C13_16  and  C14_17 
ROOT
HETATM    1  N1  UNL     1      -7.611   1.527   0.304  1.00  0.00    -0.191 NA
HETATM    2  C1  UNL     1      -6.666   0.888   0.113  1.00  0.00     0.110 C 
HETATM    3  C2  UNL     1      -5.461   0.097  -0.122  1.00  0.00     0.125 C 
HETATM    4  C3  UNL     1      -5.733  -1.132  -0.853  1.00  0.00     0.110 C 
HETATM    5  N2  UNL     1      -5.933  -2.129  -1.444  1.00  0.00    -0.191 NA
HETATM    6  C4  UNL     1      -4.280   0.480   0.286  1.00  0.00     0.045 C 
ENDROOT
BRANCH   6   7
HETATM    7  C5  UNL     1      -2.847   0.236   0.393  1.00  0.00    -0.034 A 
HETATM    8  C6  UNL     1      -2.031   0.483   1.490  1.00  0.00     0.014 A 
HETATM    9  C7  UNL     1      -0.701   0.169   1.339  1.00  0.00     0.031 A 
HETATM   10  C8  UNL     1      -0.211  -0.355   0.180  1.00  0.00     0.036 A 
HETATM   11  C9  UNL     1      -0.979  -0.616  -0.931  1.00  0.00    -0.029 A 
HETATM   12  N3  UNL     1       1.151  -0.709  -0.069  1.00  0.00    -0.376 N 
HETATM   13  C10 UNL     1      -2.332  -0.302  -0.793  1.00  0.00     0.021 A 
HETATM   14  C11 UNL     1      -0.059  -1.170  -1.965  1.00  0.00     0.060 C 
HETATM   15  C12 UNL     1       1.312  -0.705  -1.523  1.00  0.00     0.128 C 
BRANCH  12  16
HETATM   16  C13 UNL     1       2.234  -1.019   0.850  1.00  0.00     0.161 C 
BRANCH  16  17
HETATM   17  C14 UNL     1       3.282   0.011   0.580  1.00  0.00    -0.043 C 
HETATM   18  C15 UNL     1       4.208  -0.376  -0.326  1.00  0.00    -0.007 C 
HETATM   19  C16 UNL     1       5.278   0.287  -0.806  1.00  0.00    -0.081 C 
HETATM   20  B1  UNL     1       4.870   2.306  -0.587  1.00  0.00     0.197 B 
HETATM   21  C17 UNL     1       4.149   2.267   1.067  1.00  0.00    -0.081 C 
HETATM   22  C18 UNL     1       3.266   1.220   1.207  1.00  0.00    -0.007 C 
ENDBRANCH  16  17
ENDBRANCH  12  16
ENDBRANCH   6   7
TORSDOF 3
