REMARK  4 active torsions:
REMARK  status: ('A' for Active; 'I' for Inactive)
REMARK    1  A    between atoms: C2_3  and  N2_4 
REMARK    2  A    between atoms: C3_5  and  C4_6 
REMARK    3  A    between atoms: N3_13  and  C11_14 
REMARK    4  A    between atoms: C11_14  and  C12_15 
ROOT
HETATM    1  N1  UNL     1       6.999   2.431   0.527  1.00  0.00    -0.190 NA
HETATM    2  C1  UNL     1       6.055   1.801   0.274  1.00  0.00     0.117 C 
HETATM    3  C2  UNL     1       4.878   1.032  -0.027  1.00  0.00     0.108 C 
HETATM    4  C3  UNL     1       3.855   1.269   0.753  1.00  0.00     0.051 C 
ENDROOT
BRANCH   3   5
HETATM    5  N2  UNL     1       5.034   0.146  -1.122  1.00  0.00    -0.391 N 
HETATM    6  H1  UNL     1       4.958   0.149  -2.156  1.00  0.00     0.157 HD
HETATM    7  H2  UNL     1       5.316  -0.843  -0.878  1.00  0.00     0.157 HD
ENDBRANCH   3   5
BRANCH   4   8
HETATM    8  C4  UNL     1       2.559   0.704   0.745  1.00  0.00    -0.035 C 
HETATM    9  C5  UNL     1       1.427   0.864   1.492  1.00  0.00     0.020 C 
HETATM   10  C6  UNL     1       0.212  -0.030   1.604  1.00  0.00     0.251 C 
HETATM   11  C7  UNL     1       0.830  -1.419   1.201  1.00  0.00     0.075 C 
HETATM   12  N3  UNL     1      -0.736   0.152   0.488  1.00  0.00     0.104 N 
HETATM   13  C8  UNL     1       1.153  -0.737  -0.154  1.00  0.00    -0.049 C 
HETATM   14  C9  UNL     1       2.406  -0.338  -0.350  1.00  0.00     0.015 C 
HETATM   15  C10 UNL     1      -0.309  -0.824  -0.580  1.00  0.00     0.308 C 
BRANCH  12  16
HETATM   16  C11 UNL     1      -2.026  -0.306   0.946  1.00  0.00     0.312 C 
BRANCH  16  17
HETATM   17  C12 UNL     1      -3.065  -0.289  -0.101  1.00  0.00    -0.030 A 
HETATM   18  C13 UNL     1      -3.490  -1.251  -0.991  1.00  0.00     0.009 A 
HETATM   19  C14 UNL     1      -4.494  -0.982  -1.893  1.00  0.00     0.001 A 
HETATM   20  C15 UNL     1      -5.133   0.234  -1.971  1.00  0.00     0.000 A 
HETATM   21  C16 UNL     1      -4.728   1.203  -1.097  1.00  0.00     0.001 A 
HETATM   22  C17 UNL     1      -3.722   0.947  -0.188  1.00  0.00     0.009 A 
ENDBRANCH  16  17
ENDBRANCH  12  16
ENDBRANCH   4   8
TORSDOF 4
