REMARK  4 active torsions:
REMARK  status: ('A' for Active; 'I' for Inactive)
REMARK    1  A    between atoms: N1_5  and  C5_6 
REMARK    2  A    between atoms: C5_6  and  C6_7 
REMARK    3  A    between atoms: C13_14  and  C14_15 
REMARK    4  A    between atoms: C15_16  and  C16_17 
ROOT
HETATM    1  C16 UNL     1       4.772   1.218   0.168  1.00  0.00     0.222 C 
HETATM    2  C17 UNL     1       5.930   0.804  -0.649  1.00  0.00     0.082 C 
HETATM    3  N2  UNL     1       6.846   0.462  -1.294  1.00  0.00    -0.196 NA
HETATM    4  C18 UNL     1       4.545   0.174   1.140  1.00  0.00     0.082 C 
HETATM    5  N3  UNL     1       4.356  -0.665   1.936  1.00  0.00    -0.196 NA
ENDROOT
BRANCH   1   6
HETATM    6  C15 UNL     1       3.576   1.446  -0.674  1.00  0.00     0.007 C 
HETATM    7  C14 UNL     1       2.450   0.750  -0.518  1.00  0.00     0.001 C 
BRANCH   7   8
HETATM    8  C13 UNL     1       1.301   1.008  -1.368  1.00  0.00     0.029 C 
HETATM    9  C12 UNL     1       0.117   0.464  -1.395  1.00  0.00     0.036 C 
HETATM   10  C2  UNL     1      -1.029   0.760  -2.286  1.00  0.00    -0.039 C 
HETATM   11  N1  UNL     1      -0.359  -0.583  -0.520  1.00  0.00    -0.376 N 
HETATM   12  C1  UNL     1      -1.156   1.845  -3.053  1.00  0.00     0.021 C 
HETATM   13  C3  UNL     1      -1.977  -0.379  -2.150  1.00  0.00     0.060 C 
HETATM   14  C4  UNL     1      -1.199  -1.422  -1.379  1.00  0.00     0.128 C 
BRANCH  11  15
HETATM   15  C5  UNL     1      -0.071  -0.766   0.893  1.00  0.00     0.161 C 
BRANCH  15  16
HETATM   16  C6  UNL     1      -1.416  -0.801   1.584  1.00  0.00    -0.040 A 
HETATM   17  C7  UNL     1      -2.034   0.344   2.044  1.00  0.00     0.009 A 
HETATM   18  C8  UNL     1      -3.255   0.329   2.677  1.00  0.00     0.001 A 
HETATM   19  C9  UNL     1      -3.867  -0.892   2.847  1.00  0.00     0.000 A 
HETATM   20  C10 UNL     1      -3.312  -2.066   2.416  1.00  0.00     0.001 A 
HETATM   21  C11 UNL     1      -2.081  -2.005   1.783  1.00  0.00     0.009 A 
ENDBRANCH  15  16
ENDBRANCH  11  15
ENDBRANCH   7   8
ENDBRANCH   1   6
TORSDOF 4
