REMARK  6 active torsions:
REMARK  status: ('A' for Active; 'I' for Inactive)
REMARK    1  A    between atoms: C6_8  and  N3_9 
REMARK    2  A    between atoms: C11_14  and  O1_15 
REMARK    3  A    between atoms: C14_19  and  C15_20 
REMARK    4  A    between atoms: C15_20  and  N4_21 
REMARK    5  A    between atoms: N4_21  and  C17_23 
REMARK    6  A    between atoms: C17_23  and  C19_25 
REMARK       I    between atoms: C19_25  and  N5_26 
ROOT
HETATM    1  C1  UNL     1      -2.171   2.855   1.436  1.00  0.00     0.049 C 
HETATM    2  C2  UNL     1      -0.884   2.343   0.897  1.00  0.00    -0.052 A 
HETATM    3  C3  UNL     1      -0.032   3.286   0.303  1.00  0.00     0.040 A 
HETATM    4  C4  UNL     1       1.165   2.754  -0.188  1.00  0.00     0.072 A 
HETATM    5  N1  UNL     1       1.970   3.672  -0.751  1.00  0.00    -0.241 NA
HETATM    6  C5  UNL     1       3.159   3.361  -1.275  1.00  0.00     0.236 A 
HETATM    7  N2  UNL     1       3.513   2.048  -1.207  1.00  0.00    -0.223 NA
HETATM    8  C6  UNL     1       2.737   1.105  -0.654  1.00  0.00     0.148 A 
HETATM    9  C12 UNL     1       1.518   1.428  -0.117  1.00  0.00     0.040 A 
HETATM   10  C13 UNL     1       0.638   0.573   0.474  1.00  0.00     0.027 A 
HETATM   11  C14 UNL     1      -0.580   0.979   0.999  1.00  0.00    -0.023 A 
ENDROOT
BRANCH  11  12
HETATM   12  C15 UNL     1      -1.530   0.081   1.639  1.00  0.00     0.312 C 
BRANCH  12  13
HETATM   13  N4  UNL     1      -2.694  -0.296   0.931  1.00  0.00     0.101 N 
HETATM   14  C16 UNL     1      -3.503  -1.190   1.729  1.00  0.00     0.311 C 
BRANCH  13  15
HETATM   15  C17 UNL     1      -2.490  -0.743  -0.407  1.00  0.00     0.309 C 
HETATM   16  C18 UNL     1      -1.629  -1.948  -0.575  1.00  0.00     0.053 C 
BRANCH  15  17
HETATM   17  C19 UNL     1      -3.754  -0.973  -1.146  1.00  0.00     0.248 C 
HETATM   18  N5  UNL     1      -5.192  -0.922  -1.020  1.00  0.00    -0.368 N 
HETATM   19  H21 UNL     1      -5.658  -0.006  -1.284  1.00  0.00     0.159 HD
HETATM   20  H22 UNL     1      -5.644  -1.817  -0.672  1.00  0.00     0.159 HD
HETATM   21  O2  UNL     1      -3.751  -1.368  -2.361  1.00  0.00    -0.271 OA
ENDBRANCH  15  17
ENDBRANCH  13  15
ENDBRANCH  12  13
ENDBRANCH  11  12
BRANCH   8  22
HETATM   22  N3  UNL     1       3.143  -0.252  -0.599  1.00  0.00    -0.278 N 
HETATM   23  C7  UNL     1       3.825  -0.556   0.605  1.00  0.00     0.099 A 
HETATM   24  C8  UNL     1       4.292  -1.762   0.868  1.00  0.00     0.017 A 
HETATM   25  C9  UNL     1       4.105  -2.846  -0.118  1.00  0.00     0.005 A 
HETATM   26  C10 UNL     1       3.471  -2.551  -1.231  1.00  0.00     0.071 A 
HETATM   27  C11 UNL     1       2.907  -1.240  -1.633  1.00  0.00     0.311 A 
HETATM   28  F1  UNL     1       1.567  -1.430  -1.908  1.00  0.00    -0.183 F 
BRANCH  27  29
HETATM   29  O1  UNL     1       3.584  -0.876  -2.810  1.00  0.00    -0.342 OA
HETATM   30  H10 UNL     1       4.200  -0.134  -2.591  1.00  0.00     0.215 HD
ENDBRANCH  27  29
ENDBRANCH   8  22
TORSDOF 6
