REMARK  3 active torsions:
REMARK  status: ('A' for Active; 'I' for Inactive)
REMARK    1  A    between atoms: C7_7  and  C8_8 
REMARK    2  A    between atoms: C8_8  and  N1_9 
REMARK    3  A    between atoms: C14_15  and  N2_16 
ROOT
HETATM    1  N1  UNL     1       0.446   0.314   1.038  1.00  0.00    -0.376 N 
HETATM    2  C9  UNL     1       0.385   1.754   1.181  1.00  0.00     0.128 C 
HETATM    3  C10 UNL     1      -1.039   1.983   1.622  1.00  0.00     0.060 C 
HETATM    4  C11 UNL     1      -1.766   0.898   0.919  1.00  0.00    -0.030 A 
HETATM    5  C12 UNL     1      -3.053   0.798   0.625  1.00  0.00     0.020 A 
HETATM    6  C13 UNL     1      -3.461  -0.410  -0.084  1.00  0.00    -0.017 A 
HETATM    7  C14 UNL     1      -4.689  -0.710  -0.456  1.00  0.00     0.114 C 
HETATM    8  C15 UNL     1      -5.682   0.291  -0.100  1.00  0.00     0.117 C 
HETATM    9  N3  UNL     1      -6.473   1.117   0.185  1.00  0.00    -0.190 NA
HETATM   10  C16 UNL     1      -2.561  -1.496  -0.493  1.00  0.00     0.071 A 
HETATM   11  C17 UNL     1      -1.158  -1.233  -0.080  1.00  0.00     0.008 A 
HETATM   12  C18 UNL     1      -0.811  -0.139   0.556  1.00  0.00     0.033 A 
ENDROOT
BRANCH   7  13
HETATM   13  N2  UNL     1      -5.237  -1.829  -1.142  1.00  0.00    -0.390 N 
HETATM   14  H15 UNL     1      -5.204  -2.575  -0.386  1.00  0.00     0.157 HD
HETATM   15  H16 UNL     1      -5.570  -1.860  -2.131  1.00  0.00     0.157 HD
ENDBRANCH   7  13
BRANCH   1  16
HETATM   16  C8  UNL     1       1.636  -0.447   1.363  1.00  0.00     0.162 C 
BRANCH  16  17
HETATM   17  C7  UNL     1       2.817  -0.042   0.604  1.00  0.00    -0.034 A 
HETATM   18  C2  UNL     1       3.104  -0.349  -0.710  1.00  0.00    -0.054 A 
HETATM   19  C1  UNL     1       2.133  -1.182  -1.440  1.00  0.00     0.049 C 
HETATM   20  C3  UNL     1       4.233   0.061  -1.389  1.00  0.00     0.007 A 
HETATM   21  C4  UNL     1       5.159   0.835  -0.729  1.00  0.00     0.001 A 
HETATM   22  C5  UNL     1       4.961   1.195   0.587  1.00  0.00     0.001 A 
HETATM   23  C6  UNL     1       3.809   0.747   1.199  1.00  0.00     0.009 A 
ENDBRANCH  16  17
ENDBRANCH   1  16
TORSDOF 3
