REMARK  2 active torsions:
REMARK  status: ('A' for Active; 'I' for Inactive)
REMARK    1  A    between atoms: C13_18  and  N4_20 
REMARK    2  A    between atoms: C16_24  and  N5_25 
ROOT
HETATM    1  C1  UNL     1       1.227   0.177  -2.740  1.00  0.00     0.052 C 
HETATM    2  C2  UNL     1      -0.185  -0.286  -2.577  1.00  0.00     0.016 C 
HETATM    3  C3  UNL     1      -0.808   0.014  -3.719  1.00  0.00     0.127 C 
HETATM    4  N1  UNL     1      -2.178  -0.198  -4.134  1.00  0.00    -0.256 NA
HETATM    5  C4  UNL     1      -3.277  -0.203  -3.412  1.00  0.00     0.204 C 
HETATM    6  N2  UNL     1      -3.523  -0.008  -2.000  1.00  0.00    -0.355 N 
HETATM    7  C5  UNL     1      -2.666   0.686  -1.018  1.00  0.00     0.129 C 
HETATM    8  C6  UNL     1      -2.032   1.923  -1.592  1.00  0.00     0.068 C 
HETATM    9  C7  UNL     1      -3.591   1.094   0.058  1.00  0.00     0.023 C 
HETATM   10  C8  UNL     1      -3.942   0.941   1.375  1.00  0.00    -0.018 C 
HETATM   11  C9  UNL     1      -3.883   0.415   2.779  1.00  0.00     0.109 C 
HETATM   12  C10 UNL     1      -2.961  -0.516   3.255  1.00  0.00     0.109 C 
HETATM   13  O1  UNL     1      -1.805  -1.387   2.978  1.00  0.00    -0.381 OA
HETATM   14  C11 UNL     1      -0.841  -0.641   2.175  1.00  0.00     0.270 C 
HETATM   15  C12 UNL     1      -1.462  -0.745   0.794  1.00  0.00     0.250 C 
HETATM   16  O2  UNL     1      -2.317  -1.584   0.329  1.00  0.00    -0.271 OA
HETATM   17  N3  UNL     1      -1.621  -0.267  -0.567  1.00  0.00    -0.262 N 
HETATM   18  C13 UNL     1      -0.545  -0.943  -1.271  1.00  0.00     0.289 C 
HETATM   19  F1  UNL     1      -0.907  -2.233  -1.617  1.00  0.00    -0.189 F 
HETATM   20  H6  UNL     1      -4.428  -0.427  -1.692  1.00  0.00     0.163 HD
ENDROOT
BRANCH  18  21
HETATM   21  N4  UNL     1       0.645  -1.057  -0.437  1.00  0.00    -0.328 N 
HETATM   22  C14 UNL     1       1.266   0.164   0.023  1.00  0.00     0.130 A 
HETATM   23  C15 UNL     1       2.360   0.163   0.769  1.00  0.00     0.117 A 
HETATM   24  O3  UNL     1       2.999   1.278   1.238  1.00  0.00    -0.274 OA
HETATM   25  C18 UNL     1       2.984  -1.101   1.160  1.00  0.00     0.068 A 
HETATM   26  C16 UNL     1       4.389   1.296   1.575  1.00  0.00     0.489 C 
HETATM   27  F2  UNL     1       5.106   1.279   0.395  1.00  0.00    -0.168 F 
HETATM   28  C17 UNL     1       4.741   0.093   2.390  1.00  0.00     0.323 C 
HETATM   29  O4  UNL     1       5.493   0.088   3.399  1.00  0.00    -0.264 OA
HETATM   30  N6  UNL     1       4.156  -1.131   1.958  1.00  0.00    -0.318 N 
HETATM   31  H19 UNL     1       4.556  -2.059   2.205  1.00  0.00     0.169 HD
HETATM   32  C19 UNL     1       2.418  -2.233   0.743  1.00  0.00     0.025 A 
HETATM   33  C20 UNL     1       1.200  -2.374  -0.090  1.00  0.00     0.157 A 
BRANCH  26  34
HETATM   34  N5  UNL     1       4.737   2.460   2.324  1.00  0.00     0.157 N 
HETATM   35  H17 UNL     1       5.517   2.296   3.008  1.00  0.00     0.321 HD
HETATM   36  H18 UNL     1       5.121   3.177   1.663  1.00  0.00     0.321 HD
ENDBRANCH  26  34
ENDBRANCH  18  21
TORSDOF 2
