REMARK  9 active torsions:
REMARK  status: ('A' for Active; 'I' for Inactive)
REMARK    1  A    between atoms: C2_2  and  C3_3 
REMARK    2  A    between atoms: C2_2  and  N6_32 
REMARK    3  A    between atoms: C3_3  and  O1_4 
REMARK    4  A    between atoms: O1_4  and  C4_5 
REMARK    5  A    between atoms: N1_8  and  C7_9 
REMARK    6  A    between atoms: C10_14  and  N3_15 
REMARK    7  A    between atoms: N3_15  and  C11_16 
REMARK    8  A    between atoms: C15_21  and  N4_22 
REMARK       I    between atoms: N4_22  and  C16_23 
REMARK    9  A    between atoms: C16_23  and  C17_25 
ROOT
HETATM    1  C7  UNL     1      -0.868  -0.375  -1.143  1.00  0.00     0.734 A 
HETATM    2  N2  UNL     1      -0.339  -0.632  -2.370  1.00  0.00    -0.071 NA
HETATM    3  C8  UNL     1       0.975  -0.978  -2.514  1.00  0.00     0.182 A 
HETATM    4  C9  UNL     1       1.740  -1.055  -1.348  1.00  0.00     0.180 A 
HETATM    5  F1  UNL     1       3.062  -1.401  -1.439  1.00  0.00    -0.200 F 
HETATM    6  C10 UNL     1       1.231  -0.803  -0.114  1.00  0.00     0.187 A 
HETATM    7  N5  UNL     1      -0.063  -0.474  -0.096  1.00  0.00    -0.041 NA
ENDROOT
BRANCH   6   8
HETATM    8  N3  UNL     1       1.979  -0.870   1.092  1.00  0.00    -0.338 N 
HETATM    9  H9  UNL     1       1.502  -0.666   1.998  1.00  0.00     0.167 HD
BRANCH   8  10
HETATM   10  C11 UNL     1       3.340  -1.198   1.150  1.00  0.00     0.037 C 
HETATM   11  C12 UNL     1       3.738  -2.474   0.999  1.00  0.00     0.031 C 
HETATM   12  C13 UNL     1       5.097  -3.020   1.026  1.00  0.00     0.027 C 
HETATM   13  C14 UNL     1       6.250  -2.374   0.950  1.00  0.00     0.144 C 
HETATM   14  O2  UNL     1       6.388  -1.004   0.827  1.00  0.00    -0.306 OA
HETATM   15  C15 UNL     1       5.547   0.041   1.248  1.00  0.00     0.151 C 
HETATM   16  C18 UNL     1       4.235  -0.060   1.382  1.00  0.00     0.086 C 
BRANCH  15  17
HETATM   17  N4  UNL     1       6.225   1.260   1.532  1.00  0.00    -0.303 N 
HETATM   18  C16 UNL     1       6.892   1.725   0.384  1.00  0.00     0.288 C 
HETATM   19  O3  UNL     1       7.081   1.399  -0.827  1.00  0.00    -0.267 OA
HETATM   20  H13 UNL     1       6.354   1.896   2.373  1.00  0.00     0.171 HD
BRANCH  18  21
HETATM   21  C17 UNL     1       7.724   2.940   0.196  1.00  0.00     0.444 C 
HETATM   22  F2  UNL     1       8.203   3.052  -1.070  1.00  0.00    -0.204 F 
HETATM   23  F3  UNL     1       8.791   2.983   1.077  1.00  0.00    -0.204 F 
ENDBRANCH  18  21
ENDBRANCH  15  17
ENDBRANCH   8  10
ENDBRANCH   6   8
BRANCH   1  24
HETATM   24  N1  UNL     1      -2.252  -0.007  -1.025  1.00  0.00    -0.165 N 
HETATM   25  C6  UNL     1      -3.028   0.092  -2.211  1.00  0.00     0.113 A 
HETATM   26  C5  UNL     1      -4.281   0.443  -1.985  1.00  0.00     0.027 A 
HETATM   27  C4  UNL     1      -4.974   0.742  -0.707  1.00  0.00     0.170 A 
HETATM   28  C20 UNL     1      -3.998   0.580   0.379  1.00  0.00     0.027 A 
HETATM   29  C19 UNL     1      -2.736   0.240   0.303  1.00  0.00     0.113 A 
BRANCH  27  30
HETATM   30  O1  UNL     1      -6.138   0.028  -0.528  1.00  0.00    -0.372 OA
BRANCH  30  31
HETATM   31  C3  UNL     1      -7.166   1.008  -0.461  1.00  0.00     0.229 C 
BRANCH  31  32
HETATM   32  C2  UNL     1      -8.468   0.414  -0.261  1.00  0.00     0.079 C 
HETATM   33  C1  UNL     1      -9.588   0.163   0.302  1.00  0.00     0.045 C 
BRANCH  32  34
HETATM   34  N6  UNL     1      -8.661  -0.455  -1.388  1.00  0.00    -0.101 NA
HETATM   35  O4  UNL     1      -7.917  -1.451  -1.528  1.00  0.00    -0.061 OA
ENDBRANCH  32  34
ENDBRANCH  31  32
ENDBRANCH  30  31
ENDBRANCH  27  30
ENDBRANCH   1  24
TORSDOF 9
