REMARK  3 active torsions:
REMARK  status: ('A' for Active; 'I' for Inactive)
REMARK    1  A    between atoms: C1_2  and  C2_3 
REMARK       I    between atoms: C1_2  and  N1_11 
REMARK    2  A    between atoms: C7_9  and  O2_10 
REMARK    3  A    between atoms: C16_22  and  C17_23 
ROOT
HETATM    1  O1  UNL     1       1.182   1.768  -0.760  1.00  0.00    -0.266 OA
HETATM    2  C1  UNL     1       1.220   0.586  -0.262  1.00  0.00     0.271 C 
HETATM    3  N1  UNL     1      -0.002  -0.019   0.131  1.00  0.00    -0.268 N 
HETATM    4  N2  UNL     1      -0.067  -1.323   0.694  1.00  0.00    -0.222 NA
HETATM    5  C8  UNL     1      -1.378  -1.904   0.482  1.00  0.00     0.130 C 
HETATM    6  C9  UNL     1      -1.199  -3.378   0.598  1.00  0.00    -0.003 C 
HETATM    7  C10 UNL     1      -2.303  -4.143   0.490  1.00  0.00    -0.003 C 
HETATM    8  C11 UNL     1      -3.723  -3.853   0.273  1.00  0.00     0.201 C 
HETATM    9  O3  UNL     1      -4.022  -2.585  -0.225  1.00  0.00    -0.359 OA
HETATM   10  C12 UNL     1      -3.253  -1.829  -1.096  1.00  0.00     0.139 C 
HETATM   11  C13 UNL     1      -2.005  -1.500  -0.778  1.00  0.00    -0.035 C 
HETATM   12  C14 UNL     1      -1.523  -0.709  -1.935  1.00  0.00     0.040 C 
HETATM   13  C15 UNL     1      -1.431   0.759  -1.584  1.00  0.00     0.036 C 
HETATM   14  C16 UNL     1      -1.157   0.828  -0.105  1.00  0.00     0.139 C 
HETATM   15  H5  UNL     1       0.123  -1.271   1.730  1.00  0.00     0.148 HD
ENDROOT
BRANCH   2  16
HETATM   16  C2  UNL     1       2.574   0.061  -0.189  1.00  0.00     0.066 A 
HETATM   17  C3  UNL     1       2.939  -1.173   0.292  1.00  0.00     0.022 A 
HETATM   18  C4  UNL     1       4.223  -1.667   0.360  1.00  0.00     0.025 A 
HETATM   19  C5  UNL     1       5.244  -0.855  -0.095  1.00  0.00     0.036 A 
HETATM   20 CL1  UNL     1       6.894  -1.451  -0.023  1.00  0.00    -0.084 Cl
HETATM   21  C6  UNL     1       4.942   0.384  -0.584  1.00  0.00     0.061 A 
HETATM   22  C7  UNL     1       3.618   0.823  -0.625  1.00  0.00     0.083 A 
BRANCH  22  23
HETATM   23  O2  UNL     1       3.484   2.110  -1.153  1.00  0.00    -0.360 OA
HETATM   24  H4  UNL     1       3.790   2.870  -0.582  1.00  0.00     0.217 HD
ENDBRANCH  22  23
ENDBRANCH   2  16
BRANCH  14  25
HETATM   25  C17 UNL     1      -0.920   2.216   0.369  1.00  0.00    -0.034 A 
HETATM   26  C18 UNL     1      -1.238   3.372  -0.332  1.00  0.00     0.011 A 
HETATM   27  C19 UNL     1      -0.945   4.580   0.267  1.00  0.00     0.024 A 
HETATM   28  C20 UNL     1      -0.360   4.711   1.507  1.00  0.00     0.034 A 
HETATM   29 CL2  UNL     1      -0.008   6.269   2.223  1.00  0.00    -0.084 Cl
HETATM   30  C21 UNL     1      -0.052   3.569   2.185  1.00  0.00     0.024 A 
HETATM   31  C22 UNL     1      -0.330   2.330   1.621  1.00  0.00     0.011 A 
ENDBRANCH  14  25
TORSDOF 3
