REMARK  8 active torsions:
REMARK  status: ('A' for Active; 'I' for Inactive)
REMARK    1  A    between atoms: O1_2  and  C2_3 
REMARK    2  A    between atoms: C6_8  and  C7_9 
REMARK    3  A    between atoms: C7_9  and  C8_10 
REMARK    4  A    between atoms: C8_10  and  O2_11 
REMARK    5  A    between atoms: C9_12  and  C10_13 
REMARK    6  A    between atoms: C11_14  and  C12_15 
REMARK    7  A    between atoms: C12_15  and  O3_16 
REMARK    8  A    between atoms: C17_23  and  C18_24 
ROOT
HETATM    1  C2  UNL     1      -1.884   3.239   1.769  1.00  0.00     0.056 C 
HETATM    2  C3  UNL     1      -1.125   2.150   1.478  1.00  0.00     0.102 C 
HETATM    3  C4  UNL     1       0.135   1.585   2.079  1.00  0.00     0.021 C 
HETATM    4 CL1  UNL     1       1.399   1.791   3.359  1.00  0.00    -0.088 Cl
HETATM    5  C5  UNL     1       0.399   0.473   1.336  1.00  0.00     0.020 C 
HETATM    6  C6  UNL     1       0.036  -0.434   0.228  1.00  0.00     0.135 C 
HETATM    7  N1  UNL     1      -1.278  -0.172  -0.335  1.00  0.00    -0.287 N 
HETATM    8  N2  UNL     1      -1.613   1.007  -1.034  1.00  0.00    -0.180 NA
HETATM    9  C13 UNL     1      -2.849   1.317  -0.739  1.00  0.00     0.057 C 
HETATM   10  C14 UNL     1      -3.415   2.534  -0.177  1.00  0.00     0.031 C 
HETATM   11  C15 UNL     1      -2.997   3.276   0.832  1.00  0.00     0.035 C 
HETATM   12  C16 UNL     1      -3.396  -0.018  -1.184  1.00  0.00     0.093 C 
HETATM   13  C17 UNL     1      -2.530  -0.950  -0.365  1.00  0.00     0.143 C 
ENDROOT
BRANCH   6  14
HETATM   14  C7  UNL     1       1.112  -0.304  -0.845  1.00  0.00     0.095 C 
BRANCH  14  15
HETATM   15  C8  UNL     1       2.401  -0.698  -0.214  1.00  0.00     0.045 C 
HETATM   16  C9  UNL     1       3.447   0.131  -0.123  1.00  0.00     0.032 C 
BRANCH  15  17
HETATM   17  O2  UNL     1       2.497  -1.988   0.296  1.00  0.00    -0.365 OA
HETATM   18  H9  UNL     1       3.023  -2.086   1.167  1.00  0.00     0.217 HD
ENDBRANCH  15  17
BRANCH  16  19
HETATM   19  C10 UNL     1       4.736  -0.221   0.493  1.00  0.00     0.000 C 
HETATM   20  C11 UNL     1       5.716   0.657   0.540  1.00  0.00    -0.001 C 
BRANCH  20  21
HETATM   21  C12 UNL     1       7.009   0.264   1.172  1.00  0.00     0.191 C 
BRANCH  21  22
HETATM   22  O3  UNL     1       6.828  -1.072   1.594  1.00  0.00    -0.397 OA
HETATM   23  H15 UNL     1       7.065  -1.683   0.847  1.00  0.00     0.209 HD
ENDBRANCH  21  22
ENDBRANCH  20  21
ENDBRANCH  16  19
ENDBRANCH  14  15
ENDBRANCH   6  14
BRANCH  13  24
HETATM   24  C18 UNL     1      -2.315  -2.205  -1.102  1.00  0.00    -0.034 A 
HETATM   25  C19 UNL     1      -2.795  -3.403  -0.594  1.00  0.00     0.009 A 
HETATM   26  C20 UNL     1      -2.560  -4.545  -1.336  1.00  0.00     0.001 A 
HETATM   27  C21 UNL     1      -1.889  -4.600  -2.539  1.00  0.00     0.000 A 
HETATM   28  C22 UNL     1      -1.428  -3.376  -3.004  1.00  0.00     0.001 A 
HETATM   29  C23 UNL     1      -1.637  -2.202  -2.300  1.00  0.00     0.009 A 
ENDBRANCH  13  24
BRANCH   1  30
HETATM   30  O1  UNL     1      -2.091   4.390   2.592  1.00  0.00    -0.359 OA
HETATM   31  C1  UNL     1      -2.959   4.290   3.709  1.00  0.00     0.209 C 
ENDBRANCH   1  30
TORSDOF 8
