REMARK  5 active torsions:
REMARK  status: ('A' for Active; 'I' for Inactive)
REMARK    1  A    between atoms: C3_3  and  C4_5 
REMARK    2  A    between atoms: C5_6  and  C6_7 
REMARK    3  A    between atoms: C9_10  and  O1_11 
REMARK       I    between atoms: N2_18  and  C15_19 
REMARK    4  A    between atoms: C15_19  and  C16_21 
REMARK    5  A    between atoms: C21_27  and  O3_28 
ROOT
HETATM    1  C6  UNL     1       0.099   0.415   0.186  1.00  0.00     0.172 C 
HETATM    2  C7  UNL     1      -0.671   1.624  -0.291  1.00  0.00     0.011 C 
HETATM    3  C8  UNL     1      -1.373   1.464  -1.351  1.00  0.00     0.022 C 
HETATM    4  C9  UNL     1      -2.384   2.199  -1.709  1.00  0.00     0.079 C 
HETATM    5  C11 UNL     1      -2.985   3.263  -0.917  1.00  0.00     0.034 C 
HETATM    6  C12 UNL     1      -2.379   3.954   0.023  1.00  0.00    -0.018 C 
HETATM    7  C13 UNL     1      -1.054   4.036   0.669  1.00  0.00     0.088 C 
HETATM    8  C14 UNL     1      -0.389   2.702   0.637  1.00  0.00     0.068 C 
HETATM    9  N1  UNL     1       0.530   2.311   1.425  1.00  0.00    -0.172 NA
HETATM   10  N2  UNL     1       0.968   1.004   1.160  1.00  0.00    -0.221 N 
HETATM   11  C15 UNL     1       2.120   0.624   1.902  1.00  0.00     0.277 C 
HETATM   12  O2  UNL     1       2.648   1.458   2.712  1.00  0.00    -0.265 OA
ENDROOT
BRANCH   1  13
HETATM   13  C5  UNL     1      -0.911  -0.499   0.733  1.00  0.00     0.007 C 
HETATM   14  C4  UNL     1      -1.348  -1.630   0.248  1.00  0.00     0.022 C 
BRANCH  14  15
HETATM   15  C3  UNL     1      -0.965  -2.318  -0.972  1.00  0.00     0.029 C 
HETATM   16  C2  UNL     1      -1.403  -3.447  -1.453  1.00  0.00    -0.007 C 
HETATM   17  C1  UNL     1      -0.826  -3.907  -2.730  1.00  0.00     0.038 C 
HETATM   18 CL1  UNL     1       0.164  -1.988  -2.264  1.00  0.00    -0.085 Cl
ENDBRANCH  14  15
ENDBRANCH   1  13
BRANCH  11  19
HETATM   19  C16 UNL     1       2.820  -0.645   1.870  1.00  0.00     0.067 A 
HETATM   20  C17 UNL     1       2.525  -1.775   1.152  1.00  0.00     0.022 A 
HETATM   21  C18 UNL     1       3.215  -2.949   1.159  1.00  0.00     0.025 A 
HETATM   22  C19 UNL     1       4.327  -3.057   1.951  1.00  0.00     0.036 A 
HETATM   23 CL2  UNL     1       5.242  -4.534   1.993  1.00  0.00    -0.084 Cl
HETATM   24  C20 UNL     1       4.685  -1.969   2.698  1.00  0.00     0.061 A 
HETATM   25  C21 UNL     1       3.947  -0.779   2.663  1.00  0.00     0.083 A 
BRANCH  25  26
HETATM   26  O3  UNL     1       4.471   0.205   3.489  1.00  0.00    -0.360 OA
HETATM   27  H18 UNL     1       4.565   0.098   4.491  1.00  0.00     0.217 HD
ENDBRANCH  25  26
ENDBRANCH  11  19
BRANCH   4  28
HETATM   28  O1  UNL     1      -2.922   1.937  -2.945  1.00  0.00    -0.355 OA
HETATM   29  C10 UNL     1      -4.078   2.625  -3.352  1.00  0.00     0.210 C 
ENDBRANCH   4  28
TORSDOF 5
