REMARK  4 active torsions:
REMARK  status: ('A' for Active; 'I' for Inactive)
REMARK    1  A    between atoms: O1_2  and  C2_3 
REMARK    2  A    between atoms: C8_9  and  C9_10 
REMARK    3  A    between atoms: N2_18  and  C14_19 
REMARK    4  A    between atoms: C19_25  and  O3_26 
ROOT
HETATM    1  C2  UNL     1       4.133  -0.544  -0.047  1.00  0.00     0.068 A 
HETATM    2  C3  UNL     1       3.526  -1.751  -0.163  1.00  0.00     0.037 A 
HETATM    3  C4  UNL     1       2.183  -1.802  -0.425  1.00  0.00     0.016 A 
HETATM    4  C5  UNL     1       1.428  -0.675  -0.574  1.00  0.00    -0.010 A 
HETATM    5  C6  UNL     1       1.975   0.629  -0.470  1.00  0.00    -0.033 A 
HETATM    6  C7  UNL     1       3.356   0.606  -0.201  1.00  0.00     0.045 A 
HETATM    7  C8  UNL     1       1.555   2.064  -0.572  1.00  0.00     0.086 C 
HETATM    8  C10 UNL     1       0.040   2.165  -0.399  1.00  0.00     0.068 C 
HETATM    9  C11 UNL     1      -0.493   3.565  -0.544  1.00  0.00     0.025 C 
HETATM   10 CL1  UNL     1      -0.471   5.175  -1.212  1.00  0.00    -0.088 Cl
HETATM   11  C12 UNL     1      -1.595   3.561   0.216  1.00  0.00     0.011 C 
HETATM   12  C13 UNL     1      -2.471   2.609  -0.120  1.00  0.00     0.123 C 
HETATM   13  N1  UNL     1      -2.223   1.219   0.135  1.00  0.00    -0.288 N 
HETATM   14  N2  UNL     1      -1.969  -0.190   0.345  1.00  0.00    -0.172 N 
HETATM   15  N3  UNL     1      -0.562  -0.373   0.316  1.00  0.00    -0.163 NA
HETATM   16  C20 UNL     1       0.015  -0.539  -0.861  1.00  0.00     0.152 C 
HETATM   17  H12 UNL     1      -2.299   1.329   1.200  1.00  0.00     0.188 HD
ENDROOT
BRANCH  14  18
HETATM   18  C14 UNL     1      -3.134  -0.945   0.497  1.00  0.00     0.110 A 
HETATM   19  C15 UNL     1      -3.953  -1.097   1.607  1.00  0.00     0.038 A 
HETATM   20  C16 UNL     1      -5.058  -1.898   1.590  1.00  0.00     0.026 A 
HETATM   21  C17 UNL     1      -5.387  -2.587   0.443  1.00  0.00     0.036 A 
HETATM   22 CL2  UNL     1      -6.823  -3.606   0.481  1.00  0.00    -0.084 Cl
HETATM   23  C18 UNL     1      -4.596  -2.464  -0.690  1.00  0.00     0.062 A 
HETATM   24  C19 UNL     1      -3.474  -1.642  -0.652  1.00  0.00     0.097 A 
BRANCH  24  25
HETATM   25  O3  UNL     1      -2.766  -1.602  -1.836  1.00  0.00    -0.358 OA
HETATM   26  H16 UNL     1      -2.880  -0.828  -2.481  1.00  0.00     0.217 HD
ENDBRANCH  24  25
ENDBRANCH  14  18
BRANCH   7  27
HETATM   27  C9  UNL     1       2.211   2.876   0.488  1.00  0.00     0.240 C 
HETATM   28  O2  UNL     1       2.972   2.870   1.458  1.00  0.00    -0.306 OA
ENDBRANCH   7  27
BRANCH   1  29
HETATM   29  O1  UNL     1       5.482  -0.533   0.214  1.00  0.00    -0.356 OA
HETATM   30  C1  UNL     1       6.219  -1.715   0.352  1.00  0.00     0.210 C 
ENDBRANCH   1  29
TORSDOF 4
