REMARK  3 active torsions:
REMARK  status: ('A' for Active; 'I' for Inactive)
REMARK    1  A    between atoms: C3_3  and  C4_4 
REMARK    2  A    between atoms: N1_5  and  C5_6 
REMARK    3  A    between atoms: C15_18  and  C16_19 
ROOT
HETATM    1  C5  UNL     1      -0.072  -0.441  -0.693  1.00  0.00     0.103 A 
HETATM    2  C6  UNL     1       0.383   0.950  -1.058  1.00  0.00     0.011 C 
HETATM    3  C7  UNL     1      -0.610   1.641  -0.510  1.00  0.00    -0.004 C 
HETATM    4  C8  UNL     1      -0.617   0.662   0.588  1.00  0.00     0.075 A 
HETATM    5  C9  UNL     1       0.199  -0.378   0.762  1.00  0.00     0.010 A 
HETATM    6  C10 UNL     1      -1.984   0.789   1.288  1.00  0.00     0.067 A 
HETATM    7  N2  UNL     1      -2.199   1.800   2.127  1.00  0.00    -0.244 NA
HETATM    8  C11 UNL     1      -3.504   1.677   2.621  1.00  0.00     0.232 A 
HETATM    9  N3  UNL     1      -4.397   0.722   2.321  1.00  0.00    -0.253 NA
HETATM   10  C12 UNL     1      -4.230  -0.311   1.485  1.00  0.00     0.131 A 
HETATM   11  C13 UNL     1      -2.979  -0.268   0.950  1.00  0.00     0.008 A 
HETATM   12  C14 UNL     1      -2.521  -1.155  -0.205  1.00  0.00     0.028 C 
HETATM   13  C15 UNL     1      -1.395  -0.943  -1.005  1.00  0.00     0.016 C 
ENDROOT
BRANCH   1  14
HETATM   14  N1  UNL     1       0.926  -1.301  -1.369  1.00  0.00    -0.280 NA
HETATM   15  C4  UNL     1       2.176  -1.149  -1.176  1.00  0.00     0.112 C 
BRANCH  15  16
HETATM   16  C3  UNL     1       2.937  -0.222  -0.353  1.00  0.00     0.014 C 
HETATM   17  C2  UNL     1       4.258  -0.302  -0.352  1.00  0.00    -0.029 C 
HETATM   18  C1  UNL     1       5.042   0.638   0.483  1.00  0.00     0.036 C 
ENDBRANCH  15  16
ENDBRANCH   1  14
BRANCH  13  19
HETATM   19  C16 UNL     1      -1.728  -1.382  -2.384  1.00  0.00     0.268 C 
HETATM   20  O1  UNL     1      -2.820  -1.850  -2.732  1.00  0.00    -0.302 OA
ENDBRANCH  13  19
TORSDOF 3
