REMARK  3 active torsions:
REMARK  status: ('A' for Active; 'I' for Inactive)
REMARK    1  A    between atoms: C2_2  and  C3_3 
REMARK    2  A    between atoms: C6_6  and  C7_7 
REMARK    3  A    between atoms: C17_22  and  N5_23 
ROOT
HETATM    1  C3  UNL     1       0.011   2.129   0.059  1.00  0.00     0.042 C 
HETATM    2  C4  UNL     1      -1.318   1.960   0.547  1.00  0.00     0.031 C 
HETATM    3  C5  UNL     1      -1.737   0.668   0.646  1.00  0.00     0.208 A 
HETATM    4  C6  UNL     1      -3.011   0.184   1.107  1.00  0.00     0.081 A 
HETATM    5  N2  UNL     1      -2.222  -0.803   0.675  1.00  0.00    -0.388 N 
HETATM    6  C12 UNL     1      -2.503  -2.198   0.634  1.00  0.00     0.138 C 
HETATM    7  C13 UNL     1      -1.235  -2.799  -0.094  1.00  0.00     0.138 C 
HETATM    8  N3  UNL     1      -0.155  -2.501   0.772  1.00  0.00    -0.397 N 
HETATM    9  C14 UNL     1       1.204  -2.252   0.574  1.00  0.00     0.084 C 
HETATM   10  C15 UNL     1       1.280  -1.883  -0.684  1.00  0.00     0.069 C 
HETATM   11  C16 UNL     1       2.276  -1.426  -1.711  1.00  0.00     0.377 A 
HETATM   12  O1  UNL     1       3.053  -1.439  -0.677  1.00  0.00    -0.143 OA
HETATM   13  N4  UNL     1       3.609  -1.064  -1.829  1.00  0.00     0.136 N 
HETATM   14  C17 UNL     1       4.741  -0.899  -0.991  1.00  0.00     0.422 C 
HETATM   15  C19 UNL     1       4.513   0.521  -0.914  1.00  0.00     0.068 C 
HETATM   16  C20 UNL     1       3.346   1.117  -1.657  1.00  0.00     0.028 A 
HETATM   17  C21 UNL     1       3.725   1.410  -2.952  1.00  0.00     0.133 A 
HETATM   18  N6  UNL     1       2.967   1.920  -3.971  1.00  0.00    -0.253 NA
HETATM   19  C22 UNL     1       1.673   2.150  -3.597  1.00  0.00     0.234 A 
HETATM   20  N7  UNL     1       1.233   1.892  -2.352  1.00  0.00    -0.224 NA
HETATM   21  C23 UNL     1       2.035   1.397  -1.421  1.00  0.00     0.141 A 
HETATM   22  N8  UNL     1       1.082   1.370  -0.405  1.00  0.00    -0.340 N 
HETATM   23  H13 UNL     1      -0.035  -2.375   1.821  1.00  0.00     0.158 HD
HETATM   24  H16 UNL     1       4.269  -0.937  -2.675  1.00  0.00     0.326 HD
HETATM   25  H22 UNL     1       0.981   0.696   0.280  1.00  0.00     0.167 HD
ENDROOT
BRANCH   4  26
HETATM   26  C7  UNL     1      -4.247  -0.362   1.550  1.00  0.00     0.059 A 
HETATM   27  C8  UNL     1      -5.043   0.725   1.939  1.00  0.00     0.029 A 
HETATM   28  C9  UNL     1      -6.241   0.306   2.452  1.00  0.00     0.003 A 
HETATM   29  C10 UNL     1      -6.671  -0.978   2.594  1.00  0.00     0.019 A 
HETATM   30  C11 UNL     1      -5.754  -1.960   2.153  1.00  0.00     0.117 A 
HETATM   31  N1  UNL     1      -4.535  -1.675   1.626  1.00  0.00    -0.263 NA
ENDBRANCH   4  26
BRANCH   1  32
HETATM   32  C2  UNL     1       0.607   3.319  -0.026  1.00  0.00    -0.007 C 
HETATM   33  C1  UNL     1       1.131   4.469   0.395  1.00  0.00     0.026 C 
ENDBRANCH   1  32
BRANCH  14  34
HETATM   34  N5  UNL     1       5.765  -0.394  -0.183  1.00  0.00     0.062 NA
HETATM   35  C18 UNL     1       5.754  -0.861   1.072  1.00  0.00     0.716 C 
ENDBRANCH  14  34
TORSDOF 3
