REMARK  7 active torsions:
REMARK  status: ('A' for Active; 'I' for Inactive)
REMARK    1  A    between atoms: O1_1  and  C1_2 
REMARK    2  A    between atoms: C1_2  and  N1_3 
REMARK    3  A    between atoms: C2_5  and  O2_6 
REMARK    4  A    between atoms: O2_6  and  C3_7 
REMARK    5  A    between atoms: C6_10  and  O3_11 
REMARK    6  A    between atoms: C10_15  and  C11_16 
REMARK    7  A    between atoms: C14_19  and  C15_20 
ROOT
HETATM    1  N1  UNL     1       0.099   1.176  -0.849  1.00  0.00    -0.271 N 
HETATM    2  N2  UNL     1      -1.186   0.576  -0.888  1.00  0.00    -0.153 NA
HETATM    3  C2  UNL     1      -1.139  -0.694  -0.679  1.00  0.00     0.167 C 
HETATM    4  C9  UNL     1       0.316  -1.033  -0.472  1.00  0.00     0.120 C 
HETATM    5  C10 UNL     1       0.733   0.310   0.112  1.00  0.00     0.147 C 
ENDROOT
BRANCH   3   6
HETATM    6  O2  UNL     1      -2.305  -1.468  -0.678  1.00  0.00    -0.294 OA
BRANCH   6   7
HETATM    7  C3  UNL     1      -3.452  -1.061  -0.009  1.00  0.00     0.077 A 
HETATM    8  C4  UNL     1      -3.704   0.073   0.736  1.00  0.00     0.040 A 
HETATM    9  C5  UNL     1      -4.941   0.251   1.309  1.00  0.00     0.039 A 
HETATM   10  C6  UNL     1      -5.954  -0.689   1.156  1.00  0.00     0.065 A 
HETATM   11  C7  UNL     1      -5.709  -1.820   0.415  1.00  0.00     0.039 A 
HETATM   12  C8  UNL     1      -4.460  -1.994  -0.159  1.00  0.00     0.040 A 
BRANCH  10  13
HETATM   13  O3  UNL     1      -7.160  -0.399   1.780  1.00  0.00    -0.361 OA
HETATM   14  H6  UNL     1      -7.802   0.262   1.329  1.00  0.00     0.217 HD
ENDBRANCH  10  13
ENDBRANCH   6   7
ENDBRANCH   3   6
BRANCH   1  15
HETATM   15  C1  UNL     1       0.363   2.342  -1.679  1.00  0.00     0.310 C 
BRANCH  15  16
HETATM   16  O1  UNL     1       0.178   2.065  -3.027  1.00  0.00    -0.381 OA
HETATM   17  H1  UNL     1      -0.775   2.125  -3.296  1.00  0.00     0.211 HD
ENDBRANCH  15  16
ENDBRANCH   1  15
BRANCH   5  18
HETATM   18  C11 UNL     1       2.172   0.420   0.250  1.00  0.00    -0.033 A 
HETATM   19  C12 UNL     1       2.910  -0.770   0.175  1.00  0.00     0.010 A 
HETATM   20  C13 UNL     1       4.278  -0.812   0.299  1.00  0.00     0.009 A 
HETATM   21  C14 UNL     1       4.989   0.335   0.505  1.00  0.00    -0.044 A 
HETATM   22  C16 UNL     1       4.321   1.517   0.586  1.00  0.00     0.009 A 
HETATM   23  C17 UNL     1       2.948   1.535   0.459  1.00  0.00     0.010 A 
BRANCH  21  24
HETATM   24  C15 UNL     1       6.466   0.405   0.653  1.00  0.00     0.153 C 
HETATM   25 CL1  UNL     1       7.136   0.635  -0.988  1.00  0.00    -0.126 Cl
ENDBRANCH  21  24
ENDBRANCH   5  18
TORSDOF 7
