REMARK  3 active torsions:
REMARK  status: ('A' for Active; 'I' for Inactive)
REMARK    1  A    between atoms: C1_2  and  C2_3 
REMARK    2  A    between atoms: C2_3  and  N1_4 
REMARK    3  A    between atoms: N1_4  and  C3_5 
ROOT
HETATM    1  C3  UNL     1       1.327  -0.954   0.823  1.00  0.00     0.006 C 
HETATM    2  C4  UNL     1       1.216   0.120   1.551  1.00  0.00     0.041 C 
HETATM    3  C5  UNL     1       1.419   1.492   1.309  1.00  0.00     0.029 A 
HETATM    4  C6  UNL     1       2.803   1.484   1.594  1.00  0.00     0.133 A 
HETATM    5  N2  UNL     1       3.680   2.554   1.546  1.00  0.00    -0.253 NA
HETATM    6  C7  UNL     1       3.132   3.753   1.180  1.00  0.00     0.234 A 
HETATM    7  N3  UNL     1       1.824   3.786   0.908  1.00  0.00    -0.224 NA
HETATM    8  C8  UNL     1       1.006   2.738   0.964  1.00  0.00     0.141 A 
HETATM    9  N4  UNL     1      -0.290   3.223   0.645  1.00  0.00    -0.343 N 
HETATM   10  C9  UNL     1      -1.142   2.862  -0.426  1.00  0.00     0.016 C 
HETATM   11  C10 UNL     1      -1.884   3.648  -1.229  1.00  0.00     0.027 C 
HETATM   12  C11 UNL     1      -3.071   2.850  -1.621  1.00  0.00     0.029 C 
HETATM   13  C12 UNL     1      -2.984   1.660  -1.046  1.00  0.00     0.040 C 
HETATM   14  C13 UNL     1      -1.483   1.508  -0.979  1.00  0.00     0.116 C 
HETATM   15  N5  UNL     1      -4.187   0.955  -0.680  1.00  0.00    -0.265 NA
HETATM   16  C14 UNL     1      -4.108  -0.269  -0.328  1.00  0.00     0.116 C 
HETATM   17  C15 UNL     1      -3.579  -1.576  -0.009  1.00  0.00     0.015 C 
HETATM   18  C16 UNL     1      -3.460  -2.830   0.342  1.00  0.00    -0.024 C 
HETATM   19  C17 UNL     1      -2.223  -3.553   0.404  1.00  0.00    -0.001 C 
HETATM   20  C18 UNL     1      -1.080  -2.884   0.084  1.00  0.00     0.026 C 
HETATM   21  C19 UNL     1       0.333  -3.153  -0.012  1.00  0.00     0.011 C 
HETATM   22  C20 UNL     1       1.199  -2.388   0.923  1.00  0.00     0.057 C 
HETATM   23  H8  UNL     1      -0.672   3.970   1.315  1.00  0.00     0.167 HD
ENDROOT
BRANCH   1  24
HETATM   24  N1  UNL     1       1.732  -0.506  -0.416  1.00  0.00    -0.387 N 
HETATM   25  H4  UNL     1       1.000   0.026  -0.988  1.00  0.00     0.159 HD
BRANCH  24  26
HETATM   26  C2  UNL     1       3.024  -0.695  -1.001  1.00  0.00     0.188 C 
BRANCH  26  27
HETATM   27  C1  UNL     1       3.344  -2.103  -1.365  1.00  0.00     0.250 C 
HETATM   28  O1  UNL     1       4.377  -2.504  -1.878  1.00  0.00    -0.305 OA
ENDBRANCH  26  27
ENDBRANCH  24  26
ENDBRANCH   1  24
TORSDOF 3
