REMARK  6 active torsions:
REMARK  status: ('A' for Active; 'I' for Inactive)
REMARK    1  A    between atoms: C2_2  and  O1_3 
REMARK    2  A    between atoms: O1_3  and  C3_4 
REMARK    3  A    between atoms: C6_7  and  N1_8 
REMARK    4  A    between atoms: N1_8  and  C7_9 
REMARK    5  A    between atoms: N2_16  and  S1_17 
REMARK    6  A    between atoms: S1_17  and  C14_20 
ROOT
HETATM    1  C7  UNL     1      -0.903   0.244  -1.337  1.00  0.00     0.030 A 
HETATM    2  C8  UNL     1      -0.197   0.011  -0.189  1.00  0.00     0.031 A 
HETATM    3  C9  UNL     1       1.049   0.522   0.103  1.00  0.00     0.034 A 
HETATM    4  C10 UNL     1       1.628   1.336  -0.845  1.00  0.00     0.060 A 
HETATM    5  C11 UNL     1       0.966   1.599  -2.004  1.00  0.00    -0.005 A 
HETATM    6  C12 UNL     1       1.755   2.435  -2.782  1.00  0.00     0.032 A 
HETATM    7  C13 UNL     1       2.876   2.621  -2.002  1.00  0.00     0.111 A 
HETATM    8  N2  UNL     1       2.823   1.964  -0.821  1.00  0.00    -0.246 N 
HETATM    9  C20 UNL     1      -0.276   1.061  -2.241  1.00  0.00     0.043 A 
ENDROOT
BRANCH   1  10
HETATM   10  N1  UNL     1      -2.180  -0.293  -1.607  1.00  0.00    -0.359 N 
HETATM   11  H8  UNL     1      -2.571   0.007  -2.553  1.00  0.00     0.162 HD
BRANCH  10  12
HETATM   12  C6  UNL     1      -3.177  -1.098  -1.071  1.00  0.00     0.172 A 
HETATM   13  C3  UNL     1      -3.923  -0.633   0.157  1.00  0.00     0.154 A 
HETATM   14  C4  UNL     1      -4.539  -1.843   0.004  1.00  0.00     0.034 A 
HETATM   15  C5  UNL     1      -2.879  -2.025   0.088  1.00  0.00     0.151 A 
HETATM   16  N4  UNL     1      -5.142  -3.098  -0.256  1.00  0.00    -0.355 N 
HETATM   17  C21 UNL     1      -4.614  -2.963  -1.622  1.00  0.00     0.204 C 
HETATM   18  H20 UNL     1      -5.717  -3.692   0.401  1.00  0.00     0.166 HD
HETATM   19  N3  UNL     1      -3.928  -1.907  -2.011  1.00  0.00    -0.249 NA
BRANCH  13  20
HETATM   20  O1  UNL     1      -3.959   0.452   0.994  1.00  0.00    -0.369 OA
BRANCH  20  21
HETATM   21  C2  UNL     1      -5.032   0.661   1.878  1.00  0.00     0.165 C 
HETATM   22  C1  UNL     1      -4.812   1.957   2.668  1.00  0.00     0.033 C 
ENDBRANCH  20  21
ENDBRANCH  13  20
ENDBRANCH  10  12
ENDBRANCH   1  10
BRANCH   8  23
HETATM   23  S1  UNL     1       4.052   1.971   0.395  1.00  0.00     0.269 S 
HETATM   24  O2  UNL     1       5.159   2.867  -0.074  1.00  0.00    -0.200 OA
HETATM   25  O3  UNL     1       3.420   2.573   1.622  1.00  0.00    -0.200 OA
BRANCH  23  26
HETATM   26  C14 UNL     1       4.716   0.408   0.714  1.00  0.00     0.080 A 
HETATM   27  C15 UNL     1       4.329  -0.502   1.676  1.00  0.00     0.025 A 
HETATM   28  C16 UNL     1       4.919  -1.730   1.851  1.00  0.00     0.002 A 
HETATM   29  C17 UNL     1       5.953  -2.087   1.030  1.00  0.00     0.000 A 
HETATM   30  C18 UNL     1       6.389  -1.243   0.060  1.00  0.00     0.002 A 
HETATM   31  C19 UNL     1       5.779  -0.008  -0.099  1.00  0.00     0.025 A 
ENDBRANCH  23  26
ENDBRANCH   8  23
TORSDOF 6
