REMARK  7 active torsions:
REMARK  status: ('A' for Active; 'I' for Inactive)
REMARK    1  A    between atoms: C6_9  and  N3_10 
REMARK    2  A    between atoms: C7_11  and  C8_12 
REMARK    3  A    between atoms: C8_12  and  C9_13 
REMARK    4  A    between atoms: C12_18  and  N6_19 
REMARK    5  A    between atoms: N6_19  and  C13_20 
REMARK    6  A    between atoms: C13_20  and  C14_21 
REMARK    7  A    between atoms: C16_24  and  C17_25 
ROOT
HETATM    1  C9  UNL     1       0.543  -0.342   0.827  1.00  0.00     0.070 A 
HETATM    2  N4  UNL     1      -0.037  -1.484   0.647  1.00  0.00    -0.244 NA
HETATM    3  C10 UNL     1       0.843  -2.335  -0.095  1.00  0.00     0.234 A 
HETATM    4  N5  UNL     1       1.961  -1.742  -0.380  1.00  0.00    -0.239 NA
HETATM    5  C11 UNL     1       1.868  -0.417   0.184  1.00  0.00     0.098 A 
HETATM    6  C12 UNL     1       2.910   0.405   0.021  1.00  0.00     0.122 C 
ENDROOT
BRANCH   1   7
HETATM    7  C8  UNL     1       0.229   0.956   1.481  1.00  0.00     0.108 C 
BRANCH   7   8
HETATM    8  C7  UNL     1       0.273   2.032   0.458  1.00  0.00     0.265 C 
HETATM    9  N3  UNL     1      -0.743   2.131  -0.359  1.00  0.00    -0.377 NA
BRANCH   9  10
HETATM   10  C6  UNL     1      -1.844   1.242  -0.264  1.00  0.00     0.095 C 
HETATM   11  N2  UNL     1      -2.379   0.104  -0.915  1.00  0.00    -0.311 N 
HETATM   12  C5  UNL     1      -2.857  -1.030  -1.626  1.00  0.00     0.246 C 
HETATM   13  H8  UNL     1      -1.575   0.478  -1.458  1.00  0.00     0.170 HD
HETATM   14  C4  UNL     1      -4.005  -1.871  -1.240  1.00  0.00     0.072 C 
HETATM   15  O1  UNL     1      -2.101  -1.158  -2.613  1.00  0.00    -0.268 OA
HETATM   16  C3  UNL     1      -5.083  -2.214  -0.492  1.00  0.00    -0.002 C 
HETATM   17  C2  UNL     1      -5.298  -1.150   0.592  1.00  0.00     0.144 C 
HETATM   18  N1  UNL     1      -4.519  -0.037   0.319  1.00  0.00    -0.410 N 
HETATM   19  C1  UNL     1      -5.100   0.667  -0.847  1.00  0.00     0.143 C 
HETATM   20  C19 UNL     1      -4.015   0.904   1.188  1.00  0.00     0.147 C 
HETATM   21  C18 UNL     1      -2.710   1.499   0.698  1.00  0.00     0.040 C 
ENDBRANCH   9  10
ENDBRANCH   7   8
ENDBRANCH   1   7
BRANCH   6  22
HETATM   22  N6  UNL     1       4.132   0.133  -0.651  1.00  0.00    -0.364 N 
HETATM   23  H14 UNL     1       3.938  -0.095  -1.653  1.00  0.00     0.165 HD
BRANCH  22  24
HETATM   24  C13 UNL     1       5.363   0.182  -0.003  1.00  0.00     0.031 C 
HETATM   25  C16 UNL     1       6.282   1.053   0.320  1.00  0.00     0.033 C 
BRANCH  24  26
HETATM   26  C14 UNL     1       5.751  -1.122   0.457  1.00  0.00     0.041 C 
HETATM   27  C15 UNL     1       5.163  -2.279   0.366  1.00  0.00     0.220 C 
HETATM   28 CL1  UNL     1       5.095  -3.988   0.659  1.00  0.00    -0.230 Cl
ENDBRANCH  24  26
BRANCH  25  29
HETATM   29  C17 UNL     1       6.048   2.450  -0.075  1.00  0.00     0.252 C 
HETATM   30  F1  UNL     1       6.012   3.310   1.009  1.00  0.00    -0.251 F 
ENDBRANCH  25  29
ENDBRANCH  22  24
ENDBRANCH   6  22
TORSDOF 7
