REMARK  4 active torsions:
REMARK  status: ('A' for Active; 'I' for Inactive)
REMARK    1  A    between atoms: C1_2  and  C2_3 
REMARK    2  A    between atoms: C2_3  and  C3_4 
REMARK    3  A    between atoms: C11_12  and  C12_13 
REMARK    4  A    between atoms: C12_13  and  O1_14 
ROOT
HETATM    1  C3  UNL     1       1.499   0.218  -0.526  1.00  0.00    -0.061 C 
HETATM    2  C4  UNL     1       1.962  -0.864   0.041  1.00  0.00    -0.009 C 
HETATM    3  C5  UNL     1       1.768  -2.287  -0.248  1.00  0.00     0.073 C 
HETATM    4  C6  UNL     1       1.167  -2.601  -1.544  1.00  0.00    -0.017 C 
HETATM    5  C7  UNL     1       0.940  -1.792  -2.572  1.00  0.00    -0.028 C 
HETATM    6  C8  UNL     1       0.997  -0.323  -2.789  1.00  0.00     0.049 C 
HETATM    7  C9  UNL     1       0.417   0.325  -1.540  1.00  0.00     0.053 C 
HETATM    8  C10 UNL     1      -0.846  -0.373  -1.234  1.00  0.00     0.060 C 
HETATM    9  C11 UNL     1      -1.887   0.393  -0.457  1.00  0.00     0.248 C 
HETATM   10  N2  UNL     1      -1.376   0.583   0.863  1.00  0.00     0.100 N 
HETATM   11  C13 UNL     1      -1.270   1.977   1.239  1.00  0.00     0.300 C 
HETATM   12  C14 UNL     1      -1.225   2.913   0.086  1.00  0.00     0.007 C 
HETATM   13  C15 UNL     1      -0.398   2.875  -0.979  1.00  0.00     0.049 C 
HETATM   14  C16 UNL     1       0.199   1.782  -1.747  1.00  0.00     0.162 C 
HETATM   15  O2  UNL     1       0.646   2.148  -2.867  1.00  0.00    -0.292 OA
HETATM   16  C17 UNL     1      -1.946  -0.192   1.903  1.00  0.00     0.294 C 
HETATM   17  C18 UNL     1      -0.969  -0.563   3.000  1.00  0.00     0.171 C 
HETATM   18  N3  UNL     1       0.142  -1.345   2.574  1.00  0.00    -0.313 N 
HETATM   19  N4  UNL     1       0.362  -2.575   1.996  1.00  0.00    -0.195 NA
HETATM   20  C19 UNL     1       0.991  -2.840   0.921  1.00  0.00     0.123 C 
HETATM   21  H25 UNL     1       1.091  -0.937   2.709  1.00  0.00     0.182 HD
ENDROOT
BRANCH   1  22
HETATM   22  C2  UNL     1       2.213   1.435  -0.048  1.00  0.00     0.081 C 
BRANCH  22  23
HETATM   23  C1  UNL     1       3.266   1.104   0.942  1.00  0.00     0.084 C 
HETATM   24  N1  UNL     1       3.729   0.916   2.111  1.00  0.00    -0.316 NA
HETATM   25  H1  UNL     1       3.049   1.048   2.903  1.00  0.00     0.185 HD
ENDBRANCH  22  23
ENDBRANCH   1  22
BRANCH   9  26
HETATM   26  C12 UNL     1      -3.125  -0.520  -0.516  1.00  0.00     0.200 C 
BRANCH  26  27
HETATM   27  O1  UNL     1      -3.433  -0.540  -1.901  1.00  0.00    -0.399 OA
HETATM   28  H16 UNL     1      -3.348   0.403  -2.218  1.00  0.00     0.209 HD
ENDBRANCH  26  27
ENDBRANCH   9  26
TORSDOF 4
