REMARK  1 active torsions:
REMARK  status: ('A' for Active; 'I' for Inactive)
REMARK    1  A    between atoms: C9_12  and  N3_13 
ROOT
HETATM    1  C1  UNL     1      -3.977  -0.333   1.927  1.00  0.00     0.143 C 
HETATM    2  N1  UNL     1      -2.845  -0.258   1.080  1.00  0.00    -0.411 N 
HETATM    3  C2  UNL     1      -3.032  -0.542  -0.252  1.00  0.00     0.124 C 
HETATM    4  C3  UNL     1      -3.880   0.346  -1.100  1.00  0.00     0.045 C 
HETATM    5  C4  UNL     1      -3.672   1.216  -2.128  1.00  0.00     0.192 A 
HETATM    6  C5  UNL     1      -2.548   1.753  -2.924  1.00  0.00     0.216 A 
HETATM    7  O1  UNL     1      -2.231   1.069  -1.954  1.00  0.00    -0.343 OA
HETATM    8  N2  UNL     1      -1.161   1.870  -3.116  1.00  0.00    -0.344 N 
HETATM    9  C6  UNL     1      -0.062   1.368  -2.238  1.00  0.00     0.084 A 
HETATM   10  C7  UNL     1       1.131   1.642  -1.588  1.00  0.00     0.155 A 
HETATM   11  C8  UNL     1       2.175   1.038  -0.703  1.00  0.00     0.028 C 
HETATM   12  C9  UNL     1       2.000  -0.232  -0.341  1.00  0.00     0.033 C 
HETATM   13  C15 UNL     1       1.291  -1.494  -0.462  1.00  0.00     0.206 C 
HETATM   14  N4  UNL     1       0.485  -1.765   0.761  1.00  0.00    -0.286 NA
HETATM   15  C16 UNL     1      -0.496  -0.849   0.839  1.00  0.00     0.057 C 
HETATM   16  C17 UNL     1      -0.339   0.028  -0.355  1.00  0.00     0.096 C 
HETATM   17  N5  UNL     1       0.244   0.253  -1.465  1.00  0.00    -0.231 NA
HETATM   18  C18 UNL     1      -1.660  -0.641   1.785  1.00  0.00     0.176 C 
HETATM   19  H8  UNL     1      -0.284   2.101  -3.517  1.00  0.00     0.163 HD
ENDROOT
BRANCH  12  20
HETATM   20  N3  UNL     1       3.194  -0.351   0.481  1.00  0.00    -0.332 N 
HETATM   21  C10 UNL     1       2.936  -0.135   1.865  1.00  0.00     0.112 A 
HETATM   22  C11 UNL     1       3.891  -0.160   2.764  1.00  0.00     0.035 A 
HETATM   23  C12 UNL     1       5.104  -0.485   2.365  1.00  0.00     0.152 A 
HETATM   24  F1  UNL     1       6.053  -0.600   3.317  1.00  0.00    -0.203 F 
HETATM   25  C13 UNL     1       5.428  -0.715   0.961  1.00  0.00     0.089 A 
HETATM   26 CL1  UNL     1       7.062  -1.089   0.429  1.00  0.00    -0.080 Cl
HETATM   27  C14 UNL     1       4.501  -0.653   0.022  1.00  0.00     0.123 A 
ENDBRANCH  12  20
TORSDOF 1
