REMARK  4 active torsions:
REMARK  status: ('A' for Active; 'I' for Inactive)
REMARK    1  A    between atoms: C6_6  and  C7_7 
REMARK    2  A    between atoms: C8_8  and  C9_9 
REMARK    3  A    between atoms: C9_9  and  C10_11 
REMARK    4  A    between atoms: N5_28  and  C23_29 
ROOT
HETATM    1  C10 UNL     1      -0.346   0.326  -0.566  1.00  0.00     0.282 C 
HETATM    2  N1  UNL     1      -0.913  -0.951  -0.446  1.00  0.00    -0.266 NA
HETATM    3  C11 UNL     1      -0.791  -1.885   0.376  1.00  0.00     0.143 C 
HETATM    4  C12 UNL     1      -1.723  -2.874  -0.202  1.00  0.00     0.078 A 
HETATM    5  N2  UNL     1      -1.427  -4.140  -0.298  1.00  0.00    -0.243 NA
HETATM    6  C13 UNL     1      -2.513  -4.832  -0.890  1.00  0.00     0.228 A 
HETATM    7  N3  UNL     1      -3.473  -4.028  -1.162  1.00  0.00    -0.271 NA
HETATM    8  C14 UNL     1      -3.106  -2.703  -0.768  1.00  0.00     0.169 A 
HETATM    9  C15 UNL     1      -3.991  -2.125   0.302  1.00  0.00     0.107 C 
HETATM   10  C16 UNL     1      -4.774  -0.956  -0.107  1.00  0.00     0.092 A 
HETATM   11  N4  UNL     1      -5.966  -0.809  -0.166  1.00  0.00    -0.422 NA
HETATM   12  C17 UNL     1      -7.197  -0.482  -0.286  1.00  0.00     0.182 A 
HETATM   13  C18 UNL     1      -6.910   0.844  -0.724  1.00  0.00     0.032 A 
HETATM   14  C19 UNL     1      -5.557   1.247  -0.846  1.00  0.00     0.012 A 
HETATM   15  C20 UNL     1      -4.526   0.337  -0.533  1.00  0.00    -0.020 A 
HETATM   16  C21 UNL     1      -3.125   0.864  -0.694  1.00  0.00     0.061 C 
HETATM   17  C22 UNL     1      -2.339   0.926   0.556  1.00  0.00     0.129 C 
HETATM   18  N5  UNL     1      -0.982   1.378   0.246  1.00  0.00    -0.361 N 
ENDROOT
BRANCH   1  19
HETATM   19  C9  UNL     1       1.110   0.410  -0.588  1.00  0.00     0.193 C 
HETATM   20  O1  UNL     1       1.094  -0.839  -0.775  1.00  0.00    -0.289 OA
BRANCH  19  21
HETATM   21  C8  UNL     1       2.521   0.656  -0.586  1.00  0.00     0.051 C 
HETATM   22  C7  UNL     1       3.262  -0.414  -0.799  1.00  0.00    -0.014 C 
BRANCH  22  23
HETATM   23  C6  UNL     1       4.720  -0.499  -0.853  1.00  0.00     0.036 C 
HETATM   24  C2  UNL     1       5.441   0.776  -0.636  1.00  0.00    -0.082 C 
HETATM   25  C1  UNL     1       5.322   1.943  -1.294  1.00  0.00     0.015 C 
HETATM   26  C3  UNL     1       6.408   0.622   0.504  1.00  0.00     0.034 C 
HETATM   27  C4  UNL     1       6.636  -0.855   0.546  1.00  0.00     0.005 C 
HETATM   28  C5  UNL     1       5.238  -1.397   0.273  1.00  0.00     0.013 C 
ENDBRANCH  22  23
ENDBRANCH  19  21
ENDBRANCH   1  19
BRANCH  18  29
HETATM   29  C23 UNL     1      -0.287   2.562   0.582  1.00  0.00     0.083 C 
HETATM   30  C24 UNL     1       0.451   3.283   1.398  1.00  0.00    -0.014 C 
HETATM   31  C25 UNL     1       1.141   3.321   2.707  1.00  0.00     0.037 C 
ENDBRANCH  18  29
TORSDOF 4
