REMARK  6 active torsions:
REMARK  status: ('A' for Active; 'I' for Inactive)
REMARK    1  A    between atoms: C2_2  and  C3_3 
REMARK       I    between atoms: C3_3  and  N1_5 
REMARK    2  A    between atoms: N1_5  and  C4_6 
REMARK    3  A    between atoms: C7_9  and  N2_10 
REMARK    4  A    between atoms: N2_10  and  C8_11 
REMARK    5  A    between atoms: C15_19  and  C16_20 
REMARK    6  A    between atoms: C25_31  and  O2_32 
ROOT
HETATM    1  C4  UNL     1      -4.695  -0.755   0.023  1.00  0.00     0.069 A 
HETATM    2  C5  UNL     1      -3.328  -0.694   0.153  1.00  0.00     0.050 A 
HETATM    3  C6  UNL     1      -2.525  -1.758   0.464  1.00  0.00     0.041 A 
HETATM    4  C7  UNL     1      -1.162  -1.653   0.584  1.00  0.00     0.142 A 
HETATM    5  N4  UNL     1      -0.351  -2.680   0.889  1.00  0.00    -0.224 NA
HETATM    6  C22 UNL     1      -0.943  -3.894   1.086  1.00  0.00     0.236 A 
HETATM    7  N5  UNL     1      -2.296  -4.037   0.975  1.00  0.00    -0.241 NA
HETATM    8  C23 UNL     1      -3.083  -3.000   0.671  1.00  0.00     0.075 A 
HETATM    9  C24 UNL     1      -4.449  -3.090   0.548  1.00  0.00     0.071 A 
HETATM   10  C25 UNL     1      -5.235  -2.003   0.233  1.00  0.00     0.097 A 
ENDROOT
BRANCH   4  11
HETATM   11  N2  UNL     1      -0.507  -0.410   0.387  1.00  0.00    -0.340 N 
HETATM   12  H8  UNL     1      -0.814   0.545   0.150  1.00  0.00     0.167 HD
BRANCH  11  13
HETATM   13  C8  UNL     1       0.902  -0.201   0.490  1.00  0.00     0.033 A 
HETATM   14  C9  UNL     1       1.759  -0.741  -0.367  1.00  0.00     0.022 A 
HETATM   15  C10 UNL     1       3.233  -0.609  -0.377  1.00  0.00     0.153 A 
HETATM   16  N3  UNL     1       3.693   0.227   0.716  1.00  0.00    -0.372 N 
HETATM   17  C11 UNL     1       2.807   0.825   1.655  1.00  0.00     0.010 A 
HETATM   18  C15 UNL     1       5.058   0.594   1.043  1.00  0.00     0.118 C 
HETATM   19  C12 UNL     1       1.504   0.617   1.539  1.00  0.00     0.054 A 
HETATM   20  C13 UNL     1       3.632   1.601   2.618  1.00  0.00     0.059 C 
HETATM   21  C14 UNL     1       4.873   1.884   1.806  1.00  0.00     0.036 C 
BRANCH  18  22
HETATM   22  C16 UNL     1       5.926   0.762  -0.138  1.00  0.00    -0.035 A 
HETATM   23  C17 UNL     1       5.580   1.442  -1.280  1.00  0.00     0.009 A 
HETATM   24  C18 UNL     1       6.460   1.550  -2.342  1.00  0.00     0.001 A 
HETATM   25  C19 UNL     1       7.727   0.973  -2.289  1.00  0.00     0.000 A 
HETATM   26  C20 UNL     1       8.125   0.273  -1.150  1.00  0.00     0.001 A 
HETATM   27  C21 UNL     1       7.202   0.204  -0.133  1.00  0.00     0.009 A 
ENDBRANCH  18  22
ENDBRANCH  11  13
ENDBRANCH   4  11
BRANCH   1  28
HETATM   28  N1  UNL     1      -5.559   0.314  -0.297  1.00  0.00    -0.325 N 
HETATM   29  C3  UNL     1      -5.260   1.653  -0.552  1.00  0.00     0.221 C 
HETATM   30  O1  UNL     1      -4.079   2.053  -0.514  1.00  0.00    -0.273 OA
HETATM   31  H6  UNL     1      -6.586   0.144  -0.368  1.00  0.00     0.169 HD
BRANCH  29  32
HETATM   32  C2  UNL     1      -6.230   2.713  -0.880  1.00  0.00     0.098 C 
HETATM   33  C1  UNL     1      -5.570   4.037  -1.095  1.00  0.00     0.014 C 
ENDBRANCH  29  32
ENDBRANCH   1  28
BRANCH  10  34
HETATM   34  O2  UNL     1      -6.609  -2.162   0.123  1.00  0.00    -0.354 OA
HETATM   35  C26 UNL     1      -7.192  -3.421   0.331  1.00  0.00     0.210 C 
ENDBRANCH  10  34
TORSDOF 6
