REMARK  4 active torsions:
REMARK  status: ('A' for Active; 'I' for Inactive)
REMARK    1  A    between atoms: C12_14  and  N3_15 
REMARK    2  A    between atoms: N3_15  and  C13_16 
REMARK    3  A    between atoms: C15_19  and  C16_20 
REMARK    4  A    between atoms: C16_20  and  N4_21 
ROOT
HETATM    1  C1  UNL     1      -4.482   1.261   1.199  1.00  0.00     0.042 C 
HETATM    2  C2  UNL     1      -3.865   0.598   0.207  1.00  0.00     0.020 C 
HETATM    3  C3  UNL     1      -3.851  -0.849   0.449  1.00  0.00     0.028 C 
HETATM    4  C4  UNL     1      -3.481  -2.062   0.001  1.00  0.00     0.002 C 
HETATM    5  C5  UNL     1      -2.851  -2.890  -0.997  1.00  0.00    -0.001 C 
HETATM    6  C6  UNL     1      -2.212  -3.216  -2.145  1.00  0.00     0.010 C 
HETATM    7  C7  UNL     1      -2.006  -1.935  -2.924  1.00  0.00     0.118 A 
HETATM    8  N1  UNL     1      -2.645  -2.394  -4.032  1.00  0.00    -0.264 NA
HETATM    9  C8  UNL     1      -3.057  -1.570  -5.010  1.00  0.00     0.223 A 
HETATM   10  N2  UNL     1      -2.671  -0.357  -4.556  1.00  0.00    -0.264 NA
HETATM   11  C9  UNL     1      -2.052  -0.236  -3.413  1.00  0.00     0.120 A 
HETATM   12  C10 UNL     1      -2.023   1.071  -2.987  1.00  0.00     0.045 A 
HETATM   13  C11 UNL     1      -1.541   1.336  -1.733  1.00  0.00     0.076 A 
HETATM   14  C12 UNL     1      -1.226   0.109  -1.336  1.00  0.00     0.096 A 
HETATM   15  C21 UNL     1      -1.000  -1.182  -1.162  1.00  0.00     0.046 A 
HETATM   16  C22 UNL     1      -1.535  -0.769  -2.324  1.00  0.00     0.066 A 
HETATM   17  O2  UNL     1      -1.458   2.576  -1.083  1.00  0.00    -0.334 OA
HETATM   18  C23 UNL     1      -2.309   2.425   0.136  1.00  0.00     0.297 C 
HETATM   19  N5  UNL     1      -3.572   1.864  -0.440  1.00  0.00    -0.369 N 
HETATM   20  H25 UNL     1      -4.216   2.224  -1.163  1.00  0.00     0.161 HD
ENDROOT
BRANCH  14  21
HETATM   21  N3  UNL     1      -0.218   0.350  -0.264  1.00  0.00    -0.372 N 
HETATM   22  H9  UNL     1       0.201   0.524   0.746  1.00  0.00     0.157 HD
BRANCH  21  23
HETATM   23  C13 UNL     1       1.167   0.464  -0.696  1.00  0.00     0.176 A 
HETATM   24  O1  UNL     1       0.799   0.287  -1.955  1.00  0.00    -0.204 OA
HETATM   25  C14 UNL     1       2.601   0.594  -1.031  1.00  0.00     0.064 A 
HETATM   26  C15 UNL     1       2.513   0.706   0.276  1.00  0.00     0.082 A 
BRANCH  26  27
HETATM   27  C16 UNL     1       2.819   0.875   1.741  1.00  0.00     0.282 C 
BRANCH  27  28
HETATM   28  N4  UNL     1       4.212   0.996   1.974  1.00  0.00     0.089 N 
HETATM   29  C17 UNL     1       4.862  -0.228   1.618  1.00  0.00     0.272 C 
HETATM   30  C18 UNL     1       5.618  -0.679   2.839  1.00  0.00     0.032 C 
HETATM   31  C19 UNL     1       4.967   0.068   3.991  1.00  0.00     0.032 C 
HETATM   32  C20 UNL     1       4.510   1.337   3.326  1.00  0.00     0.272 C 
ENDBRANCH  27  28
ENDBRANCH  26  27
ENDBRANCH  21  23
ENDBRANCH  14  21
TORSDOF 4
