REMARK  7 active torsions:
REMARK  status: ('A' for Active; 'I' for Inactive)
REMARK    1  A    between atoms: N1_1  and  C1_2 
REMARK    2  A    between atoms: N2_3  and  C2_4 
REMARK    3  A    between atoms: C6_9  and  C7_10 
REMARK    4  A    between atoms: C7_10  and  C8_11 
REMARK    5  A    between atoms: C11_15  and  N5_16 
REMARK       I    between atoms: N5_16  and  C12_17 
REMARK    6  A    between atoms: C12_17  and  C13_19 
REMARK    7  A    between atoms: C13_19  and  N6_20 
ROOT
HETATM    1  C8  UNL     1       1.052   0.878  -0.862  1.00  0.00    -0.029 A 
HETATM    2  C9  UNL     1       1.939   1.735  -1.339  1.00  0.00     0.026 A 
HETATM    3  C10 UNL     1       1.145   2.395  -2.367  1.00  0.00     0.113 A 
HETATM    4  N4  UNL     1      -0.068   1.991  -2.498  1.00  0.00    -0.272 NA
HETATM    5  C11 UNL     1      -0.272   0.945  -1.522  1.00  0.00     0.238 A 
ENDROOT
BRANCH   1   6
HETATM    6  C7  UNL     1       1.420  -0.060   0.259  1.00  0.00     0.100 C 
BRANCH   6   7
HETATM    7  C6  UNL     1       2.815   0.139   0.683  1.00  0.00     0.067 A 
HETATM    8  C2  UNL     1       3.903  -0.315  -0.032  1.00  0.00     0.083 A 
HETATM    9  C3  UNL     1       5.210  -0.142   0.340  1.00  0.00     0.035 A 
HETATM   10  C4  UNL     1       5.497   0.534   1.515  1.00  0.00     0.022 A 
HETATM   11  C5  UNL     1       4.407   0.984   2.223  1.00  0.00     0.117 A 
HETATM   12  N3  UNL     1       3.133   0.799   1.832  1.00  0.00    -0.263 NA
BRANCH   8  13
HETATM   13  N2  UNL     1       3.590  -1.014  -1.248  1.00  0.00    -0.243 NA
HETATM   14  C1  UNL     1       4.328  -2.055  -1.489  1.00  0.00     0.200 C 
BRANCH  14  15
HETATM   15  N1  UNL     1       5.411  -2.728  -0.854  1.00  0.00    -0.394 N 
HETATM   16  H1  UNL     1       6.260  -2.869  -1.460  1.00  0.00     0.156 HD
HETATM   17  H2  UNL     1       5.689  -3.165   0.063  1.00  0.00     0.156 HD
ENDBRANCH  14  15
ENDBRANCH   8  13
ENDBRANCH   6   7
ENDBRANCH   1   6
BRANCH   5  18
HETATM   18  N5  UNL     1      -1.225   1.376  -0.504  1.00  0.00    -0.333 N 
HETATM   19  C12 UNL     1      -2.388   0.641  -0.187  1.00  0.00     0.247 C 
HETATM   20  O1  UNL     1      -2.686  -0.451  -0.771  1.00  0.00    -0.272 OA
HETATM   21  H12 UNL     1      -0.926   2.269  -0.068  1.00  0.00     0.165 HD
BRANCH  19  22
HETATM   22  C13 UNL     1      -3.222   1.245   0.870  1.00  0.00     0.374 C 
BRANCH  22  23
HETATM   23  N6  UNL     1      -4.400   0.511   1.198  1.00  0.00     0.097 N 
HETATM   24  C14 UNL     1      -4.188  -0.743   1.839  1.00  0.00     0.273 C 
HETATM   25  C15 UNL     1      -4.931  -1.793   1.084  1.00  0.00     0.032 C 
HETATM   26  C16 UNL     1      -5.639  -1.079  -0.034  1.00  0.00     0.032 C 
HETATM   27  C17 UNL     1      -5.374   0.389   0.166  1.00  0.00     0.273 C 
ENDBRANCH  22  23
ENDBRANCH  19  22
ENDBRANCH   5  18
TORSDOF 7
