REMARK  6 active torsions:
REMARK  status: ('A' for Active; 'I' for Inactive)
REMARK    1  A    between atoms: C2_2  and  C3_3 
REMARK       I    between atoms: C3_3  and  N1_5 
REMARK    2  A    between atoms: N1_5  and  C4_6 
REMARK    3  A    between atoms: C7_9  and  N2_10 
REMARK    4  A    between atoms: N3_15  and  C12_16 
REMARK    5  A    between atoms: C12_16  and  C13_17 
REMARK    6  A    between atoms: C25_31  and  O2_32 
ROOT
HETATM    1  C4  UNL     1      -3.345   1.313   0.040  1.00  0.00     0.069 A 
HETATM    2  C5  UNL     1      -2.325   0.539   0.549  1.00  0.00     0.050 A 
HETATM    3  C6  UNL     1      -2.368   0.147   1.857  1.00  0.00     0.041 A 
HETATM    4  C7  UNL     1      -1.286  -0.618   2.234  1.00  0.00     0.143 A 
HETATM    5  N4  UNL     1      -1.237  -1.052   3.523  1.00  0.00    -0.223 NA
HETATM    6  C22 UNL     1      -2.242  -0.723   4.386  1.00  0.00     0.236 A 
HETATM    7  N5  UNL     1      -3.293   0.028   3.993  1.00  0.00    -0.241 NA
HETATM    8  C23 UNL     1      -3.362   0.461   2.743  1.00  0.00     0.075 A 
HETATM    9  C24 UNL     1      -4.386   1.242   2.227  1.00  0.00     0.071 A 
HETATM   10  C25 UNL     1      -4.385   1.664   0.900  1.00  0.00     0.097 A 
ENDROOT
BRANCH   4  11
HETATM   11  N2  UNL     1      -0.166  -1.084   1.501  1.00  0.00    -0.337 N 
HETATM   12  C8  UNL     1       1.031  -0.439   1.988  1.00  0.00     0.102 A 
HETATM   13  C9  UNL     1       2.258  -0.622   1.525  1.00  0.00    -0.015 A 
HETATM   14  C10 UNL     1       3.657  -0.128   1.796  1.00  0.00     0.062 C 
HETATM   15  C19 UNL     1       2.454  -1.574   0.411  1.00  0.00     0.036 A 
HETATM   16  C11 UNL     1       4.560  -1.196   1.234  1.00  0.00     0.128 C 
HETATM   17  N3  UNL     1       3.834  -1.625   0.066  1.00  0.00    -0.376 N 
HETATM   18  C20 UNL     1       1.370  -2.167  -0.030  1.00  0.00     0.023 A 
HETATM   19  C21 UNL     1      -0.015  -2.018   0.429  1.00  0.00     0.159 A 
BRANCH  17  20
HETATM   20  C12 UNL     1       4.367  -2.034  -1.219  1.00  0.00     0.161 C 
BRANCH  20  21
HETATM   21  C13 UNL     1       5.160  -0.920  -1.843  1.00  0.00    -0.040 A 
HETATM   22  C14 UNL     1       6.527  -0.798  -1.597  1.00  0.00     0.009 A 
HETATM   23  C15 UNL     1       7.251   0.241  -2.181  1.00  0.00     0.001 A 
HETATM   24  C16 UNL     1       6.625   1.167  -3.016  1.00  0.00     0.000 A 
HETATM   25  C17 UNL     1       5.271   1.037  -3.253  1.00  0.00     0.001 A 
HETATM   26  C18 UNL     1       4.543   0.015  -2.681  1.00  0.00     0.009 A 
ENDBRANCH  20  21
ENDBRANCH  17  20
ENDBRANCH   4  11
BRANCH   1  27
HETATM   27  N1  UNL     1      -3.374   1.761  -1.309  1.00  0.00    -0.325 N 
HETATM   28  C3  UNL     1      -4.045   0.817  -2.127  1.00  0.00     0.221 C 
HETATM   29  O1  UNL     1      -4.552  -0.267  -1.759  1.00  0.00    -0.273 OA
HETATM   30  H6  UNL     1      -3.011   2.606  -1.763  1.00  0.00     0.169 HD
BRANCH  28  31
HETATM   31  C2  UNL     1      -4.271   0.939  -3.588  1.00  0.00     0.098 C 
HETATM   32  C1  UNL     1      -5.032  -0.321  -4.009  1.00  0.00     0.014 C 
ENDBRANCH  28  31
ENDBRANCH   1  27
BRANCH  10  33
HETATM   33  O2  UNL     1      -5.411   2.445   0.382  1.00  0.00    -0.354 OA
HETATM   34  C26 UNL     1      -6.473   2.814   1.224  1.00  0.00     0.210 C 
ENDBRANCH  10  33
TORSDOF 6
