REMARK  7 active torsions:
REMARK  status: ('A' for Active; 'I' for Inactive)
REMARK    1  A    between atoms: C2_2  and  C3_3 
REMARK       I    between atoms: C3_3  and  N1_5 
REMARK    2  A    between atoms: N1_5  and  C4_6 
REMARK    3  A    between atoms: C5_7  and  O2_8 
REMARK    4  A    between atoms: C9_15  and  N5_16 
REMARK    5  A    between atoms: N5_16  and  C10_17 
REMARK    6  A    between atoms: N6_25  and  C18_26 
REMARK    7  A    between atoms: C18_26  and  C19_27 
ROOT
HETATM    1  N5  UNL     1       1.422  -0.679   0.351  1.00  0.00    -0.354 N 
HETATM    2  H12 UNL     1       1.690  -0.474   1.363  1.00  0.00     0.162 HD
ENDROOT
BRANCH   1   3
HETATM    3  C9  UNL     1       2.590  -0.835  -0.500  1.00  0.00     0.217 A 
HETATM    4  C4  UNL     1       3.847  -0.607   0.353  1.00  0.00     0.220 C 
HETATM    5  C5  UNL     1       3.401   0.797   0.795  1.00  0.00     0.169 C 
HETATM    6  N2  UNL     1       2.795   1.330  -0.253  1.00  0.00    -0.206 NA
HETATM    7  C7  UNL     1       2.807   0.402  -1.357  1.00  0.00     0.183 A 
HETATM    8  N3  UNL     1       2.872  -0.088  -2.572  1.00  0.00    -0.222 NA
HETATM    9  C8  UNL     1       2.738  -1.502  -2.556  1.00  0.00     0.232 A 
HETATM   10  N4  UNL     1       2.577  -1.953  -1.337  1.00  0.00    -0.240 NA
BRANCH   4  11
HETATM   11  N1  UNL     1       4.947  -0.421  -0.524  1.00  0.00    -0.344 N 
HETATM   12  C3  UNL     1       6.144  -1.148  -0.287  1.00  0.00     0.218 C 
HETATM   13  O1  UNL     1       6.226  -1.937   0.675  1.00  0.00    -0.274 OA
HETATM   14  H6  UNL     1       4.853   0.244  -1.318  1.00  0.00     0.163 HD
BRANCH  12  15
HETATM   15  C2  UNL     1       7.284  -0.939  -1.218  1.00  0.00     0.098 C 
HETATM   16  C1  UNL     1       8.462  -1.796  -0.803  1.00  0.00     0.014 C 
ENDBRANCH  12  15
ENDBRANCH   4  11
BRANCH   5  17
HETATM   17  O2  UNL     1       3.530   1.499   2.001  1.00  0.00    -0.341 OA
HETATM   18  C6  UNL     1       3.426   2.898   1.985  1.00  0.00     0.211 C 
ENDBRANCH   5  17
ENDBRANCH   1   3
BRANCH   1  19
HETATM   19  C10 UNL     1       0.033  -0.740   0.127  1.00  0.00     0.030 A 
HETATM   20  C11 UNL     1      -0.577  -0.981  -1.084  1.00  0.00     0.031 A 
HETATM   21  C12 UNL     1      -1.935  -1.044  -1.309  1.00  0.00     0.032 A 
HETATM   22  C13 UNL     1      -2.749  -0.847  -0.216  1.00  0.00     0.037 A 
HETATM   23  C14 UNL     1      -2.206  -0.602   1.017  1.00  0.00    -0.028 A 
HETATM   24  N6  UNL     1      -4.159  -0.843  -0.085  1.00  0.00    -0.376 N 
HETATM   25  C15 UNL     1      -0.842  -0.552   1.175  1.00  0.00     0.038 A 
HETATM   26  C16 UNL     1      -3.316  -0.431   1.998  1.00  0.00     0.060 C 
HETATM   27  C17 UNL     1      -4.468  -1.109   1.303  1.00  0.00     0.128 C 
BRANCH  24  28
HETATM   28  C18 UNL     1      -5.116  -0.618  -1.124  1.00  0.00     0.161 C 
BRANCH  28  29
HETATM   29  C19 UNL     1      -5.944   0.567  -0.793  1.00  0.00    -0.040 A 
HETATM   30  C20 UNL     1      -7.129   0.531  -0.078  1.00  0.00     0.009 A 
HETATM   31  C21 UNL     1      -7.822   1.700   0.174  1.00  0.00     0.001 A 
HETATM   32  C22 UNL     1      -7.378   2.934  -0.265  1.00  0.00     0.000 A 
HETATM   33  C23 UNL     1      -6.183   2.921  -0.979  1.00  0.00     0.001 A 
HETATM   34  C24 UNL     1      -5.454   1.779  -1.256  1.00  0.00     0.009 A 
ENDBRANCH  28  29
ENDBRANCH  24  28
ENDBRANCH   1  19
TORSDOF 7
