REMARK  7 active torsions:
REMARK  status: ('A' for Active; 'I' for Inactive)
REMARK       I    between atoms: C2_2  and  N1_4 
REMARK    1  A    between atoms: C6_8  and  C7_9 
REMARK    2  A    between atoms: C10_12  and  N2_13 
REMARK    3  A    between atoms: N2_13  and  S1_14 
REMARK    4  A    between atoms: S1_14  and  C11_17 
REMARK    5  A    between atoms: C20_29  and  O4_30 
REMARK    6  A    between atoms: O4_30  and  C21_31 
REMARK    7  A    between atoms: C21_31  and  N6_32 
ROOT
HETATM    1  C1  UNL     1      -6.555  -2.364  -1.250  1.00  0.00     0.118 C 
HETATM    2  C2  UNL     1      -5.096  -2.083  -1.282  1.00  0.00     0.225 C 
HETATM    3  O1  UNL     1      -4.319  -2.767  -1.999  1.00  0.00    -0.273 OA
HETATM    4  N1  UNL     1      -4.508  -1.039  -0.516  1.00  0.00    -0.272 N 
HETATM    5  C3  UNL     1      -3.104  -0.831  -0.597  1.00  0.00     0.116 A 
HETATM    6  C4  UNL     1      -2.449   0.107   0.069  1.00  0.00     0.013 A 
HETATM    7  C5  UNL     1      -1.009   0.305  -0.028  1.00  0.00     0.047 A 
HETATM    8  C6  UNL     1      -0.348   1.229   0.626  1.00  0.00     0.062 A 
HETATM    9  N4  UNL     1      -1.173   2.036   1.453  1.00  0.00    -0.277 N 
HETATM   10  N5  UNL     1      -2.560   1.902   1.594  1.00  0.00    -0.174 NA
HETATM   11  C18 UNL     1      -3.205   0.992   0.949  1.00  0.00     0.092 A 
HETATM   12  C19 UNL     1      -4.649   0.796   1.048  1.00  0.00     0.091 A 
HETATM   13  C20 UNL     1      -5.214  -0.166   0.345  1.00  0.00     0.155 A 
HETATM   14  H15 UNL     1      -0.806   2.813   2.037  1.00  0.00     0.189 HD
ENDROOT
BRANCH   8  15
HETATM   15  C7  UNL     1       1.075   1.432   0.536  1.00  0.00     0.010 A 
HETATM   16  C8  UNL     1       1.894   0.663  -0.259  1.00  0.00     0.019 A 
HETATM   17  C9  UNL     1       3.249   0.951  -0.265  1.00  0.00     0.052 A 
HETATM   18  C10 UNL     1       3.863   1.958   0.469  1.00  0.00     0.136 A 
HETATM   19  N3  UNL     1       3.005   2.691   1.241  1.00  0.00    -0.242 NA
HETATM   20  C17 UNL     1       1.691   2.427   1.260  1.00  0.00     0.132 A 
BRANCH  18  21
HETATM   21  N2  UNL     1       5.262   2.186   0.399  1.00  0.00    -0.264 N 
HETATM   22  H8  UNL     1       5.547   3.004   1.022  1.00  0.00     0.180 HD
BRANCH  21  23
HETATM   23  S1  UNL     1       6.472   1.384  -0.488  1.00  0.00     0.264 S 
HETATM   24  O2  UNL     1       7.800   2.050  -0.207  1.00  0.00    -0.200 OA
HETATM   25  O3  UNL     1       6.218   1.467  -1.982  1.00  0.00    -0.200 OA
BRANCH  23  26
HETATM   26  C11 UNL     1       6.671  -0.293  -0.093  1.00  0.00     0.079 A 
HETATM   27  C12 UNL     1       7.464  -0.605   0.996  1.00  0.00     0.025 A 
HETATM   28  C13 UNL     1       7.745  -1.862   1.454  1.00  0.00     0.002 A 
HETATM   29  C14 UNL     1       7.191  -2.924   0.775  1.00  0.00     0.000 A 
HETATM   30  C15 UNL     1       6.377  -2.691  -0.336  1.00  0.00     0.002 A 
HETATM   31  C16 UNL     1       6.153  -1.387  -0.721  1.00  0.00     0.025 A 
ENDBRANCH  23  26
ENDBRANCH  21  23
ENDBRANCH  18  21
ENDBRANCH   8  15
BRANCH  13  32
HETATM   32  O4  UNL     1      -6.585  -0.319   0.467  1.00  0.00    -0.305 OA
BRANCH  32  33
HETATM   33  C21 UNL     1      -7.402   0.765  -0.003  1.00  0.00     0.443 C 
BRANCH  33  34
HETATM   34  N6  UNL     1      -8.796   0.430   0.195  1.00  0.00     0.101 N 
HETATM   35  H19 UNL     1      -9.347   0.724  -0.627  1.00  0.00     0.315 HD
HETATM   36  H20 UNL     1      -8.939  -0.584   0.374  1.00  0.00     0.315 HD
ENDBRANCH  33  34
ENDBRANCH  32  33
ENDBRANCH  13  32
TORSDOF 7
