REMARK  2 active torsions:
REMARK  status: ('A' for Active; 'I' for Inactive)
REMARK    1  A    between atoms: N1_9  and  C9_10 
REMARK    2  A    between atoms: C9_10  and  C10_11 
ROOT
HETATM    1  C1  UNL     1      -2.140   2.465  -1.456  1.00  0.00     0.050 C 
HETATM    2  C2  UNL     1      -2.942   1.260  -1.206  1.00  0.00    -0.037 C 
HETATM    3  C3  UNL     1      -3.182   0.429  -2.209  1.00  0.00    -0.009 C 
HETATM    4  C4  UNL     1      -2.981  -1.050  -1.976  1.00  0.00     0.035 C 
HETATM    5  C5  UNL     1      -1.701  -1.378  -1.356  1.00  0.00    -0.012 C 
HETATM    6  C6  UNL     1      -0.562  -1.623  -0.723  1.00  0.00    -0.038 C 
HETATM    7  C7  UNL     1       0.640  -2.443  -1.047  1.00  0.00     0.067 C 
HETATM    8  C8  UNL     1       1.742  -1.380  -0.829  1.00  0.00     0.279 C 
HETATM    9  N1  UNL     1       1.239  -0.568   0.260  1.00  0.00     0.111 N 
HETATM   10  C16 UNL     1      -0.031  -1.121   0.620  1.00  0.00     0.318 C 
HETATM   11  S1  UNL     1      -1.168   0.226   1.048  1.00  0.00    -0.099 SA
HETATM   12  C17 UNL     1      -2.474  -0.373   2.141  1.00  0.00     0.081 C 
HETATM   13  C18 UNL     1      -3.310   0.606   2.351  1.00  0.00     0.093 C 
HETATM   14  N2  UNL     1      -3.563   1.429   1.417  1.00  0.00    -0.246 NA
HETATM   15  C19 UNL     1      -3.501   0.909   0.100  1.00  0.00     0.059 C 
HETATM   16  C20 UNL     1      -4.161  -0.258  -0.081  1.00  0.00     0.006 C 
HETATM   17  C21 UNL     1      -4.112  -1.433  -1.033  1.00  0.00     0.042 C 
ENDROOT
BRANCH   9  18
HETATM   18  C9  UNL     1       2.148  -0.356   1.334  1.00  0.00     0.313 C 
BRANCH  18  19
HETATM   19  C10 UNL     1       3.366   0.367   0.902  1.00  0.00    -0.030 A 
HETATM   20  C11 UNL     1       3.266   1.759   0.932  1.00  0.00     0.009 A 
HETATM   21  C12 UNL     1       4.292   2.610   0.574  1.00  0.00     0.001 A 
HETATM   22  C13 UNL     1       5.486   2.105   0.163  1.00  0.00     0.000 A 
HETATM   23  C14 UNL     1       5.603   0.716   0.127  1.00  0.00     0.001 A 
HETATM   24  C15 UNL     1       4.578  -0.113   0.485  1.00  0.00     0.009 A 
ENDBRANCH  18  19
ENDBRANCH   9  18
TORSDOF 2
