REMARK  5 active torsions:
REMARK  status: ('A' for Active; 'I' for Inactive)
REMARK    1  A    between atoms: C2_2  and  C3_3 
REMARK    2  A    between atoms: C3_3  and  C4_4 
REMARK    3  A    between atoms: C13_16  and  O1_17 
REMARK    4  A    between atoms: C17_22  and  C19_24 
REMARK    5  A    between atoms: C19_24  and  C20_25 
ROOT
HETATM    1  C4  UNL     1      -1.602  -0.338  -0.838  1.00  0.00     0.070 A 
HETATM    2  C5  UNL     1      -2.983   0.222  -1.008  1.00  0.00     0.008 A 
HETATM    3  C6  UNL     1      -4.032  -0.086  -1.713  1.00  0.00     0.000 A 
HETATM    4  C7  UNL     1      -3.873  -1.259  -2.559  1.00  0.00     0.017 A 
HETATM    5  C8  UNL     1      -2.707  -1.907  -2.555  1.00  0.00     0.088 A 
HETATM    6  N1  UNL     1      -1.583  -1.528  -1.770  1.00  0.00    -0.356 N 
HETATM    7  C9  UNL     1      -0.476  -2.455  -2.058  1.00  0.00     0.275 C 
HETATM    8  N2  UNL     1       0.635  -2.314  -1.186  1.00  0.00    -0.263 NA
HETATM    9  C10 UNL     1       1.127  -3.103  -0.350  1.00  0.00     0.228 C 
HETATM   10  N3  UNL     1       1.986  -3.631   0.663  1.00  0.00    -0.254 NA
HETATM   11  C11 UNL     1       2.688  -2.901   1.463  1.00  0.00     0.120 C 
HETATM   12  C12 UNL     1       3.243  -1.703   2.071  1.00  0.00     0.053 C 
HETATM   13  C13 UNL     1       3.137  -0.436   1.729  1.00  0.00     0.064 C 
HETATM   14  C15 UNL     1       2.488   0.282   0.609  1.00  0.00     0.178 C 
HETATM   15  N4  UNL     1       1.408   0.979   0.993  1.00  0.00    -0.415 N 
HETATM   16  C16 UNL     1       0.661   1.953   0.433  1.00  0.00     0.123 C 
HETATM   17  C17 UNL     1      -0.075   1.840  -0.851  1.00  0.00    -0.025 C 
HETATM   18  C18 UNL     1       1.201   1.986  -1.864  1.00  0.00     0.017 C 
HETATM   19  C22 UNL     1      -0.633   0.617  -1.343  1.00  0.00     0.050 C 
HETATM   20  H20 UNL     1       1.387   1.041   2.058  1.00  0.00     0.153 HD
ENDROOT
BRANCH  17  21
HETATM   21  C19 UNL     1      -0.785   3.110  -1.211  1.00  0.00     0.015 C 
BRANCH  21  22
HETATM   22  C20 UNL     1      -1.781   3.643  -0.302  1.00  0.00    -0.010 C 
HETATM   23  C21 UNL     1      -3.014   3.859  -0.755  1.00  0.00     0.005 C 
ENDBRANCH  21  22
ENDBRANCH  17  21
BRANCH   1  24
HETATM   24  C3  UNL     1      -1.550  -0.862   0.509  1.00  0.00     0.004 C 
BRANCH  24  25
HETATM   25  C2  UNL     1      -1.252  -1.056   1.795  1.00  0.00    -0.032 C 
HETATM   26  C1  UNL     1      -1.614  -1.973   2.871  1.00  0.00     0.036 C 
ENDBRANCH  24  25
ENDBRANCH   1  24
BRANCH  13  27
HETATM   27  O1  UNL     1       3.785   0.470   2.561  1.00  0.00    -0.359 OA
HETATM   28  C14 UNL     1       5.110   0.322   3.008  1.00  0.00     0.209 C 
ENDBRANCH  13  27
TORSDOF 5
