REMARK  7 active torsions:
REMARK  status: ('A' for Active; 'I' for Inactive)
REMARK    1  A    between atoms: N1_2  and  C2_3 
REMARK    2  A    between atoms: C7_8  and  N2_9 
REMARK    3  A    between atoms: C12_14  and  N3_15 
REMARK    4  A    between atoms: N3_15  and  C13_16 
REMARK    5  A    between atoms: C17_22  and  C18_23 
REMARK    6  A    between atoms: C18_23  and  C19_24 
REMARK    7  A    between atoms: C19_24  and  O1_25 
ROOT
HETATM    1  N2  UNL     1      -3.207  -0.123   1.009  1.00  0.00    -0.344 N 
HETATM    2  C8  UNL     1      -2.984  -0.075   2.463  1.00  0.00     0.134 C 
HETATM    3  C9  UNL     1      -1.797  -1.040   2.563  1.00  0.00     0.061 C 
HETATM    4  C10 UNL     1      -0.955  -0.632   1.383  1.00  0.00    -0.028 A 
HETATM    5  C11 UNL     1       0.384  -0.694   1.076  1.00  0.00     0.038 A 
HETATM    6  C12 UNL     1       0.880  -0.228  -0.120  1.00  0.00     0.030 A 
HETATM    7  C21 UNL     1       0.010   0.310  -1.020  1.00  0.00     0.031 A 
HETATM    8  C22 UNL     1      -1.336   0.379  -0.724  1.00  0.00     0.032 A 
HETATM    9  C23 UNL     1      -1.865  -0.086   0.480  1.00  0.00     0.041 A 
ENDROOT
BRANCH   6  10
HETATM   10  N3  UNL     1       2.273  -0.308  -0.408  1.00  0.00    -0.363 N 
HETATM   11  H14 UNL     1       2.630   0.052  -1.320  1.00  0.00     0.162 HD
BRANCH  10  12
HETATM   12  C13 UNL     1       3.152  -0.878   0.552  1.00  0.00     0.251 A 
HETATM   13  N4  UNL     1       2.850  -2.271   0.890  1.00  0.00    -0.252 NA
HETATM   14  C14 UNL     1       3.776  -3.149   0.887  1.00  0.00     0.229 A 
HETATM   15  N5  UNL     1       5.178  -3.027   0.593  1.00  0.00    -0.246 NA
HETATM   16  C15 UNL     1       5.563  -1.812   0.275  1.00  0.00     0.050 A 
HETATM   17  C16 UNL     1       6.986  -1.580  -0.045  1.00  0.00     0.072 C 
HETATM   18  C17 UNL     1       4.566  -0.786   0.262  1.00  0.00     0.053 A 
BRANCH  18  19
HETATM   19  C18 UNL     1       5.015   0.417  -0.067  1.00  0.00    -0.107 C 
BRANCH  19  20
HETATM   20  C19 UNL     1       5.375   1.534  -0.685  1.00  0.00     0.232 C 
BRANCH  20  21
HETATM   21  O1  UNL     1       5.241   1.594  -2.052  1.00  0.00    -0.376 OA
HETATM   22  C20 UNL     1       6.297   2.218  -2.768  1.00  0.00     0.203 C 
ENDBRANCH  20  21
ENDBRANCH  19  20
ENDBRANCH  18  19
ENDBRANCH  10  12
ENDBRANCH   6  10
BRANCH   1  23
HETATM   23  C7  UNL     1      -4.323  -0.190   0.129  1.00  0.00     0.061 A 
HETATM   24  C2  UNL     1      -5.305   0.779   0.085  1.00  0.00     0.054 A 
HETATM   25  C3  UNL     1      -6.372   0.676  -0.783  1.00  0.00     0.031 A 
HETATM   26  C4  UNL     1      -6.505  -0.396  -1.640  1.00  0.00     0.002 A 
HETATM   27  C5  UNL     1      -5.556  -1.390  -1.639  1.00  0.00     0.002 A 
HETATM   28  C6  UNL     1      -4.506  -1.255  -0.761  1.00  0.00     0.032 A 
BRANCH  24  29
HETATM   29  N1  UNL     1      -5.231   1.912   0.941  1.00  0.00    -0.392 N 
HETATM   30  C1  UNL     1      -6.137   3.045   1.069  1.00  0.00     0.146 C 
HETATM   31  H4  UNL     1      -4.461   2.040   1.603  1.00  0.00     0.159 HD
ENDBRANCH  24  29
ENDBRANCH   1  23
TORSDOF 7
