REMARK  5 active torsions:
REMARK  status: ('A' for Active; 'I' for Inactive)
REMARK    1  A    between atoms: C2_2  and  C3_3 
REMARK       I    between atoms: C3_3  and  N1_5 
REMARK    2  A    between atoms: N1_5  and  C4_6 
REMARK    3  A    between atoms: C4_6  and  C5_7 
REMARK    4  A    between atoms: C5_7  and  C6_8 
REMARK    5  A    between atoms: C6_8  and  C7_9 
ROOT
HETATM    1  C7  UNL     1      -0.217  -0.038  -0.622  1.00  0.00     0.124 C 
HETATM    2  N2  UNL     1       0.757  -0.504  -1.422  1.00  0.00    -0.225 NA
HETATM    3  C8  UNL     1       1.114  -1.392  -2.196  1.00  0.00     0.234 C 
HETATM    4  N3  UNL     1       2.349  -0.851  -2.434  1.00  0.00    -0.254 NA
HETATM    5  C9  UNL     1       3.137  -0.227  -3.078  1.00  0.00     0.120 C 
HETATM    6  C10 UNL     1       4.492   0.257  -3.136  1.00  0.00     0.044 C 
HETATM    7  C11 UNL     1       5.655   0.200  -2.396  1.00  0.00     0.142 C 
HETATM    8  O2  UNL     1       5.236  -0.586  -1.302  1.00  0.00    -0.335 OA
HETATM    9  C12 UNL     1       5.630  -0.522  -0.001  1.00  0.00     0.139 C 
HETATM   10  C13 UNL     1       5.121  -0.245   1.226  1.00  0.00     0.024 C 
HETATM   11  C14 UNL     1       3.713   0.155   1.578  1.00  0.00     0.157 A 
HETATM   12  C15 UNL     1       2.453   0.485   1.657  1.00  0.00     0.074 A 
HETATM   13 CL1  UNL     1       3.380   0.096   0.281  1.00  0.00    -0.154 Cl
HETATM   14  N4  UNL     1       1.722   0.814   2.813  1.00  0.00    -0.400 NA
HETATM   15  C16 UNL     1       0.631   0.110   3.107  1.00  0.00     0.319 C 
HETATM   16  C17 UNL     1       0.640  -0.824   1.954  1.00  0.00     0.150 C 
HETATM   17  N5  UNL     1       0.149  -0.477   0.697  1.00  0.00    -0.373 N 
HETATM   18  H20 UNL     1      -0.831  -0.939   0.651  1.00  0.00     0.161 HD
ENDROOT
BRANCH   1  19
HETATM   19  C6  UNL     1      -1.343   0.601  -1.002  1.00  0.00     0.051 C 
BRANCH  19  20
HETATM   20  C5  UNL     1      -2.102   0.918   0.180  1.00  0.00     0.021 C 
BRANCH  20  21
HETATM   21  C4  UNL     1      -3.101   1.428  -0.452  1.00  0.00     0.091 C 
BRANCH  21  22
HETATM   22  N1  UNL     1      -4.213   1.952   0.239  1.00  0.00    -0.337 N 
HETATM   23  C3  UNL     1      -4.872   0.713   0.412  1.00  0.00     0.221 C 
HETATM   24  O1  UNL     1      -4.476  -0.446   0.013  1.00  0.00    -0.273 OA
HETATM   25  H6  UNL     1      -4.649   2.893   0.534  1.00  0.00     0.168 HD
BRANCH  23  26
HETATM   26  C2  UNL     1      -6.192   0.750   1.139  1.00  0.00     0.098 C 
HETATM   27  C1  UNL     1      -7.151  -0.196   0.344  1.00  0.00     0.014 C 
ENDBRANCH  23  26
ENDBRANCH  21  22
ENDBRANCH  20  21
ENDBRANCH  19  20
ENDBRANCH   1  19
TORSDOF 5
