REMARK  8 active torsions:
REMARK  status: ('A' for Active; 'I' for Inactive)
REMARK    1  A    between atoms: C2_2  and  C3_3 
REMARK       I    between atoms: C3_3  and  N1_5 
REMARK    2  A    between atoms: N1_5  and  C4_6 
REMARK    3  A    between atoms: C7_9  and  N2_10 
REMARK    4  A    between atoms: C10_14  and  C11_15 
REMARK    5  A    between atoms: C13_17  and  N4_18 
REMARK    6  A    between atoms: N4_18  and  S1_19 
REMARK    7  A    between atoms: S1_19  and  C14_22 
REMARK    8  A    between atoms: C19_29  and  O4_30 
ROOT
HETATM    1  C4  UNL     1       2.446   0.952   0.187  1.00  0.00     0.069 A 
HETATM    2  C5  UNL     1       1.331   0.145   0.081  1.00  0.00     0.050 A 
HETATM    3  C6  UNL     1       1.138  -0.542  -1.098  1.00  0.00     0.041 A 
HETATM    4  C7  UNL     1       0.001  -1.321  -1.114  1.00  0.00     0.141 A 
HETATM    5  N5  UNL     1      -0.289  -2.044  -2.230  1.00  0.00    -0.224 NA
HETATM    6  C16 UNL     1       0.538  -1.990  -3.308  1.00  0.00     0.236 A 
HETATM    7  N6  UNL     1       1.663  -1.218  -3.291  1.00  0.00    -0.241 NA
HETATM    8  C17 UNL     1       1.967  -0.499  -2.200  1.00  0.00     0.075 A 
HETATM    9  C18 UNL     1       3.067   0.309  -2.071  1.00  0.00     0.071 A 
HETATM   10  C19 UNL     1       3.317   1.029  -0.906  1.00  0.00     0.097 A 
ENDROOT
BRANCH   4  11
HETATM   11  N2  UNL     1      -0.982  -1.517  -0.104  1.00  0.00    -0.340 N 
HETATM   12  C8  UNL     1      -0.935  -2.052   1.269  1.00  0.00     0.172 C 
HETATM   13  C9  UNL     1      -2.157  -2.902   1.507  1.00  0.00     0.103 C 
HETATM   14  N3  UNL     1      -3.092  -3.065   0.666  1.00  0.00    -0.295 NA
HETATM   15  C10 UNL     1      -3.074  -2.445  -0.608  1.00  0.00     0.145 C 
HETATM   16  C13 UNL     1      -2.348  -1.118  -0.472  1.00  0.00     0.198 C 
BRANCH  15  17
HETATM   17  C11 UNL     1      -4.445  -2.298  -1.217  1.00  0.00     0.026 C 
HETATM   18  C12 UNL     1      -5.015  -3.695  -1.354  1.00  0.00     0.007 C 
ENDBRANCH  15  17
BRANCH  16  19
HETATM   19  N4  UNL     1      -2.891  -0.393   0.649  1.00  0.00    -0.195 NA
HETATM   20  H18 UNL     1      -3.732  -0.865   1.065  1.00  0.00     0.141 HD
BRANCH  19  21
HETATM   21  S1  UNL     1      -3.441   1.182   0.204  1.00  0.00     0.210 S 
HETATM   22  O2  UNL     1      -4.013   1.915   1.379  1.00  0.00    -0.211 OA
HETATM   23  O3  UNL     1      -4.463   1.148  -0.881  1.00  0.00    -0.211 OA
BRANCH  21  24
HETATM   24  C14 UNL     1      -2.081   2.170  -0.423  1.00  0.00     0.153 C 
HETATM   25  C15 UNL     1      -2.532   3.538  -0.815  1.00  0.00     0.022 C 
ENDBRANCH  21  24
ENDBRANCH  19  21
ENDBRANCH  16  19
ENDBRANCH   4  11
BRANCH   1  26
HETATM   26  N1  UNL     1       2.743   1.704   1.353  1.00  0.00    -0.325 N 
HETATM   27  C3  UNL     1       3.516   1.230   2.429  1.00  0.00     0.221 C 
HETATM   28  O1  UNL     1       4.096   0.143   2.645  1.00  0.00    -0.273 OA
HETATM   29  H6  UNL     1       2.348   2.664   1.386  1.00  0.00     0.169 HD
BRANCH  27  30
HETATM   30  C2  UNL     1       3.741   2.136   3.586  1.00  0.00     0.098 C 
HETATM   31  C1  UNL     1       4.592   1.475   4.656  1.00  0.00     0.014 C 
ENDBRANCH  27  30
ENDBRANCH   1  26
BRANCH  10  32
HETATM   32  O4  UNL     1       4.434   1.848  -0.777  1.00  0.00    -0.354 OA
HETATM   33  C20 UNL     1       5.321   1.934  -1.873  1.00  0.00     0.210 C 
ENDBRANCH  10  32
TORSDOF 8
