REMARK  3 active torsions:
REMARK  status: ('A' for Active; 'I' for Inactive)
REMARK    1  A    between atoms: C4_5  and  C5_6 
REMARK    2  A    between atoms: C19_26  and  N5_27 
REMARK       I    between atoms: N5_27  and  C20_28 
REMARK    3  A    between atoms: C20_28  and  C21_30 
ROOT
HETATM    1  C1  UNL     1      -5.628   0.885   1.324  1.00  0.00     0.102 C 
HETATM    2  S1  UNL     1      -4.392   0.623   0.371  1.00  0.00    -0.079 SA
HETATM    3  C2  UNL     1      -3.267   1.968   0.378  1.00  0.00     0.058 C 
HETATM    4  C3  UNL     1      -2.173   2.600   0.067  1.00  0.00     0.022 C 
HETATM    5  C4  UNL     1      -1.231   3.693   0.058  1.00  0.00     0.000 C 
HETATM    6  C6  UNL     1      -0.130   3.495  -0.645  1.00  0.00     0.014 C 
HETATM    7  C7  UNL     1       0.317   2.340  -1.440  1.00  0.00     0.204 C 
HETATM    8  O2  UNL     1       1.539   1.862  -0.885  1.00  0.00    -0.345 OA
HETATM    9  C8  UNL     1       1.606   0.545  -0.391  1.00  0.00     0.097 C 
HETATM   10  C9  UNL     1       0.639  -0.155  -0.909  1.00  0.00     0.068 C 
HETATM   11  C10 UNL     1       0.549  -1.084  -2.010  1.00  0.00     0.064 C 
HETATM   12  N1  UNL     1       0.426  -1.605  -3.174  1.00  0.00    -0.262 NA
HETATM   13  C11 UNL     1      -0.502  -2.738  -3.285  1.00  0.00     0.134 C 
HETATM   14  C12 UNL     1      -1.131  -3.113  -2.138  1.00  0.00     0.113 C 
HETATM   15  N2  UNL     1      -0.719  -2.591  -0.841  1.00  0.00    -0.327 N 
HETATM   16  C13 UNL     1      -1.725  -2.525   0.162  1.00  0.00     0.123 A 
HETATM   17  C14 UNL     1      -2.075  -3.263   1.199  1.00  0.00     0.051 A 
HETATM   18  C15 UNL     1      -3.182  -2.841   2.043  1.00  0.00     0.024 A 
HETATM   19  C16 UNL     1      -3.868  -1.754   1.839  1.00  0.00     0.124 A 
HETATM   20  N3  UNL     1      -3.565  -0.896   0.747  1.00  0.00    -0.246 N 
HETATM   21  N4  UNL     1      -2.504  -1.320  -0.049  1.00  0.00    -0.274 N 
HETATM   22  C17 UNL     1       0.705  -2.227  -1.006  1.00  0.00     0.168 C 
HETATM   23  C18 UNL     1       1.356  -1.714   0.186  1.00  0.00     0.037 C 
HETATM   24  C19 UNL     1       2.087  -0.597   0.371  1.00  0.00     0.067 C 
HETATM   25  H15 UNL     1      -2.332  -0.648  -0.862  1.00  0.00     0.189 HD
ENDROOT
BRANCH  24  26
HETATM   26  N5  UNL     1       3.212  -0.582   1.236  1.00  0.00    -0.325 N 
HETATM   27  C20 UNL     1       4.353  -0.224   0.468  1.00  0.00     0.221 C 
HETATM   28  O3  UNL     1       4.413   0.045  -0.773  1.00  0.00    -0.273 OA
HETATM   29  H18 UNL     1       3.426  -0.754   2.240  1.00  0.00     0.169 HD
BRANCH  27  30
HETATM   30  C21 UNL     1       5.766  -0.072   0.913  1.00  0.00     0.098 C 
HETATM   31  C22 UNL     1       6.539   0.338  -0.344  1.00  0.00     0.014 C 
ENDBRANCH  27  30
ENDBRANCH  24  26
BRANCH   5  32
HETATM   32  C5  UNL     1      -1.524   4.909   0.794  1.00  0.00     0.269 C 
HETATM   33  O1  UNL     1      -2.617   4.960   1.432  1.00  0.00    -0.301 OA
ENDBRANCH   5  32
TORSDOF 3
