REMARK  6 active torsions:
REMARK  status: ('A' for Active; 'I' for Inactive)
REMARK    1  A    between atoms: C2_2  and  C3_3 
REMARK    2  A    between atoms: C3_3  and  P1_4 
REMARK    3  A    between atoms: P1_4  and  C4_5 
REMARK    4  A    between atoms: N1_10  and  C9_11 
REMARK    5  A    between atoms: C9_11  and  C10_12 
REMARK    6  A    between atoms: C15_18  and  C16_19 
ROOT
HETATM    1  C4  UNL     1       2.436   0.313   0.753  1.00  0.00     0.140 C 
HETATM    2  C5  UNL     1       2.381  -1.205   0.797  1.00  0.00    -0.001 C 
HETATM    3  C6  UNL     1       1.110  -1.635   0.443  1.00  0.00    -0.027 C 
HETATM    4  C7  UNL     1       0.042  -0.763   0.102  1.00  0.00     0.057 C 
HETATM    5  C8  UNL     1      -1.315  -0.552   0.571  1.00  0.00     0.277 C 
HETATM    6  N1  UNL     1      -1.735   0.626  -0.184  1.00  0.00     0.105 NA
HETATM    7  C15 UNL     1      -0.955   1.779  -0.189  1.00  0.00     0.281 C 
HETATM    8  C17 UNL     1       0.145   2.093  -1.036  1.00  0.00     0.028 C 
HETATM    9  C18 UNL     1       1.449   1.886  -1.385  1.00  0.00     0.082 C 
HETATM   10  N3  UNL     1       1.967   0.878  -0.479  1.00  0.00    -0.387 N 
HETATM   11  H22 UNL     1       2.051   0.123  -1.228  1.00  0.00     0.160 HD
ENDROOT
BRANCH   6  12
HETATM   12  C9  UNL     1      -3.076   0.921   0.255  1.00  0.00     0.332 C 
BRANCH  12  13
HETATM   13  C10 UNL     1      -4.033  -0.189   0.008  1.00  0.00     0.062 A 
HETATM   14  C11 UNL     1      -4.367  -1.234   0.838  1.00  0.00     0.029 A 
HETATM   15  C12 UNL     1      -5.276  -2.189   0.466  1.00  0.00     0.003 A 
HETATM   16  C13 UNL     1      -5.886  -2.123  -0.766  1.00  0.00     0.019 A 
HETATM   17  C14 UNL     1      -5.521  -1.062  -1.560  1.00  0.00     0.117 A 
HETATM   18  N2  UNL     1      -4.633  -0.130  -1.195  1.00  0.00    -0.264 NA
ENDBRANCH  12  13
ENDBRANCH   6  12
BRANCH   7  19
HETATM   19  C16 UNL     1      -0.676   2.325   1.209  1.00  0.00     0.431 C 
HETATM   20  O1  UNL     1      -0.118   3.211   1.842  1.00  0.00    -0.428 OA
ENDBRANCH   7  19
BRANCH   1  21
HETATM   21  P1  UNL     1       4.279   0.705   0.737  1.00  0.00    -0.032 P 
BRANCH  21  22
HETATM   22  C3  UNL     1       5.213  -0.222  -0.277  1.00  0.00     0.013 C 
BRANCH  22  23
HETATM   23  C2  UNL     1       6.650   0.118  -0.259  1.00  0.00    -0.009 C 
HETATM   24  C1  UNL     1       7.570  -0.490  -0.985  1.00  0.00     0.011 C 
ENDBRANCH  22  23
ENDBRANCH  21  22
ENDBRANCH   1  21
TORSDOF 6
