REMARK  5 active torsions:
REMARK  status: ('A' for Active; 'I' for Inactive)
REMARK    1  A    between atoms: C3_3  and  O1_4 
REMARK    2  A    between atoms: O1_4  and  C4_5 
REMARK    3  A    between atoms: N1_9  and  C8_10 
REMARK    4  A    between atoms: C11_14  and  C12_15 
REMARK    5  A    between atoms: C17_21  and  N3_22 
ROOT
HETATM    1  C4  UNL     1       1.795   2.029  -0.480  1.00  0.00     0.203 C 
HETATM    2  C5  UNL     1       1.018   3.003  -1.345  1.00  0.00     0.007 C 
HETATM    3  C6  UNL     1      -0.262   3.312  -1.181  1.00  0.00    -0.009 C 
HETATM    4  C7  UNL     1      -0.797   2.533   0.000  1.00  0.00     0.150 C 
HETATM    5  N1  UNL     1      -0.430   1.181  -0.057  1.00  0.00    -0.342 N 
HETATM    6  C17 UNL     1       0.915   0.834  -0.309  1.00  0.00     0.350 C 
ENDROOT
BRANCH   5   7
HETATM    7  C8  UNL     1      -1.409   0.197  -0.325  1.00  0.00     0.195 A 
HETATM    8  C9  UNL     1      -2.150   0.269  -1.581  1.00  0.00     0.146 A 
HETATM    9  N2  UNL     1      -3.252   0.339  -0.986  1.00  0.00    -0.288 NA
HETATM   10  C10 UNL     1      -2.727   0.288   0.289  1.00  0.00     0.198 A 
HETATM   11  C11 UNL     1      -2.304  -0.924   0.982  1.00  0.00     0.159 C 
HETATM   12  O2  UNL     1      -1.200  -1.055   0.183  1.00  0.00    -0.346 OA
BRANCH  11  13
HETATM   13  C12 UNL     1      -3.230  -2.110   1.062  1.00  0.00     0.017 C 
HETATM   14  C13 UNL     1      -3.612  -2.678  -0.255  1.00  0.00     0.007 C 
HETATM   15  C14 UNL     1      -5.025  -2.261  -0.524  1.00  0.00     0.000 C 
HETATM   16  C15 UNL     1      -5.499  -1.423   0.612  1.00  0.00     0.000 C 
HETATM   17  C16 UNL     1      -4.515  -1.632   1.714  1.00  0.00     0.007 C 
ENDBRANCH  11  13
ENDBRANCH   5   7
BRANCH   6  18
HETATM   18  N3  UNL     1       1.450   0.019   0.763  1.00  0.00     0.104 N 
HETATM   19  H22 UNL     1       1.779   0.531   1.586  1.00  0.00     0.315 HD
HETATM   20  H23 UNL     1       2.186  -0.651   0.468  1.00  0.00     0.315 HD
ENDBRANCH   6  18
BRANCH   1  21
HETATM   21  O1  UNL     1       3.039   1.753  -1.060  1.00  0.00    -0.340 OA
BRANCH  21  22
HETATM   22  C3  UNL     1       3.987   1.038  -0.355  1.00  0.00     0.069 C 
HETATM   23  C2  UNL     1       4.500   0.074  -1.110  1.00  0.00    -0.048 C 
HETATM   24  C1  UNL     1       3.977  -0.046  -2.509  1.00  0.00     0.046 C 
HETATM   25  C20 UNL     1       5.555  -0.856  -0.596  1.00  0.00     0.082 C 
HETATM   26  C19 UNL     1       5.203  -1.183   0.812  1.00  0.00     0.088 C 
HETATM   27  N4  UNL     1       4.741  -0.234   1.510  1.00  0.00    -0.299 NA
HETATM   28  C18 UNL     1       4.550   1.099   1.017  1.00  0.00     0.212 C 
ENDBRANCH  21  22
ENDBRANCH   1  21
TORSDOF 5
