REMARK  1 active torsions:
REMARK  status: ('A' for Active; 'I' for Inactive)
REMARK    1  A    between atoms: O1_2  and  C2_3 
ROOT
HETATM    1  C2  UNL     1       3.048  -0.300  -1.909  1.00  0.00     0.098 A 
HETATM    2  C3  UNL     1       3.942   0.466  -1.178  1.00  0.00     0.071 A 
HETATM    3  C4  UNL     1       3.496   1.427  -0.299  1.00  0.00     0.075 A 
HETATM    4  N1  UNL     1       4.527   2.046   0.346  1.00  0.00    -0.241 NA
HETATM    5  C5  UNL     1       4.214   3.001   1.276  1.00  0.00     0.236 A 
HETATM    6  N2  UNL     1       2.912   3.269   1.496  1.00  0.00    -0.224 NA
HETATM    7  C6  UNL     1       1.892   2.676   0.876  1.00  0.00     0.141 A 
HETATM    8  C7  UNL     1       2.199   1.725  -0.056  1.00  0.00     0.041 A 
HETATM    9  C8  UNL     1       1.409   0.916  -0.829  1.00  0.00     0.052 A 
HETATM   10  C9  UNL     1       1.700  -0.099  -1.756  1.00  0.00     0.086 A 
HETATM   11  N3  UNL     1       0.395  -0.520  -2.021  1.00  0.00    -0.277 N 
HETATM   12  C10 UNL     1      -0.393  -0.472  -2.961  1.00  0.00     0.172 A 
HETATM   13  C11 UNL     1      -1.427  -1.186  -2.171  1.00  0.00     0.141 A 
HETATM   14  O2  UNL     1      -0.324  -1.018  -1.590  1.00  0.00     0.000 OA
HETATM   15  N4  UNL     1      -2.195  -1.865  -1.231  1.00  0.00    -0.283 NA
HETATM   16  C12 UNL     1      -1.885  -2.471  -0.166  1.00  0.00     0.112 C 
HETATM   17  C13 UNL     1      -1.661  -3.211   1.099  1.00  0.00     0.032 C 
HETATM   18  C14 UNL     1      -2.554  -3.034   2.064  1.00  0.00    -0.008 C 
HETATM   19  C15 UNL     1      -3.699  -2.605   1.546  1.00  0.00     0.103 C 
HETATM   20  N5  UNL     1      -3.311  -1.250   1.652  1.00  0.00    -0.359 N 
HETATM   21  C16 UNL     1      -4.389  -0.244   1.763  1.00  0.00     0.129 C 
HETATM   22  C17 UNL     1      -3.923   0.646   0.592  1.00  0.00     0.038 C 
HETATM   23  C18 UNL     1      -2.505   0.848   1.069  1.00  0.00     0.025 A 
HETATM   24  C19 UNL     1      -1.779   1.978   0.857  1.00  0.00     0.061 A 
HETATM   25  C20 UNL     1      -0.477   2.020   1.375  1.00  0.00     0.003 A 
HETATM   26  C21 UNL     1      -0.947   0.788   1.743  1.00  0.00     0.069 A 
HETATM   27  C22 UNL     1      -0.952  -0.435   2.299  1.00  0.00     0.011 A 
HETATM   28  C23 UNL     1      -2.235  -0.335   1.719  1.00  0.00     0.018 A 
HETATM   29  N6  UNL     1       0.546   3.039   1.286  1.00  0.00    -0.346 N 
HETATM   30  H18 UNL     1       0.201   3.967   1.537  1.00  0.00     0.167 HD
ENDROOT
BRANCH   1  31
HETATM   31  O1  UNL     1       3.082  -1.316  -2.848  1.00  0.00    -0.354 OA
HETATM   32  C1  UNL     1       4.307  -1.834  -3.300  1.00  0.00     0.210 C 
ENDBRANCH   1  31
TORSDOF 1
