REMARK  8 active torsions:
REMARK  status: ('A' for Active; 'I' for Inactive)
REMARK    1  A    between atoms: C2_2  and  C3_3 
REMARK       I    between atoms: C3_3  and  N1_5 
REMARK    2  A    between atoms: N1_5  and  C4_6 
REMARK    3  A    between atoms: C4_6  and  O2_7 
REMARK    4  A    between atoms: C4_6  and  C5_8 
REMARK    5  A    between atoms: C5_8  and  C6_9 
REMARK    6  A    between atoms: N3_14  and  C10_15 
REMARK    7  A    between atoms: N4_23  and  C18_24 
REMARK    8  A    between atoms: C18_24  and  C19_25 
ROOT
HETATM    1  C6  UNL     1       3.334  -2.357  -0.650  1.00  0.00     0.139 C 
HETATM    2  C7  UNL     1       3.975  -3.580  -0.084  1.00  0.00     0.036 C 
HETATM    3  C8  UNL     1       3.204  -4.548   0.409  1.00  0.00     0.079 C 
HETATM    4  N2  UNL     1       2.177  -4.902  -0.292  1.00  0.00    -0.268 NA
HETATM    5  C9  UNL     1       1.925  -4.172  -1.547  1.00  0.00     0.275 C 
HETATM    6  N3  UNL     1       2.021  -2.758  -1.141  1.00  0.00    -0.351 N 
ENDROOT
BRANCH   6   7
HETATM    7  C10 UNL     1       0.825  -2.002  -1.280  1.00  0.00     0.033 A 
HETATM    8  C11 UNL     1       0.798  -0.642  -1.514  1.00  0.00     0.031 A 
HETATM    9  C12 UNL     1      -0.340   0.127  -1.633  1.00  0.00     0.032 A 
HETATM   10  C13 UNL     1      -1.532  -0.551  -1.502  1.00  0.00     0.037 A 
HETATM   11  C14 UNL     1      -1.619  -1.908  -1.267  1.00  0.00    -0.028 A 
HETATM   12  N4  UNL     1      -2.877  -0.094  -1.551  1.00  0.00    -0.374 N 
HETATM   13  C15 UNL     1      -0.408  -2.605  -1.161  1.00  0.00     0.038 A 
HETATM   14  C16 UNL     1      -3.033  -2.360  -1.186  1.00  0.00     0.060 C 
HETATM   15  C17 UNL     1      -3.779  -1.070  -0.979  1.00  0.00     0.128 C 
BRANCH  12  16
HETATM   16  C18 UNL     1      -3.408   1.174  -2.077  1.00  0.00     0.182 C 
BRANCH  16  17
HETATM   17  C19 UNL     1      -4.099   1.861  -0.947  1.00  0.00     0.052 A 
HETATM   18  C20 UNL     1      -5.446   1.581  -0.765  1.00  0.00     0.029 A 
HETATM   19  C21 UNL     1      -6.170   2.165   0.259  1.00  0.00     0.003 A 
HETATM   20  C22 UNL     1      -5.504   3.053   1.114  1.00  0.00     0.019 A 
HETATM   21  C23 UNL     1      -4.164   3.288   0.877  1.00  0.00     0.117 A 
HETATM   22  N5  UNL     1      -3.459   2.712  -0.131  1.00  0.00    -0.264 NA
ENDBRANCH  16  17
ENDBRANCH  12  16
ENDBRANCH   6   7
BRANCH   1  23
HETATM   23  C5  UNL     1       3.322  -1.252   0.305  1.00  0.00     0.058 C 
BRANCH  23  24
HETATM   24  C4  UNL     1       2.865  -0.288   1.127  1.00  0.00     0.140 C 
BRANCH  24  25
HETATM   25  N1  UNL     1       3.628   0.634   1.943  1.00  0.00    -0.308 N 
HETATM   26  C3  UNL     1       3.607   2.039   1.780  1.00  0.00     0.223 C 
HETATM   27  O1  UNL     1       2.895   2.558   0.887  1.00  0.00    -0.273 OA
HETATM   28  H6  UNL     1       4.258   0.288   2.726  1.00  0.00     0.170 HD
BRANCH  26  29
HETATM   29  C2  UNL     1       4.436   2.919   2.674  1.00  0.00     0.099 C 
HETATM   30  C1  UNL     1       4.278   4.356   2.316  1.00  0.00     0.014 C 
ENDBRANCH  26  29
ENDBRANCH  24  25
BRANCH  24  31
HETATM   31  O2  UNL     1       1.560   0.135   1.466  1.00  0.00    -0.346 OA
HETATM   32  H7  UNL     1       1.162  -0.179   2.338  1.00  0.00     0.219 HD
ENDBRANCH  24  31
ENDBRANCH  23  24
ENDBRANCH   1  23
TORSDOF 8
