REMARK  3 active torsions:
REMARK  status: ('A' for Active; 'I' for Inactive)
REMARK    1  A    between atoms: C2_2  and  C3_3 
REMARK    2  A    between atoms: C2_2  and  N1_5 
REMARK    3  A    between atoms: N1_5  and  C4_6 
ROOT
HETATM    1  C4  UNL     1       1.345  -0.133   0.215  1.00  0.00     0.040 C 
HETATM    2  C5  UNL     1       0.516   0.694  -0.374  1.00  0.00     0.046 C 
HETATM    3  C6  UNL     1       0.209   2.083  -0.599  1.00  0.00     0.030 A 
HETATM    4  C7  UNL     1       1.202   2.680  -1.342  1.00  0.00     0.133 A 
HETATM    5  N2  UNL     1       1.289   3.974  -1.764  1.00  0.00    -0.253 NA
HETATM    6  C8  UNL     1       0.227   4.735  -1.370  1.00  0.00     0.234 A 
HETATM    7  N3  UNL     1      -0.756   4.186  -0.647  1.00  0.00    -0.224 NA
HETATM    8  C9  UNL     1      -0.824   2.909  -0.241  1.00  0.00     0.141 A 
HETATM    9  N4  UNL     1      -2.054   2.755   0.510  1.00  0.00    -0.340 N 
HETATM   10  C10 UNL     1      -2.619   1.456   0.575  1.00  0.00     0.034 A 
HETATM   11  C11 UNL     1      -2.706   0.733   1.731  1.00  0.00     0.032 A 
HETATM   12  C12 UNL     1      -3.155  -0.569   1.647  1.00  0.00     0.032 A 
HETATM   13  C13 UNL     1      -3.312  -0.481   0.279  1.00  0.00     0.038 A 
HETATM   14  C14 UNL     1      -3.380  -0.121  -1.077  1.00  0.00    -0.012 A 
HETATM   15  C15 UNL     1      -2.913   1.115  -0.715  1.00  0.00     0.040 A 
HETATM   16  C16 UNL     1      -3.888  -1.518  -1.349  1.00  0.00     0.164 C 
HETATM   17  N5  UNL     1      -3.194  -1.878  -0.165  1.00  0.00    -0.370 N 
HETATM   18  C17 UNL     1      -2.561  -3.062   0.389  1.00  0.00     0.182 C 
HETATM   19  C18 UNL     1      -1.097  -3.063   0.135  1.00  0.00     0.052 A 
HETATM   20  C19 UNL     1      -0.380  -1.897   0.194  1.00  0.00     0.042 A 
HETATM   21  C20 UNL     1       0.963  -1.555   0.030  1.00  0.00    -0.006 A 
HETATM   22  C21 UNL     1       1.688  -2.678  -0.257  1.00  0.00     0.033 A 
HETATM   23  C22 UNL     1       1.056  -3.895  -0.338  1.00  0.00     0.118 A 
HETATM   24  N6  UNL     1      -0.259  -4.073  -0.153  1.00  0.00    -0.264 NA
HETATM   25  H10 UNL     1      -2.572   3.482   1.013  1.00  0.00     0.167 HD
ENDROOT
BRANCH   1  26
HETATM   26  N1  UNL     1       2.452   0.309   0.983  1.00  0.00    -0.379 N 
HETATM   27  H6  UNL     1       1.853   0.279   1.837  1.00  0.00     0.160 HD
BRANCH  26  28
HETATM   28  C2  UNL     1       3.847   0.696   0.916  1.00  0.00     0.139 C 
HETATM   29  C1  UNL     1       4.698  -0.441   0.381  1.00  0.00     0.039 C 
BRANCH  28  30
HETATM   30  C3  UNL     1       4.270   0.871   2.355  1.00  0.00     0.255 C 
HETATM   31  O1  UNL     1       3.481   0.685   3.266  1.00  0.00    -0.305 OA
ENDBRANCH  28  30
ENDBRANCH  26  28
ENDBRANCH   1  26
TORSDOF 3
