REMARK  3 active torsions:
REMARK  status: ('A' for Active; 'I' for Inactive)
REMARK    1  A    between atoms: N2_13  and  C11_14 
REMARK    2  A    between atoms: C11_14  and  C12_15 
REMARK    3  A    between atoms: C19_27  and  O2_28 
ROOT
HETATM    1  C1  UNL     1      -3.475   4.109  -0.362  1.00  0.00     0.038 C 
HETATM    2  C2  UNL     1      -3.129   2.747  -0.744  1.00  0.00    -0.002 C 
HETATM    3  C3  UNL     1      -1.882   2.195  -0.705  1.00  0.00     0.026 C 
HETATM    4  C4  UNL     1      -0.965   3.178  -0.229  1.00  0.00     0.034 C 
HETATM    5  C5  UNL     1       0.178   3.681   0.122  1.00  0.00     0.076 C 
HETATM    6  C6  UNL     1       1.541   3.057   0.127  1.00  0.00     0.242 C 
HETATM    7  O1  UNL     1       2.813   2.979   0.284  1.00  0.00    -0.269 OA
HETATM    8  N1  UNL     1       2.010   1.716  -0.189  1.00  0.00    -0.344 N 
HETATM    9  C7  UNL     1       2.488   0.352  -0.510  1.00  0.00     0.168 C 
HETATM   10  C8  UNL     1       1.367  -0.489  -0.944  1.00  0.00     0.031 C 
HETATM   11  C9  UNL     1       0.169  -0.539  -1.492  1.00  0.00     0.023 C 
HETATM   12  C10 UNL     1      -0.722   0.545  -2.005  1.00  0.00     0.179 C 
HETATM   13  N2  UNL     1      -1.873   0.790  -1.154  1.00  0.00    -0.370 N 
HETATM   14  N4  UNL     1      -0.210  -1.934  -1.736  1.00  0.00    -0.372 N 
HETATM   15  C17 UNL     1       0.669  -3.065  -1.447  1.00  0.00     0.296 C 
HETATM   16  N5  UNL     1       1.877  -3.131  -2.161  1.00  0.00    -0.155 NA
HETATM   17  N6  UNL     1       3.051  -2.842  -1.980  1.00  0.00    -0.072 NA
HETATM   18  N7  UNL     1       3.678  -2.277  -0.869  1.00  0.00    -0.269 N 
HETATM   19  C18 UNL     1       3.637  -1.468   0.331  1.00  0.00     0.145 C 
HETATM   20  C19 UNL     1       3.151  -0.263   0.693  1.00  0.00     0.089 C 
HETATM   21  H7  UNL     1       0.974   1.468  -0.154  1.00  0.00     0.163 HD
HETATM   22  H18 UNL     1      -1.169  -2.028  -2.153  1.00  0.00     0.161 HD
HETATM   23  H21 UNL     1       4.592  -2.698  -1.134  1.00  0.00     0.190 HD
ENDROOT
BRANCH  13  24
HETATM   24  C11 UNL     1      -3.036   0.083  -0.678  1.00  0.00     0.182 C 
BRANCH  24  25
HETATM   25  C12 UNL     1      -2.754  -1.105   0.177  1.00  0.00     0.052 A 
HETATM   26  C13 UNL     1      -2.488  -0.761   1.511  1.00  0.00     0.029 A 
HETATM   27  C14 UNL     1      -2.223  -1.627   2.550  1.00  0.00     0.003 A 
HETATM   28  C15 UNL     1      -2.212  -2.977   2.280  1.00  0.00     0.019 A 
HETATM   29  C16 UNL     1      -2.470  -3.333   0.980  1.00  0.00     0.117 A 
HETATM   30  N3  UNL     1      -2.719  -2.436   0.027  1.00  0.00    -0.264 NA
ENDBRANCH  24  25
ENDBRANCH  13  24
BRANCH  20  31
HETATM   31  O2  UNL     1       3.338   0.133   1.977  1.00  0.00    -0.356 OA
HETATM   32  C20 UNL     1       4.448  -0.182   2.772  1.00  0.00     0.209 C 
ENDBRANCH  20  31
TORSDOF 3
