REMARK  4 active torsions:
REMARK  status: ('A' for Active; 'I' for Inactive)
REMARK    1  A    between atoms: C2_2  and  C3_3 
REMARK    2  A    between atoms: C3_3  and  O1_19 
REMARK    3  A    between atoms: C4_4  and  C5_5 
REMARK    4  A    between atoms: C7_7  and  N1_8 
ROOT
HETATM    1  C5  UNL     1      -0.848  -0.283  -0.286  1.00  0.00     0.064 A 
HETATM    2  C6  UNL     1      -0.106   0.840  -0.166  1.00  0.00     0.090 A 
HETATM    3  C7  UNL     1       0.844   1.349  -1.099  1.00  0.00     0.239 A 
HETATM    4  N3  UNL     1       0.933   0.542  -2.196  1.00  0.00    -0.217 NA
HETATM    5  C14 UNL     1       0.267  -0.525  -2.374  1.00  0.00     0.235 A 
HETATM    6  N4  UNL     1      -0.567  -0.866  -1.426  1.00  0.00    -0.242 NA
ENDROOT
BRANCH   3   7
HETATM    7  N1  UNL     1       1.658   2.625  -0.715  1.00  0.00     0.053 N 
HETATM    8  C8  UNL     1       2.660   2.064  -0.294  1.00  0.00     0.255 A 
HETATM    9  C9  UNL     1       2.159   3.330  -1.388  1.00  0.00     0.303 A 
HETATM   10  C13 UNL     1       3.948   1.304   0.241  1.00  0.00     0.110 A 
HETATM   11  C10 UNL     1       3.099   2.800   0.053  1.00  0.00     0.230 A 
HETATM   12  N2  UNL     1       2.246   4.073  -0.225  1.00  0.00    -0.162 NA
HETATM   13  C12 UNL     1       4.852   2.050   0.815  1.00  0.00    -0.015 A 
HETATM   14  C11 UNL     1       4.150   3.333   0.655  1.00  0.00     0.026 A 
ENDBRANCH   3   7
BRANCH   1  15
HETATM   15  C4  UNL     1      -1.781  -0.680   0.748  1.00  0.00     0.068 C 
HETATM   16  C3  UNL     1      -2.356  -1.851   0.689  1.00  0.00     0.066 C 
BRANCH  16  17
HETATM   17  C2  UNL     1      -2.147  -2.833  -0.337  1.00  0.00     0.010 C 
HETATM   18  C1  UNL     1      -2.379  -3.973  -0.876  1.00  0.00     0.033 C 
ENDBRANCH  16  17
BRANCH  16  19
HETATM   19  O1  UNL     1      -3.265  -2.210   1.709  1.00  0.00    -0.356 OA
HETATM   20  C15 UNL     1      -4.461  -1.472   1.894  1.00  0.00     0.210 C 
ENDBRANCH  16  19
ENDBRANCH   1  15
TORSDOF 4
