REMARK  8 active torsions:
REMARK  status: ('A' for Active; 'I' for Inactive)
REMARK    1  A    between atoms: C2_2  and  C3_3 
REMARK       I    between atoms: C3_3  and  N1_5 
REMARK    2  A    between atoms: N1_5  and  C4_6 
REMARK    3  A    between atoms: C7_9  and  N2_10 
REMARK    4  A    between atoms: N2_10  and  C8_11 
REMARK    5  A    between atoms: C17_24  and  O2_25 
REMARK    6  A    between atoms: O2_25  and  C18_26 
REMARK    7  A    between atoms: C18_26  and  C19_27 
REMARK    8  A    between atoms: C19_27  and  N5_28 
ROOT
HETATM    1  C4  UNL     1       0.526   1.273   0.296  1.00  0.00     0.069 A 
HETATM    2  C5  UNL     1       1.685   0.577  -0.014  1.00  0.00     0.050 A 
HETATM    3  C6  UNL     1       1.781  -0.788   0.055  1.00  0.00     0.041 A 
HETATM    4  C7  UNL     1       2.936  -1.454  -0.253  1.00  0.00     0.142 A 
HETATM    5  N3  UNL     1       2.875  -2.775  -0.135  1.00  0.00    -0.224 NA
HETATM    6  C14 UNL     1       1.814  -3.490   0.248  1.00  0.00     0.236 A 
HETATM    7  N4  UNL     1       0.698  -2.803   0.541  1.00  0.00    -0.241 NA
HETATM    8  C15 UNL     1       0.655  -1.465   0.454  1.00  0.00     0.075 A 
HETATM    9  C16 UNL     1      -0.497  -0.790   0.762  1.00  0.00     0.071 A 
HETATM   10  C17 UNL     1      -0.599   0.567   0.696  1.00  0.00     0.097 A 
ENDROOT
BRANCH   4  11
HETATM   11  N2  UNL     1       4.115  -0.807  -0.667  1.00  0.00    -0.340 N 
HETATM   12  H8  UNL     1       4.171   0.216  -0.752  1.00  0.00     0.167 HD
BRANCH  11  13
HETATM   13  C8  UNL     1       5.359  -1.374  -1.037  1.00  0.00     0.035 A 
HETATM   14  C9  UNL     1       5.531  -2.727  -1.270  1.00  0.00     0.032 A 
HETATM   15  C10 UNL     1       6.747  -3.293  -1.627  1.00  0.00     0.046 A 
HETATM   16  C11 UNL     1       7.844  -2.477  -1.759  1.00  0.00     0.138 A 
HETATM   17  F1  UNL     1       9.051  -3.004  -2.109  1.00  0.00    -0.204 F 
HETATM   18  C12 UNL     1       7.749  -1.127  -1.543  1.00  0.00     0.074 A 
HETATM   19 CL1  UNL     1       9.119  -0.050  -1.701  1.00  0.00    -0.081 Cl
HETATM   20  C13 UNL     1       6.519  -0.662  -1.197  1.00  0.00     0.056 A 
ENDBRANCH  11  13
ENDBRANCH   4  11
BRANCH   1  21
HETATM   21  N1  UNL     1       0.708   2.660   0.140  1.00  0.00    -0.325 N 
HETATM   22  C3  UNL     1      -0.043   3.805   0.211  1.00  0.00     0.221 C 
HETATM   23  O1  UNL     1      -1.250   3.644   0.489  1.00  0.00    -0.273 OA
HETATM   24  H6  UNL     1       1.635   3.130  -0.099  1.00  0.00     0.169 HD
BRANCH  22  25
HETATM   25  C2  UNL     1       0.067   5.249   0.068  1.00  0.00     0.098 C 
HETATM   26  C1  UNL     1      -1.251   5.959   0.281  1.00  0.00     0.014 C 
ENDBRANCH  22  25
ENDBRANCH   1  21
BRANCH  10  27
HETATM   27  O2  UNL     1      -1.676   1.235   0.987  1.00  0.00    -0.347 OA
BRANCH  27  28
HETATM   28  C18 UNL     1      -2.981   1.149   1.386  1.00  0.00     0.206 C 
BRANCH  28  29
HETATM   29  C19 UNL     1      -3.936   0.467   0.496  1.00  0.00     0.299 C 
BRANCH  29  30
HETATM   30  N5  UNL     1      -3.839  -0.885   0.156  1.00  0.00     0.094 N 
HETATM   31  C20 UNL     1      -4.759  -1.258  -0.932  1.00  0.00     0.298 C 
HETATM   32  C21 UNL     1      -6.052  -1.762  -0.360  1.00  0.00     0.198 C 
HETATM   33  O3  UNL     1      -6.382  -1.224   0.859  1.00  0.00    -0.388 OA
HETATM   34  C22 UNL     1      -5.463  -1.473   1.853  1.00  0.00     0.198 C 
HETATM   35  C23 UNL     1      -4.137  -1.820   1.220  1.00  0.00     0.298 C 
ENDBRANCH  29  30
ENDBRANCH  28  29
ENDBRANCH  27  28
ENDBRANCH  10  27
TORSDOF 8
