REMARK  4 active torsions:
REMARK  status: ('A' for Active; 'I' for Inactive)
REMARK    1  A    between atoms: C2_2  and  C3_3 
REMARK       I    between atoms: C3_3  and  N1_5 
REMARK    2  A    between atoms: N1_5  and  C4_6 
REMARK    3  A    between atoms: C9_13  and  N4_14 
REMARK    4  A    between atoms: N4_14  and  C10_15 
ROOT
HETATM    1  C4  UNL     1       1.796  -1.008  -0.575  1.00  0.00     0.037 C 
HETATM    2  C5  UNL     1       0.524  -0.788  -0.271  1.00  0.00     0.045 C 
HETATM    3  C6  UNL     1      -0.625  -1.633  -0.073  1.00  0.00     0.041 A 
HETATM    4  C7  UNL     1      -0.821  -2.995  -0.012  1.00  0.00     0.074 A 
HETATM    5  N2  UNL     1      -2.055  -3.422   0.198  1.00  0.00    -0.241 NA
HETATM    6  C8  UNL     1      -3.073  -2.566   0.344  1.00  0.00     0.236 A 
HETATM    7  N3  UNL     1      -2.850  -1.248   0.278  1.00  0.00    -0.224 NA
HETATM    8  C9  UNL     1      -1.647  -0.725   0.072  1.00  0.00     0.142 A 
HETATM    9  C16 UNL     1       0.103  -4.139  -0.138  1.00  0.00     0.057 C 
HETATM   10  C17 UNL     1       1.340  -4.307  -0.609  1.00  0.00     0.137 C 
HETATM   11  O2  UNL     1       2.160  -3.334  -1.162  1.00  0.00    -0.357 OA
HETATM   12  C18 UNL     1       2.729  -2.101  -0.864  1.00  0.00     0.231 C 
ENDROOT
BRANCH   8  13
HETATM   13  N4  UNL     1      -1.540   0.688   0.034  1.00  0.00    -0.340 N 
HETATM   14  H9  UNL     1      -0.907   1.497  -0.068  1.00  0.00     0.167 HD
BRANCH  13  15
HETATM   15  C10 UNL     1      -2.711   1.497   0.169  1.00  0.00     0.035 A 
HETATM   16  C11 UNL     1      -3.808   1.018  -0.549  1.00  0.00     0.032 A 
HETATM   17  C12 UNL     1      -5.033   1.647  -0.519  1.00  0.00     0.046 A 
HETATM   18  C13 UNL     1      -5.217   2.798   0.239  1.00  0.00     0.138 A 
HETATM   19  F1  UNL     1      -6.354   3.512   0.360  1.00  0.00    -0.204 F 
HETATM   20  C14 UNL     1      -4.154   3.296   0.958  1.00  0.00     0.074 A 
HETATM   21 CL1  UNL     1      -4.141   4.722   1.980  1.00  0.00    -0.081 Cl
HETATM   22  C15 UNL     1      -2.936   2.659   0.920  1.00  0.00     0.056 A 
ENDBRANCH  13  15
ENDBRANCH   8  13
BRANCH   1  23
HETATM   23  N1  UNL     1       2.560   0.191  -0.660  1.00  0.00    -0.329 N 
HETATM   24  C3  UNL     1       3.686   0.560   0.105  1.00  0.00     0.221 C 
HETATM   25  O1  UNL     1       4.146  -0.197   0.997  1.00  0.00    -0.273 OA
HETATM   26  H6  UNL     1       2.080   0.733  -1.433  1.00  0.00     0.168 HD
BRANCH  24  27
HETATM   27  C2  UNL     1       4.178   1.902  -0.315  1.00  0.00     0.098 C 
HETATM   28  C1  UNL     1       5.364   2.343   0.473  1.00  0.00     0.014 C 
ENDBRANCH  24  27
ENDBRANCH   1  23
TORSDOF 4
