REMARK  5 active torsions:
REMARK  status: ('A' for Active; 'I' for Inactive)
REMARK    1  A    between atoms: C2_2  and  C3_3 
REMARK       I    between atoms: C3_3  and  N1_5 
REMARK    2  A    between atoms: N1_5  and  C4_6 
REMARK    3  A    between atoms: N2_8  and  C6_9 
REMARK    4  A    between atoms: C16_23  and  C17_24 
REMARK    5  A    between atoms: C17_24  and  N5_25 
ROOT
HETATM    1  C4  UNL     1       0.378   0.345   0.146  1.00  0.00     0.054 C 
HETATM    2  C5  UNL     1       1.617   0.139   0.513  1.00  0.00     0.123 C 
HETATM    3  N2  UNL     1       2.644  -0.567   1.195  1.00  0.00    -0.336 N 
HETATM    4  C12 UNL     1       2.606  -1.008   2.575  1.00  0.00     0.279 C 
HETATM    5  N3  UNL     1       1.694  -2.166   2.580  1.00  0.00    -0.271 NA
HETATM    6  C13 UNL     1       0.443  -2.040   2.778  1.00  0.00     0.163 C 
HETATM    7  N4  UNL     1      -0.894  -2.501   2.922  1.00  0.00    -0.304 NA
HETATM    8  C14 UNL     1      -1.818  -1.980   2.116  1.00  0.00     0.203 C 
HETATM    9  C15 UNL     1      -0.970  -1.082   1.363  1.00  0.00     0.094 C 
HETATM   10  C16 UNL     1      -0.997  -0.154   0.428  1.00  0.00    -0.028 C 
ENDROOT
BRANCH   3  11
HETATM   11  C6  UNL     1       3.853  -0.976   0.514  1.00  0.00     0.037 A 
HETATM   12  C7  UNL     1       4.651  -2.011   0.916  1.00  0.00     0.033 A 
HETATM   13  C8  UNL     1       5.810  -2.434   0.310  1.00  0.00     0.046 A 
HETATM   14  C9  UNL     1       6.211  -1.738  -0.829  1.00  0.00     0.138 A 
HETATM   15  F1  UNL     1       7.345  -2.111  -1.469  1.00  0.00    -0.204 F 
HETATM   16  C10 UNL     1       5.443  -0.689  -1.278  1.00  0.00     0.074 A 
HETATM   17 CL1  UNL     1       6.023   0.132  -2.725  1.00  0.00    -0.081 Cl
HETATM   18  C11 UNL     1       4.294  -0.310  -0.631  1.00  0.00     0.056 A 
ENDBRANCH   3  11
BRANCH   1  19
HETATM   19  N1  UNL     1       0.434   1.524  -0.693  1.00  0.00    -0.326 N 
HETATM   20  C3  UNL     1       0.286   1.722  -2.093  1.00  0.00     0.221 C 
HETATM   21  O1  UNL     1       0.072   1.033  -3.104  1.00  0.00    -0.273 OA
HETATM   22  H6  UNL     1       0.619   2.401  -0.114  1.00  0.00     0.169 HD
BRANCH  20  23
HETATM   23  C2  UNL     1       0.399   3.096  -2.604  1.00  0.00     0.098 C 
HETATM   24  C1  UNL     1       0.239   3.152  -4.084  1.00  0.00     0.014 C 
ENDBRANCH  20  23
ENDBRANCH   1  19
BRANCH  10  25
HETATM   25  C17 UNL     1      -2.039   0.583  -0.393  1.00  0.00     0.154 C 
BRANCH  25  26
HETATM   26  N5  UNL     1      -3.326   0.181   0.037  1.00  0.00    -0.405 N 
HETATM   27  C18 UNL     1      -3.767   0.615   1.314  1.00  0.00     0.143 C 
HETATM   28  C19 UNL     1      -4.835  -0.386   1.778  1.00  0.00     0.187 C 
HETATM   29  O2  UNL     1      -5.092  -1.333   0.819  1.00  0.00    -0.388 OA
HETATM   30  C20 UNL     1      -5.421  -0.800  -0.417  1.00  0.00     0.187 C 
HETATM   31  C21 UNL     1      -4.384   0.221  -0.907  1.00  0.00     0.143 C 
ENDBRANCH  25  26
ENDBRANCH  10  25
TORSDOF 5
