REMARK  1 active torsions:
REMARK  status: ('A' for Active; 'I' for Inactive)
REMARK    1  A    between atoms: C3_3  and  C4_5 
ROOT
HETATM    1  C4  UNL     1      -2.002  -0.935  -0.470  1.00  0.00     0.004 C 
HETATM    2  C5  UNL     1      -2.387   0.290  -0.786  1.00  0.00    -0.040 C 
HETATM    3  C6  UNL     1      -3.776   0.748  -0.436  1.00  0.00     0.091 C 
HETATM    4  C7  UNL     1      -4.508   0.783  -1.761  1.00  0.00     0.007 C 
HETATM    5  C8  UNL     1      -5.755   0.235  -2.361  1.00  0.00     0.065 C 
HETATM    6  N1  UNL     1      -3.873   1.474  -2.579  1.00  0.00    -0.296 NA
HETATM    7  C9  UNL     1      -2.647   2.172  -2.418  1.00  0.00     0.178 C 
HETATM    8  C10 UNL     1      -1.755   1.449  -1.467  1.00  0.00     0.131 C 
HETATM    9  N2  UNL     1      -1.234   2.369  -0.434  1.00  0.00    -0.389 N 
HETATM   10  C11 UNL     1      -0.017   3.062  -0.374  1.00  0.00     0.083 C 
HETATM   11  C12 UNL     1       1.139   3.633  -0.301  1.00  0.00     0.016 C 
HETATM   12  C13 UNL     1       2.530   3.450  -0.049  1.00  0.00    -0.003 C 
HETATM   13  C14 UNL     1       3.446   2.598   0.250  1.00  0.00    -0.027 C 
HETATM   14  C15 UNL     1       4.883   2.372   0.518  1.00  0.00     0.027 C 
HETATM   15  C16 UNL     1       5.022   1.781   1.924  1.00  0.00     0.004 C 
HETATM   16  C17 UNL     1       4.299   0.444   1.987  1.00  0.00     0.002 C 
HETATM   17  C18 UNL     1       4.921  -0.572   1.085  1.00  0.00     0.026 C 
HETATM   18  C19 UNL     1       4.133  -1.856   1.095  1.00  0.00     0.169 C 
HETATM   19  O2  UNL     1       2.860  -1.667   0.534  1.00  0.00    -0.375 OA
HETATM   20  C20 UNL     1       2.189  -2.866   0.568  1.00  0.00     0.284 C 
HETATM   21  N3  UNL     1       0.925  -2.820  -0.064  1.00  0.00    -0.182 NA
HETATM   22  O3  UNL     1       0.023  -1.940   0.381  1.00  0.00    -0.299 OA
HETATM   23  C21 UNL     1      -0.695  -1.529  -0.759  1.00  0.00     0.235 C 
HETATM   24  H14 UNL     1      -1.912   2.507   0.374  1.00  0.00     0.159 HD
HETATM   25  H31 UNL     1       1.089  -2.660  -1.080  1.00  0.00     0.156 HD
ENDROOT
BRANCH   1  26
HETATM   26  C3  UNL     1      -2.987  -1.749   0.211  1.00  0.00     0.077 A 
HETATM   27  C2  UNL     1      -4.143  -2.345   0.875  1.00  0.00     0.207 A 
HETATM   28  C1  UNL     1      -3.912  -3.762   1.275  1.00  0.00     0.038 C 
HETATM   29  O1  UNL     1      -2.661  -2.923   0.525  1.00  0.00    -0.349 OA
ENDBRANCH   1  26
TORSDOF 1
