REMARK  6 active torsions:
REMARK  status: ('A' for Active; 'I' for Inactive)
REMARK    1  A    between atoms: O1_2  and  C2_3 
REMARK    2  A    between atoms: C6_9  and  N3_10 
REMARK    3  A    between atoms: N3_10  and  S1_11 
REMARK    4  A    between atoms: C11_16  and  N4_17 
REMARK    5  A    between atoms: N4_17  and  C12_18 
REMARK    6  A    between atoms: C12_18  and  C14_20 
ROOT
HETATM    1  C2  UNL     1      -0.788   1.765   0.898  1.00  0.00     0.096 A 
HETATM    2  C3  UNL     1       0.135   2.587   0.285  1.00  0.00     0.071 A 
HETATM    3  C4  UNL     1       1.010   2.095  -0.663  1.00  0.00     0.075 A 
HETATM    4  N1  UNL     1       1.916   2.880  -1.271  1.00  0.00    -0.241 NA
HETATM    5  C5  UNL     1       2.775   2.392  -2.204  1.00  0.00     0.236 A 
HETATM    6  N2  UNL     1       2.712   1.083  -2.525  1.00  0.00    -0.223 NA
HETATM    7  C6  UNL     1       1.811   0.249  -1.936  1.00  0.00     0.147 A 
HETATM    8  C9  UNL     1       0.943   0.756  -0.989  1.00  0.00     0.042 A 
HETATM    9  C10 UNL     1       0.010  -0.042  -0.360  1.00  0.00     0.050 A 
HETATM   10  C11 UNL     1      -0.883   0.404   0.592  1.00  0.00     0.063 A 
ENDROOT
BRANCH  10  11
HETATM   11  N4  UNL     1      -1.837  -0.433   1.229  1.00  0.00    -0.381 N 
HETATM   12  H9  UNL     1      -2.466   0.004   1.937  1.00  0.00     0.160 HD
BRANCH  11  13
HETATM   13  C12 UNL     1      -1.992  -1.841   0.964  1.00  0.00     0.111 C 
HETATM   14  C13 UNL     1      -2.352  -2.072  -0.482  1.00  0.00     0.035 C 
BRANCH  13  15
HETATM   15  C14 UNL     1      -0.654  -2.483   1.240  1.00  0.00     0.415 C 
HETATM   16  O2  UNL     1      -0.130  -3.598   1.212  1.00  0.00    -0.428 OA
ENDBRANCH  13  15
ENDBRANCH  11  13
ENDBRANCH  10  11
BRANCH   1  17
HETATM   17  O1  UNL     1      -1.673   2.243   1.853  1.00  0.00    -0.354 OA
HETATM   18  C1  UNL     1      -1.625   3.597   2.200  1.00  0.00     0.210 C 
ENDBRANCH   1  17
BRANCH   7  19
HETATM   19  N3  UNL     1       1.778  -1.125  -2.303  1.00  0.00    -0.319 N 
HETATM   20  H6  UNL     1       1.109  -1.256  -3.104  1.00  0.00     0.175 HD
BRANCH  19  21
HETATM   21  S1  UNL     1       2.743  -2.408  -1.500  1.00  0.00    -0.086 SA
HETATM   22  C7  UNL     1       2.445  -3.960  -0.935  1.00  0.00     0.092 A 
HETATM   23  C8  UNL     1       2.931  -3.037   0.193  1.00  0.00     0.055 A 
ENDBRANCH  19  21
ENDBRANCH   7  19
TORSDOF 6
