REMARK  7 active torsions:
REMARK  status: ('A' for Active; 'I' for Inactive)
REMARK    1  A    between atoms: N1_6  and  C5_7 
REMARK    2  A    between atoms: C11_13  and  N2_14 
REMARK    3  A    between atoms: N2_14  and  C13_16 
REMARK    4  A    between atoms: C13_16  and  C15_18 
REMARK    5  A    between atoms: C15_18  and  C16_20 
REMARK    6  A    between atoms: C16_20  and  C17_21 
REMARK    7  A    between atoms: C17_21  and  N3_22 
ROOT
HETATM    1  C5  UNL     1      -1.996  -0.166   0.198  1.00  0.00     0.034 C 
HETATM    2  C6  UNL     1      -0.761  -0.125  -0.172  1.00  0.00    -0.029 C 
HETATM    3  C7  UNL     1      -0.654   0.614  -1.488  1.00  0.00     0.068 C 
HETATM    4  C8  UNL     1      -0.509  -0.542  -2.532  1.00  0.00     0.010 C 
HETATM    5  C9  UNL     1      -0.344  -1.629  -1.697  1.00  0.00     0.053 C 
HETATM    6  C10 UNL     1       1.054  -1.393  -1.093  1.00  0.00     0.094 C 
HETATM    7  C11 UNL     1       0.689  -0.432   0.073  1.00  0.00     0.117 C 
HETATM    8  O2  UNL     1      -0.809  -2.849  -1.105  1.00  0.00    -0.309 OA
HETATM    9  C18 UNL     1      -0.771  -2.692   0.350  1.00  0.00     0.252 C 
HETATM   10  N4  UNL     1      -1.262  -2.112   1.431  1.00  0.00    -0.272 NA
HETATM   11  C19 UNL     1      -2.371  -1.163   1.207  1.00  0.00     0.207 C 
ENDROOT
BRANCH   7  12
HETATM   12  N2  UNL     1       1.518   0.694   0.123  1.00  0.00    -0.398 N 
HETATM   13  C12 UNL     1       1.180   1.671   1.114  1.00  0.00     0.144 C 
BRANCH  12  14
HETATM   14  C13 UNL     1       2.916   0.481  -0.039  1.00  0.00     0.145 C 
HETATM   15  C14 UNL     1       3.585   1.858   0.044  1.00  0.00     0.040 C 
BRANCH  14  16
HETATM   16  C15 UNL     1       3.522  -0.295   1.079  1.00  0.00     0.150 C 
HETATM   17  O1  UNL     1       4.727  -0.473   0.893  1.00  0.00    -0.296 OA
BRANCH  16  18
HETATM   18  C16 UNL     1       3.315  -0.974   2.361  1.00  0.00     0.110 C 
BRANCH  18  19
HETATM   19  C17 UNL     1       4.669  -1.518   2.814  1.00  0.00     0.274 C 
BRANCH  19  20
HETATM   20  N3  UNL     1       5.549  -0.350   2.936  1.00  0.00     0.078 N 
HETATM   21  H23 UNL     1       6.508  -0.723   3.135  1.00  0.00     0.312 HD
HETATM   22  H24 UNL     1       5.247   0.151   3.801  1.00  0.00     0.312 HD
ENDBRANCH  19  20
ENDBRANCH  18  19
ENDBRANCH  16  18
ENDBRANCH  14  16
ENDBRANCH  12  14
ENDBRANCH   7  12
BRANCH   1  23
HETATM   23  N1  UNL     1      -3.192   0.338  -0.343  1.00  0.00    -0.354 N 
HETATM   24  C4  UNL     1      -3.573   1.748  -0.171  1.00  0.00     0.195 C 
HETATM   25  C3  UNL     1      -4.383   2.110  -1.340  1.00  0.00     0.117 C 
HETATM   26  C2  UNL     1      -4.822   1.004  -1.910  1.00  0.00    -0.011 C 
HETATM   27  F1  UNL     1      -4.603   3.401  -1.719  1.00  0.00    -0.209 F 
HETATM   28  C1  UNL     1      -5.673   0.948  -3.117  1.00  0.00     0.050 C 
HETATM   29  C20 UNL     1      -4.301  -0.160  -1.108  1.00  0.00     0.214 C 
HETATM   30 CL1  UNL     1      -3.878  -1.405  -2.287  1.00  0.00    -0.097 Cl
ENDBRANCH   1  23
TORSDOF 7
