REMARK  2 active torsions:
REMARK  status: ('A' for Active; 'I' for Inactive)
REMARK    1  A    between atoms: O1_2  and  C2_3 
REMARK    2  A    between atoms: C14_17  and  C15_18 
ROOT
HETATM    1  C2  UNL     1       1.921  -0.554   2.390  1.00  0.00     0.047 C 
HETATM    2  C3  UNL     1       1.636   0.773   2.248  1.00  0.00     0.039 C 
HETATM    3  C4  UNL     1       0.899   1.506   1.245  1.00  0.00    -0.053 C 
HETATM    4  C5  UNL     1       0.666   2.747   1.070  1.00  0.00     0.009 C 
HETATM    5  C6  UNL     1      -0.009   3.580   0.158  1.00  0.00     0.020 C 
HETATM    6  C7  UNL     1      -0.647   4.129  -0.749  1.00  0.00     0.116 C 
HETATM    7  N1  UNL     1      -1.348   4.831  -1.725  1.00  0.00    -0.275 NA
HETATM    8  C8  UNL     1      -2.265   4.282  -2.498  1.00  0.00     0.115 C 
HETATM    9  C9  UNL     1      -2.324   2.973  -2.117  1.00  0.00     0.216 C 
HETATM   10  O2  UNL     1      -3.497   2.079  -2.356  1.00  0.00    -0.371 OA
HETATM   11  C10 UNL     1      -3.035   0.777  -1.838  1.00  0.00     0.101 A 
HETATM   12  C11 UNL     1      -3.241   1.380  -0.587  1.00  0.00    -0.004 A 
HETATM   13  C12 UNL     1      -2.699   0.209  -0.338  1.00  0.00     0.088 A 
HETATM   14  C13 UNL     1      -2.358  -0.677  -1.219  1.00  0.00     0.208 A 
HETATM   15  C14 UNL     1      -2.024  -1.549  -2.111  1.00  0.00     0.273 A 
HETATM   16  C15 UNL     1      -2.595  -0.316  -2.498  1.00  0.00     0.130 A 
HETATM   17  N2  UNL     1      -1.524  -2.519  -2.948  1.00  0.00    -0.256 NA
HETATM   18  C16 UNL     1      -0.405  -3.051  -2.426  1.00  0.00     0.150 A 
HETATM   19  C17 UNL     1      -0.060  -2.378  -1.140  1.00  0.00     0.154 A 
HETATM   20  C18 UNL     1       1.004  -2.724  -0.432  1.00  0.00     0.017 C 
HETATM   21  C19 UNL     1       2.011  -2.668   0.731  1.00  0.00     0.012 C 
HETATM   22  C20 UNL     1       1.762  -3.930   1.519  1.00  0.00     0.014 C 
HETATM   23  C21 UNL     1       1.495  -1.477   1.413  1.00  0.00     0.072 C 
HETATM   24  N3  UNL     1      -1.133  -1.478  -1.034  1.00  0.00     0.012 N 
HETATM   25  C22 UNL     1      -0.575  -0.192  -0.406  1.00  0.00     0.215 C 
HETATM   26  C23 UNL     1       0.107   0.747   0.359  1.00  0.00     0.103 C 
ENDROOT
BRANCH   1  27
HETATM   27  O1  UNL     1       2.655  -0.771   3.553  1.00  0.00    -0.360 OA
HETATM   28  C1  UNL     1       4.042  -1.109   3.414  1.00  0.00     0.209 C 
ENDBRANCH   1  27
TORSDOF 2
