REMARK  0 active torsions:
REMARK  status: ('A' for Active; 'I' for Inactive)
ROOT
HETATM    1  C1  UNL     1      -0.835   3.733   1.472  1.00  0.00     0.032 C 
HETATM    2  C2  UNL     1      -1.696   2.808   1.674  1.00  0.00     0.181 C 
HETATM    3  N1  UNL     1      -2.621   1.907   1.904  1.00  0.00    -0.432 NA
HETATM    4  C3  UNL     1      -3.593   1.238   2.061  1.00  0.00     0.180 C 
HETATM    5  C4  UNL     1      -3.555  -0.233   2.514  1.00  0.00     0.228 C 
HETATM    6  O1  UNL     1      -3.078  -1.096   1.596  1.00  0.00    -0.371 OA
HETATM    7  C5  UNL     1      -1.734  -1.076   1.392  1.00  0.00     0.184 C 
HETATM    8  C6  UNL     1      -1.039  -2.231   0.876  1.00  0.00     0.006 C 
HETATM    9  C7  UNL     1      -0.675  -2.326  -0.434  1.00  0.00    -0.022 C 
HETATM   10  C8  UNL     1      -0.015  -3.123  -1.526  1.00  0.00     0.086 C 
HETATM   11  C9  UNL     1       1.091  -2.371  -2.142  1.00  0.00     0.049 A 
HETATM   12  N2  UNL     1       1.132  -2.556  -3.466  1.00  0.00    -0.246 NA
HETATM   13  C10 UNL     1       1.995  -2.071  -4.360  1.00  0.00     0.233 A 
HETATM   14  N3  UNL     1       2.967  -1.278  -3.856  1.00  0.00    -0.246 NA
HETATM   15  C11 UNL     1       3.006  -1.036  -2.554  1.00  0.00     0.048 A 
HETATM   16  C12 UNL     1       2.088  -1.572  -1.731  1.00  0.00     0.017 A 
HETATM   17  C13 UNL     1       2.655  -0.910  -0.555  1.00  0.00     0.150 A 
HETATM   18  C14 UNL     1       3.709  -0.377  -1.482  1.00  0.00     0.092 A 
HETATM   19  N4  UNL     1       1.840   0.175  -0.083  1.00  0.00    -0.291 NA
HETATM   20  C15 UNL     1       2.296   1.400  -0.077  1.00  0.00     0.120 C 
HETATM   21  C16 UNL     1       1.222   2.305   0.463  1.00  0.00    -0.021 C 
HETATM   22  C17 UNL     1       0.523   3.406   0.909  1.00  0.00     0.012 C 
HETATM   23  C18 UNL     1      -0.024   1.746  -0.163  1.00  0.00     0.188 C 
HETATM   24  N5  UNL     1      -0.469   0.675   0.613  1.00  0.00    -0.298 NA
HETATM   25  C19 UNL     1      -1.539   0.001   0.276  1.00  0.00     0.119 C 
ENDROOT
TORSDOF 0
