REMARK  7 active torsions:
REMARK  status: ('A' for Active; 'I' for Inactive)
REMARK    1  A    between atoms: O1_2  and  C2_3 
REMARK    2  A    between atoms: C6_9  and  C7_10 
REMARK    3  A    between atoms: C10_13  and  O2_14 
REMARK    4  A    between atoms: O2_14  and  C11_15 
REMARK    5  A    between atoms: C15_20  and  N4_21 
REMARK    6  A    between atoms: C20_26  and  C21_27 
REMARK    7  A    between atoms: C21_27  and  C22_28 
ROOT
HETATM    1  C7  UNL     1       0.360  -0.013   0.993  1.00  0.00    -0.006 A 
HETATM    2  C8  UNL     1       1.431   0.866   0.862  1.00  0.00     0.016 A 
HETATM    3  C9  UNL     1       2.644   0.483   0.331  1.00  0.00     0.038 A 
HETATM    4  C10 UNL     1       2.842  -0.813  -0.098  1.00  0.00     0.076 A 
HETATM    5  C16 UNL     1       1.769  -1.697   0.033  1.00  0.00     0.038 A 
HETATM    6  C17 UNL     1       0.560  -1.307   0.564  1.00  0.00     0.016 A 
ENDROOT
BRANCH   1   7
HETATM    7  C6  UNL     1      -0.791   0.636   1.597  1.00  0.00     0.081 A 
HETATM    8  N2  UNL     1      -0.573   1.329   2.750  1.00  0.00    -0.240 NA
HETATM    9  C5  UNL     1      -1.558   1.977   3.405  1.00  0.00     0.234 A 
HETATM   10  N1  UNL     1      -2.842   1.971   2.940  1.00  0.00    -0.241 NA
HETATM   11  C4  UNL     1      -3.121   1.303   1.804  1.00  0.00     0.073 A 
HETATM   12  C3  UNL     1      -4.389   1.260   1.265  1.00  0.00     0.069 A 
HETATM   13  C18 UNL     1      -2.090   0.656   1.163  1.00  0.00     0.023 A 
HETATM   14  C2  UNL     1      -4.662   0.582   0.092  1.00  0.00     0.077 A 
HETATM   15  C20 UNL     1      -3.609  -0.074  -0.556  1.00  0.00    -0.017 A 
HETATM   16  C19 UNL     1      -2.349  -0.022  -0.005  1.00  0.00     0.026 A 
BRANCH  14  17
HETATM   17  O1  UNL     1      -5.919   0.533  -0.452  1.00  0.00    -0.355 OA
HETATM   18  C1  UNL     1      -7.082   1.117   0.040  1.00  0.00     0.210 C 
ENDBRANCH  14  17
BRANCH  15  19
HETATM   19  C21 UNL     1      -3.868  -0.821  -1.834  1.00  0.00     0.110 C 
BRANCH  19  20
HETATM   20  C22 UNL     1      -4.541  -2.104  -1.490  1.00  0.00     0.235 C 
HETATM   21  O3  UNL     1      -4.929  -2.702  -0.496  1.00  0.00    -0.307 OA
ENDBRANCH  19  20
ENDBRANCH  15  19
ENDBRANCH   1   7
BRANCH   4  22
HETATM   22  O2  UNL     1       3.957  -1.416  -0.655  1.00  0.00    -0.307 OA
BRANCH  22  23
HETATM   23  C11 UNL     1       5.166  -0.837  -0.899  1.00  0.00     0.121 A 
HETATM   24  C12 UNL     1       5.479  -0.878  -2.265  1.00  0.00     0.042 A 
HETATM   25  C13 UNL     1       6.672  -0.346  -2.769  1.00  0.00     0.022 A 
HETATM   26  C14 UNL     1       7.530   0.225  -1.833  1.00  0.00     0.119 A 
HETATM   27  N3  UNL     1       7.235   0.270  -0.502  1.00  0.00    -0.241 NA
HETATM   28  C15 UNL     1       6.080  -0.250  -0.051  1.00  0.00     0.155 A 
BRANCH  28  29
HETATM   29  N4  UNL     1       5.666  -0.265   1.316  1.00  0.00    -0.382 N 
HETATM   30  H11 UNL     1       5.486   0.587   1.907  1.00  0.00     0.157 HD
HETATM   31  H12 UNL     1       5.461  -1.053   1.994  1.00  0.00     0.157 HD
ENDBRANCH  28  29
ENDBRANCH  22  23
ENDBRANCH   4  22
TORSDOF 7
