REMARK  7 active torsions:
REMARK  status: ('A' for Active; 'I' for Inactive)
REMARK    1  A    between atoms: O1_2  and  C2_3 
REMARK    2  A    between atoms: C6_9  and  N3_10 
REMARK    3  A    between atoms: N3_10  and  C7_11 
REMARK    4  A    between atoms: C14_20  and  C15_21 
REMARK    5  A    between atoms: C15_21  and  N4_22 
REMARK    6  A    between atoms: N4_22  and  C17_24 
REMARK    7  A    between atoms: C17_24  and  C18_25 
REMARK       I    between atoms: C18_25  and  N5_26 
ROOT
HETATM    1  C2  UNL     1       0.124  -1.505  -1.612  1.00  0.00     0.078 A 
HETATM    2  C3  UNL     1       1.194  -1.560  -2.499  1.00  0.00     0.070 A 
HETATM    3  C4  UNL     1       2.322  -0.802  -2.210  1.00  0.00     0.074 A 
HETATM    4  N1  UNL     1       3.382  -0.850  -3.051  1.00  0.00    -0.241 NA
HETATM    5  C5  UNL     1       4.482  -0.126  -2.768  1.00  0.00     0.236 A 
HETATM    6  N2  UNL     1       4.519   0.632  -1.662  1.00  0.00    -0.224 NA
HETATM    7  C6  UNL     1       3.465   0.684  -0.818  1.00  0.00     0.142 A 
HETATM    8  C12 UNL     1       2.310  -0.041  -1.061  1.00  0.00     0.039 A 
HETATM    9  C13 UNL     1       1.232   0.002  -0.192  1.00  0.00     0.029 A 
HETATM   10  C14 UNL     1       0.086  -0.739  -0.442  1.00  0.00     0.004 A 
ENDROOT
BRANCH  10  11
HETATM   11  C15 UNL     1      -1.110  -0.674   0.418  1.00  0.00     0.315 C 
BRANCH  11  12
HETATM   12  N4  UNL     1      -2.039   0.322  -0.056  1.00  0.00     0.111 N 
HETATM   13  C16 UNL     1      -2.239   0.325  -1.495  1.00  0.00     0.312 C 
BRANCH  12  14
HETATM   14  C17 UNL     1      -3.366   0.193   0.501  1.00  0.00     0.290 A 
HETATM   15  C19 UNL     1      -4.204   1.407   0.221  1.00  0.00     0.325 A 
HETATM   16  N6  UNL     1      -4.432   1.655   1.635  1.00  0.00     0.090 N 
HETATM   17  C20 UNL     1      -5.820   1.479   1.978  1.00  0.00     0.310 C 
HETATM   18  C21 UNL     1      -3.535   0.573   1.957  1.00  0.00     0.325 A 
BRANCH  14  19
HETATM   19  C18 UNL     1      -4.071  -1.049   0.127  1.00  0.00     0.258 C 
HETATM   20  N5  UNL     1      -5.419  -1.194   0.521  1.00  0.00    -0.368 N 
HETATM   21  H16 UNL     1      -6.387  -1.309   0.850  1.00  0.00     0.159 HD
HETATM   22  H17 UNL     1      -6.092  -1.069  -0.276  1.00  0.00     0.159 HD
HETATM   23  O2  UNL     1      -3.735  -2.100  -0.516  1.00  0.00    -0.271 OA
ENDBRANCH  14  19
ENDBRANCH  12  14
ENDBRANCH  11  12
ENDBRANCH  10  11
BRANCH   1  24
HETATM   24  O1  UNL     1      -0.993  -2.257  -1.891  1.00  0.00    -0.355 OA
HETATM   25  C1  UNL     1      -1.029  -3.058  -3.049  1.00  0.00     0.210 C 
ENDBRANCH   1  24
BRANCH   7  26
HETATM   26  N3  UNL     1       3.604   1.482   0.332  1.00  0.00    -0.336 N 
HETATM   27  H6  UNL     1       2.871   2.155   0.636  1.00  0.00     0.168 HD
BRANCH  26  28
HETATM   28  C7  UNL     1       4.696   1.592   1.271  1.00  0.00     0.096 A 
HETATM   29  C8  UNL     1       5.475   2.134   2.148  1.00  0.00     0.072 A 
HETATM   30 CL1  UNL     1       5.160   3.789   2.632  1.00  0.00    -0.081 Cl
HETATM   31  C9  UNL     1       6.334   0.970   2.335  1.00  0.00     0.003 A 
HETATM   32  C10 UNL     1       7.503   0.825   3.236  1.00  0.00     0.053 C 
HETATM   33  C11 UNL     1       5.553   0.393   1.441  1.00  0.00     0.152 A 
HETATM   34  F1  UNL     1       5.799  -0.912   1.062  1.00  0.00    -0.203 F 
ENDBRANCH  26  28
ENDBRANCH   7  26
TORSDOF 7
