REMARK  6 active torsions:
REMARK  status: ('A' for Active; 'I' for Inactive)
REMARK    1  A    between atoms: C2_2  and  O1_3 
REMARK    2  A    between atoms: O1_3  and  C3_4 
REMARK    3  A    between atoms: C4_5  and  C5_6 
REMARK    4  A    between atoms: C7_8  and  N1_9 
REMARK    5  A    between atoms: N3_17  and  C14_18 
REMARK    6  A    between atoms: C14_18  and  C15_19 
ROOT
HETATM    1  N1  UNL     1       0.311   0.923   0.795  1.00  0.00    -0.317 N 
HETATM    2  C8  UNL     1      -0.119  -0.410   0.559  1.00  0.00     0.096 A 
HETATM    3  C9  UNL     1      -1.366  -0.848   0.721  1.00  0.00     0.022 A 
HETATM    4  C10 UNL     1      -2.388   0.066   1.175  1.00  0.00     0.164 A 
HETATM    5  C11 UNL     1      -1.874   1.464   1.398  1.00  0.00     0.005 A 
HETATM    6  C12 UNL     1      -0.647   1.902   1.241  1.00  0.00     0.109 A 
HETATM    7  C13 UNL     1      -3.187   2.050   1.758  1.00  0.00     0.149 C 
HETATM    8  N2  UNL     1      -4.099   1.380   1.090  1.00  0.00    -0.188 NA
HETATM    9  N3  UNL     1      -3.478   0.376   0.297  1.00  0.00    -0.289 N 
ENDROOT
BRANCH   1  10
HETATM   10  C7  UNL     1       1.647   1.363   0.619  1.00  0.00     0.137 A 
HETATM   11  C6  UNL     1       2.672   0.554   0.206  1.00  0.00     0.082 A 
HETATM   12  C5  UNL     1       3.962   1.013   0.044  1.00  0.00     0.063 A 
HETATM   13  N5  UNL     1       4.244   2.282   0.292  1.00  0.00    -0.242 NA
HETATM   14  C21 UNL     1       3.261   3.098   0.698  1.00  0.00     0.235 A 
HETATM   15  N4  UNL     1       2.014   2.633   0.849  1.00  0.00    -0.224 NA
BRANCH  12  16
HETATM   16  C4  UNL     1       5.006   0.118  -0.394  1.00  0.00     0.055 C 
HETATM   17  C3  UNL     1       6.251   0.536  -0.556  1.00  0.00     0.137 C 
BRANCH  17  18
HETATM   18  O1  UNL     1       7.358  -0.167  -0.960  1.00  0.00    -0.363 OA
BRANCH  18  19
HETATM   19  C2  UNL     1       7.519  -1.533  -0.656  1.00  0.00     0.170 C 
HETATM   20  C1  UNL     1       8.841  -2.065  -1.225  1.00  0.00     0.034 C 
ENDBRANCH  18  19
ENDBRANCH  17  18
ENDBRANCH  12  16
ENDBRANCH   1  10
BRANCH   9  21
HETATM   21  C14 UNL     1      -3.994  -0.044  -1.004  1.00  0.00     0.184 C 
BRANCH  21  22
HETATM   22  C15 UNL     1      -5.371  -0.557  -0.736  1.00  0.00    -0.039 A 
HETATM   23  C16 UNL     1      -6.440   0.343  -0.800  1.00  0.00     0.009 A 
HETATM   24  C17 UNL     1      -7.742  -0.010  -0.575  1.00  0.00     0.001 A 
HETATM   25  C18 UNL     1      -8.037  -1.340  -0.262  1.00  0.00     0.000 A 
HETATM   26  C19 UNL     1      -6.986  -2.254  -0.193  1.00  0.00     0.001 A 
HETATM   27  C20 UNL     1      -5.688  -1.855  -0.427  1.00  0.00     0.009 A 
ENDBRANCH  21  22
ENDBRANCH   9  21
TORSDOF 6
