REMARK  8 active torsions:
REMARK  status: ('A' for Active; 'I' for Inactive)
REMARK    1  A    between atoms: N1_2  and  C2_3 
REMARK    2  A    between atoms: C2_3  and  N2_5 
REMARK    3  A    between atoms: N2_5  and  C4_6 
REMARK    4  A    between atoms: N4_13  and  C10_14 
REMARK    5  A    between atoms: C10_14  and  C11_15 
REMARK    6  A    between atoms: C11_15  and  C12_16 
REMARK    7  A    between atoms: C13_17  and  C14_18 
REMARK    8  A    between atoms: C16_20  and  C17_21 
ROOT
HETATM    1  C4  UNL     1      -2.558   0.150   0.148  1.00  0.00     0.034 A 
HETATM    2  C5  UNL     1      -1.613   0.762   0.940  1.00  0.00     0.032 A 
HETATM    3  C6  UNL     1      -0.333   0.258   0.896  1.00  0.00     0.034 A 
HETATM    4  C7  UNL     1      -0.040  -0.813   0.085  1.00  0.00     0.064 A 
HETATM    5  C8  UNL     1      -0.961  -1.462  -0.730  1.00  0.00     0.014 A 
HETATM    6  C9  UNL     1      -0.300  -2.479  -1.385  1.00  0.00     0.152 A 
HETATM    7  N3  UNL     1       0.964  -2.446  -0.984  1.00  0.00    -0.184 NA
HETATM    8  N4  UNL     1       1.140  -1.466  -0.112  1.00  0.00    -0.269 N 
HETATM    9  C18 UNL     1      -2.246  -0.939  -0.673  1.00  0.00     0.044 A 
ENDROOT
BRANCH   8  10
HETATM   10  C10 UNL     1       2.405  -1.154   0.510  1.00  0.00     0.152 C 
BRANCH  10  11
HETATM   11  C11 UNL     1       3.118  -0.163  -0.409  1.00  0.00     0.038 C 
BRANCH  11  12
HETATM   12  C12 UNL     1       4.389   0.199   0.136  1.00  0.00     0.006 A 
HETATM   13  C13 UNL     1       5.377   0.734   0.194  1.00  0.00    -0.060 A 
HETATM   14  C17 UNL     1       4.823   1.230  -0.982  1.00  0.00     0.038 A 
BRANCH  13  15
HETATM   15  C14 UNL     1       6.300   1.245   0.230  1.00  0.00    -0.065 A 
HETATM   16  C15 UNL     1       7.282   1.803   0.248  1.00  0.00     0.033 A 
HETATM   17  C16 UNL     1       6.204   1.987  -0.919  1.00  0.00     0.033 A 
ENDBRANCH  13  15
ENDBRANCH  11  12
ENDBRANCH  10  11
ENDBRANCH   8  10
BRANCH   1  18
HETATM   18  N2  UNL     1      -3.926   0.474   0.015  1.00  0.00    -0.344 N 
HETATM   19  H5  UNL     1      -3.846   1.219  -0.737  1.00  0.00     0.167 HD
BRANCH  18  20
HETATM   20  C2  UNL     1      -5.260   0.295   0.383  1.00  0.00     0.103 C 
HETATM   21  C3  UNL     1      -5.469  -0.783  -0.375  1.00  0.00     0.086 C 
BRANCH  20  22
HETATM   22  N1  UNL     1      -6.079   1.046   1.262  1.00  0.00    -0.258 NA
HETATM   23  C1  UNL     1      -6.911   0.525   2.100  1.00  0.00     0.151 C 
ENDBRANCH  20  22
ENDBRANCH  18  20
ENDBRANCH   1  18
TORSDOF 8
