REMARK  4 active torsions:
REMARK  status: ('A' for Active; 'I' for Inactive)
REMARK    1  A    between atoms: O1_2  and  C2_3 
REMARK    2  A    between atoms: C2_3  and  C3_4 
REMARK    3  A    between atoms: C3_4  and  C4_5 
REMARK    4  A    between atoms: C5_7  and  C6_8 
ROOT
HETATM    1  C6  UNL     1       0.489  -0.042  -0.979  1.00  0.00     0.009 A 
HETATM    2  C7  UNL     1       0.123   0.892  -1.941  1.00  0.00     0.150 A 
HETATM    3  N1  UNL     1      -1.085   1.499  -2.074  1.00  0.00    -0.073 NA
HETATM    4  C8  UNL     1      -2.152   1.365  -1.372  1.00  0.00     0.744 A 
HETATM    5  N2  UNL     1      -1.838   0.552  -0.533  1.00  0.00    -0.064 NA
HETATM    6  C9  UNL     1      -0.718  -0.034  -0.380  1.00  0.00     0.074 A 
HETATM    7  C10 UNL     1      -1.412  -0.589   0.747  1.00  0.00     0.019 A 
HETATM    8  C11 UNL     1      -0.264  -0.454   1.678  1.00  0.00    -0.015 A 
HETATM    9  C12 UNL     1      -0.858  -0.459   2.984  1.00  0.00    -0.006 A 
HETATM   10  C13 UNL     1      -2.274  -0.569   3.143  1.00  0.00    -0.014 A 
HETATM   11  C14 UNL     1      -2.742  -0.665   1.810  1.00  0.00     0.021 A 
HETATM   12  C15 UNL     1      -3.979   0.022   1.357  1.00  0.00     0.150 A 
HETATM   13  N3  UNL     1      -3.982   1.121   0.485  1.00  0.00    -0.194 NA
HETATM   14  N4  UNL     1      -3.278   1.222  -0.630  1.00  0.00    -0.106 N 
HETATM   15  C16 UNL     1      -4.022   1.148  -1.897  1.00  0.00     0.199 C 
HETATM   16  C17 UNL     1      -2.850  -0.735   0.461  1.00  0.00     0.091 A 
ENDROOT
BRANCH   1  17
HETATM   17  C5  UNL     1       1.357  -0.916  -0.337  1.00  0.00     0.027 C 
HETATM   18  C3  UNL     1       2.655  -0.526  -0.160  1.00  0.00     0.004 C 
BRANCH  18  19
HETATM   19  C2  UNL     1       3.290   0.746  -0.563  1.00  0.00     0.208 C 
BRANCH  19  20
HETATM   20  O1  UNL     1       4.320   0.673  -1.434  1.00  0.00    -0.391 OA
HETATM   21  C1  UNL     1       5.425  -0.029  -1.105  1.00  0.00     0.201 C 
ENDBRANCH  19  20
ENDBRANCH  18  19
BRANCH  18  22
HETATM   22  C4  UNL     1       3.482  -1.501   0.543  1.00  0.00     0.267 C 
HETATM   23  O2  UNL     1       2.734  -2.502   0.807  1.00  0.00    -0.302 OA
ENDBRANCH  18  22
ENDBRANCH   1  17
TORSDOF 4
