REMARK  8 active torsions:
REMARK  status: ('A' for Active; 'I' for Inactive)
REMARK    1  A    between atoms: C2_2  and  C3_3 
REMARK    2  A    between atoms: C2_2  and  O1_16 
REMARK    3  A    between atoms: C3_3  and  C4_4 
REMARK    4  A    between atoms: O1_16  and  C12_17 
REMARK    5  A    between atoms: C12_17  and  N5_18 
REMARK    6  A    between atoms: N5_18  and  C13_19 
REMARK    7  A    between atoms: C13_19  and  O2_21 
REMARK    8  A    between atoms: O2_21  and  C15_22 
ROOT
HETATM    1  C4  UNL     1      -2.259  -0.080  -0.520  1.00  0.00     0.068 A 
HETATM    2  C5  UNL     1      -1.243  -0.316  -1.528  1.00  0.00     0.099 A 
HETATM    3  N1  UNL     1      -1.433  -0.775  -2.705  1.00  0.00    -0.258 NA
HETATM    4  C6  UNL     1      -2.733  -1.119  -3.164  1.00  0.00     0.227 A 
HETATM    5  N2  UNL     1      -3.645  -0.945  -2.360  1.00  0.00    -0.266 NA
HETATM    6  C7  UNL     1      -3.638  -0.459  -1.043  1.00  0.00     0.101 A 
HETATM    7  C8  UNL     1      -4.564  -1.053  -0.054  1.00  0.00    -0.019 A 
HETATM    8  C9  UNL     1      -5.333  -1.749   0.790  1.00  0.00     0.115 C 
HETATM    9  N3  UNL     1      -6.177  -0.906   1.561  1.00  0.00    -0.290 N 
HETATM   10  N4  UNL     1      -6.196   0.473   1.357  1.00  0.00    -0.191 NA
HETATM   11  C10 UNL     1      -5.514   1.016   0.406  1.00  0.00     0.123 C 
HETATM   12  C11 UNL     1      -4.701   0.403  -0.610  1.00  0.00     0.096 A 
HETATM   13  H9  UNL     1      -6.766  -1.383   2.270  1.00  0.00     0.188 HD
ENDROOT
BRANCH   1  14
HETATM   14  C3  UNL     1      -1.912  -0.934   0.697  1.00  0.00     0.076 C 
BRANCH  14  15
HETATM   15  C2  UNL     1      -0.588  -0.599   1.269  1.00  0.00     0.040 C 
HETATM   16  C1  UNL     1      -0.499  -0.169   2.524  1.00  0.00     0.046 C 
BRANCH  15  17
HETATM   17  O1  UNL     1       0.657  -0.651   0.717  1.00  0.00    -0.327 OA
BRANCH  17  18
HETATM   18  C12 UNL     1       1.689   0.266   0.906  1.00  0.00     0.447 C 
BRANCH  18  19
HETATM   19  N5  UNL     1       2.866  -0.108   0.146  1.00  0.00     0.135 N 
HETATM   20  H14 UNL     1       3.200  -1.063   0.300  1.00  0.00     0.322 HD
BRANCH  19  21
HETATM   21  C13 UNL     1       3.944   0.816   0.325  1.00  0.00     0.354 C 
HETATM   22  C14 UNL     1       4.376   0.908   1.775  1.00  0.00     0.073 C 
BRANCH  21  23
HETATM   23  O2  UNL     1       4.986   0.365  -0.509  1.00  0.00    -0.358 OA
BRANCH  23  24
HETATM   24  C15 UNL     1       5.354   1.301  -1.444  1.00  0.00     0.166 C 
HETATM   25  C16 UNL     1       6.483   0.677  -2.267  1.00  0.00     0.033 C 
ENDBRANCH  23  24
ENDBRANCH  21  23
ENDBRANCH  19  21
ENDBRANCH  18  19
ENDBRANCH  17  18
ENDBRANCH  15  17
ENDBRANCH  14  15
ENDBRANCH   1  14
TORSDOF 8
