REMARK  5 active torsions:
REMARK  status: ('A' for Active; 'I' for Inactive)
REMARK    1  A    between atoms: C2_2  and  C3_3 
REMARK       I    between atoms: C3_3  and  N1_5 
REMARK    2  A    between atoms: N1_5  and  N2_6 
REMARK    3  A    between atoms: N2_6  and  C4_7 
REMARK    4  A    between atoms: C4_7  and  C5_8 
REMARK    5  A    between atoms: N3_10  and  C7_11 
ROOT
HETATM    1  C5  UNL     1       0.880   0.342   0.535  1.00  0.00    -0.027 C 
HETATM    2  C6  UNL     1      -0.386   0.628   0.793  1.00  0.00     0.101 C 
HETATM    3  N3  UNL     1      -1.263  -0.370   1.302  1.00  0.00    -0.341 N 
HETATM    4  C14 UNL     1      -0.623  -1.651   1.484  1.00  0.00     0.105 C 
HETATM    5  C15 UNL     1       0.505  -1.971   0.920  1.00  0.00    -0.008 C 
HETATM    6  C16 UNL     1       1.400  -1.018   0.771  1.00  0.00     0.023 C 
ENDROOT
BRANCH   3   7
HETATM    7  C7  UNL     1      -2.691  -0.155   1.622  1.00  0.00     0.225 A 
HETATM    8  N4  UNL     1      -3.129  -1.370   2.247  1.00  0.00    -0.256 NA
HETATM    9  C8  UNL     1      -4.115  -2.042   1.800  1.00  0.00     0.229 A 
HETATM   10  N5  UNL     1      -4.917  -1.709   0.646  1.00  0.00    -0.246 NA
HETATM   11  C9  UNL     1      -4.562  -0.619   0.044  1.00  0.00     0.047 A 
HETATM   12  C10 UNL     1      -5.330  -0.206  -1.144  1.00  0.00     0.051 C 
HETATM   13  C13 UNL     1      -3.459   0.269   0.415  1.00  0.00     0.107 A 
HETATM   14  C11 UNL     1      -5.384   1.120  -1.378  1.00  0.00     0.136 C 
HETATM   15  O2  UNL     1      -4.755   2.072  -0.553  1.00  0.00    -0.362 OA
HETATM   16  C12 UNL     1      -3.910   1.715   0.525  1.00  0.00     0.189 C 
ENDBRANCH   3   7
BRANCH   1  17
HETATM   17  C4  UNL     1       1.803   1.345   0.012  1.00  0.00     0.150 C 
BRANCH  17  18
HETATM   18  N2  UNL     1       2.391   1.041  -1.263  1.00  0.00    -0.234 NA
HETATM   19  H7  UNL     1       1.680   1.148  -2.001  1.00  0.00     0.146 HD
BRANCH  18  20
HETATM   20  N1  UNL     1       3.138  -0.117  -1.311  1.00  0.00    -0.291 N 
HETATM   21  C3  UNL     1       4.494   0.174  -0.988  1.00  0.00     0.231 C 
HETATM   22  O1  UNL     1       4.754   1.373  -0.730  1.00  0.00    -0.272 OA
HETATM   23  H6  UNL     1       2.924  -1.132  -1.528  1.00  0.00     0.183 HD
BRANCH  21  24
HETATM   24  C2  UNL     1       5.611  -0.835  -0.935  1.00  0.00     0.100 C 
HETATM   25  C1  UNL     1       6.853  -0.066  -0.553  1.00  0.00     0.014 C 
ENDBRANCH  21  24
ENDBRANCH  18  20
ENDBRANCH  17  18
ENDBRANCH   1  17
TORSDOF 5
