REMARK  6 active torsions:
REMARK  status: ('A' for Active; 'I' for Inactive)
REMARK    1  A    between atoms: C2_2  and  O1_3 
REMARK    2  A    between atoms: O1_3  and  C3_4 
REMARK    3  A    between atoms: C6_7  and  N1_8 
REMARK    4  A    between atoms: C11_13  and  N2_14 
REMARK    5  A    between atoms: N3_15  and  N4_16 
REMARK    6  A    between atoms: C16_23  and  O2_24 
ROOT
HETATM    1  C3  UNL     1      -2.508   0.063   0.005  1.00  0.00     0.103 A 
HETATM    2  C4  UNL     1      -1.159  -0.149  -0.158  1.00  0.00     0.057 A 
HETATM    3  C5  UNL     1      -0.616  -1.383  -0.244  1.00  0.00     0.050 A 
HETATM    4  C6  UNL     1       0.747  -1.440  -0.406  1.00  0.00     0.257 A 
HETATM    5  N5  UNL     1       1.193  -2.740  -0.480  1.00  0.00    -0.216 NA
HETATM    6  C13 UNL     1       0.417  -3.813  -0.407  1.00  0.00     0.236 A 
HETATM    7  N6  UNL     1      -0.906  -3.690  -0.249  1.00  0.00    -0.241 NA
HETATM    8  C14 UNL     1      -1.435  -2.463  -0.166  1.00  0.00     0.075 A 
HETATM    9  C15 UNL     1      -2.770  -2.282  -0.005  1.00  0.00     0.072 A 
HETATM   10  C16 UNL     1      -3.383  -1.027   0.090  1.00  0.00     0.103 A 
ENDROOT
BRANCH   4  11
HETATM   11  N1  UNL     1       1.725  -0.301  -0.506  1.00  0.00     0.091 N 
HETATM   12  C7  UNL     1       2.272   0.384  -1.741  1.00  0.00     0.256 A 
HETATM   13  C8  UNL     1       2.787   0.817  -0.597  1.00  0.00     0.249 A 
HETATM   14  C9  UNL     1       1.817   1.928  -0.548  1.00  0.00     0.028 A 
HETATM   15  N3  UNL     1       3.719   0.158   0.224  1.00  0.00    -0.244 N 
HETATM   16  C10 UNL     1       2.355   1.828   0.641  1.00  0.00     0.165 A 
HETATM   17  C11 UNL     1       2.360   0.299   0.683  1.00  0.00     0.434 C 
BRANCH  15  18
HETATM   18  N4  UNL     1       5.015  -0.207   0.305  1.00  0.00    -0.240 NA
HETATM   19  C12 UNL     1       5.961   0.601  -0.417  1.00  0.00     0.133 C 
HETATM   20  H12 UNL     1       5.291  -0.129   1.312  1.00  0.00     0.146 HD
ENDBRANCH  15  18
BRANCH  17  21
HETATM   21  N2  UNL     1       2.010  -0.256   1.886  1.00  0.00     0.140 N 
HETATM   22  H10 UNL     1       1.155  -0.851   1.806  1.00  0.00     0.318 HD
HETATM   23  H11 UNL     1       2.730  -0.730   2.436  1.00  0.00     0.318 HD
ENDBRANCH  17  21
ENDBRANCH   4  11
BRANCH   1  24
HETATM   24  O1  UNL     1      -3.108   1.311   0.098  1.00  0.00    -0.349 OA
BRANCH  24  25
HETATM   25  C2  UNL     1      -2.319   2.484   0.025  1.00  0.00     0.171 C 
HETATM   26  C1  UNL     1      -3.164   3.733   0.148  1.00  0.00     0.034 C 
ENDBRANCH  24  25
ENDBRANCH   1  24
BRANCH  10  27
HETATM   27  O2  UNL     1      -4.742  -0.843   0.254  1.00  0.00    -0.353 OA
HETATM   28  C17 UNL     1      -5.559  -1.988   0.330  1.00  0.00     0.210 C 
ENDBRANCH  10  27
TORSDOF 6
