REMARK  5 active torsions:
REMARK  status: ('A' for Active; 'I' for Inactive)
REMARK    1  A    between atoms: C2_2  and  C3_3 
REMARK    2  A    between atoms: C2_2  and  N1_5 
REMARK    3  A    between atoms: N1_5  and  C5_6 
REMARK    4  A    between atoms: C5_6  and  C6_7 
REMARK    5  A    between atoms: C12_16  and  C13_17 
ROOT
HETATM    1  C6  UNL     1       0.995   0.761  -0.754  1.00  0.00    -0.004 C 
HETATM    2  C7  UNL     1       0.796   2.010  -0.243  1.00  0.00     0.047 C 
HETATM    3  C8  UNL     1      -0.374   2.870   0.073  1.00  0.00     0.097 C 
HETATM    4  N2  UNL     1      -1.576   3.384   0.251  1.00  0.00    -0.258 NA
HETATM    5  C9  UNL     1      -2.711   2.582  -0.088  1.00  0.00     0.227 C 
HETATM    6  N3  UNL     1      -3.658   1.937  -0.640  1.00  0.00    -0.264 NA
HETATM    7  C10 UNL     1      -4.662   1.138   0.044  1.00  0.00     0.271 C 
HETATM    8  N4  UNL     1      -4.687  -0.223  -0.507  1.00  0.00    -0.375 N 
HETATM    9  C11 UNL     1      -3.360  -0.803  -0.303  1.00  0.00     0.011 C 
HETATM   10  C12 UNL     1      -3.420  -1.780   0.625  1.00  0.00     0.029 C 
HETATM   11  C14 UNL     1      -1.903  -0.817  -0.640  1.00  0.00     0.122 C 
HETATM   12  C15 UNL     1      -1.159  -0.078  -1.511  1.00  0.00     0.034 C 
HETATM   13 CL1  UNL     1      -0.974   1.213  -2.770  1.00  0.00    -0.124 Cl
HETATM   14  C16 UNL     1       0.292  -0.467  -1.374  1.00  0.00     0.034 C 
HETATM   15  H16 UNL     1      -5.339  -0.869  -0.989  1.00  0.00     0.161 HD
ENDROOT
BRANCH   1  16
HETATM   16  C5  UNL     1       2.450   0.561  -0.775  1.00  0.00     0.130 C 
BRANCH  16  17
HETATM   17  N1  UNL     1       2.780  -0.594   0.058  1.00  0.00    -0.393 N 
HETATM   18  H8  UNL     1       2.086  -1.185   0.587  1.00  0.00     0.159 HD
BRANCH  17  19
HETATM   19  C2  UNL     1       3.968  -1.296   0.447  1.00  0.00    -0.005 C 
HETATM   20  C1  UNL     1       4.255  -2.521  -0.006  1.00  0.00     0.037 C 
BRANCH  19  21
HETATM   21  C3  UNL     1       4.911  -0.642   1.383  1.00  0.00     0.051 C 
HETATM   22  C4  UNL     1       5.447   0.649   0.832  1.00  0.00     0.011 C 
ENDBRANCH  19  21
ENDBRANCH  17  19
ENDBRANCH  16  17
ENDBRANCH   1  16
BRANCH  10  23
HETATM   23  C13 UNL     1      -4.684  -2.161   1.305  1.00  0.00     0.251 C 
HETATM   24  F1  UNL     1      -4.622  -2.018   2.680  1.00  0.00    -0.251 F 
ENDBRANCH  10  23
TORSDOF 5
