REMARK  7 active torsions:
REMARK  status: ('A' for Active; 'I' for Inactive)
REMARK    1  A    between atoms: C2_2  and  N1_3 
REMARK    2  A    between atoms: N1_3  and  C3_4 
REMARK    3  A    between atoms: N1_3  and  C18_24 
REMARK    4  A    between atoms: C6_7  and  N2_8 
REMARK    5  A    between atoms: N2_8  and  C7_9 
REMARK    6  A    between atoms: C15_21  and  C16_22 
REMARK    7  A    between atoms: C18_24  and  C19_25 
REMARK       I    between atoms: C19_25  and  N5_26 
ROOT
HETATM    1  C3  UNL     1      -0.525   0.879   0.045  1.00  0.00     0.042 A 
HETATM    2  C4  UNL     1       0.754   0.401   0.234  1.00  0.00     0.048 A 
HETATM    3  C5  UNL     1       1.819   1.230   0.372  1.00  0.00     0.041 A 
HETATM    4  C6  UNL     1       3.075   0.695   0.559  1.00  0.00     0.138 A 
HETATM    5  N3  UNL     1       4.065   1.596   0.685  1.00  0.00    -0.224 NA
HETATM    6  C12 UNL     1       3.886   2.909   0.639  1.00  0.00     0.235 A 
HETATM    7  N4  UNL     1       2.645   3.408   0.455  1.00  0.00    -0.241 NA
HETATM    8  C13 UNL     1       1.567   2.587   0.315  1.00  0.00     0.072 A 
HETATM    9  C14 UNL     1       0.295   3.090   0.127  1.00  0.00     0.042 A 
HETATM   10  C15 UNL     1      -0.792   2.248  -0.014  1.00  0.00    -0.029 A 
ENDROOT
BRANCH   1  11
HETATM   11  N1  UNL     1      -1.624  -0.026  -0.097  1.00  0.00    -0.335 N 
BRANCH  11  12
HETATM   12  C2  UNL     1      -1.586  -0.183  -1.530  1.00  0.00     0.082 C 
HETATM   13  C1  UNL     1      -0.728  -1.149  -1.872  1.00  0.00     0.030 C 
ENDBRANCH  11  12
BRANCH  11  14
HETATM   14  C18 UNL     1      -2.612  -0.728   0.642  1.00  0.00     0.170 C 
HETATM   15  C20 UNL     1      -2.772  -2.173   0.146  1.00  0.00     0.315 C 
HETATM   16  N6  UNL     1      -3.373  -1.558  -1.025  1.00  0.00     0.090 N 
HETATM   17  C21 UNL     1      -4.251  -2.344  -1.813  1.00  0.00     0.310 C 
HETATM   18  C22 UNL     1      -3.963  -0.627  -0.072  1.00  0.00     0.315 C 
BRANCH  14  19
HETATM   19  C19 UNL     1      -2.665  -0.581   2.097  1.00  0.00     0.247 C 
HETATM   20  N5  UNL     1      -3.723  -1.360   2.674  1.00  0.00    -0.368 N 
HETATM   21  H16 UNL     1      -3.643  -2.388   2.831  1.00  0.00     0.159 HD
HETATM   22  H17 UNL     1      -4.676  -1.370   3.066  1.00  0.00     0.159 HD
HETATM   23  O1  UNL     1      -1.850   0.153   2.678  1.00  0.00    -0.271 OA
ENDBRANCH  14  19
ENDBRANCH  11  14
ENDBRANCH   1  11
BRANCH  10  24
HETATM   24  C16 UNL     1      -2.181   2.724  -0.219  1.00  0.00     0.036 C 
HETATM   25  C17 UNL     1      -2.213   4.235  -0.248  1.00  0.00     0.010 C 
ENDBRANCH  10  24
BRANCH   4  26
HETATM   26  N2  UNL     1       3.357  -0.694   0.621  1.00  0.00    -0.360 N 
HETATM   27  H5  UNL     1       2.675  -1.474   0.536  1.00  0.00     0.162 HD
BRANCH  26  28
HETATM   28  C7  UNL     1       4.739  -1.119   0.823  1.00  0.00     0.170 A 
HETATM   29  C8  UNL     1       5.579  -0.600  -0.303  1.00  0.00     0.029 A 
HETATM   30  C9  UNL     1       6.136  -1.635  -0.908  1.00  0.00     0.035 A 
HETATM   31 CL1  UNL     1       7.203  -1.591  -2.275  1.00  0.00    -0.085 Cl
HETATM   32  C10 UNL     1       5.717  -2.871  -0.243  1.00  0.00     0.064 A 
HETATM   33  C11 UNL     1       4.906  -2.575   0.762  1.00  0.00     0.121 A 
HETATM   34  F1  UNL     1       4.232  -3.295   1.698  1.00  0.00    -0.208 F 
ENDBRANCH  26  28
ENDBRANCH   4  26
TORSDOF 7
