REMARK  6 active torsions:
REMARK  status: ('A' for Active; 'I' for Inactive)
REMARK    1  A    between atoms: O1_2  and  C2_3 
REMARK    2  A    between atoms: C2_3  and  C3_4 
REMARK    3  A    between atoms: C3_4  and  N1_6 
REMARK    4  A    between atoms: N1_6  and  C5_7 
REMARK    5  A    between atoms: N2_11  and  C9_12 
REMARK    6  A    between atoms: N3_19  and  C14_20 
ROOT
HETATM    1  C5  UNL     1       0.307  -0.223   0.460  1.00  0.00     0.012 C 
HETATM    2  C6  UNL     1       0.258   0.772   1.328  1.00  0.00     0.026 C 
HETATM    3  C7  UNL     1      -0.825   1.731   1.519  1.00  0.00     0.020 C 
HETATM    4  C8  UNL     1      -2.069   1.715   1.032  1.00  0.00     0.099 C 
HETATM    5  N2  UNL     1      -2.633   0.705   0.176  1.00  0.00    -0.307 N 
HETATM    6  C13 UNL     1      -2.043  -0.517  -0.310  1.00  0.00     0.117 C 
HETATM    7  N3  UNL     1      -2.955  -1.435  -0.499  1.00  0.00    -0.228 NA
HETATM    8  C15 UNL     1      -0.620  -0.716  -0.562  1.00  0.00     0.135 C 
ENDROOT
BRANCH   1   9
HETATM    9  N1  UNL     1       1.536  -0.971   0.549  1.00  0.00    -0.387 N 
HETATM   10  H10 UNL     1       1.417  -2.025   0.465  1.00  0.00     0.159 HD
BRANCH   9  11
HETATM   11  C3  UNL     1       2.831  -0.290   0.743  1.00  0.00     0.101 C 
HETATM   12  C4  UNL     1       3.861  -1.423   0.755  1.00  0.00     0.034 C 
BRANCH  11  13
HETATM   13  C2  UNL     1       3.037   0.634  -0.419  1.00  0.00     0.191 C 
BRANCH  13  14
HETATM   14  O1  UNL     1       4.154   1.395  -0.437  1.00  0.00    -0.394 OA
HETATM   15  C1  UNL     1       5.380   0.812  -0.433  1.00  0.00     0.201 C 
ENDBRANCH  13  14
ENDBRANCH  11  13
ENDBRANCH   9  11
ENDBRANCH   1   9
BRANCH   5  16
HETATM   16  C9  UNL     1      -3.980   1.003  -0.226  1.00  0.00     0.082 A 
HETATM   17  C10 UNL     1      -4.374   2.116  -0.839  1.00  0.00     0.165 A 
HETATM   18  F1  UNL     1      -3.703   3.224  -1.246  1.00  0.00    -0.202 F 
HETATM   19  C11 UNL     1      -5.744   1.612  -0.856  1.00  0.00     0.077 A 
HETATM   20 CL1  UNL     1      -7.255   2.227  -1.442  1.00  0.00    -0.081 Cl
HETATM   21  C12 UNL     1      -5.339   0.519  -0.251  1.00  0.00     0.060 A 
ENDBRANCH   5  16
BRANCH   7  22
HETATM   22  C14 UNL     1      -2.547  -2.693  -0.973  1.00  0.00     0.225 C 
HETATM   23  N4  UNL     1      -2.676  -3.323   0.159  1.00  0.00    -0.293 NA
HETATM   24  H16 UNL     1      -2.441  -4.336   0.165  1.00  0.00     0.187 HD
ENDBRANCH   7  22
TORSDOF 6
