REMARK  8 active torsions:
REMARK  status: ('A' for Active; 'I' for Inactive)
REMARK    1  A    between atoms: O1_2  and  C2_3 
REMARK    2  A    between atoms: C6_9  and  N3_10 
REMARK    3  A    between atoms: N3_10  and  C7_11 
REMARK    4  A    between atoms: C15_21  and  C16_22 
REMARK    5  A    between atoms: C16_22  and  N4_23 
REMARK    6  A    between atoms: N4_23  and  C17_24 
REMARK    7  A    between atoms: N4_23  and  C18_26 
REMARK    8  A    between atoms: C22_30  and  N5_31 
ROOT
HETATM    1  C2  UNL     1      -0.778  -1.964   0.982  1.00  0.00     0.078 A 
HETATM    2  C3  UNL     1      -0.194  -2.932   0.192  1.00  0.00     0.070 A 
HETATM    3  C4  UNL     1       1.006  -2.625  -0.408  1.00  0.00     0.074 A 
HETATM    4  N1  UNL     1       1.557  -3.600  -1.181  1.00  0.00    -0.241 NA
HETATM    5  C5  UNL     1       2.732  -3.384  -1.805  1.00  0.00     0.236 A 
HETATM    6  N2  UNL     1       3.347  -2.209  -1.658  1.00  0.00    -0.224 NA
HETATM    7  C6  UNL     1       2.881  -1.197  -0.920  1.00  0.00     0.142 A 
HETATM    8  C13 UNL     1       1.681  -1.430  -0.289  1.00  0.00     0.039 A 
HETATM    9  C14 UNL     1       1.027  -0.525   0.516  1.00  0.00     0.029 A 
HETATM   10  C15 UNL     1      -0.181  -0.712   1.173  1.00  0.00    -0.006 A 
ENDROOT
BRANCH  10  11
HETATM   11  C16 UNL     1      -0.779   0.354   2.009  1.00  0.00     0.166 C 
BRANCH  11  12
HETATM   12  N4  UNL     1      -1.856   1.068   1.406  1.00  0.00    -0.359 N 
BRANCH  12  13
HETATM   13  C17 UNL     1      -1.471   2.237   0.648  1.00  0.00     0.472 C 
HETATM   14  O2  UNL     1      -0.326   2.724   0.438  1.00  0.00    -0.392 OA
ENDBRANCH  12  13
BRANCH  12  15
HETATM   15  C18 UNL     1      -3.132   1.544   0.945  1.00  0.00     0.118 C 
HETATM   16  C19 UNL     1      -4.019   2.002   2.082  1.00  0.00     0.027 C 
HETATM   17  C20 UNL     1      -5.356   2.143   1.385  1.00  0.00     0.004 C 
HETATM   18  C21 UNL     1      -5.420   0.848   0.591  1.00  0.00     0.037 C 
HETATM   19  C22 UNL     1      -3.980   0.540   0.244  1.00  0.00     0.240 C 
BRANCH  19  20
HETATM   20  N5  UNL     1      -3.849   0.796  -1.201  1.00  0.00     0.085 N 
HETATM   21  H22 UNL     1      -4.400   1.645  -1.460  1.00  0.00     0.313 HD
HETATM   22  H23 UNL     1      -4.168  -0.051  -1.733  1.00  0.00     0.313 HD
ENDBRANCH  19  20
ENDBRANCH  12  15
ENDBRANCH  11  12
ENDBRANCH  10  11
BRANCH   1  23
HETATM   23  O1  UNL     1      -1.988  -2.233   1.606  1.00  0.00    -0.355 OA
HETATM   24  C1  UNL     1      -2.636  -3.495   1.440  1.00  0.00     0.210 C 
ENDBRANCH   1  23
BRANCH   7  25
HETATM   25  N3  UNL     1       3.520   0.054  -0.755  1.00  0.00    -0.338 N 
HETATM   26  H6  UNL     1       3.106   0.790  -0.155  1.00  0.00     0.167 HD
BRANCH  25  27
HETATM   27  C7  UNL     1       4.722   0.493  -1.316  1.00  0.00     0.074 A 
HETATM   28  C8  UNL     1       5.488  -0.268  -2.153  1.00  0.00     0.033 A 
HETATM   29  C9  UNL     1       6.677   0.135  -2.722  1.00  0.00     0.004 A 
HETATM   30  C10 UNL     1       7.176   1.392  -2.459  1.00  0.00     0.027 A 
HETATM   31  C11 UNL     1       6.443   2.214  -1.616  1.00  0.00     0.074 A 
HETATM   32 CL1  UNL     1       7.027   3.812  -1.250  1.00  0.00    -0.081 Cl
HETATM   33  C12 UNL     1       5.273   1.725  -1.099  1.00  0.00     0.164 A 
HETATM   34  F1  UNL     1       4.611   2.595  -0.277  1.00  0.00    -0.202 F 
ENDBRANCH  25  27
ENDBRANCH   7  25
TORSDOF 8
