REMARK  5 active torsions:
REMARK  status: ('A' for Active; 'I' for Inactive)
REMARK    1  A    between atoms: C2_2  and  O1_3 
REMARK    2  A    between atoms: O1_3  and  C3_4 
REMARK    3  A    between atoms: C3_4  and  C4_5 
REMARK    4  A    between atoms: C4_5  and  C5_6 
REMARK    5  A    between atoms: C6_7  and  C7_8 
ROOT
HETATM    1  C7  UNL     1      -1.020   0.445   0.363  1.00  0.00     0.186 C 
HETATM    2  C8  UNL     1      -1.347  -0.960   0.532  1.00  0.00     0.028 C 
HETATM    3  C9  UNL     1      -1.777  -2.198   0.604  1.00  0.00     0.087 C 
HETATM    4  N1  UNL     1      -2.981  -2.799   0.111  1.00  0.00    -0.366 N 
HETATM    5  C10 UNL     1      -3.877  -1.663   0.221  1.00  0.00     0.035 A 
HETATM    6  C11 UNL     1      -4.842  -1.375   1.163  1.00  0.00     0.056 A 
HETATM    7  C12 UNL     1      -5.535  -0.182   1.129  1.00  0.00     0.077 A 
HETATM    8 CL1  UNL     1      -6.704   0.017   2.380  1.00  0.00    -0.081 Cl
HETATM    9  C13 UNL     1      -5.268   0.739   0.146  1.00  0.00     0.166 A 
HETATM   10  F1  UNL     1      -5.948   1.904   0.118  1.00  0.00    -0.202 F 
HETATM   11  C14 UNL     1      -4.308   0.449  -0.792  1.00  0.00     0.100 A 
HETATM   12  C15 UNL     1      -3.602  -0.728  -0.789  1.00  0.00     0.064 A 
HETATM   13  N2  UNL     1      -3.905   1.376  -1.827  1.00  0.00    -0.241 NA
HETATM   14  C16 UNL     1      -2.613   1.655  -1.728  1.00  0.00     0.204 C 
HETATM   15  N3  UNL     1      -1.814   1.048  -0.679  1.00  0.00    -0.366 N 
HETATM   16  H13 UNL     1      -3.777  -3.311  -0.250  1.00  0.00     0.165 HD
HETATM   17  H17 UNL     1      -1.269   0.556  -1.460  1.00  0.00     0.161 HD
ENDROOT
BRANCH   1  18
HETATM   18  C6  UNL     1       0.424   0.713   0.125  1.00  0.00    -0.077 C 
HETATM   19  C5  UNL     1       1.595   0.914  -0.055  1.00  0.00    -0.102 C 
BRANCH  19  20
HETATM   20  C4  UNL     1       3.039   1.140  -0.283  1.00  0.00     0.120 C 
BRANCH  20  21
HETATM   21  C3  UNL     1       3.725   0.691   0.960  1.00  0.00     0.179 C 
BRANCH  21  22
HETATM   22  O1  UNL     1       5.098   0.839   0.932  1.00  0.00    -0.391 OA
BRANCH  22  23
HETATM   23  C2  UNL     1       5.700   0.128  -0.071  1.00  0.00     0.163 C 
HETATM   24  C1  UNL     1       7.198   0.374   0.041  1.00  0.00     0.033 C 
ENDBRANCH  22  23
ENDBRANCH  21  22
ENDBRANCH  20  21
ENDBRANCH  19  20
ENDBRANCH   1  18
TORSDOF 5
