REMARK  7 active torsions:
REMARK  status: ('A' for Active; 'I' for Inactive)
REMARK    1  A    between atoms: C4_4  and  N1_5 
REMARK    2  A    between atoms: N1_5  and  C5_6 
REMARK    3  A    between atoms: C13_18  and  C14_19 
REMARK    4  A    between atoms: C14_19  and  C15_20 
REMARK    5  A    between atoms: C15_20  and  N5_21 
REMARK    6  A    between atoms: N5_21  and  O2_22 
REMARK    7  A    between atoms: N5_21  and  C16_23 
ROOT
HETATM    1  C5  UNL     1       2.619  -1.039   1.274  1.00  0.00     0.165 A 
HETATM    2  N2  UNL     1       2.568  -1.739   2.415  1.00  0.00    -0.221 NA
HETATM    3  C6  UNL     1       1.392  -2.043   2.981  1.00  0.00     0.235 A 
HETATM    4  N3  UNL     1       0.207  -1.655   2.423  1.00  0.00    -0.243 NA
HETATM    5  C7  UNL     1       0.212  -0.941   1.262  1.00  0.00     0.074 A 
HETATM    6  C8  UNL     1       1.421  -0.636   0.691  1.00  0.00     0.140 A 
HETATM    7  O1  UNL     1       1.289   0.089  -0.479  1.00  0.00    -0.339 OA
HETATM    8  C9  UNL     1       0.239   0.998  -0.597  1.00  0.00     0.141 C 
HETATM    9  C10 UNL     1       0.201   1.736  -1.886  1.00  0.00     0.063 C 
HETATM   10  C11 UNL     1      -0.970   2.652  -1.979  1.00  0.00     0.272 C 
HETATM   11  N4  UNL     1      -2.232   2.070  -1.539  1.00  0.00     0.084 N 
HETATM   12  C12 UNL     1      -2.035   1.519  -0.212  1.00  0.00     0.282 C 
HETATM   13  C13 UNL     1      -1.147   0.317  -0.421  1.00  0.00     0.019 C 
HETATM   14  C22 UNL     1      -1.125  -0.593   0.770  1.00  0.00     0.076 C 
HETATM   15  H12 UNL     1      -2.901   2.861  -1.433  1.00  0.00     0.315 HD
ENDROOT
BRANCH  13  16
HETATM   16  C14 UNL     1      -1.486  -0.386  -1.684  1.00  0.00     0.036 C 
BRANCH  16  17
HETATM   17  C15 UNL     1      -2.730  -1.142  -1.804  1.00  0.00     0.157 C 
BRANCH  17  18
HETATM   18  N5  UNL     1      -4.008  -0.549  -1.729  1.00  0.00    -0.261 N 
BRANCH  18  19
HETATM   19  O2  UNL     1      -4.720  -0.519  -2.920  1.00  0.00    -0.287 OA
HETATM   20  H19 UNL     1      -4.580   0.371  -3.316  1.00  0.00     0.244 HD
ENDBRANCH  18  19
BRANCH  18  21
HETATM   21  C16 UNL     1      -4.945   0.077  -0.882  1.00  0.00     0.055 C 
HETATM   22  C17 UNL     1      -5.492   1.276  -0.848  1.00  0.00     0.005 C 
HETATM   23  C18 UNL     1      -6.434   1.415   0.278  1.00  0.00     0.034 C 
HETATM   24  C19 UNL     1      -6.244   0.184   1.093  1.00  0.00     0.040 C 
HETATM   25  C20 UNL     1      -5.456  -0.726   0.212  1.00  0.00    -0.051 C 
HETATM   26  C21 UNL     1      -5.330  -2.004   0.498  1.00  0.00     0.041 C 
ENDBRANCH  18  21
ENDBRANCH  17  18
ENDBRANCH  16  17
ENDBRANCH  13  16
BRANCH   1  27
HETATM   27  N1  UNL     1       3.807  -0.667   0.597  1.00  0.00    -0.339 N 
HETATM   28  H5  UNL     1       3.723  -0.119  -0.311  1.00  0.00     0.167 HD
BRANCH  27  29
HETATM   29  C4  UNL     1       5.149  -0.928   0.965  1.00  0.00     0.034 A 
HETATM   30  C3  UNL     1       6.221  -0.545   0.145  1.00  0.00     0.039 A 
HETATM   31  C2  UNL     1       7.526  -0.781   0.476  1.00  0.00    -0.021 A 
HETATM   32  C1  UNL     1       8.598  -0.343  -0.450  1.00  0.00     0.051 C 
HETATM   33  C25 UNL     1       7.863  -1.411   1.639  1.00  0.00     0.122 A 
HETATM   34  C24 UNL     1       6.847  -1.810   2.486  1.00  0.00     0.045 A 
HETATM   35  F1  UNL     1       9.159  -1.641   1.961  1.00  0.00    -0.206 F 
HETATM   36  C23 UNL     1       5.550  -1.551   2.110  1.00  0.00     0.032 A 
ENDBRANCH  27  29
ENDBRANCH   1  27
TORSDOF 7
