REMARK  4 active torsions:
REMARK  status: ('A' for Active; 'I' for Inactive)
REMARK    1  A    between atoms: C2_2  and  C3_3 
REMARK       I    between atoms: C3_3  and  N1_5 
REMARK    2  A    between atoms: N1_5  and  C4_6 
REMARK    3  A    between atoms: C5_7  and  C6_8 
REMARK    4  A    between atoms: C6_8  and  N2_9 
ROOT
HETATM    1  C4  UNL     1       0.680  -0.803   0.818  1.00  0.00     0.095 C 
HETATM    2  C5  UNL     1       0.887   0.306   1.566  1.00  0.00     0.104 C 
HETATM    3  O3  UNL     1      -0.299   1.039   1.662  1.00  0.00    -0.347 OA
HETATM    4  C11 UNL     1      -1.558   0.345   1.691  1.00  0.00     0.213 C 
HETATM    5  C12 UNL     1      -1.838  -0.216   0.347  1.00  0.00    -0.016 C 
HETATM    6  C13 UNL     1      -2.698  -0.130  -0.632  1.00  0.00     0.054 C 
HETATM    7  C14 UNL     1      -3.767   0.139  -1.569  1.00  0.00    -0.007 C 
HETATM    8  C15 UNL     1      -3.804  -0.544  -2.744  1.00  0.00    -0.031 C 
HETATM    9  C16 UNL     1      -4.886  -0.222  -3.649  1.00  0.00     0.036 C 
HETATM   10  C17 UNL     1      -4.470  -0.397  -4.922  1.00  0.00     0.072 C 
HETATM   11 CL1  UNL     1      -5.662  -0.013  -6.144  1.00  0.00    -0.081 Cl
HETATM   12  C18 UNL     1      -3.250  -1.079  -5.317  1.00  0.00     0.136 C 
HETATM   13  F1  UNL     1      -2.929  -1.158  -6.608  1.00  0.00    -0.205 F 
HETATM   14  C19 UNL     1      -2.436  -1.635  -4.411  1.00  0.00     0.049 C 
HETATM   15  C20 UNL     1      -2.789  -1.578  -3.013  1.00  0.00     0.168 C 
HETATM   16  N3  UNL     1      -1.763  -1.616  -2.034  1.00  0.00    -0.269 NA
HETATM   17  C21 UNL     1      -1.788  -2.550  -1.093  1.00  0.00     0.228 C 
HETATM   18  N4  UNL     1      -0.630  -2.128  -0.449  1.00  0.00    -0.240 NA
HETATM   19  C22 UNL     1      -0.626  -1.038   0.243  1.00  0.00     0.092 C 
ENDROOT
BRANCH   2  20
HETATM   20  C6  UNL     1       2.041   0.901   2.286  1.00  0.00     0.342 C 
BRANCH  20  21
HETATM   21  N2  UNL     1       2.301   2.214   1.773  1.00  0.00     0.124 N 
HETATM   22  C7  UNL     1       3.552   2.764   2.318  1.00  0.00     0.302 C 
HETATM   23  C8  UNL     1       3.394   4.202   1.869  1.00  0.00     0.201 C 
HETATM   24  O2  UNL     1       2.022   4.421   1.742  1.00  0.00    -0.356 OA
HETATM   25  C9  UNL     1       1.410   3.256   2.247  1.00  0.00     0.355 C 
HETATM   26  C10 UNL     1       1.354   3.408   3.729  1.00  0.00     0.073 C 
ENDBRANCH  20  21
ENDBRANCH   2  20
BRANCH   1  27
HETATM   27  N1  UNL     1       1.847  -1.609   0.688  1.00  0.00    -0.320 N 
HETATM   28  C3  UNL     1       2.305  -2.805   0.090  1.00  0.00     0.245 C 
HETATM   29  O1  UNL     1       1.464  -3.417  -0.579  1.00  0.00    -0.268 OA
HETATM   30  H4  UNL     1       2.749  -1.313   1.165  1.00  0.00     0.169 HD
BRANCH  28  31
HETATM   31  C2  UNL     1       3.587  -3.456   0.117  1.00  0.00     0.064 C 
HETATM   32  C1  UNL     1       3.329  -4.499  -0.627  1.00  0.00     0.017 C 
ENDBRANCH  28  31
ENDBRANCH   1  27
TORSDOF 4
