REMARK  3 active torsions:
REMARK  status: ('A' for Active; 'I' for Inactive)
REMARK    1  A    between atoms: C1_2  and  O2_3 
REMARK    2  A    between atoms: O2_3  and  C2_4 
REMARK    3  A    between atoms: C5_8  and  C6_9 
ROOT
HETATM    1  C2  UNL     1       1.814   1.708   0.375  1.00  0.00     0.075 C 
HETATM    2  C3  UNL     1       0.744   1.471  -0.378  1.00  0.00     0.071 C 
HETATM    3  C4  UNL     1       0.821   0.033  -0.743  1.00  0.00     0.073 C 
HETATM    4  N1  UNL     1       0.069  -0.944  -0.833  1.00  0.00    -0.254 NA
HETATM    5  C5  UNL     1      -1.278  -1.186  -0.624  1.00  0.00     0.240 C 
HETATM    6  N2  UNL     1      -1.325  -2.145   0.535  1.00  0.00    -0.373 N 
HETATM    7  C12 UNL     1      -0.526  -3.329   0.320  1.00  0.00     0.085 C 
HETATM    8  C13 UNL     1       0.674  -3.665  -0.123  1.00  0.00     0.017 C 
HETATM    9  C14 UNL     1       1.930  -3.154  -0.662  1.00  0.00     0.006 C 
HETATM   10  C15 UNL     1       2.534  -1.991  -1.002  1.00  0.00     0.025 C 
HETATM   11  S1  UNL     1       2.376  -0.327  -1.088  1.00  0.00    -0.198 SA
HETATM   12  C16 UNL     1       3.708   0.229  -0.264  1.00  0.00     0.019 A 
HETATM   13  C17 UNL     1       2.621   0.455   0.534  1.00  0.00     0.117 A 
HETATM   14  H9  UNL     1      -1.866  -1.956   1.382  1.00  0.00     0.161 HD
HETATM   15  H14 UNL     1       2.498   0.341  -2.204  1.00  0.00     0.088 HD
ENDROOT
BRANCH   5  16
HETATM   16  C6  UNL     1      -2.138  -0.051  -0.196  1.00  0.00    -0.015 A 
HETATM   17  C7  UNL     1      -1.969   0.741   0.898  1.00  0.00     0.011 A 
HETATM   18  C8  UNL     1      -2.812   1.784   1.214  1.00  0.00     0.001 A 
HETATM   19  C9  UNL     1      -3.895   2.084   0.420  1.00  0.00     0.000 A 
HETATM   20  C10 UNL     1      -4.121   1.319  -0.702  1.00  0.00     0.001 A 
HETATM   21  C11 UNL     1      -3.251   0.289  -0.975  1.00  0.00     0.011 A 
ENDBRANCH   5  16
BRANCH   1  22
HETATM   22  O2  UNL     1       2.129   2.953   0.935  1.00  0.00    -0.289 OA
BRANCH  22  23
HETATM   23  C1  UNL     1       2.328   4.014   0.072  1.00  0.00     0.403 C 
HETATM   24  O1  UNL     1       2.157   3.539  -1.092  1.00  0.00    -0.276 OA
ENDBRANCH  22  23
ENDBRANCH   1  22
TORSDOF 3
