REMARK  3 active torsions:
REMARK  status: ('A' for Active; 'I' for Inactive)
REMARK    1  A    between atoms: O1_2  and  C2_3 
REMARK    2  A    between atoms: C7_11  and  N3_12 
REMARK    3  A    between atoms: N3_12  and  C8_13 
ROOT
HETATM    1  C2  UNL     1      -2.410  -0.233  -0.053  1.00  0.00     0.151 C 
HETATM    2  C3  UNL     1      -1.662  -1.353   0.019  1.00  0.00     0.074 A 
HETATM    3  C4  UNL     1      -2.123  -2.589   0.584  1.00  0.00     0.134 A 
HETATM    4  N1  UNL     1      -1.290  -3.582   0.576  1.00  0.00    -0.254 NA
HETATM    5  C5  UNL     1       0.004  -3.339   0.002  1.00  0.00     0.230 A 
HETATM    6  N2  UNL     1       0.478  -2.251  -0.521  1.00  0.00    -0.233 NA
HETATM    7  C6  UNL     1      -0.317  -1.083  -0.581  1.00  0.00     0.252 A 
HETATM    8  F1  UNL     1      -0.510  -0.720  -1.926  1.00  0.00    -0.209 F 
HETATM    9  C7  UNL     1       0.298   0.161   0.051  1.00  0.00     0.181 C 
HETATM   10  C14 UNL     1      -0.492   1.351  -0.301  1.00  0.00     0.110 C 
HETATM   11  C15 UNL     1      -0.588   2.422   0.801  1.00  0.00     0.307 C 
HETATM   12  N4  UNL     1      -0.578   3.473  -0.204  1.00  0.00     0.089 N 
HETATM   13  C16 UNL     1      -1.849   3.977  -0.621  1.00  0.00     0.310 C 
HETATM   14  C17 UNL     1       0.022   2.464  -1.100  1.00  0.00     0.307 C 
HETATM   15  N5  UNL     1      -1.883   0.982  -0.636  1.00  0.00    -0.355 N 
HETATM   16  H19 UNL     1      -2.543   1.504  -1.257  1.00  0.00     0.162 HD
ENDROOT
BRANCH   9  17
HETATM   17  N3  UNL     1       1.693   0.176  -0.310  1.00  0.00    -0.377 N 
HETATM   18  H7  UNL     1       1.868   0.866  -1.070  1.00  0.00     0.160 HD
BRANCH  17  19
HETATM   19  C8  UNL     1       2.797  -0.562   0.175  1.00  0.00     0.030 A 
HETATM   20  C9  UNL     1       4.058  -0.396  -0.408  1.00  0.00     0.029 A 
HETATM   21  C10 UNL     1       5.130  -1.101   0.087  1.00  0.00     0.004 A 
HETATM   22  C11 UNL     1       5.027  -1.978   1.145  1.00  0.00     0.024 A 
HETATM   23  C12 UNL     1       3.778  -2.164   1.749  1.00  0.00     0.036 A 
HETATM   24 CL1  UNL     1       3.651  -3.269   3.081  1.00  0.00    -0.084 Cl
HETATM   25  C13 UNL     1       2.718  -1.444   1.233  1.00  0.00     0.052 A 
ENDBRANCH  17  19
ENDBRANCH   9  17
BRANCH   1  26
HETATM   26  O1  UNL     1      -3.705  -0.266   0.447  1.00  0.00    -0.340 OA
HETATM   27  C1  UNL     1      -4.842  -0.488  -0.330  1.00  0.00     0.211 C 
ENDBRANCH   1  26
TORSDOF 3
