REMARK  7 active torsions:
REMARK  status: ('A' for Active; 'I' for Inactive)
REMARK    1  A    between atoms: C1_2  and  C2_3 
REMARK       I    between atoms: C1_2  and  N1_6 
REMARK    2  A    between atoms: C2_3  and  C3_4 
REMARK    3  A    between atoms: C3_4  and  O2_5 
REMARK    4  A    between atoms: N1_6  and  C4_7 
REMARK    5  A    between atoms: C6_9  and  C7_10 
REMARK    6  A    between atoms: C7_10  and  C8_11 
REMARK    7  A    between atoms: C9_12  and  N2_13 
ROOT
HETATM    1  C7  UNL     1      -0.711   0.727  -0.660  1.00  0.00     0.135 A 
HETATM    2  C18 UNL     1      -0.786   1.464  -1.966  1.00  0.00     0.133 A 
HETATM    3  N4  UNL     1      -0.478   2.704  -1.761  1.00  0.00    -0.255 NA
HETATM    4  C19 UNL     1      -0.192   2.858  -0.355  1.00  0.00     0.228 A 
HETATM    5  N5  UNL     1      -0.321   1.757   0.267  1.00  0.00    -0.257 NA
ENDROOT
BRANCH   1   6
HETATM    6  C6  UNL     1       0.352  -0.326  -0.740  1.00  0.00    -0.023 C 
HETATM    7  C5  UNL     1       1.730   0.230  -0.798  1.00  0.00     0.034 C 
HETATM    8  C4  UNL     1       2.771  -0.316  -0.117  1.00  0.00     0.003 C 
HETATM    9  C21 UNL     1       2.721  -1.521   0.784  1.00  0.00     0.004 C 
HETATM   10  B1  UNL     1       1.173  -2.129   0.987  1.00  0.00     0.189 B 
HETATM   11  C20 UNL     1       0.208  -1.616  -0.804  1.00  0.00    -0.102 C 
BRANCH   8  12
HETATM   12  N1  UNL     1       4.110   0.150  -0.110  1.00  0.00    -0.332 N 
HETATM   13  C1  UNL     1       5.320  -0.472  -0.525  1.00  0.00     0.223 C 
HETATM   14  O1  UNL     1       5.308  -1.620  -1.002  1.00  0.00    -0.273 OA
HETATM   15  H6  UNL     1       3.908   1.110   0.307  1.00  0.00     0.168 HD
BRANCH  13  16
HETATM   16  C2  UNL     1       6.403   0.537  -0.243  1.00  0.00     0.129 C 
BRANCH  16  17
HETATM   17  C3  UNL     1       7.701  -0.025  -0.764  1.00  0.00     0.173 C 
BRANCH  17  18
HETATM   18  O2  UNL     1       7.575  -0.199  -2.154  1.00  0.00    -0.400 OA
HETATM   19  H5  UNL     1       7.586   0.669  -2.635  1.00  0.00     0.209 HD
ENDBRANCH  17  18
ENDBRANCH  16  17
ENDBRANCH  13  16
ENDBRANCH   8  12
ENDBRANCH   1   6
BRANCH   1  20
HETATM   20  C8  UNL     1      -2.014   0.225  -0.232  1.00  0.00     0.035 C 
HETATM   21  C9  UNL     1      -2.460  -0.947   0.191  1.00  0.00     0.111 C 
BRANCH  21  22
HETATM   22  N2  UNL     1      -3.822  -0.848   0.480  1.00  0.00    -0.286 N 
HETATM   23  C10 UNL     1      -5.237  -1.451   0.528  1.00  0.00     0.082 A 
HETATM   24  C11 UNL     1      -5.569  -2.655  -0.100  1.00  0.00    -0.010 A 
HETATM   25  C17 UNL     1      -6.091  -0.463   1.417  1.00  0.00     0.107 A 
HETATM   26  C12 UNL     1      -6.241  -1.786   0.655  1.00  0.00     0.071 A 
HETATM   27  C13 UNL     1      -5.581  -0.587   1.181  1.00  0.00     0.080 A 
HETATM   28  C14 UNL     1      -6.367   0.448   2.071  1.00  0.00     0.006 A 
HETATM   29  C15 UNL     1      -5.319   1.409   2.346  1.00  0.00     0.000 A 
HETATM   30  C16 UNL     1      -4.022   1.286   1.866  1.00  0.00     0.108 A 
HETATM   31  N3  UNL     1      -4.370   0.127   1.250  1.00  0.00    -0.289 N 
ENDBRANCH  21  22
ENDBRANCH   1  20
TORSDOF 7
