REMARK  7 active torsions:
REMARK  status: ('A' for Active; 'I' for Inactive)
REMARK    1  A    between atoms: O1_2  and  C2_3 
REMARK    2  A    between atoms: C6_9  and  N3_10 
REMARK    3  A    between atoms: N3_10  and  C7_11 
REMARK    4  A    between atoms: C7_11  and  C9_13 
REMARK    5  A    between atoms: C17_21  and  N4_22 
REMARK    6  A    between atoms: N4_22  and  C18_23 
REMARK    7  A    between atoms: C18_23  and  C20_25 
ROOT
HETATM    1  C2  UNL     1      -2.779   1.331  -0.133  1.00  0.00     0.096 A 
HETATM    2  C3  UNL     1      -1.898   2.410  -0.344  1.00  0.00     0.071 A 
HETATM    3  C4  UNL     1      -0.581   2.094  -0.553  1.00  0.00     0.075 A 
HETATM    4  N1  UNL     1       0.283   3.098  -0.759  1.00  0.00    -0.241 NA
HETATM    5  C5  UNL     1       1.589   2.859  -0.973  1.00  0.00     0.235 A 
HETATM    6  N2  UNL     1       2.045   1.596  -0.983  1.00  0.00    -0.224 NA
HETATM    7  C6  UNL     1       1.265   0.522  -0.788  1.00  0.00     0.138 A 
HETATM    8  C15 UNL     1      -0.060   0.825  -0.573  1.00  0.00     0.041 A 
HETATM    9  C16 UNL     1      -0.925  -0.197  -0.369  1.00  0.00     0.049 A 
HETATM   10  C17 UNL     1      -2.260   0.028  -0.152  1.00  0.00     0.063 A 
ENDROOT
BRANCH   7  11
HETATM   11  N3  UNL     1       1.792  -0.802  -0.813  1.00  0.00    -0.366 N 
HETATM   12  H6  UNL     1       1.280  -1.691  -0.678  1.00  0.00     0.161 HD
BRANCH  11  13
HETATM   13  C7  UNL     1       3.232  -0.881  -1.064  1.00  0.00     0.112 C 
HETATM   14  C8  UNL     1       3.667  -2.341  -1.170  1.00  0.00     0.037 C 
BRANCH  13  15
HETATM   15  C9  UNL     1       3.871  -0.341   0.178  1.00  0.00    -0.036 A 
HETATM   16  C10 UNL     1       3.533  -0.858   1.420  1.00  0.00     0.009 A 
HETATM   17  C11 UNL     1       4.132  -0.332   2.561  1.00  0.00     0.001 A 
HETATM   18  C12 UNL     1       5.064   0.712   2.438  1.00  0.00     0.000 A 
HETATM   19  C13 UNL     1       5.380   1.208   1.162  1.00  0.00     0.001 A 
HETATM   20  C14 UNL     1       4.780   0.675   0.051  1.00  0.00     0.009 A 
ENDBRANCH  13  15
ENDBRANCH  11  13
ENDBRANCH   7  11
BRANCH  10  21
HETATM   21  N4  UNL     1      -3.340  -0.792   0.090  1.00  0.00    -0.377 N 
HETATM   22  H17 UNL     1      -2.824  -1.730   0.028  1.00  0.00     0.160 HD
BRANCH  21  23
HETATM   23  C18 UNL     1      -4.446  -1.632   0.337  1.00  0.00     0.139 C 
HETATM   24  C19 UNL     1      -4.823  -2.560  -0.793  1.00  0.00     0.039 C 
BRANCH  23  25
HETATM   25  C20 UNL     1      -4.321  -2.488   1.577  1.00  0.00     0.255 C 
HETATM   26  O2  UNL     1      -5.323  -3.180   1.712  1.00  0.00    -0.305 OA
ENDBRANCH  23  25
ENDBRANCH  21  23
ENDBRANCH  10  21
BRANCH   1  27
HETATM   27  O1  UNL     1      -4.093   1.730   0.071  1.00  0.00    -0.354 OA
HETATM   28  C1  UNL     1      -4.507   3.059   0.067  1.00  0.00     0.210 C 
ENDBRANCH   1  27
TORSDOF 7
