REMARK  7 active torsions:
REMARK  status: ('A' for Active; 'I' for Inactive)
REMARK    1  A    between atoms: C2_2  and  C3_3 
REMARK       I    between atoms: C3_3  and  N1_5 
REMARK    2  A    between atoms: N1_5  and  C4_6 
REMARK    3  A    between atoms: C7_9  and  N2_10 
REMARK    4  A    between atoms: N2_10  and  P1_11 
REMARK    5  A    between atoms: P1_11  and  C8_12 
REMARK    6  A    between atoms: C8_12  and  C10_14 
REMARK    7  A    between atoms: C19_25  and  O2_26 
ROOT
HETATM    1  C4  UNL     1       3.019   0.618  -0.171  1.00  0.00     0.069 A 
HETATM    2  C5  UNL     1       1.699   0.275  -0.161  1.00  0.00     0.050 A 
HETATM    3  C6  UNL     1       0.988   0.379  -1.337  1.00  0.00     0.041 A 
HETATM    4  C7  UNL     1      -0.346   0.021  -1.284  1.00  0.00     0.140 A 
HETATM    5  N3  UNL     1      -1.078   0.105  -2.399  1.00  0.00    -0.224 NA
HETATM    6  C16 UNL     1      -0.529   0.532  -3.562  1.00  0.00     0.236 A 
HETATM    7  N4  UNL     1       0.784   0.893  -3.646  1.00  0.00    -0.241 NA
HETATM    8  C17 UNL     1       1.544   0.817  -2.535  1.00  0.00     0.075 A 
HETATM    9  C18 UNL     1       2.878   1.151  -2.490  1.00  0.00     0.071 A 
HETATM   10  C19 UNL     1       3.638   1.064  -1.335  1.00  0.00     0.097 A 
ENDROOT
BRANCH   4  11
HETATM   11  N2  UNL     1      -1.048  -0.442  -0.135  1.00  0.00    -0.351 N 
HETATM   12  H8  UNL     1      -0.712  -0.595   0.841  1.00  0.00     0.166 HD
BRANCH  11  13
HETATM   13  P1  UNL     1      -2.785  -0.895  -0.121  1.00  0.00    -0.020 P 
HETATM   14  H9  UNL     1      -2.985  -2.326  -0.098  1.00  0.00     0.081 HD
BRANCH  13  15
HETATM   15  C8  UNL     1      -3.720  -0.045   1.236  1.00  0.00     0.060 C 
HETATM   16  C9  UNL     1      -3.643   1.438   1.054  1.00  0.00     0.021 C 
BRANCH  15  17
HETATM   17  C10 UNL     1      -5.140  -0.461   1.102  1.00  0.00    -0.049 A 
HETATM   18  C11 UNL     1      -5.901  -1.099   2.063  1.00  0.00     0.008 A 
HETATM   19  C12 UNL     1      -7.223  -1.431   1.804  1.00  0.00     0.001 A 
HETATM   20  C13 UNL     1      -7.750  -1.103   0.551  1.00  0.00     0.000 A 
HETATM   21  C14 UNL     1      -7.010  -0.466  -0.424  1.00  0.00     0.001 A 
HETATM   22  C15 UNL     1      -5.689  -0.148  -0.129  1.00  0.00     0.008 A 
ENDBRANCH  15  17
ENDBRANCH  13  15
ENDBRANCH  11  13
ENDBRANCH   4  11
BRANCH   1  23
HETATM   23  N1  UNL     1       3.869   0.558   0.972  1.00  0.00    -0.325 N 
HETATM   24  C3  UNL     1       4.575  -0.647   1.224  1.00  0.00     0.221 C 
HETATM   25  O1  UNL     1       4.302  -1.502   0.329  1.00  0.00    -0.273 OA
HETATM   26  H6  UNL     1       3.903   1.436   1.550  1.00  0.00     0.169 HD
BRANCH  24  27
HETATM   27  C2  UNL     1       5.438  -0.673   2.407  1.00  0.00     0.098 C 
HETATM   28  C1  UNL     1       6.144  -2.017   2.574  1.00  0.00     0.014 C 
ENDBRANCH  24  27
ENDBRANCH   1  23
BRANCH  10  29
HETATM   29  O2  UNL     1       4.974   1.423  -1.391  1.00  0.00    -0.354 OA
HETATM   30  C20 UNL     1       5.608   1.875  -2.568  1.00  0.00     0.210 C 
ENDBRANCH  10  29
TORSDOF 7
