REMARK  5 active torsions:
REMARK  status: ('A' for Active; 'I' for Inactive)
REMARK    1  A    between atoms: C2_2  and  C3_3 
REMARK       I    between atoms: C3_3  and  N1_5 
REMARK    2  A    between atoms: N1_5  and  C4_6 
REMARK    3  A    between atoms: C7_9  and  N2_10 
REMARK    4  A    between atoms: N2_10  and  C8_11 
REMARK    5  A    between atoms: C8_11  and  C10_13 
ROOT
HETATM    1  C4  UNL     1      -2.392  -0.746   0.385  1.00  0.00     0.041 A 
HETATM    2  C5  UNL     1      -1.039  -0.775   0.161  1.00  0.00     0.048 A 
HETATM    3  C6  UNL     1      -0.418  -1.701  -0.648  1.00  0.00     0.041 A 
HETATM    4  C7  UNL     1       0.948  -1.659  -0.819  1.00  0.00     0.138 A 
HETATM    5  N3  UNL     1       1.398  -2.620  -1.629  1.00  0.00    -0.224 NA
HETATM    6  C16 UNL     1       0.612  -3.536  -2.220  1.00  0.00     0.235 A 
HETATM    7  N4  UNL     1      -0.734  -3.561  -2.039  1.00  0.00    -0.241 NA
HETATM    8  C17 UNL     1      -1.268  -2.619  -1.231  1.00  0.00     0.072 A 
HETATM    9  C18 UNL     1      -2.630  -2.620  -1.029  1.00  0.00     0.041 A 
HETATM   10  C19 UNL     1      -3.216  -1.677  -0.213  1.00  0.00    -0.033 A 
HETATM   11  C20 UNL     1      -4.679  -1.646   0.029  1.00  0.00     0.050 C 
ENDROOT
BRANCH   4  12
HETATM   12  N2  UNL     1       1.783  -0.706  -0.213  1.00  0.00    -0.366 N 
HETATM   13  H8  UNL     1       1.490   0.047   0.404  1.00  0.00     0.161 HD
BRANCH  12  14
HETATM   14  C8  UNL     1       3.228  -0.760  -0.464  1.00  0.00     0.112 C 
HETATM   15  C9  UNL     1       3.813  -2.038   0.056  1.00  0.00     0.037 C 
BRANCH  14  16
HETATM   16  C10 UNL     1       3.925   0.425   0.099  1.00  0.00    -0.036 A 
HETATM   17  C11 UNL     1       3.208   1.579  -0.197  1.00  0.00     0.009 A 
HETATM   18  C12 UNL     1       3.645   2.838   0.217  1.00  0.00     0.001 A 
HETATM   19  C13 UNL     1       4.822   2.925   0.940  1.00  0.00     0.000 A 
HETATM   20  C14 UNL     1       5.521   1.773   1.225  1.00  0.00     0.001 A 
HETATM   21  C15 UNL     1       5.095   0.530   0.820  1.00  0.00     0.009 A 
ENDBRANCH  14  16
ENDBRANCH  12  14
ENDBRANCH   4  12
BRANCH   1  22
HETATM   22  N1  UNL     1      -3.007   0.237   1.236  1.00  0.00    -0.327 N 
HETATM   23  C3  UNL     1      -3.402   1.416   0.545  1.00  0.00     0.221 C 
HETATM   24  O1  UNL     1      -3.229   1.585  -0.697  1.00  0.00    -0.273 OA
HETATM   25  H6  UNL     1      -3.175   0.146   2.274  1.00  0.00     0.169 HD
BRANCH  23  26
HETATM   26  C2  UNL     1      -4.052   2.485   1.373  1.00  0.00     0.098 C 
HETATM   27  C1  UNL     1      -4.432   3.684   0.567  1.00  0.00     0.014 C 
ENDBRANCH  23  26
ENDBRANCH   1  22
TORSDOF 5
