REMARK  6 active torsions:
REMARK  status: ('A' for Active; 'I' for Inactive)
REMARK    1  A    between atoms: C5_6  and  N2_7 
REMARK    2  A    between atoms: N2_7  and  C6_8 
REMARK    3  A    between atoms: C6_8  and  N3_9 
REMARK    4  A    between atoms: C6_8  and  C7_10 
REMARK    5  A    between atoms: C14_17  and  N4_18 
REMARK    6  A    between atoms: N4_18  and  C15_19 
ROOT
HETATM    1  C1  UNL     1       3.190  -3.377   2.285  1.00  0.00     0.019 C 
HETATM    2  C2  UNL     1       2.394  -2.694   1.651  1.00  0.00    -0.055 C 
HETATM    3  C3  UNL     1       1.451  -1.886   0.930  1.00  0.00     0.135 A 
HETATM    4  N1  UNL     1       0.194  -1.704   1.411  1.00  0.00    -0.247 NA
HETATM    5  C4  UNL     1      -0.672  -0.931   0.699  1.00  0.00     0.147 A 
HETATM    6  C5  UNL     1      -0.349  -0.317  -0.490  1.00  0.00     0.049 A 
HETATM    7  C13 UNL     1       0.935  -0.526  -0.946  1.00  0.00     0.063 A 
HETATM    8  C14 UNL     1       1.864  -1.304  -0.264  1.00  0.00     0.068 A 
ENDROOT
BRANCH   8   9
HETATM    9  N4  UNL     1       3.144  -1.447  -0.819  1.00  0.00    -0.388 N 
HETATM   10  H13 UNL     1       3.812  -2.049  -0.251  1.00  0.00     0.159 HD
BRANCH   9  11
HETATM   11  C15 UNL     1       3.567  -0.840  -2.060  1.00  0.00     0.115 C 
HETATM   12  C16 UNL     1       4.996  -1.216  -2.321  1.00  0.00     0.026 C 
ENDBRANCH   9  11
ENDBRANCH   8   9
BRANCH   6  13
HETATM   13  N2  UNL     1      -1.289   0.481  -1.199  1.00  0.00    -0.356 N 
HETATM   14  H3  UNL     1      -0.926   0.904  -2.107  1.00  0.00     0.162 HD
BRANCH  13  15
HETATM   15  C6  UNL     1      -2.637   0.730  -0.764  1.00  0.00     0.351 C 
BRANCH  15  16
HETATM   16  N3  UNL     1      -3.386  -0.502  -0.602  1.00  0.00     0.105 N 
HETATM   17  H5  UNL     1      -4.405  -0.380  -0.644  1.00  0.00     0.315 HD
HETATM   18  H6  UNL     1      -3.025  -1.237  -1.251  1.00  0.00     0.315 HD
ENDBRANCH  15  16
BRANCH  15  19
HETATM   19  C7  UNL     1      -2.718   1.576   0.442  1.00  0.00    -0.006 A 
HETATM   20  C8  UNL     1      -1.912   2.691   0.575  1.00  0.00     0.011 A 
HETATM   21  C9  UNL     1      -2.059   3.437   1.743  1.00  0.00     0.001 A 
HETATM   22  C10 UNL     1      -2.959   3.078   2.707  1.00  0.00     0.000 A 
HETATM   23  C11 UNL     1      -3.753   1.977   2.573  1.00  0.00     0.001 A 
HETATM   24  C12 UNL     1      -3.640   1.207   1.429  1.00  0.00     0.011 A 
ENDBRANCH  15  19
ENDBRANCH  13  15
ENDBRANCH   6  13
TORSDOF 6
