REMARK  4 active torsions:
REMARK  status: ('A' for Active; 'I' for Inactive)
REMARK    1  A    between atoms: N2_5  and  C4_6 
REMARK    2  A    between atoms: C11_16  and  C12_17 
REMARK    3  A    between atoms: B2_19  and  O1_20 
REMARK    4  A    between atoms: O1_20  and  C14_21 
ROOT
HETATM    1  C1  UNL     1       1.487   2.089  -0.295  1.00  0.00     0.049 C 
HETATM    2  C2  UNL     1       0.843   0.854   0.075  1.00  0.00     0.269 C 
HETATM    3  N1  UNL     1       0.176   1.064   1.283  1.00  0.00     0.109 NA
HETATM    4  C3  UNL     1      -0.913   1.979   0.773  1.00  0.00     0.381 C 
HETATM    5  N2  UNL     1      -1.750   1.245  -0.169  1.00  0.00    -0.390 N 
HETATM    6  B1  UNL     1      -1.718   1.327  -1.733  1.00  0.00     0.415 B 
HETATM    7  N3  UNL     1      -0.971   0.219  -2.507  1.00  0.00    -0.325 NA
HETATM    8  C10 UNL     1       0.140  -0.338  -2.207  1.00  0.00     0.210 C 
HETATM    9  N4  UNL     1       1.407  -0.783  -1.609  1.00  0.00    -0.246 NA
HETATM   10  C11 UNL     1       1.726  -0.149  -0.453  1.00  0.00     0.066 C 
HETATM   11  H5  UNL     1      -0.230   0.247   1.760  1.00  0.00     0.318 HD
HETATM   12  H13 UNL     1      -2.683   1.713  -2.233  1.00  0.00     0.029 HD
ENDROOT
BRANCH   5  13
HETATM   13  C4  UNL     1      -2.704   0.279   0.276  1.00  0.00     0.018 A 
HETATM   14  C5  UNL     1      -3.460  -0.528  -0.551  1.00  0.00     0.028 A 
HETATM   15  C6  UNL     1      -4.381  -1.454  -0.146  1.00  0.00     0.002 A 
HETATM   16  C7  UNL     1      -4.602  -1.624   1.194  1.00  0.00     0.000 A 
HETATM   17  C8  UNL     1      -3.889  -0.859   2.090  1.00  0.00     0.002 A 
HETATM   18  C9  UNL     1      -2.976   0.055   1.610  1.00  0.00     0.028 A 
ENDBRANCH   5  13
BRANCH  10  19
HETATM   19  C12 UNL     1       3.024  -0.525   0.088  1.00  0.00    -0.044 A 
HETATM   20  C13 UNL     1       3.872  -0.262   1.157  1.00  0.00    -0.039 A 
HETATM   21  B2  UNL     1       4.373  -1.290   0.120  1.00  0.00     0.401 B 
BRANCH  21  22
HETATM   22  O1  UNL     1       5.267  -2.339  -0.458  1.00  0.00    -0.386 OA
BRANCH  22  23
HETATM   23  C14 UNL     1       6.585  -2.040  -0.761  1.00  0.00     0.380 C 
HETATM   24  O2  UNL     1       6.993  -0.862  -0.531  1.00  0.00    -0.278 OA
ENDBRANCH  22  23
ENDBRANCH  21  22
ENDBRANCH  10  19
TORSDOF 4
