REMARK  2 active torsions:
REMARK  status: ('A' for Active; 'I' for Inactive)
REMARK    1  A    between atoms: C2_2  and  C3_3 
REMARK       I    between atoms: C3_3  and  N1_5 
REMARK    2  A    between atoms: N1_5  and  C4_6 
ROOT
HETATM    1  C4  UNL     1       2.393  -0.263  -0.355  1.00  0.00     0.117 C 
HETATM    2  C5  UNL     1       1.226  -0.943  -0.499  1.00  0.00     0.040 C 
HETATM    3  C6  UNL     1       0.970  -2.093   0.388  1.00  0.00     0.208 C 
HETATM    4  N2  UNL     1       0.793  -3.367  -0.196  1.00  0.00    -0.277 NA
HETATM    5  C7  UNL     1      -0.231  -4.003  -0.556  1.00  0.00     0.226 C 
HETATM    6  N3  UNL     1      -0.901  -2.868  -0.103  1.00  0.00    -0.258 NA
HETATM    7  C8  UNL     1      -2.096  -2.579  -0.526  1.00  0.00     0.098 C 
HETATM    8  C9  UNL     1      -3.332  -1.832  -0.651  1.00  0.00     0.099 C 
HETATM    9  C10 UNL     1      -3.792  -0.650  -0.105  1.00  0.00     0.001 C 
HETATM   10  C11 UNL     1      -5.081  -0.856  -0.878  1.00  0.00     0.022 C 
HETATM   11  S1  UNL     1      -3.901   0.937   0.864  1.00  0.00    -0.156 SA
HETATM   12  C12 UNL     1      -2.363   1.388   1.258  1.00  0.00     0.014 C 
HETATM   13  C13 UNL     1      -1.916   1.901   0.095  1.00  0.00    -0.057 C 
HETATM   14  C14 UNL     1      -2.266   3.332   0.022  1.00  0.00     0.063 C 
HETATM   15  C15 UNL     1      -3.765   3.520  -0.109  1.00  0.00    -0.016 C 
HETATM   16  C16 UNL     1      -4.502   2.366  -0.160  1.00  0.00     0.036 C 
HETATM   17  C17 UNL     1      -1.311   0.687  -0.481  1.00  0.00     0.055 C 
HETATM   18  C18 UNL     1      -0.002   1.124  -1.182  1.00  0.00     0.124 C 
HETATM   19  N4  UNL     1       0.661  -0.147  -1.582  1.00  0.00    -0.390 N 
HETATM   20  H24 UNL     1       0.847  -0.662  -2.477  1.00  0.00     0.159 HD
ENDROOT
BRANCH   1  21
HETATM   21  N1  UNL     1       3.385  -0.615   0.622  1.00  0.00    -0.335 N 
HETATM   22  C3  UNL     1       4.612   0.092   0.780  1.00  0.00     0.221 C 
HETATM   23  O1  UNL     1       4.883   1.090   0.044  1.00  0.00    -0.273 OA
HETATM   24  H6  UNL     1       3.522  -1.350   1.386  1.00  0.00     0.168 HD
BRANCH  22  25
HETATM   25  C2  UNL     1       5.740  -0.117   1.716  1.00  0.00     0.098 C 
HETATM   26  C1  UNL     1       6.789   0.963   1.417  1.00  0.00     0.014 C 
ENDBRANCH  22  25
ENDBRANCH   1  21
TORSDOF 2
