REMARK  7 active torsions:
REMARK  status: ('A' for Active; 'I' for Inactive)
REMARK    1  A    between atoms: C2_2  and  C3_3 
REMARK    2  A    between atoms: C2_2  and  N1_5 
REMARK    3  A    between atoms: N1_5  and  C4_6 
REMARK    4  A    between atoms: C9_11  and  O2_12 
REMARK    5  A    between atoms: C12_17  and  N4_18 
REMARK    6  A    between atoms: N4_18  and  C13_19 
REMARK    7  A    between atoms: C13_19  and  C14_20 
ROOT
HETATM    1  C4  UNL     1      -2.120   0.090  -0.698  1.00  0.00     0.063 A 
HETATM    2  C5  UNL     1      -0.813  -0.622  -0.449  1.00  0.00     0.048 A 
HETATM    3  C6  UNL     1      -0.512  -1.984  -0.114  1.00  0.00     0.019 A 
HETATM    4  C7  UNL     1      -1.641  -2.786  -0.004  1.00  0.00     0.073 A 
HETATM    5  C8  UNL     1      -2.903  -2.284  -0.202  1.00  0.00     0.071 A 
HETATM    6  C9  UNL     1      -2.816  -0.984  -0.496  1.00  0.00     0.094 A 
HETATM    7  N2  UNL     1      -1.847  -4.057   0.240  1.00  0.00    -0.242 NA
HETATM    8  C10 UNL     1      -0.837  -5.068   0.487  1.00  0.00     0.227 A 
HETATM    9  N3  UNL     1       0.406  -4.793   0.524  1.00  0.00    -0.277 NA
HETATM   10  C11 UNL     1       1.321  -3.737   0.407  1.00  0.00     0.207 A 
HETATM   11  C12 UNL     1       0.723  -2.431   0.070  1.00  0.00     0.038 A 
ENDROOT
BRANCH  11  12
HETATM   12  N4  UNL     1       1.617  -1.334  -0.087  1.00  0.00    -0.387 N 
HETATM   13  H13 UNL     1       1.718  -1.357  -1.143  1.00  0.00     0.159 HD
BRANCH  12  14
HETATM   14  C13 UNL     1       2.004  -0.701   1.187  1.00  0.00     0.158 C 
BRANCH  14  15
HETATM   15  C14 UNL     1       2.662   0.611   0.877  1.00  0.00    -0.041 A 
HETATM   16  C15 UNL     1       4.052   0.568   0.654  1.00  0.00     0.009 A 
HETATM   17  C16 UNL     1       4.570   1.827   0.364  1.00  0.00     0.001 A 
HETATM   18  C17 UNL     1       3.820   2.990   0.300  1.00  0.00     0.000 A 
HETATM   19  C18 UNL     1       2.480   2.893   0.540  1.00  0.00     0.001 A 
HETATM   20  C19 UNL     1       1.845   1.706   0.837  1.00  0.00     0.009 A 
ENDBRANCH  14  15
ENDBRANCH  12  14
ENDBRANCH  11  12
BRANCH   1  21
HETATM   21  N1  UNL     1      -1.353   1.252  -0.917  1.00  0.00    -0.377 N 
HETATM   22  H6  UNL     1      -0.486   1.738  -1.021  1.00  0.00     0.160 HD
BRANCH  21  23
HETATM   23  C2  UNL     1      -2.432   2.232  -1.089  1.00  0.00     0.139 C 
HETATM   24  C1  UNL     1      -1.873   3.602  -1.446  1.00  0.00     0.039 C 
BRANCH  23  25
HETATM   25  C3  UNL     1      -3.287   2.356   0.118  1.00  0.00     0.255 C 
HETATM   26  O1  UNL     1      -4.263   2.897   0.635  1.00  0.00    -0.305 OA
ENDBRANCH  23  25
ENDBRANCH  21  23
ENDBRANCH   1  21
BRANCH   6  27
HETATM   27  O2  UNL     1      -3.990  -0.199  -0.748  1.00  0.00    -0.358 OA
HETATM   28  H9  UNL     1      -4.731  -0.421  -0.068  1.00  0.00     0.217 HD
ENDBRANCH   6  27
TORSDOF 7
