REMARK  1 active torsions:
REMARK  status: ('A' for Active; 'I' for Inactive)
REMARK    1  A    between atoms: O1_2  and  C2_3 
ROOT
HETATM    1  C2  UNL     1       2.047   0.634  -0.020  1.00  0.00     0.069 C 
HETATM    2  C3  UNL     1       2.336   1.945   0.142  1.00  0.00     0.147 C 
HETATM    3  C4  UNL     1       1.523   3.190   0.272  1.00  0.00     0.099 C 
HETATM    4  N1  UNL     1       0.463   3.995   0.356  1.00  0.00    -0.258 NA
HETATM    5  C5  UNL     1      -0.836   3.413   0.295  1.00  0.00     0.226 C 
HETATM    6  N2  UNL     1      -1.951   3.120   0.958  1.00  0.00    -0.277 NA
HETATM    7  C6  UNL     1      -2.989   2.421   0.132  1.00  0.00     0.203 C 
HETATM    8  C7  UNL     1      -2.556   0.988   0.027  1.00  0.00     0.011 C 
HETATM    9  C8  UNL     1      -1.658   1.399   0.954  1.00  0.00     0.070 C 
HETATM   10  C9  UNL     1      -0.540   0.942   1.768  1.00  0.00     0.011 C 
HETATM   11  C10 UNL     1       0.298  -0.066   2.105  1.00  0.00     0.157 C 
HETATM   12  O2  UNL     1      -0.361  -0.832   1.187  1.00  0.00    -0.273 OA
HETATM   13  N3  UNL     1       0.018  -0.766  -0.203  1.00  0.00    -0.181 NA
HETATM   14  C11 UNL     1      -0.534  -1.958  -0.798  1.00  0.00     0.084 C 
HETATM   15  C12 UNL     1      -0.331  -3.103   0.167  1.00  0.00     0.029 C 
HETATM   16  C13 UNL     1      -1.779  -1.915  -1.545  1.00  0.00     0.041 C 
HETATM   17  C14 UNL     1      -3.045  -1.382  -1.012  1.00  0.00     0.121 C 
HETATM   18  N4  UNL     1      -3.159   0.036  -0.840  1.00  0.00    -0.394 N 
HETATM   19  C15 UNL     1       1.456  -0.744  -0.196  1.00  0.00     0.113 C 
HETATM   20  C16 UNL     1       2.099  -1.323  -1.429  1.00  0.00     0.031 C 
HETATM   21  H20 UNL     1      -3.829   0.571  -1.473  1.00  0.00     0.159 HD
ENDROOT
BRANCH   1  22
HETATM   22  O1  UNL     1       3.461   0.477  -0.009  1.00  0.00    -0.388 OA
HETATM   23  C1  UNL     1       4.162  -0.184   0.993  1.00  0.00     0.202 C 
ENDBRANCH   1  22
TORSDOF 1
