REMARK  4 active torsions:
REMARK  status: ('A' for Active; 'I' for Inactive)
REMARK    1  A    between atoms: C2_2  and  C3_3 
REMARK    2  A    between atoms: C3_3  and  N1_4 
REMARK    3  A    between atoms: N1_4  and  O1_5 
REMARK    4  A    between atoms: N1_4  and  C4_6 
ROOT
HETATM    1  C4  UNL     1       0.176   0.338   0.217  1.00  0.00     0.054 C 
HETATM    2  C5  UNL     1      -0.076   1.639   0.200  1.00  0.00     0.045 C 
HETATM    3  C6  UNL     1      -1.417   2.192   0.032  1.00  0.00     0.029 A 
HETATM    4  C7  UNL     1      -1.367   3.568   0.056  1.00  0.00     0.133 A 
HETATM    5  N2  UNL     1      -2.538   4.250  -0.088  1.00  0.00    -0.253 NA
HETATM    6  C8  UNL     1      -3.718   3.600  -0.251  1.00  0.00     0.234 A 
HETATM    7  N3  UNL     1      -3.808   2.250  -0.279  1.00  0.00    -0.224 NA
HETATM    8  C9  UNL     1      -2.649   1.588  -0.136  1.00  0.00     0.137 A 
HETATM    9  N4  UNL     1      -2.817   0.153  -0.176  1.00  0.00    -0.368 N 
HETATM   10  C10 UNL     1      -2.016  -0.867   0.414  1.00  0.00     0.101 C 
HETATM   11  C11 UNL     1      -2.613  -2.217   0.069  1.00  0.00     0.034 C 
HETATM   12  C12 UNL     1      -0.581  -0.916   0.102  1.00  0.00     0.062 C 
HETATM   13  C13 UNL     1      -0.227  -1.561  -1.190  1.00  0.00    -0.008 C 
HETATM   14  C14 UNL     1       0.185  -2.791  -1.199  1.00  0.00    -0.025 C 
HETATM   15  C15 UNL     1       0.297  -3.530   0.063  1.00  0.00     0.059 C 
HETATM   16  P1  UNL     1       0.237  -2.116   1.275  1.00  0.00    -0.104 P 
HETATM   17  H12 UNL     1      -3.670  -0.150  -0.736  1.00  0.00     0.161 HD
HETATM   18  H21 UNL     1      -0.617  -2.389   2.411  1.00  0.00     0.059 HD
ENDROOT
BRANCH   1  19
HETATM   19  N1  UNL     1       1.595   0.126   0.399  1.00  0.00    -0.264 N 
BRANCH  19  20
HETATM   20  C3  UNL     1       2.282   0.553  -0.798  1.00  0.00     0.155 C 
BRANCH  20  21
HETATM   21  C2  UNL     1       3.772   0.324  -0.588  1.00  0.00     0.018 C 
HETATM   22  C1  UNL     1       4.237   1.126   0.595  1.00  0.00     0.007 C 
ENDBRANCH  20  21
ENDBRANCH  19  20
BRANCH  19  23
HETATM   23  O1  UNL     1       2.262  -0.377   1.466  1.00  0.00    -0.287 OA
HETATM   24  H8  UNL     1       1.901   0.074   2.271  1.00  0.00     0.244 HD
ENDBRANCH  19  23
ENDBRANCH   1  19
TORSDOF 4
