REMARK  4 active torsions:
REMARK  status: ('A' for Active; 'I' for Inactive)
REMARK    1  A    between atoms: C2_2  and  C3_3 
REMARK    2  A    between atoms: C3_3  and  N1_5 
REMARK    3  A    between atoms: C5_6  and  O1_7 
REMARK    4  A    between atoms: N5_18  and  C13_19 
ROOT
HETATM    1  N1  UNL     1      -1.427  -0.183  -0.393  1.00  0.00    -0.332 N 
HETATM    2  C5  UNL     1      -1.998   1.077   0.084  1.00  0.00     0.166 C 
HETATM    3  C7  UNL     1      -1.024   1.984   0.299  1.00  0.00     0.079 C 
HETATM    4  C8  UNL     1       0.342   1.429   0.723  1.00  0.00     0.100 C 
HETATM    5  C9  UNL     1       0.778   0.946  -0.661  1.00  0.00     0.096 A 
HETATM    6  C10 UNL     1       1.473   1.915  -1.495  1.00  0.00     0.185 C 
HETATM    7  N2  UNL     1       1.472   3.303  -1.144  1.00  0.00    -0.281 NA
HETATM    8  C11 UNL     1       0.668   4.352  -1.132  1.00  0.00     0.217 C 
HETATM    9  N3  UNL     1      -0.678   4.379  -0.570  1.00  0.00    -0.294 N 
HETATM   10  N4  UNL     1      -1.481   3.331   0.003  1.00  0.00    -0.300 N 
HETATM   11  C12 UNL     1      -0.198  -0.061  -1.197  1.00  0.00     0.220 A 
HETATM   12  N5  UNL     1       1.082  -0.437  -0.716  1.00  0.00    -0.341 N 
HETATM   13  H18 UNL     1      -1.311   5.195  -0.494  1.00  0.00     0.187 HD
HETATM   14  H19 UNL     1      -2.475   3.339   0.276  1.00  0.00     0.186 HD
ENDROOT
BRANCH  12  15
HETATM   15  C13 UNL     1       2.267  -1.165  -0.321  1.00  0.00     0.032 A 
HETATM   16  C14 UNL     1       2.583  -1.701   0.908  1.00  0.00     0.029 A 
HETATM   17  C15 UNL     1       3.787  -2.360   1.045  1.00  0.00     0.002 A 
HETATM   18  C16 UNL     1       4.702  -2.526   0.048  1.00  0.00     0.000 A 
HETATM   19  C17 UNL     1       4.396  -1.996  -1.176  1.00  0.00     0.002 A 
HETATM   20  C18 UNL     1       3.201  -1.330  -1.352  1.00  0.00     0.029 A 
ENDBRANCH  12  15
BRANCH   1  21
HETATM   21  C3  UNL     1      -2.279  -1.265   0.056  1.00  0.00     0.084 C 
HETATM   22  C4  UNL     1      -2.323  -1.424   1.558  1.00  0.00     0.032 C 
BRANCH  21  23
HETATM   23  C2  UNL     1      -1.898  -2.589  -0.557  1.00  0.00     0.020 C 
HETATM   24  C1  UNL     1      -0.576  -3.102  -0.116  1.00  0.00     0.007 C 
ENDBRANCH  21  23
ENDBRANCH   1  21
BRANCH   2  25
HETATM   25  O1  UNL     1      -3.226   1.607   0.372  1.00  0.00    -0.339 OA
HETATM   26  C6  UNL     1      -3.645   1.764   1.705  1.00  0.00     0.211 C 
ENDBRANCH   2  25
TORSDOF 4
