REMARK  10 active torsions:
REMARK  status: ('A' for Active; 'I' for Inactive)
REMARK    1  A    between atoms: C2_2  and  C3_3 
REMARK    2  A    between atoms: C3_3  and  C4_4 
REMARK    3  A    between atoms: C4_4  and  C5_5 
REMARK    4  A    between atoms: C5_5  and  C6_6 
REMARK    5  A    between atoms: C6_6  and  C7_7 
REMARK    6  A    between atoms: C7_7  and  N1_9 
REMARK    7  A    between atoms: N1_9  and  C9_10 
REMARK    8  A    between atoms: C14_17  and  N4_18 
REMARK       I    between atoms: N4_18  and  C15_19 
REMARK    9  A    between atoms: C15_19  and  C16_21 
REMARK   10  A    between atoms: C18_23  and  O2_24 
ROOT
HETATM    1  C9  UNL     1      -0.995  -0.826  -1.589  1.00  0.00     0.137 A 
HETATM    2  N2  UNL     1      -1.292  -0.352  -2.811  1.00  0.00    -0.224 NA
HETATM    3  C10 UNL     1      -0.384   0.297  -3.558  1.00  0.00     0.235 A 
HETATM    4  N3  UNL     1       0.875   0.495  -3.092  1.00  0.00    -0.242 NA
HETATM    5  C11 UNL     1       1.256   0.054  -1.880  1.00  0.00     0.084 A 
HETATM    6  C12 UNL     1       0.304  -0.608  -1.138  1.00  0.00     0.039 A 
HETATM    7  C13 UNL     1       0.899  -1.008   0.137  1.00  0.00     0.045 A 
HETATM    8  C14 UNL     1       2.157  -0.608   0.171  1.00  0.00     0.048 A 
HETATM    9  C18 UNL     1       2.511   0.098  -1.087  1.00  0.00     0.223 A 
ENDROOT
BRANCH   1  10
HETATM   10  N1  UNL     1      -1.937  -1.516  -0.781  1.00  0.00    -0.369 N 
HETATM   11  H12 UNL     1      -1.635  -1.857   0.158  1.00  0.00     0.161 HD
BRANCH  10  12
HETATM   12  C7  UNL     1      -3.302  -1.777  -1.187  1.00  0.00     0.082 C 
HETATM   13  C8  UNL     1      -4.001  -2.717  -0.237  1.00  0.00     0.032 C 
BRANCH  12  14
HETATM   14  C6  UNL     1      -4.090  -0.514  -1.448  1.00  0.00     0.051 C 
BRANCH  14  15
HETATM   15  C5  UNL     1      -4.352   0.276  -0.236  1.00  0.00    -0.024 C 
BRANCH  15  16
HETATM   16  C4  UNL     1      -4.019   0.072   1.028  1.00  0.00     0.004 C 
BRANCH  16  17
HETATM   17  C3  UNL     1      -4.395   1.001   2.051  1.00  0.00     0.050 C 
BRANCH  17  18
HETATM   18  C2  UNL     1      -4.329   2.305   1.830  1.00  0.00    -0.155 C 
HETATM   19  C1  UNL     1      -4.213   3.530   1.349  1.00  0.00     0.096 C 
ENDBRANCH  17  18
ENDBRANCH  16  17
ENDBRANCH  15  16
ENDBRANCH  14  15
ENDBRANCH  12  14
ENDBRANCH  10  12
ENDBRANCH   1  10
BRANCH   9  20
HETATM   20  O2  UNL     1       3.452  -0.649  -1.792  1.00  0.00    -0.378 OA
HETATM   21  C19 UNL     1       4.577   0.095  -2.120  1.00  0.00     0.203 C 
ENDBRANCH   9  20
BRANCH   8  22
HETATM   22  N4  UNL     1       3.207  -0.719   1.150  1.00  0.00    -0.328 N 
HETATM   23  C15 UNL     1       3.850   0.406   1.735  1.00  0.00     0.221 C 
HETATM   24  O1  UNL     1       3.524   1.591   1.418  1.00  0.00    -0.273 OA
HETATM   25  H15 UNL     1       3.501  -1.673   1.434  1.00  0.00     0.168 HD
BRANCH  23  26
HETATM   26  C16 UNL     1       4.927   0.180   2.740  1.00  0.00     0.098 C 
HETATM   27  C17 UNL     1       5.465   1.507   3.225  1.00  0.00     0.014 C 
ENDBRANCH  23  26
ENDBRANCH   8  22
TORSDOF 10
