REMARK  9 active torsions:
REMARK  status: ('A' for Active; 'I' for Inactive)
REMARK    1  A    between atoms: C2_2  and  C3_3 
REMARK    2  A    between atoms: C3_3  and  C4_5 
REMARK    3  A    between atoms: C7_8  and  N1_9 
REMARK    4  A    between atoms: N1_9  and  C8_10 
REMARK    5  A    between atoms: C11_13  and  O2_14 
REMARK    6  A    between atoms: O2_14  and  C12_15 
REMARK    7  A    between atoms: C22_28  and  O3_29 
REMARK    8  A    between atoms: O3_29  and  C23_30 
REMARK    9  A    between atoms: C23_30  and  N4_31 
ROOT
HETATM    1  C4  UNL     1      -4.030  -0.361   0.513  1.00  0.00     0.023 A 
HETATM    2  C5  UNL     1      -2.766  -0.751   0.441  1.00  0.00     0.031 A 
HETATM    3  C6  UNL     1      -2.051   0.139  -0.458  1.00  0.00     0.038 A 
HETATM    4  C7  UNL     1      -0.723   0.169  -0.866  1.00  0.00     0.141 A 
HETATM    5  N2  UNL     1      -0.448   1.168  -1.715  1.00  0.00    -0.224 NA
HETATM    6  C20 UNL     1      -1.290   2.083  -2.175  1.00  0.00     0.235 A 
HETATM    7  N3  UNL     1      -2.573   2.052  -1.778  1.00  0.00    -0.242 NA
HETATM    8  C21 UNL     1      -2.935   1.080  -0.925  1.00  0.00     0.083 A 
HETATM    9  C22 UNL     1      -4.298   0.827  -0.322  1.00  0.00     0.213 A 
ENDROOT
BRANCH   4  10
HETATM   10  N1  UNL     1       0.189  -0.800  -0.372  1.00  0.00    -0.340 N 
HETATM   11  H7  UNL     1      -0.205  -1.519   0.280  1.00  0.00     0.167 HD
BRANCH  10  12
HETATM   12  C8  UNL     1       1.570  -0.910  -0.662  1.00  0.00     0.033 A 
HETATM   13  C9  UNL     1       2.279  -0.178  -1.584  1.00  0.00     0.032 A 
HETATM   14  C10 UNL     1       3.623  -0.266  -1.866  1.00  0.00     0.039 A 
HETATM   15  C11 UNL     1       4.323  -1.201  -1.128  1.00  0.00     0.076 A 
HETATM   16  C18 UNL     1       3.698  -1.990  -0.174  1.00  0.00     0.039 A 
HETATM   17  C19 UNL     1       2.353  -1.818   0.024  1.00  0.00     0.032 A 
BRANCH  15  18
HETATM   18  O2  UNL     1       5.691  -1.382  -1.324  1.00  0.00    -0.311 OA
BRANCH  18  19
HETATM   19  C12 UNL     1       6.543  -0.581  -0.566  1.00  0.00     0.079 A 
HETATM   20  C13 UNL     1       6.127   0.379   0.344  1.00  0.00     0.037 A 
HETATM   21  C14 UNL     1       7.040   1.140   1.063  1.00  0.00     0.006 A 
HETATM   22  C15 UNL     1       8.392   0.901   0.833  1.00  0.00     0.042 A 
HETATM   23  C16 UNL     1       8.791  -0.057  -0.074  1.00  0.00     0.119 A 
HETATM   24  F1  UNL     1      10.132  -0.275  -0.280  1.00  0.00    -0.206 F 
HETATM   25  C17 UNL     1       7.887  -0.812  -0.787  1.00  0.00     0.079 A 
ENDBRANCH  18  19
ENDBRANCH  15  18
ENDBRANCH  10  12
ENDBRANCH   4  10
BRANCH   1  26
HETATM   26  C3  UNL     1      -4.967  -1.095   1.358  1.00  0.00     0.158 C 
HETATM   27  O1  UNL     1      -6.184  -0.821   1.515  1.00  0.00    -0.293 OA
BRANCH  26  28
HETATM   28  C2  UNL     1      -4.635  -2.277   2.169  1.00  0.00     0.079 C 
HETATM   29  C1  UNL     1      -5.039  -1.930   3.608  1.00  0.00     0.013 C 
ENDBRANCH  26  28
ENDBRANCH   1  26
BRANCH   9  30
HETATM   30  O3  UNL     1      -5.120   0.563  -1.388  1.00  0.00    -0.356 OA
BRANCH  30  31
HETATM   31  C23 UNL     1      -6.122   1.488  -1.519  1.00  0.00     0.284 C 
BRANCH  31  32
HETATM   32  N4  UNL     1      -6.970   1.549  -0.373  1.00  0.00    -0.411 N 
HETATM   33  H20 UNL     1      -7.007   2.484   0.088  1.00  0.00     0.151 HD
HETATM   34  H21 UNL     1      -7.878   1.091  -0.457  1.00  0.00     0.151 HD
ENDBRANCH  31  32
ENDBRANCH  30  31
ENDBRANCH   9  30
TORSDOF 9
