REMARK  5 active torsions:
REMARK  status: ('A' for Active; 'I' for Inactive)
REMARK    1  A    between atoms: C2_2  and  C3_3 
REMARK       I    between atoms: C3_3  and  N1_5 
REMARK    2  A    between atoms: N1_5  and  C4_6 
REMARK    3  A    between atoms: C9_11  and  O2_12 
REMARK    4  A    between atoms: C17_21  and  N3_22 
REMARK    5  A    between atoms: C18_23  and  N4_24 
ROOT
HETATM    1  C4  UNL     1       1.441  -0.179   0.710  1.00  0.00     0.069 A 
HETATM    2  C5  UNL     1       0.440   0.722   0.883  1.00  0.00     0.048 A 
HETATM    3  C6  UNL     1      -0.855   0.237   0.867  1.00  0.00     0.023 A 
HETATM    4  C7  UNL     1      -1.060  -1.141   0.676  1.00  0.00    -0.012 A 
HETATM    5  C8  UNL     1      -0.029  -2.047   0.500  1.00  0.00     0.052 A 
HETATM    6  C9  UNL     1       1.267  -1.534   0.519  1.00  0.00     0.095 A 
HETATM    7  C11 UNL     1      -2.117  -1.974   0.649  1.00  0.00    -0.039 A 
HETATM    8  C12 UNL     1      -2.490  -3.363   0.469  1.00  0.00     0.005 A 
HETATM    9  C13 UNL     1      -3.770  -3.016   0.682  1.00  0.00    -0.017 A 
HETATM   10  C14 UNL     1      -3.538  -1.588   0.889  1.00  0.00     0.043 A 
HETATM   11  C15 UNL     1      -4.079  -0.642  -0.093  1.00  0.00     0.033 C 
HETATM   12  C16 UNL     1      -4.254   0.768   0.348  1.00  0.00     0.122 C 
HETATM   13  N2  UNL     1      -3.207   1.370   1.101  1.00  0.00    -0.374 N 
HETATM   14  C17 UNL     1      -1.772   1.209   1.029  1.00  0.00     0.136 C 
HETATM   15  H19 UNL     1      -3.429   2.062   1.850  1.00  0.00     0.161 HD
ENDROOT
BRANCH   1  16
HETATM   16  N1  UNL     1       2.769   0.329   0.727  1.00  0.00    -0.325 N 
HETATM   17  C3  UNL     1       3.460   0.785  -0.446  1.00  0.00     0.221 C 
HETATM   18  O1  UNL     1       2.719   0.664  -1.457  1.00  0.00    -0.273 OA
HETATM   19  H6  UNL     1       3.089   0.289   1.734  1.00  0.00     0.169 HD
BRANCH  17  20
HETATM   20  C2  UNL     1       4.842   1.263  -0.113  1.00  0.00     0.098 C 
HETATM   21  C1  UNL     1       5.541   1.734  -1.375  1.00  0.00     0.014 C 
ENDBRANCH  17  20
ENDBRANCH   1  16
BRANCH   6  22
HETATM   22  O2  UNL     1       2.375  -2.342   0.354  1.00  0.00    -0.354 OA
HETATM   23  C10 UNL     1       2.176  -3.731   0.160  1.00  0.00     0.210 C 
ENDBRANCH   6  22
BRANCH  14  24
HETATM   24  N3  UNL     1      -1.059   2.429   1.177  1.00  0.00    -0.226 NA
HETATM   25  C18 UNL     1      -1.256   3.332   0.277  1.00  0.00     0.202 C 
BRANCH  25  26
HETATM   26  N4  UNL     1      -0.551   4.545   0.418  1.00  0.00    -0.394 N 
HETATM   27  H21 UNL     1      -0.634   5.494   0.838  1.00  0.00     0.156 HD
HETATM   28  H22 UNL     1       0.280   5.184   0.268  1.00  0.00     0.156 HD
ENDBRANCH  25  26
ENDBRANCH  14  24
TORSDOF 5
