REMARK  4 active torsions:
REMARK  status: ('A' for Active; 'I' for Inactive)
REMARK    1  A    between atoms: O1_2  and  C2_3 
REMARK    2  A    between atoms: C6_9  and  C7_11 
REMARK    3  A    between atoms: C14_19  and  C15_20 
REMARK    4  A    between atoms: C19_25  and  C20_26 
REMARK       I    between atoms: C20_26  and  N4_27 
ROOT
HETATM    1  C2  UNL     1       0.179   1.780  -1.256  1.00  0.00     0.077 A 
HETATM    2  C3  UNL     1       0.205   1.792  -2.523  1.00  0.00     0.056 A 
HETATM    3  C4  UNL     1      -0.330   1.343  -3.776  1.00  0.00     0.288 A 
HETATM    4  N1  UNL     1      -1.238   0.606  -4.274  1.00  0.00    -0.382 NA
HETATM    5  C5  UNL     1      -2.147  -0.110  -3.482  1.00  0.00     0.195 A 
HETATM    6  N2  UNL     1      -1.769   0.162  -2.337  1.00  0.00    -0.234 NA
HETATM    7  C6  UNL     1      -2.273  -0.247  -1.101  1.00  0.00     0.243 A 
HETATM    8  F1  UNL     1      -3.594   0.192  -0.970  1.00  0.00    -0.207 F 
HETATM    9  C13 UNL     1      -1.510   0.396   0.025  1.00  0.00     0.057 A 
HETATM   10  C14 UNL     1      -0.467   1.257  -0.077  1.00  0.00    -0.006 A 
ENDROOT
BRANCH  10  11
HETATM   11  C15 UNL     1      -0.013   1.690   1.278  1.00  0.00     0.159 C 
HETATM   12  N3  UNL     1       1.216   1.360   1.734  1.00  0.00    -0.396 N 
HETATM   13  C16 UNL     1       2.476   1.757   1.359  1.00  0.00     0.118 C 
HETATM   14  C19 UNL     1       1.339   0.165   2.490  1.00  0.00     0.171 C 
HETATM   15  C17 UNL     1       3.408   1.373   2.556  1.00  0.00     0.022 C 
HETATM   16  C18 UNL     1       2.674   0.274   3.245  1.00  0.00     0.036 C 
BRANCH  14  17
HETATM   17  C20 UNL     1       1.368  -1.025   1.590  1.00  0.00     0.238 C 
HETATM   18  N4  UNL     1       1.468  -2.299   2.212  1.00  0.00    -0.368 N 
HETATM   19  H21 UNL     1       1.329  -3.112   2.820  1.00  0.00     0.159 HD
HETATM   20  H22 UNL     1       2.133  -3.070   1.957  1.00  0.00     0.159 HD
HETATM   21  O2  UNL     1       1.320  -1.151   0.321  1.00  0.00    -0.271 OA
ENDBRANCH  14  17
ENDBRANCH  10  11
BRANCH   1  22
HETATM   22  O1  UNL     1       1.243   2.661  -0.969  1.00  0.00    -0.355 OA
HETATM   23  C1  UNL     1       0.967   4.037  -1.161  1.00  0.00     0.210 C 
ENDBRANCH   1  22
BRANCH   7  24
HETATM   24  C7  UNL     1      -2.255  -1.714  -0.907  1.00  0.00     0.009 A 
HETATM   25  C8  UNL     1      -1.960  -2.667  -1.849  1.00  0.00     0.013 A 
HETATM   26  C9  UNL     1      -1.967  -4.025  -1.627  1.00  0.00     0.002 A 
HETATM   27  C10 UNL     1      -2.282  -4.519  -0.395  1.00  0.00     0.024 A 
HETATM   28  C11 UNL     1      -2.589  -3.617   0.601  1.00  0.00     0.034 A 
HETATM   29 CL1  UNL     1      -2.985  -4.300   2.163  1.00  0.00    -0.084 Cl
HETATM   30  C12 UNL     1      -2.572  -2.259   0.339  1.00  0.00     0.036 A 
ENDBRANCH   7  24
TORSDOF 4
