REMARK  4 active torsions:
REMARK  status: ('A' for Active; 'I' for Inactive)
REMARK    1  A    between atoms: O1_2  and  C2_3 
REMARK    2  A    between atoms: C6_9  and  N3_10 
REMARK    3  A    between atoms: N3_10  and  C7_11 
REMARK    4  A    between atoms: C7_11  and  C9_13 
ROOT
HETATM    1  C2  UNL     1       4.514   0.204   0.031  1.00  0.00     0.138 C 
HETATM    2  C3  UNL     1       3.770   0.684  -0.976  1.00  0.00     0.075 C 
HETATM    3  C4  UNL     1       2.324   0.874  -1.045  1.00  0.00     0.075 A 
HETATM    4  N1  UNL     1       2.109   1.791  -1.979  1.00  0.00    -0.241 NA
HETATM    5  C5  UNL     1       0.857   2.183  -2.267  1.00  0.00     0.235 A 
HETATM    6  N2  UNL     1      -0.189   1.657  -1.619  1.00  0.00    -0.224 NA
HETATM    7  C6  UNL     1      -0.088   0.734  -0.668  1.00  0.00     0.138 A 
HETATM    8  C15 UNL     1       1.204   0.353  -0.397  1.00  0.00     0.040 A 
HETATM    9  C16 UNL     1       1.066  -0.656   0.645  1.00  0.00     0.034 C 
HETATM   10  C17 UNL     1       1.813  -1.129   1.644  1.00  0.00     0.092 C 
HETATM   11  N4  UNL     1       3.138  -0.790   2.097  1.00  0.00    -0.331 N 
HETATM   12  C18 UNL     1       4.267  -0.301   1.383  1.00  0.00     0.278 C 
HETATM   13  O2  UNL     1       5.289  -0.316   2.114  1.00  0.00    -0.265 OA
HETATM   14  H18 UNL     1       3.225  -0.949   3.121  1.00  0.00     0.168 HD
ENDROOT
BRANCH   7  15
HETATM   15  N3  UNL     1      -1.248   0.238  -0.022  1.00  0.00    -0.366 N 
HETATM   16  H6  UNL     1      -1.542  -0.411   0.720  1.00  0.00     0.161 HD
BRANCH  15  17
HETATM   17  C7  UNL     1      -2.517   0.772  -0.462  1.00  0.00     0.112 C 
HETATM   18  C8  UNL     1      -2.662   2.236  -0.125  1.00  0.00     0.037 C 
BRANCH  17  19
HETATM   19  C9  UNL     1      -3.707   0.005  -0.057  1.00  0.00    -0.036 A 
HETATM   20  C10 UNL     1      -3.531  -1.367  -0.279  1.00  0.00     0.009 A 
HETATM   21  C11 UNL     1      -4.510  -2.290   0.025  1.00  0.00     0.001 A 
HETATM   22  C12 UNL     1      -5.702  -1.865   0.563  1.00  0.00     0.000 A 
HETATM   23  C13 UNL     1      -5.878  -0.511   0.783  1.00  0.00     0.001 A 
HETATM   24  C14 UNL     1      -4.906   0.412   0.482  1.00  0.00     0.009 A 
ENDBRANCH  17  19
ENDBRANCH  15  17
ENDBRANCH   7  15
BRANCH   1  25
HETATM   25  O1  UNL     1       5.851   0.188  -0.313  1.00  0.00    -0.351 OA
HETATM   26  C1  UNL     1       6.562  -0.980  -0.653  1.00  0.00     0.210 C 
ENDBRANCH   1  25
TORSDOF 4
