REMARK  4 active torsions:
REMARK  status: ('A' for Active; 'I' for Inactive)
REMARK    1  A    between atoms: O1_2  and  C2_3 
REMARK    2  A    between atoms: C6_7  and  C8_10 
REMARK    3  A    between atoms: C8_10  and  C10_12 
REMARK    4  A    between atoms: C17_19  and  C18_20 
ROOT
HETATM    1  C2  UNL     1      -3.438  -0.701  -0.298  1.00  0.00     0.078 A 
HETATM    2  C3  UNL     1      -3.074   0.560  -0.494  1.00  0.00     0.015 A 
HETATM    3  C4  UNL     1      -1.772   1.237  -0.271  1.00  0.00     0.070 A 
HETATM    4  C5  UNL     1      -0.809   0.232   0.248  1.00  0.00    -0.036 A 
HETATM    5  C6  UNL     1       0.381   0.780   0.458  1.00  0.00     0.037 C 
HETATM    6  C7  UNL     1       0.416   2.201   0.127  1.00  0.00     0.096 C 
HETATM    7  N1  UNL     1       0.431   3.350  -0.125  1.00  0.00    -0.192 NA
HETATM    8  C16 UNL     1      -1.146  -1.166   0.489  1.00  0.00     0.026 A 
HETATM    9  C17 UNL     1      -2.379  -1.562   0.222  1.00  0.00     0.035 A 
ENDROOT
BRANCH   5  10
HETATM   10  C8  UNL     1       1.616   0.134   0.963  1.00  0.00     0.059 C 
HETATM   11  C9  UNL     1       2.056   0.736   2.276  1.00  0.00     0.021 C 
BRANCH  10  12
HETATM   12  C10 UNL     1       2.756   0.200   0.015  1.00  0.00    -0.049 A 
HETATM   13  C11 UNL     1       3.261  -0.970  -0.534  1.00  0.00     0.008 A 
HETATM   14  C12 UNL     1       4.327  -0.992  -1.426  1.00  0.00     0.001 A 
HETATM   15  C13 UNL     1       4.864   0.221  -1.742  1.00  0.00     0.000 A 
HETATM   16  C14 UNL     1       4.433   1.439  -1.249  1.00  0.00     0.001 A 
HETATM   17  C15 UNL     1       3.367   1.350  -0.369  1.00  0.00     0.008 A 
ENDBRANCH  10  12
ENDBRANCH   5  10
BRANCH   9  18
HETATM   18  C18 UNL     1      -2.653  -2.945   0.484  1.00  0.00     0.272 C 
HETATM   19  O2  UNL     1      -1.754  -3.722   0.950  1.00  0.00    -0.301 OA
ENDBRANCH   9  18
BRANCH   1  20
HETATM   20  O1  UNL     1      -4.709  -1.211  -0.552  1.00  0.00    -0.355 OA
HETATM   21  C1  UNL     1      -5.848  -0.480  -0.183  1.00  0.00     0.210 C 
ENDBRANCH   1  20
TORSDOF 4
