REMARK  4 active torsions:
REMARK  status: ('A' for Active; 'I' for Inactive)
REMARK    1  A    between atoms: C2_2  and  C3_3 
REMARK    2  A    between atoms: N2_9  and  C8_10 
REMARK    3  A    between atoms: C16_18  and  N3_19 
REMARK       I    between atoms: N3_19  and  C17_20 
REMARK    4  A    between atoms: C17_20  and  C18_22 
ROOT
HETATM    1  C3  UNL     1       1.598  -1.858  -0.608  1.00  0.00    -0.031 A 
HETATM    2  C4  UNL     1       0.685  -2.759  -0.902  1.00  0.00     0.021 A 
HETATM    3  C5  UNL     1      -0.716  -2.535  -0.592  1.00  0.00    -0.000 A 
HETATM    4  C6  UNL     1      -1.795  -3.221  -0.885  1.00  0.00     0.090 C 
HETATM    5  N1  UNL     1      -2.497  -2.655  -1.819  1.00  0.00    -0.267 NA
HETATM    6  C7  UNL     1      -2.431  -1.188  -1.989  1.00  0.00     0.275 C 
HETATM    7  N2  UNL     1      -2.198  -0.689  -0.622  1.00  0.00    -0.350 N 
HETATM    8  C14 UNL     1      -1.183  -1.338   0.180  1.00  0.00     0.147 A 
HETATM    9  C15 UNL     1      -0.005  -0.467   0.397  1.00  0.00     0.033 A 
HETATM   10  C16 UNL     1       1.262  -0.624   0.080  1.00  0.00     0.039 A 
ENDROOT
BRANCH   7  11
HETATM   11  C8  UNL     1      -2.946   0.401  -0.104  1.00  0.00     0.032 A 
HETATM   12  C9  UNL     1      -3.728   1.248  -0.853  1.00  0.00     0.029 A 
HETATM   13  C10 UNL     1      -4.456   2.293  -0.325  1.00  0.00     0.002 A 
HETATM   14  C11 UNL     1      -4.430   2.540   1.009  1.00  0.00     0.000 A 
HETATM   15  C12 UNL     1      -3.657   1.717   1.816  1.00  0.00     0.002 A 
HETATM   16  C13 UNL     1      -2.945   0.683   1.243  1.00  0.00     0.029 A 
ENDBRANCH   7  11
BRANCH  10  17
HETATM   17  N3  UNL     1       2.320   0.274   0.339  1.00  0.00    -0.327 N 
HETATM   18  C17 UNL     1       2.318   1.529   0.978  1.00  0.00     0.221 C 
HETATM   19  O1  UNL     1       1.240   1.974   1.407  1.00  0.00    -0.273 OA
HETATM   20  H16 UNL     1       3.293   0.035   0.035  1.00  0.00     0.169 HD
BRANCH  18  21
HETATM   21  C18 UNL     1       3.487   2.395   1.199  1.00  0.00     0.098 C 
HETATM   22  C19 UNL     1       3.071   3.654   1.918  1.00  0.00     0.014 C 
ENDBRANCH  18  21
ENDBRANCH  10  17
BRANCH   1  23
HETATM   23  C2  UNL     1       3.000  -2.180  -0.972  1.00  0.00     0.036 C 
HETATM   24  C1  UNL     1       3.071  -3.525  -1.625  1.00  0.00     0.010 C 
ENDBRANCH   1  23
TORSDOF 4
