REMARK  3 active torsions:
REMARK  status: ('A' for Active; 'I' for Inactive)
REMARK    1  A    between atoms: C2_2  and  N1_3 
REMARK    2  A    between atoms: N1_3  and  C3_4 
REMARK    3  A    between atoms: C7_9  and  C8_10 
ROOT
HETATM    1  C3  UNL     1       2.488  -0.475   0.008  1.00  0.00     0.724 A 
HETATM    2  N2  UNL     1       2.066  -1.559   0.721  1.00  0.00    -0.074 NA
HETATM    3  C4  UNL     1       0.768  -1.698   1.057  1.00  0.00     0.151 A 
HETATM    4  C5  UNL     1      -0.056  -0.681   0.630  1.00  0.00     0.030 A 
HETATM    5  C6  UNL     1      -1.402  -0.810   0.952  1.00  0.00     0.034 A 
HETATM    6  C7  UNL     1      -2.282   0.192   0.528  1.00  0.00     0.047 A 
HETATM    7  C13 UNL     1      -1.876   1.290  -0.186  1.00  0.00     0.260 A 
HETATM    8  O1  UNL     1      -2.574   2.222  -0.601  1.00  0.00    -0.267 OA
HETATM    9  N3  UNL     1      -0.558   1.379  -0.481  1.00  0.00    -0.301 N 
HETATM   10  C14 UNL     1       0.063   2.457  -1.242  1.00  0.00     0.161 C 
HETATM   11  C15 UNL     1       0.318   0.431  -0.088  1.00  0.00     0.163 A 
HETATM   12  N4  UNL     1       1.630   0.482  -0.376  1.00  0.00    -0.044 NA
ENDROOT
BRANCH   6  13
HETATM   13  C8  UNL     1      -3.745   0.106   0.757  1.00  0.00     0.030 C 
HETATM   14  C9  UNL     1      -4.130  -1.080   0.282  1.00  0.00     0.048 C 
HETATM   15 CL1  UNL     1      -3.121  -2.328  -0.475  1.00  0.00    -0.083 Cl
HETATM   16  C10 UNL     1      -5.522  -1.506   0.325  1.00  0.00     0.045 C 
HETATM   17  C11 UNL     1      -6.548  -0.946   0.894  1.00  0.00     0.025 C 
HETATM   18  S1  UNL     1      -6.253   0.547   1.439  1.00  0.00    -0.076 SA
HETATM   19  C12 UNL     1      -4.697   1.008   1.355  1.00  0.00     0.088 C 
HETATM   20 CL2  UNL     1      -3.926   2.492   1.899  1.00  0.00    -0.075 Cl
ENDBRANCH   6  13
BRANCH   1  21
HETATM   21  N1  UNL     1       3.825  -0.255  -0.415  1.00  0.00    -0.223 N 
HETATM   22  H6  UNL     1       3.812  -0.485  -1.450  1.00  0.00     0.177 HD
BRANCH  21  23
HETATM   23  C2  UNL     1       5.061   0.173   0.191  1.00  0.00     0.134 C 
HETATM   24  C1  UNL     1       5.547  -0.840   1.224  1.00  0.00     0.027 C 
ENDBRANCH  21  23
ENDBRANCH   1  21
TORSDOF 3
