REMARK  3 active torsions:
REMARK  status: ('A' for Active; 'I' for Inactive)
REMARK    1  A    between atoms: C2_2  and  C3_3 
REMARK    2  A    between atoms: C3_3  and  C4_4 
REMARK    3  A    between atoms: C4_4  and  C5_5 
ROOT
HETATM    1  C5  UNL     1       1.998  -0.833   0.272  1.00  0.00    -0.043 C 
HETATM    2  C6  UNL     1       1.399  -1.248  -0.812  1.00  0.00     0.082 C 
HETATM    3  C7  UNL     1       0.263  -1.421  -1.691  1.00  0.00     0.250 C 
HETATM    4  O1  UNL     1       0.543  -2.101  -2.763  1.00  0.00    -0.268 OA
HETATM    5  N1  UNL     1      -1.032  -0.861  -1.345  1.00  0.00    -0.288 N 
HETATM    6  C8  UNL     1      -0.575  -0.291  -0.221  1.00  0.00     0.138 C 
HETATM    7  N2  UNL     1      -0.484   0.921  -0.107  1.00  0.00    -0.224 NA
HETATM    8  C9  UNL     1      -0.754   2.010  -0.919  1.00  0.00     0.235 C 
HETATM    9  N3  UNL     1      -1.903   2.573  -1.219  1.00  0.00    -0.244 NA
HETATM   10  C10 UNL     1      -3.098   2.003  -0.634  1.00  0.00     0.065 C 
HETATM   11  C11 UNL     1      -4.046   2.302   0.481  1.00  0.00     0.073 C 
HETATM   12  C12 UNL     1      -3.177   0.976  -1.454  1.00  0.00     0.092 C 
HETATM   13  C13 UNL     1      -2.094   0.949  -2.471  1.00  0.00     0.037 C 
HETATM   14  C14 UNL     1      -2.163  -0.107  -3.303  1.00  0.00     0.004 C 
HETATM   15  C15 UNL     1      -1.970  -1.196  -2.262  1.00  0.00     0.142 C 
HETATM   16  C16 UNL     1      -3.324  -1.393  -1.549  1.00  0.00     0.205 C 
HETATM   17  O2  UNL     1      -4.040  -0.140  -1.618  1.00  0.00    -0.347 OA
HETATM   18  P1  UNL     1       0.336  -0.698   1.292  1.00  0.00    -0.025 P 
HETATM   19  H20 UNL     1       0.437   0.285   2.274  1.00  0.00     0.070 HD
ENDROOT
BRANCH   1  20
HETATM   20  C4  UNL     1       2.978  -0.575   1.219  1.00  0.00     0.040 C 
BRANCH  20  21
HETATM   21  C3  UNL     1       2.793  -1.220   2.580  1.00  0.00     0.004 C 
BRANCH  21  22
HETATM   22  C2  UNL     1       3.982  -0.774   3.394  1.00  0.00    -0.004 C 
HETATM   23  C1  UNL     1       4.021   0.733   3.507  1.00  0.00     0.005 C 
ENDBRANCH  21  22
ENDBRANCH  20  21
ENDBRANCH   1  20
TORSDOF 3
