REMARK  4 active torsions:
REMARK  status: ('A' for Active; 'I' for Inactive)
REMARK    1  A    between atoms: C2_2  and  C3_3 
REMARK       I    between atoms: C3_3  and  N1_5 
REMARK    2  A    between atoms: N1_5  and  C4_6 
REMARK    3  A    between atoms: C13_16  and  N2_17 
REMARK    4  A    between atoms: C21_27  and  O2_28 
ROOT
HETATM    1  C4  UNL     1       0.731   0.617  -1.556  1.00  0.00     0.174 C 
HETATM    2  C5  UNL     1      -0.581   0.022  -1.104  1.00  0.00    -0.028 C 
HETATM    3  C6  UNL     1      -0.319  -1.206  -0.508  1.00  0.00     0.021 C 
HETATM    4  C7  UNL     1      -0.951  -1.735   0.742  1.00  0.00    -0.024 A 
HETATM    5  C8  UNL     1      -0.389  -2.968   1.103  1.00  0.00     0.012 A 
HETATM    6  C9  UNL     1      -0.861  -3.579   2.236  1.00  0.00     0.004 A 
HETATM    7  C10 UNL     1      -1.857  -2.997   2.992  1.00  0.00     0.043 A 
HETATM    8  C11 UNL     1      -2.443  -1.799   2.691  1.00  0.00     0.126 A 
HETATM    9  F1  UNL     1      -3.409  -1.258   3.441  1.00  0.00    -0.205 F 
HETATM   10  C12 UNL     1      -1.963  -1.204   1.563  1.00  0.00     0.028 A 
HETATM   11  C13 UNL     1      -2.732   0.109   1.391  1.00  0.00     0.286 C 
HETATM   12  C14 UNL     1      -2.266   0.736   0.181  1.00  0.00    -0.009 C 
HETATM   13  C15 UNL     1      -2.056   0.358  -1.118  1.00  0.00     0.017 C 
HETATM   14  C16 UNL     1      -1.908   2.087   0.541  1.00  0.00     0.119 A 
HETATM   15  C17 UNL     1      -0.678   1.633   0.624  1.00  0.00     0.070 A 
HETATM   16  C18 UNL     1      -0.408   2.949   0.329  1.00  0.00     0.114 A 
HETATM   17  N3  UNL     1      -1.040   4.146   0.087  1.00  0.00    -0.265 NA
HETATM   18  C19 UNL     1      -2.422   4.147   0.115  1.00  0.00     0.223 A 
HETATM   19  N4  UNL     1      -2.950   2.859   0.392  1.00  0.00    -0.264 NA
HETATM   20  C20 UNL     1       1.039   2.942  -0.086  1.00  0.00     0.044 C 
HETATM   21  C21 UNL     1       1.201   1.828  -0.881  1.00  0.00     0.071 C 
ENDROOT
BRANCH   1  22
HETATM   22  N1  UNL     1       1.750  -0.451  -1.454  1.00  0.00    -0.343 N 
HETATM   23  C3  UNL     1       2.173  -1.177  -2.633  1.00  0.00     0.241 C 
HETATM   24  O1  UNL     1       1.601  -0.813  -3.707  1.00  0.00    -0.269 OA
HETATM   25  H4  UNL     1       2.060  -0.554  -0.463  1.00  0.00     0.163 HD
BRANCH  23  26
HETATM   26  C2  UNL     1       3.181  -2.198  -2.383  1.00  0.00     0.064 C 
HETATM   27  C1  UNL     1       3.744  -2.536  -1.236  1.00  0.00     0.017 C 
ENDBRANCH  23  26
ENDBRANCH   1  22
BRANCH  21  28
HETATM   28  O2  UNL     1       2.515   2.174  -1.044  1.00  0.00    -0.358 OA
HETATM   29  C22 UNL     1       3.519   1.672  -1.830  1.00  0.00     0.209 C 
ENDBRANCH  21  28
BRANCH  11  30
HETATM   30  N2  UNL     1      -2.625   0.860   2.587  1.00  0.00     0.091 N 
HETATM   31  H11 UNL     1      -3.505   1.005   3.117  1.00  0.00     0.314 HD
HETATM   32  H12 UNL     1      -1.918   0.467   3.243  1.00  0.00     0.314 HD
ENDBRANCH  11  30
TORSDOF 4
