REMARK  6 active torsions:
REMARK  status: ('A' for Active; 'I' for Inactive)
REMARK    1  A    between atoms: C2_2  and  C3_3 
REMARK       I    between atoms: C3_3  and  N1_5 
REMARK    2  A    between atoms: N1_5  and  C4_6 
REMARK    3  A    between atoms: C7_9  and  N2_10 
REMARK    4  A    between atoms: N2_10  and  C8_11 
REMARK    5  A    between atoms: C11_15  and  C12_16 
REMARK    6  A    between atoms: C22_29  and  O3_30 
ROOT
HETATM    1  C4  UNL     1      -3.276  -0.438   0.880  1.00  0.00     0.069 A 
HETATM    2  C5  UNL     1      -1.987  -0.335   0.391  1.00  0.00     0.050 A 
HETATM    3  C6  UNL     1      -1.520  -1.363  -0.401  1.00  0.00     0.041 A 
HETATM    4  C7  UNL     1      -0.230  -1.226  -0.871  1.00  0.00     0.142 A 
HETATM    5  N3  UNL     1       0.242  -2.217  -1.643  1.00  0.00    -0.224 NA
HETATM    6  C19 UNL     1      -0.487  -3.302  -1.959  1.00  0.00     0.236 A 
HETATM    7  N4  UNL     1      -1.748  -3.464  -1.515  1.00  0.00    -0.241 NA
HETATM    8  C20 UNL     1      -2.269  -2.482  -0.727  1.00  0.00     0.075 A 
HETATM    9  C21 UNL     1      -3.545  -2.545  -0.220  1.00  0.00     0.071 A 
HETATM   10  C22 UNL     1      -4.061  -1.553   0.571  1.00  0.00     0.097 A 
ENDROOT
BRANCH   4  11
HETATM   11  N2  UNL     1       0.659  -0.143  -0.625  1.00  0.00    -0.340 N 
HETATM   12  H8  UNL     1       0.519   0.713  -0.071  1.00  0.00     0.167 HD
BRANCH  11  13
HETATM   13  C8  UNL     1       1.981  -0.071  -1.147  1.00  0.00     0.034 A 
HETATM   14  C9  UNL     1       2.190  -0.283  -2.437  1.00  0.00     0.029 A 
HETATM   15  C10 UNL     1       3.525  -0.233  -3.088  1.00  0.00     0.205 A 
HETATM   16  O2  UNL     1       4.525   0.066  -2.161  1.00  0.00    -0.346 OA
HETATM   17  C11 UNL     1       4.372   0.294  -0.818  1.00  0.00     0.081 A 
HETATM   18  C18 UNL     1       3.158   0.228  -0.338  1.00  0.00     0.066 A 
BRANCH  17  19
HETATM   19  C12 UNL     1       5.546   0.592  -0.011  1.00  0.00     0.000 A 
HETATM   20  C13 UNL     1       5.521   0.839   1.343  1.00  0.00     0.014 A 
HETATM   21  C14 UNL     1       6.665   1.117   2.062  1.00  0.00     0.004 A 
HETATM   22  C15 UNL     1       7.900   1.162   1.449  1.00  0.00     0.042 A 
HETATM   23  C16 UNL     1       7.960   0.920   0.098  1.00  0.00     0.117 A 
HETATM   24  F1  UNL     1       9.168   0.953  -0.554  1.00  0.00    -0.206 F 
HETATM   25  C17 UNL     1       6.800   0.647  -0.579  1.00  0.00     0.056 A 
ENDBRANCH  17  19
ENDBRANCH  11  13
ENDBRANCH   4  11
BRANCH   1  26
HETATM   26  N1  UNL     1      -3.762   0.635   1.706  1.00  0.00    -0.325 N 
HETATM   27  C3  UNL     1      -4.413   1.684   0.980  1.00  0.00     0.221 C 
HETATM   28  O1  UNL     1      -4.432   1.460  -0.259  1.00  0.00    -0.273 OA
HETATM   29  H6  UNL     1      -3.599   0.553   2.753  1.00  0.00     0.169 HD
BRANCH  27  30
HETATM   30  C2  UNL     1      -4.924   2.809   1.840  1.00  0.00     0.098 C 
HETATM   31  C1  UNL     1      -5.579   3.837   0.973  1.00  0.00     0.014 C 
ENDBRANCH  27  30
ENDBRANCH   1  26
BRANCH  10  32
HETATM   32  O3  UNL     1      -5.333  -1.610   1.080  1.00  0.00    -0.354 OA
HETATM   33  C23 UNL     1      -6.201  -2.689   0.827  1.00  0.00     0.210 C 
ENDBRANCH  10  32
TORSDOF 6
