REMARK  8 active torsions:
REMARK  status: ('A' for Active; 'I' for Inactive)
REMARK    1  A    between atoms: C2_2  and  C3_3 
REMARK       I    between atoms: C3_3  and  N1_5 
REMARK    2  A    between atoms: N1_5  and  C4_6 
REMARK    3  A    between atoms: C5_7  and  C6_8 
REMARK    4  A    between atoms: N2_9  and  C7_10 
REMARK    5  A    between atoms: N3_11  and  C8_12 
REMARK    6  A    between atoms: C8_12  and  N4_13 
REMARK    7  A    between atoms: N4_13  and  C9_14 
REMARK    8  A    between atoms: C13_18  and  C14_19 
ROOT
HETATM    1  C8  UNL     1      -1.355   0.364  -0.880  1.00  0.00     0.270 C 
ENDROOT
BRANCH   1   2
HETATM    2  N3  UNL     1       0.087   0.404  -1.031  1.00  0.00    -0.272 NA
HETATM    3  C7  UNL     1       0.783   1.199  -0.260  1.00  0.00     0.168 C 
BRANCH   3   4
HETATM    4  N2  UNL     1       1.989   0.762  -0.897  1.00  0.00    -0.278 NA
HETATM    5  C6  UNL     1       2.774   0.019  -0.191  1.00  0.00     0.218 C 
BRANCH   5   6
HETATM    6  C5  UNL     1       2.773  -0.541   1.178  1.00  0.00     0.030 C 
HETATM    7  C4  UNL     1       3.826  -1.287   1.514  1.00  0.00     0.092 C 
BRANCH   7   8
HETATM    8  N1  UNL     1       4.764  -1.394   0.450  1.00  0.00    -0.337 N 
HETATM    9  C3  UNL     1       6.094  -0.921   0.655  1.00  0.00     0.221 C 
HETATM   10  O1  UNL     1       6.550  -0.407   1.692  1.00  0.00    -0.273 OA
HETATM   11  H6  UNL     1       4.455  -1.812  -0.442  1.00  0.00     0.168 HD
BRANCH   9  12
HETATM   12  C2  UNL     1       7.016  -1.067  -0.501  1.00  0.00     0.098 C 
HETATM   13  C1  UNL     1       8.396  -0.536  -0.178  1.00  0.00     0.014 C 
ENDBRANCH   9  12
ENDBRANCH   7   8
ENDBRANCH   5   6
ENDBRANCH   3   4
ENDBRANCH   1   2
BRANCH   1  14
HETATM   14  N4  UNL     1      -1.795   1.712  -0.591  1.00  0.00    -0.374 N 
HETATM   15  H13 UNL     1      -1.131   2.539  -0.516  1.00  0.00     0.161 HD
BRANCH  14  16
HETATM   16  C9  UNL     1      -3.186   1.914  -0.403  1.00  0.00     0.018 A 
HETATM   17  C10 UNL     1      -3.744   2.593  -1.410  1.00  0.00     0.025 A 
HETATM   18  C11 UNL     1      -5.169   2.749  -1.124  1.00  0.00    -0.001 A 
HETATM   19  C12 UNL     1      -5.438   2.161   0.044  1.00  0.00    -0.011 A 
HETATM   20  C13 UNL     1      -4.199   1.574   0.612  1.00  0.00     0.090 A 
BRANCH  20  21
HETATM   21  C14 UNL     1      -4.338   0.116   0.846  1.00  0.00    -0.045 A 
HETATM   22  C15 UNL     1      -4.599  -0.762  -0.188  1.00  0.00     0.008 A 
HETATM   23  C16 UNL     1      -4.737  -2.131  -0.026  1.00  0.00     0.001 A 
HETATM   24  C17 UNL     1      -4.604  -2.642   1.259  1.00  0.00     0.000 A 
HETATM   25  C18 UNL     1      -4.342  -1.809   2.340  1.00  0.00     0.001 A 
HETATM   26  C19 UNL     1      -4.221  -0.475   2.088  1.00  0.00     0.008 A 
ENDBRANCH  20  21
ENDBRANCH  14  16
ENDBRANCH   1  14
TORSDOF 8
