REMARK  8 active torsions:
REMARK  status: ('A' for Active; 'I' for Inactive)
REMARK    1  A    between atoms: C2_2  and  C3_3 
REMARK       I    between atoms: C3_3  and  N1_5 
REMARK    2  A    between atoms: N1_5  and  C4_6 
REMARK    3  A    between atoms: N2_10  and  C8_11 
REMARK    4  A    between atoms: C11_14  and  C12_15 
REMARK    5  A    between atoms: C12_15  and  O2_16 
REMARK    6  A    between atoms: C12_15  and  C13_17 
REMARK    7  A    between atoms: C24_29  and  O3_30 
REMARK    8  A    between atoms: O3_30  and  N4_31 
ROOT
HETATM    1  C4  UNL     1       4.120   0.136   0.403  1.00  0.00     0.071 C 
HETATM    2  C5  UNL     1       3.103   0.280  -0.465  1.00  0.00     0.042 C 
HETATM    3  C6  UNL     1       2.199  -0.851  -0.325  1.00  0.00    -0.025 A 
HETATM    4  C7  UNL     1       0.875  -0.662  -0.518  1.00  0.00     0.127 A 
HETATM    5  N2  UNL     1      -0.122  -1.661  -0.403  1.00  0.00    -0.245 N 
HETATM    6  N3  UNL     1       0.320  -2.921  -0.062  1.00  0.00    -0.183 NA
HETATM    7  C21 UNL     1       1.561  -3.211   0.136  1.00  0.00     0.125 A 
HETATM    8  C22 UNL     1       2.606  -2.218   0.003  1.00  0.00     0.088 A 
HETATM    9  C23 UNL     1       3.714  -2.209   0.964  1.00  0.00     0.030 C 
HETATM   10  C24 UNL     1       4.414  -1.097   1.124  1.00  0.00     0.122 C 
ENDROOT
BRANCH   5  11
HETATM   11  C8  UNL     1      -1.504  -1.432  -0.613  1.00  0.00     0.058 A 
HETATM   12  C9  UNL     1      -2.070  -0.230  -0.954  1.00  0.00     0.032 A 
HETATM   13  C10 UNL     1      -3.422  -0.042  -1.152  1.00  0.00     0.012 A 
HETATM   14  C11 UNL     1      -4.288  -1.104  -1.008  1.00  0.00    -0.025 A 
HETATM   15  C19 UNL     1      -3.765  -2.333  -0.666  1.00  0.00     0.012 A 
HETATM   16  C20 UNL     1      -2.405  -2.469  -0.479  1.00  0.00     0.032 A 
BRANCH  14  17
HETATM   17  C12 UNL     1      -5.735  -0.852  -1.232  1.00  0.00     0.184 C 
BRANCH  17  18
HETATM   18  O2  UNL     1      -5.952  -0.089  -2.377  1.00  0.00    -0.386 OA
HETATM   19  H12 UNL     1      -5.096  -0.056  -2.891  1.00  0.00     0.210 HD
ENDBRANCH  17  18
BRANCH  17  20
HETATM   20  C13 UNL     1      -6.206  -0.004  -0.083  1.00  0.00    -0.025 A 
HETATM   21  C14 UNL     1      -5.486   0.147   1.093  1.00  0.00     0.010 A 
HETATM   22  C15 UNL     1      -5.968   0.929   2.095  1.00  0.00     0.001 A 
HETATM   23  C16 UNL     1      -7.159   1.587   1.988  1.00  0.00     0.000 A 
HETATM   24  C17 UNL     1      -7.926   1.472   0.830  1.00  0.00     0.001 A 
HETATM   25  C18 UNL     1      -7.407   0.676  -0.157  1.00  0.00     0.010 A 
ENDBRANCH  17  20
ENDBRANCH  14  17
ENDBRANCH   5  11
BRANCH   1  26
HETATM   26  N1  UNL     1       5.137   1.116   0.491  1.00  0.00    -0.325 N 
HETATM   27  C3  UNL     1       5.333   2.311  -0.228  1.00  0.00     0.221 C 
HETATM   28  O1  UNL     1       4.509   2.630  -1.118  1.00  0.00    -0.273 OA
HETATM   29  H6  UNL     1       5.923   1.043   1.172  1.00  0.00     0.169 HD
BRANCH  27  30
HETATM   30  C2  UNL     1       6.427   3.299  -0.081  1.00  0.00     0.098 C 
HETATM   31  C1  UNL     1       6.186   4.406  -1.083  1.00  0.00     0.014 C 
ENDBRANCH  27  30
ENDBRANCH   1  26
BRANCH  10  32
HETATM   32  O3  UNL     1       5.460  -1.182   2.036  1.00  0.00    -0.243 OA
BRANCH  32  33
HETATM   33  N4  UNL     1       6.598  -1.895   1.819  1.00  0.00    -0.305 N 
HETATM   34  H23 UNL     1       7.386  -1.350   1.440  1.00  0.00     0.184 HD
HETATM   35  H24 UNL     1       6.444  -2.822   1.376  1.00  0.00     0.184 HD
ENDBRANCH  32  33
ENDBRANCH  10  32
TORSDOF 8
