REMARK  8 active torsions:
REMARK  status: ('A' for Active; 'I' for Inactive)
REMARK    1  A    between atoms: C1_2  and  C2_3 
REMARK    2  A    between atoms: C2_3  and  N1_4 
REMARK    3  A    between atoms: N1_4  and  C3_5 
REMARK    4  A    between atoms: C8_12  and  N4_13 
REMARK    5  A    between atoms: N4_13  and  C9_14 
REMARK    6  A    between atoms: C12_17  and  C13_18 
REMARK    7  A    between atoms: C13_18  and  O2_19 
REMARK    8  A    between atoms: C13_18  and  C14_20 
ROOT
HETATM    1  N4  UNL     1       1.005  -1.633  -1.402  1.00  0.00    -0.340 N 
HETATM    2  H7  UNL     1       1.119  -1.809  -2.414  1.00  0.00     0.167 HD
ENDROOT
BRANCH   1   3
HETATM    3  C8  UNL     1       1.978  -1.937  -0.443  1.00  0.00     0.141 A 
HETATM    4  C5  UNL     1       3.226  -1.380  -0.289  1.00  0.00     0.037 A 
HETATM    5  C4  UNL     1       3.888  -0.352  -1.071  1.00  0.00     0.042 A 
HETATM    6  C6  UNL     1       3.968  -1.874   0.761  1.00  0.00     0.055 A 
HETATM    7  C3  UNL     1       5.067  -0.224  -0.471  1.00  0.00     0.011 A 
HETATM    8  C22 UNL     1       5.248  -1.130   0.709  1.00  0.00     0.117 A 
HETATM    9  N2  UNL     1       3.511  -2.830   1.578  1.00  0.00    -0.245 NA
HETATM   10  C7  UNL     1       2.269  -3.377   1.415  1.00  0.00     0.235 A 
HETATM   11  N3  UNL     1       1.531  -2.894   0.381  1.00  0.00    -0.224 NA
BRANCH   7  12
HETATM   12  N1  UNL     1       6.113   0.679  -0.864  1.00  0.00    -0.390 N 
HETATM   13  H4  UNL     1       6.526   0.875  -1.816  1.00  0.00     0.159 HD
BRANCH  12  14
HETATM   14  C2  UNL     1       6.690   1.442   0.250  1.00  0.00     0.156 C 
BRANCH  14  15
HETATM   15  C1  UNL     1       5.714   2.423   0.801  1.00  0.00     0.410 C 
HETATM   16  O1  UNL     1       5.893   3.191   1.738  1.00  0.00    -0.428 OA
ENDBRANCH  14  15
ENDBRANCH  12  14
ENDBRANCH   7  12
ENDBRANCH   1   3
BRANCH   1  17
HETATM   17  C9  UNL     1      -0.180  -1.053  -0.879  1.00  0.00     0.033 A 
HETATM   18  C10 UNL     1      -0.344  -0.686   0.439  1.00  0.00     0.030 A 
HETATM   19  C11 UNL     1      -1.546  -0.146   0.911  1.00  0.00     0.012 A 
HETATM   20  C12 UNL     1      -2.636   0.041   0.044  1.00  0.00    -0.025 A 
HETATM   21  C20 UNL     1      -2.424  -0.333  -1.238  1.00  0.00     0.012 A 
HETATM   22  C21 UNL     1      -1.264  -0.866  -1.747  1.00  0.00     0.030 A 
BRANCH  20  23
HETATM   23  C13 UNL     1      -3.760   0.632   0.797  1.00  0.00     0.184 C 
BRANCH  23  24
HETATM   24  O2  UNL     1      -3.319   1.921   1.180  1.00  0.00    -0.386 OA
HETATM   25  H11 UNL     1      -3.275   2.471   0.378  1.00  0.00     0.210 HD
ENDBRANCH  23  24
BRANCH  23  26
HETATM   26  C14 UNL     1      -5.025   0.750   0.103  1.00  0.00    -0.025 A 
HETATM   27  C15 UNL     1      -5.787   1.900   0.307  1.00  0.00     0.010 A 
HETATM   28  C16 UNL     1      -7.018   2.136  -0.262  1.00  0.00     0.001 A 
HETATM   29  C17 UNL     1      -7.579   1.196  -1.099  1.00  0.00     0.000 A 
HETATM   30  C18 UNL     1      -6.879   0.042  -1.338  1.00  0.00     0.001 A 
HETATM   31  C19 UNL     1      -5.657  -0.133  -0.742  1.00  0.00     0.010 A 
ENDBRANCH  23  26
ENDBRANCH  20  23
ENDBRANCH   1  17
TORSDOF 8
