REMARK  5 active torsions:
REMARK  status: ('A' for Active; 'I' for Inactive)
REMARK    1  A    between atoms: C3_4  and  N1_5 
REMARK    2  A    between atoms: N1_5  and  C4_6 
REMARK    3  A    between atoms: C10_14  and  N4_15 
REMARK    4  A    between atoms: N4_15  and  C11_16 
REMARK    5  A    between atoms: C11_16  and  O1_18 
ROOT
HETATM    1  B1  UNL     1       5.960   4.783   0.907  1.00  0.00     0.190 B 
HETATM    2  C1  UNL     1       5.516   2.294   0.411  1.00  0.00    -0.250 C 
HETATM    3  C2  UNL     1       5.242   0.886   0.141  1.00  0.00     0.092 C 
HETATM    4  C3  UNL     1       4.273   1.039   1.014  1.00  0.00     0.079 C 
ENDROOT
BRANCH   4   5
HETATM    5  N1  UNL     1       3.765  -0.287   0.972  1.00  0.00    -0.352 N 
HETATM    6  H3  UNL     1       4.105  -1.005   1.649  1.00  0.00     0.166 HD
BRANCH   5   7
HETATM    7  C4  UNL     1       2.803  -0.416  -0.062  1.00  0.00     0.141 A 
HETATM    8  N2  UNL     1       3.207  -0.231  -1.330  1.00  0.00    -0.224 NA
HETATM    9  C5  UNL     1       2.375  -0.345  -2.395  1.00  0.00     0.236 A 
HETATM   10  N3  UNL     1       1.057  -0.664  -2.196  1.00  0.00    -0.241 NA
HETATM   11  C6  UNL     1       0.652  -0.850  -0.930  1.00  0.00     0.080 A 
HETATM   12  C7  UNL     1       1.468  -0.739   0.180  1.00  0.00     0.039 A 
HETATM   13  C14 UNL     1      -0.712  -1.276  -0.557  1.00  0.00    -0.001 C 
HETATM   14  C8  UNL     1       1.075  -0.850   1.567  1.00  0.00     0.016 C 
HETATM   15  C9  UNL     1      -0.189  -1.070   1.831  1.00  0.00     0.014 C 
HETATM   16  C10 UNL     1      -1.294  -1.215   0.808  1.00  0.00     0.281 C 
HETATM   17  C15 UNL     1      -1.466  -1.778  -1.544  1.00  0.00     0.023 C 
BRANCH  16  18
HETATM   18  N4  UNL     1      -2.101  -0.031   0.991  1.00  0.00     0.124 N 
HETATM   19  H8  UNL     1      -1.467   0.787   0.805  1.00  0.00     0.320 HD
BRANCH  18  20
HETATM   20  C11 UNL     1      -3.223   0.097   0.123  1.00  0.00     0.352 C 
HETATM   21  C12 UNL     1      -4.303  -0.908   0.303  1.00  0.00     0.073 C 
BRANCH  20  22
HETATM   22  O1  UNL     1      -3.762   1.381   0.365  1.00  0.00    -0.363 OA
HETATM   23  C13 UNL     1      -3.624   2.175  -0.772  1.00  0.00     0.204 C 
ENDBRANCH  20  22
ENDBRANCH  18  20
ENDBRANCH  16  18
ENDBRANCH   5   7
ENDBRANCH   4   5
TORSDOF 5
