REMARK  6 active torsions:
REMARK  status: ('A' for Active; 'I' for Inactive)
REMARK    1  A    between atoms: C1_2  and  C2_3 
REMARK    2  A    between atoms: C7_9  and  N2_10 
REMARK    3  A    between atoms: N2_10  and  C8_11 
REMARK    4  A    between atoms: C11_14  and  O2_15 
REMARK    5  A    between atoms: O2_15  and  C12_16 
REMARK    6  A    between atoms: C12_16  and  C13_17 
ROOT
HETATM    1  C2  UNL     1      -6.404   1.455   0.962  1.00  0.00     0.334 C 
HETATM    2  N1  UNL     1      -6.641   0.064   1.468  1.00  0.00     0.114 N 
HETATM    3  C3  UNL     1      -5.499  -0.624   0.935  1.00  0.00     0.289 C 
HETATM    4  C4  UNL     1      -5.203  -1.980   1.292  1.00  0.00     0.010 C 
HETATM    5  C5  UNL     1      -3.938  -2.175   0.794  1.00  0.00    -0.018 C 
HETATM    6  C6  UNL     1      -2.731  -1.692   0.076  1.00  0.00     0.166 C 
HETATM    7  C7  UNL     1      -2.303  -0.548  -0.533  1.00  0.00     0.111 C 
HETATM    8  N3  UNL     1      -2.185   0.795  -1.078  1.00  0.00    -0.256 NA
HETATM    9  C21 UNL     1      -2.921   1.785  -0.627  1.00  0.00     0.229 C 
HETATM   10  N4  UNL     1      -3.925   1.958   0.364  1.00  0.00    -0.244 NA
HETATM   11  C22 UNL     1      -5.134   1.482   0.190  1.00  0.00     0.077 C 
HETATM   12  C23 UNL     1      -5.468   0.745  -1.056  1.00  0.00     0.051 C 
HETATM   13  C24 UNL     1      -5.592  -0.507  -0.565  1.00  0.00     0.050 C 
HETATM   14 CL1  UNL     1      -5.838  -1.762  -1.737  1.00  0.00    -0.086 Cl
HETATM   15  H3  UNL     1      -6.603   0.088   2.510  1.00  0.00     0.318 HD
ENDROOT
BRANCH   7  16
HETATM   16  N2  UNL     1      -0.996  -1.022  -0.946  1.00  0.00    -0.366 N 
HETATM   17  H8  UNL     1      -0.810  -1.862  -1.578  1.00  0.00     0.162 HD
BRANCH  16  18
HETATM   18  C8  UNL     1       0.413  -0.732  -0.812  1.00  0.00     0.029 A 
HETATM   19  C9  UNL     1       1.193  -0.033  -1.713  1.00  0.00     0.032 A 
HETATM   20  C10 UNL     1       2.536   0.143  -1.403  1.00  0.00     0.039 A 
HETATM   21  C11 UNL     1       3.021  -0.375  -0.238  1.00  0.00     0.069 A 
HETATM   22  C19 UNL     1       2.293  -1.074   0.688  1.00  0.00     0.039 A 
HETATM   23  C20 UNL     1       0.939  -1.246   0.365  1.00  0.00     0.032 A 
BRANCH  21  24
HETATM   24  O2  UNL     1       4.360  -0.201   0.063  1.00  0.00    -0.347 OA
BRANCH  24  25
HETATM   25  C12 UNL     1       5.289   0.467  -0.741  1.00  0.00     0.214 C 
BRANCH  25  26
HETATM   26  C13 UNL     1       6.637   0.463  -0.115  1.00  0.00    -0.031 A 
HETATM   27  C14 UNL     1       7.119   1.473   0.711  1.00  0.00     0.009 A 
HETATM   28  C15 UNL     1       8.385   1.330   1.233  1.00  0.00     0.004 A 
HETATM   29  C16 UNL     1       9.227   0.239   0.993  1.00  0.00     0.042 A 
HETATM   30  C17 UNL     1       8.712  -0.758   0.159  1.00  0.00     0.117 A 
HETATM   31  F1  UNL     1       9.544  -1.811  -0.058  1.00  0.00    -0.206 F 
HETATM   32  C18 UNL     1       7.451  -0.644  -0.378  1.00  0.00     0.051 A 
ENDBRANCH  25  26
ENDBRANCH  24  25
ENDBRANCH  21  24
ENDBRANCH  16  18
ENDBRANCH   7  16
BRANCH   1  33
HETATM   33  C1  UNL     1      -7.588   1.855   0.195  1.00  0.00     0.273 C 
HETATM   34  O1  UNL     1      -8.389   0.927   0.221  1.00  0.00    -0.304 OA
ENDBRANCH   1  33
TORSDOF 6
