REMARK  7 active torsions:
REMARK  status: ('A' for Active; 'I' for Inactive)
REMARK    1  A    between atoms: C2_2  and  C3_3 
REMARK       I    between atoms: C3_3  and  N1_5 
REMARK    2  A    between atoms: N1_5  and  C4_6 
REMARK    3  A    between atoms: C7_10  and  N2_11 
REMARK    4  A    between atoms: C9_13  and  O2_14 
REMARK    5  A    between atoms: O2_14  and  C10_15 
REMARK    6  A    between atoms: C10_15  and  C11_16 
REMARK    7  A    between atoms: C23_29  and  O3_30 
ROOT
HETATM    1  C4  UNL     1      -4.402   0.385  -0.806  1.00  0.00     0.055 A 
HETATM    2  C5  UNL     1      -3.386  -0.308  -1.288  1.00  0.00    -0.034 A 
HETATM    3  B1  UNL     1      -1.957   0.273  -1.185  1.00  0.00     0.290 B 
HETATM    4  C6  UNL     1      -0.662  -0.414  -1.697  1.00  0.00    -0.039 A 
HETATM    5  C7  UNL     1       0.477   0.242  -1.513  1.00  0.00     0.018 A 
HETATM    6  C20 UNL     1       0.577   1.563  -0.860  1.00  0.00     0.203 A 
HETATM    7  N3  UNL     1      -0.633   2.143  -0.414  1.00  0.00    -0.299 NA
HETATM    8  C21 UNL     1      -1.806   1.680  -0.498  1.00  0.00    -0.001 A 
HETATM    9  C22 UNL     1      -3.049   2.284  -0.030  1.00  0.00     0.054 A 
HETATM   10  C23 UNL     1      -4.244   1.685  -0.173  1.00  0.00     0.094 A 
ENDROOT
BRANCH   5  11
HETATM   11  N2  UNL     1       1.677  -0.363  -1.972  1.00  0.00    -0.354 N 
HETATM   12  C8  UNL     1       2.773  -0.393  -1.091  1.00  0.00     0.128 A 
HETATM   13  C9  UNL     1       3.912  -0.950  -1.467  1.00  0.00     0.084 A 
HETATM   14  C17 UNL     1       4.041  -1.535  -2.792  1.00  0.00     0.036 A 
HETATM   15  C18 UNL     1       3.005  -1.492  -3.593  1.00  0.00    -0.004 A 
HETATM   16  C19 UNL     1       1.680  -0.902  -3.299  1.00  0.00     0.155 A 
BRANCH  13  17
HETATM   17  O2  UNL     1       4.947  -0.939  -0.536  1.00  0.00    -0.345 OA
BRANCH  17  18
HETATM   18  C10 UNL     1       4.714  -0.757   0.832  1.00  0.00     0.214 C 
BRANCH  18  19
HETATM   19  C11 UNL     1       5.993  -0.870   1.593  1.00  0.00    -0.034 A 
HETATM   20  C12 UNL     1       6.247  -2.161   1.974  1.00  0.00     0.009 A 
HETATM   21  C13 UNL     1       7.386  -2.515   2.700  1.00  0.00     0.001 A 
HETATM   22  C14 UNL     1       8.252  -1.462   3.013  1.00  0.00     0.000 A 
HETATM   23  C15 UNL     1       8.021  -0.148   2.640  1.00  0.00     0.001 A 
HETATM   24  C16 UNL     1       6.877   0.131   1.925  1.00  0.00     0.009 A 
ENDBRANCH  18  19
ENDBRANCH  17  18
ENDBRANCH  13  17
ENDBRANCH   5  11
BRANCH   1  25
HETATM   25  N1  UNL     1      -5.732  -0.104  -0.876  1.00  0.00    -0.326 N 
HETATM   26  C3  UNL     1      -6.310  -0.255   0.407  1.00  0.00     0.221 C 
HETATM   27  O1  UNL     1      -5.771  -0.003   1.521  1.00  0.00    -0.273 OA
HETATM   28  H6  UNL     1      -6.510  -0.420  -1.529  1.00  0.00     0.169 HD
BRANCH  26  29
HETATM   29  C2  UNL     1      -7.565  -0.683   1.057  1.00  0.00     0.098 C 
HETATM   30  C1  UNL     1      -7.357  -0.529   2.554  1.00  0.00     0.014 C 
ENDBRANCH  26  29
ENDBRANCH   1  25
BRANCH  10  31
HETATM   31  O3  UNL     1      -5.242   2.489   0.361  1.00  0.00    -0.354 OA
HETATM   32  C24 UNL     1      -5.431   3.827  -0.126  1.00  0.00     0.210 C 
ENDBRANCH  10  31
TORSDOF 7
