REMARK  5 active torsions:
REMARK  status: ('A' for Active; 'I' for Inactive)
REMARK    1  A    between atoms: C2_2  and  C3_3 
REMARK    2  A    between atoms: C3_3  and  C4_4 
REMARK    3  A    between atoms: C4_4  and  C5_5 
REMARK    4  A    between atoms: C13_15  and  C14_16 
REMARK    5  A    between atoms: C15_17  and  O2_18 
ROOT
HETATM    1  C5  UNL     1       3.364   1.065  -0.182  1.00  0.00    -0.040 C 
HETATM    2  C6  UNL     1       2.631  -0.104  -0.496  1.00  0.00    -0.014 C 
HETATM    3  C7  UNL     1       1.332  -0.460  -0.050  1.00  0.00     0.064 C 
HETATM    4  C8  UNL     1       0.149  -1.021  -0.549  1.00  0.00    -0.039 C 
HETATM    5  C9  UNL     1       0.457  -2.074  -1.476  1.00  0.00     0.288 A 
HETATM    6  N1  UNL     1      -0.458  -3.020  -2.264  1.00  0.00     0.110 N 
HETATM    7  C10 UNL     1      -1.888  -2.883  -1.991  1.00  0.00     0.234 A 
HETATM    8  O1  UNL     1      -0.706  -2.698  -1.891  1.00  0.00     0.000 OA
HETATM    9  C11 UNL     1      -3.319  -2.601  -1.552  1.00  0.00     0.053 C 
HETATM   10  C12 UNL     1      -3.273  -2.296  -0.042  1.00  0.00     0.061 C 
HETATM   11  C13 UNL     1      -3.516  -0.944   0.352  1.00  0.00     0.031 C 
HETATM   12  N2  UNL     1      -3.157   0.269   0.842  1.00  0.00    -0.288 NA
HETATM   13  C17 UNL     1      -2.025   0.880   1.298  1.00  0.00     0.205 C 
HETATM   14  C18 UNL     1      -0.640   0.766   0.931  1.00  0.00     0.025 C 
HETATM   15  C19 UNL     1      -1.002  -0.275   0.266  1.00  0.00     0.031 C 
HETATM   16  N3  UNL     1       0.200   1.775   1.452  1.00  0.00    -0.388 N 
HETATM   17  C20 UNL     1       0.987   2.318   0.348  1.00  0.00     0.148 C 
HETATM   18  C21 UNL     1       2.078   3.245   0.639  1.00  0.00     0.017 C 
HETATM   19  C22 UNL     1       3.220   2.459   0.300  1.00  0.00     0.037 C 
HETATM   20 CL1  UNL     1       4.638   3.466   0.484  1.00  0.00    -0.084 Cl
HETATM   21  H12 UNL     1       0.329  -3.655  -2.710  1.00  0.00     0.318 HD
HETATM   22  H25 UNL     1       0.180   1.972   2.464  1.00  0.00     0.159 HD
ENDROOT
BRANCH   1  23
HETATM   23  C4  UNL     1       4.739   0.915  -0.884  1.00  0.00     0.040 C 
BRANCH  23  24
HETATM   24  C3  UNL     1       5.580   0.540   0.426  1.00  0.00     0.009 C 
BRANCH  24  25
HETATM   25  C2  UNL     1       7.024   0.277  -0.012  1.00  0.00     0.008 C 
HETATM   26  C1  UNL     1       6.835  -1.019   0.742  1.00  0.00    -0.013 C 
ENDBRANCH  24  25
ENDBRANCH  23  24
ENDBRANCH   1  23
BRANCH  11  27
HETATM   27  C14 UNL     1      -4.885  -0.841  -0.265  1.00  0.00     0.050 C 
HETATM   28  C15 UNL     1      -5.662   0.296  -0.389  1.00  0.00     0.136 C 
BRANCH  28  29
HETATM   29  O2  UNL     1      -5.553   1.700  -0.038  1.00  0.00    -0.368 OA
HETATM   30  C16 UNL     1      -6.876   2.297  -0.022  1.00  0.00     0.208 C 
ENDBRANCH  28  29
ENDBRANCH  11  27
TORSDOF 5
