REMARK  6 active torsions:
REMARK  status: ('A' for Active; 'I' for Inactive)
REMARK    1  A    between atoms: C2_2  and  C3_3 
REMARK       I    between atoms: C3_3  and  N1_5 
REMARK    2  A    between atoms: N1_5  and  C4_6 
REMARK    3  A    between atoms: C7_9  and  N2_10 
REMARK    4  A    between atoms: N2_10  and  C8_11 
REMARK    5  A    between atoms: C9_12  and  C10_13 
REMARK    6  A    between atoms: C19_24  and  O2_25 
ROOT
HETATM    1  C4  UNL     1      -3.285  -0.335   0.038  1.00  0.00     0.069 A 
HETATM    2  C5  UNL     1      -1.926  -0.175   0.141  1.00  0.00     0.050 A 
HETATM    3  C6  UNL     1      -1.052  -1.207   0.309  1.00  0.00     0.041 A 
HETATM    4  C7  UNL     1       0.298  -0.969   0.404  1.00  0.00     0.141 A 
HETATM    5  N3  UNL     1       1.160  -1.987   0.570  1.00  0.00    -0.224 NA
HETATM    6  C16 UNL     1       0.730  -3.274   0.649  1.00  0.00     0.236 A 
HETATM    7  N4  UNL     1      -0.612  -3.494   0.553  1.00  0.00    -0.241 NA
HETATM    8  C17 UNL     1      -1.486  -2.509   0.389  1.00  0.00     0.075 A 
HETATM    9  C18 UNL     1      -2.849  -2.679   0.286  1.00  0.00     0.071 A 
HETATM   10  C19 UNL     1      -3.733  -1.634   0.116  1.00  0.00     0.097 A 
ENDROOT
BRANCH   4  11
HETATM   11  N2  UNL     1       0.882   0.323   0.338  1.00  0.00    -0.350 N 
HETATM   12  H8  UNL     1       0.462   1.265   0.217  1.00  0.00     0.166 HD
BRANCH  11  13
HETATM   13  C8  UNL     1       2.276   0.584   0.435  1.00  0.00     0.090 C 
HETATM   14  C9  UNL     1       3.099  -0.087  -0.383  1.00  0.00     0.025 C 
BRANCH  14  15
HETATM   15  C10 UNL     1       4.549   0.079  -0.394  1.00  0.00    -0.046 C 
HETATM   16  C11 UNL     1       5.225  -0.053  -1.501  1.00  0.00    -0.023 C 
HETATM   17  C12 UNL     1       6.421  -0.593  -1.320  1.00  0.00    -0.014 C 
HETATM   18  C13 UNL     1       7.361   0.379  -0.654  1.00  0.00     0.028 C 
HETATM   19  C14 UNL     1       6.608   1.233   0.372  1.00  0.00     0.008 C 
HETATM   20  C15 UNL     1       5.394   0.406   0.809  1.00  0.00     0.040 C 
ENDBRANCH  14  15
ENDBRANCH  11  13
ENDBRANCH   4  11
BRANCH   1  21
HETATM   21  N1  UNL     1      -4.253   0.680  -0.137  1.00  0.00    -0.325 N 
HETATM   22  C3  UNL     1      -4.067   2.075  -0.247  1.00  0.00     0.221 C 
HETATM   23  O1  UNL     1      -2.915   2.565  -0.191  1.00  0.00    -0.273 OA
HETATM   24  H6  UNL     1      -5.265   0.446  -0.204  1.00  0.00     0.169 HD
BRANCH  22  25
HETATM   25  C2  UNL     1      -5.129   3.070  -0.428  1.00  0.00     0.098 C 
HETATM   26  C1  UNL     1      -4.582   4.471  -0.507  1.00  0.00     0.014 C 
ENDBRANCH  22  25
ENDBRANCH   1  21
BRANCH  10  27
HETATM   27  O2  UNL     1      -5.093  -1.894   0.022  1.00  0.00    -0.354 OA
HETATM   28  C20 UNL     1      -5.549  -3.228   0.102  1.00  0.00     0.210 C 
ENDBRANCH  10  27
TORSDOF 6
