REMARK  5 active torsions:
REMARK  status: ('A' for Active; 'I' for Inactive)
REMARK    1  A    between atoms: O1_2  and  C2_3 
REMARK    2  A    between atoms: C6_9  and  N3_10 
REMARK    3  A    between atoms: N3_10  and  C7_11 
REMARK    4  A    between atoms: C15_21  and  C16_22 
REMARK    5  A    between atoms: C20_26  and  C21_27 
REMARK       I    between atoms: C21_27  and  N4_28 
ROOT
HETATM    1  C2  UNL     1      -1.386   0.073  -1.858  1.00  0.00     0.077 A 
HETATM    2  C3  UNL     1      -0.325  -0.110  -2.714  1.00  0.00     0.070 A 
HETATM    3  C4  UNL     1       0.970  -0.175  -2.243  1.00  0.00     0.074 A 
HETATM    4  N1  UNL     1       2.038  -0.351  -3.034  1.00  0.00    -0.241 NA
HETATM    5  C5  UNL     1       3.300  -0.415  -2.574  1.00  0.00     0.236 A 
HETATM    6  N2  UNL     1       3.482  -0.291  -1.226  1.00  0.00    -0.224 NA
HETATM    7  C6  UNL     1       2.431  -0.114  -0.414  1.00  0.00     0.142 A 
HETATM    8  C13 UNL     1       1.135  -0.048  -0.880  1.00  0.00     0.039 A 
HETATM    9  C14 UNL     1       0.066   0.134  -0.031  1.00  0.00     0.028 A 
HETATM   10  C15 UNL     1      -1.255   0.202  -0.496  1.00  0.00    -0.019 A 
ENDROOT
BRANCH   7  11
HETATM   11  N3  UNL     1       2.724   0.004   0.970  1.00  0.00    -0.338 N 
HETATM   12  H6  UNL     1       2.192   0.140   1.828  1.00  0.00     0.167 HD
BRANCH  11  13
HETATM   13  C7  UNL     1       4.076  -0.070   1.407  1.00  0.00     0.074 A 
HETATM   14  C8  UNL     1       4.512  -1.054   2.302  1.00  0.00     0.033 A 
HETATM   15  C9  UNL     1       5.821  -1.144   2.739  1.00  0.00     0.004 A 
HETATM   16  C10 UNL     1       6.745  -0.228   2.278  1.00  0.00     0.027 A 
HETATM   17  C11 UNL     1       6.365   0.764   1.393  1.00  0.00     0.074 A 
HETATM   18 CL1  UNL     1       7.584   1.892   0.848  1.00  0.00    -0.081 Cl
HETATM   19  C12 UNL     1       5.045   0.818   0.980  1.00  0.00     0.164 A 
HETATM   20  F1  UNL     1       4.668   1.798   0.105  1.00  0.00    -0.202 F 
ENDBRANCH  11  13
ENDBRANCH   7  11
BRANCH  10  21
HETATM   21  C16 UNL     1      -2.235   0.400   0.549  1.00  0.00     0.034 C 
HETATM   22  C17 UNL     1      -2.554   1.818   0.927  1.00  0.00     0.010 C 
HETATM   23  C18 UNL     1      -3.719   1.600   1.905  1.00  0.00     0.002 C 
HETATM   24  C19 UNL     1      -4.284   0.223   1.591  1.00  0.00     0.015 C 
HETATM   25  C20 UNL     1      -3.636  -0.098   0.242  1.00  0.00     0.086 C 
BRANCH  25  26
HETATM   26  C21 UNL     1      -3.708  -1.509  -0.123  1.00  0.00     0.220 C 
HETATM   27  N4  UNL     1      -5.026  -1.980  -0.412  1.00  0.00    -0.370 N 
HETATM   28  H19 UNL     1      -5.426  -2.367  -1.315  1.00  0.00     0.159 HD
HETATM   29  H20 UNL     1      -5.843  -2.018   0.255  1.00  0.00     0.159 HD
HETATM   30  O2  UNL     1      -2.924  -2.505  -0.274  1.00  0.00    -0.273 OA
ENDBRANCH  25  26
ENDBRANCH  10  21
BRANCH   1  31
HETATM   31  O1  UNL     1      -2.694   0.141  -2.307  1.00  0.00    -0.355 OA
HETATM   32  C1  UNL     1      -2.915   0.017  -3.697  1.00  0.00     0.210 C 
ENDBRANCH   1  31
TORSDOF 5
