REMARK  10 active torsions:
REMARK  status: ('A' for Active; 'I' for Inactive)
REMARK    1  A    between atoms: C2_2  and  C3_3 
REMARK       I    between atoms: C3_3  and  N1_5 
REMARK    2  A    between atoms: N1_5  and  C4_6 
REMARK    3  A    between atoms: C5_7  and  C6_8 
REMARK    4  A    between atoms: C6_8  and  C7_9 
REMARK    5  A    between atoms: C7_9  and  B1_10 
REMARK    6  A    between atoms: B1_10  and  N2_11 
REMARK    7  A    between atoms: N2_11  and  C8_12 
REMARK    8  A    between atoms: C11_15  and  O2_16 
REMARK    9  A    between atoms: O2_16  and  C12_17 
REMARK   10  A    between atoms: C12_17  and  C13_18 
ROOT
HETATM    1  C8  UNL     1      -0.624  -0.777  -0.914  1.00  0.00     0.015 A 
HETATM    2  C9  UNL     1      -1.597  -1.548  -1.478  1.00  0.00     0.030 A 
HETATM    3  C10 UNL     1      -2.916  -1.295  -1.171  1.00  0.00     0.040 A 
HETATM    4  C11 UNL     1      -3.331  -0.294  -0.313  1.00  0.00     0.090 A 
HETATM    5  C19 UNL     1      -2.300   0.467   0.239  1.00  0.00     0.069 A 
HETATM    6 CL1  UNL     1      -2.812   1.753   1.339  1.00  0.00    -0.081 Cl
HETATM    7  C20 UNL     1      -0.975   0.238  -0.049  1.00  0.00     0.054 A 
ENDROOT
BRANCH   1   8
HETATM    8  N2  UNL     1       0.738  -1.034  -1.228  1.00  0.00    -0.433 N 
HETATM    9  H10 UNL     1       1.013  -1.784  -1.867  1.00  0.00     0.139 HD
BRANCH   8  10
HETATM   10  B1  UNL     1       1.951  -0.044  -0.503  1.00  0.00     0.364 B 
BRANCH  10  11
HETATM   11  C7  UNL     1       3.264   1.141  -0.158  1.00  0.00    -0.213 C 
BRANCH  11  12
HETATM   12  C6  UNL     1       4.270   1.751   0.448  1.00  0.00     0.055 C 
BRANCH  12  13
HETATM   13  C5  UNL     1       4.888   1.328   1.729  1.00  0.00     0.013 C 
HETATM   14  C4  UNL     1       5.702   0.594   1.028  1.00  0.00     0.137 C 
BRANCH  14  15
HETATM   15  N1  UNL     1       6.774  -0.298   1.119  1.00  0.00    -0.354 N 
HETATM   16  C3  UNL     1       7.890   0.242   0.419  1.00  0.00     0.217 C 
HETATM   17  O1  UNL     1       7.969   1.338  -0.203  1.00  0.00    -0.274 OA
HETATM   18  H6  UNL     1       7.120  -1.222   1.486  1.00  0.00     0.162 HD
BRANCH  16  19
HETATM   19  C2  UNL     1       9.306  -0.182   0.129  1.00  0.00     0.098 C 
HETATM   20  C1  UNL     1       9.895   0.948  -0.694  1.00  0.00     0.014 C 
ENDBRANCH  16  19
ENDBRANCH  14  15
ENDBRANCH  12  13
ENDBRANCH  11  12
ENDBRANCH  10  11
ENDBRANCH   8  10
ENDBRANCH   1   8
BRANCH   4  21
HETATM   21  O2  UNL     1      -4.679  -0.082  -0.037  1.00  0.00    -0.345 OA
BRANCH  21  22
HETATM   22  C12 UNL     1      -5.632  -0.932  -0.668  1.00  0.00     0.214 C 
BRANCH  22  23
HETATM   23  C13 UNL     1      -6.993  -0.527  -0.232  1.00  0.00    -0.031 A 
HETATM   24  C14 UNL     1      -7.537  -1.119   0.904  1.00  0.00     0.009 A 
HETATM   25  C15 UNL     1      -8.789  -0.820   1.400  1.00  0.00     0.004 A 
HETATM   26  C16 UNL     1      -9.534   0.123   0.719  1.00  0.00     0.042 A 
HETATM   27  C17 UNL     1      -9.037   0.746  -0.422  1.00  0.00     0.117 A 
HETATM   28  F1  UNL     1      -9.788   1.678  -1.084  1.00  0.00    -0.206 F 
HETATM   29  C18 UNL     1      -7.761   0.411  -0.888  1.00  0.00     0.051 A 
ENDBRANCH  22  23
ENDBRANCH  21  22
ENDBRANCH   4  21
TORSDOF 10
