REMARK  2 active torsions:
REMARK  status: ('A' for Active; 'I' for Inactive)
REMARK    1  A    between atoms: C2_2  and  C3_3 
REMARK       I    between atoms: C3_3  and  N1_5 
REMARK    2  A    between atoms: N1_5  and  C4_6 
ROOT
HETATM    1  C4  UNL     1       2.042  -1.183   2.389  1.00  0.00     0.035 A 
HETATM    2  C5  UNL     1       2.139  -0.681   3.668  1.00  0.00     0.032 A 
HETATM    3  C6  UNL     1       1.499   0.484   3.979  1.00  0.00     0.035 A 
HETATM    4  C7  UNL     1       0.779   1.116   2.986  1.00  0.00     0.070 A 
HETATM    5  C8  UNL     1       0.599   0.744   1.685  1.00  0.00     0.019 A 
HETATM    6  C9  UNL     1       1.300  -0.466   1.500  1.00  0.00     0.045 A 
HETATM    7  C10 UNL     1       0.097   1.109   0.473  1.00  0.00     0.043 C 
HETATM    8  N2  UNL     1       0.337   0.041  -0.474  1.00  0.00    -0.391 N 
HETATM    9  C11 UNL     1      -0.321  -0.980  -1.195  1.00  0.00     0.121 C 
HETATM   10  C12 UNL     1      -1.085  -0.710  -2.441  1.00  0.00     0.046 C 
HETATM   11  C13 UNL     1      -1.891  -2.011  -2.732  1.00  0.00     0.169 C 
HETATM   12  O2  UNL     1      -2.750  -2.256  -1.731  1.00  0.00    -0.387 OA
HETATM   13  C14 UNL     1      -3.903  -1.606  -1.531  1.00  0.00     0.195 C 
HETATM   14  C15 UNL     1      -3.858  -0.149  -1.702  1.00  0.00    -0.001 C 
HETATM   15  C16 UNL     1      -4.018   1.135  -2.053  1.00  0.00    -0.002 C 
HETATM   16  C17 UNL     1      -4.324   2.446  -2.545  1.00  0.00    -0.004 C 
HETATM   17  C18 UNL     1      -3.483   3.387  -2.021  1.00  0.00    -0.021 C 
HETATM   18  C19 UNL     1      -2.728   2.407  -1.274  1.00  0.00     0.049 C 
HETATM   19  C20 UNL     1      -1.697   2.561  -0.498  1.00  0.00     0.011 C 
HETATM   20  C21 UNL     1      -0.526   2.457   0.424  1.00  0.00     0.160 C 
HETATM   21  N3  UNL     1      -0.839   3.111   1.581  1.00  0.00    -0.271 NA
HETATM   22  C22 UNL     1      -0.630   3.110   2.815  1.00  0.00     0.228 C 
HETATM   23  N4  UNL     1       0.198   2.174   3.451  1.00  0.00    -0.242 NA
HETATM   24  H10 UNL     1       1.366   0.341  -0.497  1.00  0.00     0.159 HD
ENDROOT
BRANCH   1  25
HETATM   25  N1  UNL     1       2.744  -2.380   2.084  1.00  0.00    -0.327 N 
HETATM   26  C3  UNL     1       3.908  -1.905   1.430  1.00  0.00     0.221 C 
HETATM   27  O1  UNL     1       4.050  -0.634   1.273  1.00  0.00    -0.273 OA
HETATM   28  H6  UNL     1       2.795  -3.408   2.110  1.00  0.00     0.169 HD
BRANCH  26  29
HETATM   29  C2  UNL     1       5.126  -2.483   0.812  1.00  0.00     0.098 C 
HETATM   30  C1  UNL     1       5.831  -1.421  -0.034  1.00  0.00     0.014 C 
ENDBRANCH  26  29
ENDBRANCH   1  25
TORSDOF 2
