REMARK  7 active torsions:
REMARK  status: ('A' for Active; 'I' for Inactive)
REMARK    1  A    between atoms: C2_2  and  C3_3 
REMARK       I    between atoms: C3_3  and  N1_5 
REMARK    2  A    between atoms: N1_5  and  C4_6 
REMARK    3  A    between atoms: C5_7  and  C6_8 
REMARK    4  A    between atoms: C11_13  and  C12_14 
REMARK    5  A    between atoms: C12_14  and  N2_15 
REMARK    6  A    between atoms: N2_15  and  C13_16 
REMARK    7  A    between atoms: C13_16  and  C14_17 
ROOT
HETATM    1  C6  UNL     1       2.282  -0.842   0.166  1.00  0.00     0.015 C 
HETATM    2  C7  UNL     1       1.099  -0.869  -0.292  1.00  0.00    -0.006 C 
HETATM    3  C8  UNL     1       0.113  -0.422  -1.285  1.00  0.00    -0.038 A 
HETATM    4  C9  UNL     1      -0.812  -0.069  -2.139  1.00  0.00     0.051 A 
HETATM    5  C10 UNL     1      -1.607  -1.152  -1.443  1.00  0.00     0.035 A 
HETATM    6  C11 UNL     1      -1.389  -1.158   0.031  1.00  0.00     0.074 C 
HETATM    7  C20 UNL     1       0.025  -1.721   0.301  1.00  0.00     0.052 C 
HETATM    8  N3  UNL     1       0.625  -2.778   0.915  1.00  0.00    -0.243 NA
HETATM    9  C21 UNL     1       0.523  -4.099   0.167  1.00  0.00     0.254 C 
HETATM   10  N4  UNL     1       0.396  -4.135  -1.183  1.00  0.00    -0.172 NA
HETATM   11  N5  UNL     1       0.001  -2.994  -1.996  1.00  0.00    -0.305 N 
HETATM   12  C22 UNL     1      -0.401  -1.737  -2.112  1.00  0.00     0.121 A 
HETATM   13  H24 UNL     1       0.086  -3.419  -2.986  1.00  0.00     0.183 HD
ENDROOT
BRANCH   6  14
HETATM   14  C12 UNL     1      -1.610   0.141   0.692  1.00  0.00     0.281 C 
BRANCH  14  15
HETATM   15  N2  UNL     1      -2.983   0.572   0.472  1.00  0.00     0.088 N 
HETATM   16  H15 UNL     1      -3.098   1.583   0.579  1.00  0.00     0.316 HD
BRANCH  15  17
HETATM   17  C13 UNL     1      -3.967  -0.221   1.136  1.00  0.00     0.308 C 
BRANCH  17  18
HETATM   18  C14 UNL     1      -5.309   0.372   0.813  1.00  0.00    -0.030 A 
HETATM   19  C15 UNL     1      -6.115   0.043  -0.255  1.00  0.00     0.009 A 
HETATM   20  C16 UNL     1      -7.325   0.678  -0.420  1.00  0.00     0.001 A 
HETATM   21  C17 UNL     1      -7.785   1.654   0.455  1.00  0.00     0.000 A 
HETATM   22  C18 UNL     1      -6.960   1.959   1.506  1.00  0.00     0.001 A 
HETATM   23  C19 UNL     1      -5.740   1.350   1.713  1.00  0.00     0.009 A 
ENDBRANCH  17  18
ENDBRANCH  15  17
ENDBRANCH  14  15
ENDBRANCH   6  14
BRANCH   1  24
HETATM   24  C5  UNL     1       3.380  -0.077  -0.371  1.00  0.00     0.018 C 
HETATM   25  C4  UNL     1       4.565  -0.113   0.166  1.00  0.00     0.091 C 
BRANCH  25  26
HETATM   26  N1  UNL     1       5.737   0.579  -0.245  1.00  0.00    -0.337 N 
HETATM   27  C3  UNL     1       6.480   1.500   0.512  1.00  0.00     0.221 C 
HETATM   28  O1  UNL     1       6.013   1.695   1.664  1.00  0.00    -0.273 OA
HETATM   29  H6  UNL     1       5.860   0.216  -1.202  1.00  0.00     0.168 HD
BRANCH  27  30
HETATM   30  C2  UNL     1       7.636   2.005  -0.266  1.00  0.00     0.098 C 
HETATM   31  C1  UNL     1       8.446   3.011   0.546  1.00  0.00     0.014 C 
ENDBRANCH  27  30
ENDBRANCH  25  26
ENDBRANCH   1  24
TORSDOF 7
