REMARK  8 active torsions:
REMARK  status: ('A' for Active; 'I' for Inactive)
REMARK    1  A    between atoms: C1_2  and  C2_3 
REMARK       I    between atoms: C1_2  and  N1_16 
REMARK    2  A    between atoms: C2_3  and  C3_4 
REMARK    3  A    between atoms: C3_4  and  C4_6 
REMARK    4  A    between atoms: C4_6  and  O2_7 
REMARK    5  A    between atoms: O2_7  and  C5_8 
REMARK    6  A    between atoms: C5_8  and  C6_9 
REMARK    7  A    between atoms: N1_16  and  C12_17 
REMARK    8  A    between atoms: C15_22  and  C16_23 
ROOT
HETATM    1  O1  UNL     1      -3.488  -0.127   2.233  1.00  0.00    -0.268 OA
HETATM    2  C1  UNL     1      -2.254  -0.447   2.012  1.00  0.00     0.248 C 
HETATM    3  N1  UNL     1      -2.505  -1.007   0.700  1.00  0.00    -0.307 N 
HETATM    4  H10 UNL     1      -2.080  -1.477  -0.160  1.00  0.00     0.170 HD
ENDROOT
BRANCH   2   5
HETATM    5  C2  UNL     1      -0.781  -0.619   2.203  1.00  0.00     0.096 C 
BRANCH   5   6
HETATM    6  C3  UNL     1       0.558  -0.876   2.161  1.00  0.00     0.040 C 
HETATM    7 CL1  UNL     1       1.435  -0.363   3.596  1.00  0.00    -0.086 Cl
BRANCH   6   8
HETATM    8  C4  UNL     1       1.011  -1.562   0.947  1.00  0.00     0.219 C 
BRANCH   8   9
HETATM    9  O2  UNL     1       1.925  -0.830   0.250  1.00  0.00    -0.381 OA
BRANCH   9  10
HETATM   10  C5  UNL     1       3.076  -0.588   0.902  1.00  0.00     0.206 C 
BRANCH  10  11
HETATM   11  C6  UNL     1       4.057   0.187   0.059  1.00  0.00    -0.032 A 
HETATM   12  C7  UNL     1       4.041   1.563   0.103  1.00  0.00     0.009 A 
HETATM   13  C8  UNL     1       4.913   2.335  -0.645  1.00  0.00     0.004 A 
HETATM   14  C9  UNL     1       5.832   1.678  -1.464  1.00  0.00     0.042 A 
HETATM   15  C10 UNL     1       5.861   0.301  -1.520  1.00  0.00     0.117 A 
HETATM   16  F1  UNL     1       6.762  -0.346  -2.322  1.00  0.00    -0.206 F 
HETATM   17  C11 UNL     1       4.981  -0.449  -0.765  1.00  0.00     0.051 A 
ENDBRANCH  10  11
ENDBRANCH   9  10
ENDBRANCH   8   9
ENDBRANCH   6   8
ENDBRANCH   5   6
ENDBRANCH   2   5
BRANCH   3  18
HETATM   18  C12 UNL     1      -3.834  -1.035   0.130  1.00  0.00     0.143 A 
HETATM   19  N2  UNL     1      -4.683  -2.077   0.317  1.00  0.00    -0.224 NA
HETATM   20  C13 UNL     1      -5.924  -2.044  -0.247  1.00  0.00     0.234 A 
HETATM   21  N3  UNL     1      -6.360  -0.999  -1.000  1.00  0.00    -0.253 NA
HETATM   22  C14 UNL     1      -5.555   0.053  -1.212  1.00  0.00     0.133 A 
HETATM   23  C15 UNL     1      -4.303   0.017  -0.642  1.00  0.00     0.028 A 
BRANCH  23  24
HETATM   24  C16 UNL     1      -3.426   1.165  -0.874  1.00  0.00     0.024 C 
HETATM   25  C17 UNL     1      -3.779   2.210  -1.591  1.00  0.00     0.057 C 
HETATM   26 BR1  UNL     1      -2.769   3.762  -1.981  1.00  0.00    -0.064 Br
ENDBRANCH  23  24
ENDBRANCH   3  18
TORSDOF 8
