REMARK  7 active torsions:
REMARK  status: ('A' for Active; 'I' for Inactive)
REMARK    1  A    between atoms: O1_2  and  C2_3 
REMARK    2  A    between atoms: N2_8  and  C6_9 
REMARK    3  A    between atoms: C6_9  and  N3_10 
REMARK    4  A    between atoms: N3_10  and  C7_11 
REMARK    5  A    between atoms: C9_13  and  C10_14 
REMARK    6  A    between atoms: C10_14  and  C11_15 
REMARK    7  A    between atoms: C20_24  and  N4_25 
REMARK       I    between atoms: N4_25  and  C21_26 
ROOT
HETATM    1  C2  UNL     1      -4.475   0.833  -0.076  1.00  0.00     0.070 C 
HETATM    2  C3  UNL     1      -3.821   1.905  -0.448  1.00  0.00     0.053 C 
HETATM    3  C4  UNL     1      -2.519   1.996  -1.144  1.00  0.00     0.121 C 
HETATM    4  N1  UNL     1      -1.666   1.017  -1.323  1.00  0.00    -0.246 NA
HETATM    5  C5  UNL     1      -1.802  -0.322  -0.895  1.00  0.00     0.124 C 
HETATM    6  N2  UNL     1      -1.143  -1.264  -1.476  1.00  0.00    -0.255 NA
HETATM    7  C19 UNL     1      -2.674  -0.783   0.216  1.00  0.00     0.112 C 
HETATM    8  C20 UNL     1      -4.106  -0.604  -0.242  1.00  0.00     0.148 C 
ENDROOT
BRANCH   6   9
HETATM    9  C6  UNL     1      -0.239  -1.020  -2.583  1.00  0.00     0.272 C 
BRANCH   9  10
HETATM   10  N3  UNL     1       0.740  -0.010  -2.232  1.00  0.00    -0.375 N 
HETATM   11  H8  UNL     1       0.871   0.919  -2.730  1.00  0.00     0.161 HD
BRANCH  10  12
HETATM   12  C7  UNL     1       1.670  -0.095  -1.182  1.00  0.00     0.003 A 
HETATM   13  C8  UNL     1       2.866  -0.489  -0.921  1.00  0.00     0.003 A 
HETATM   14  C9  UNL     1       2.807  -0.104   0.460  1.00  0.00     0.020 A 
HETATM   15  C18 UNL     1       1.420   0.358   0.180  1.00  0.00     0.065 A 
BRANCH  14  16
HETATM   16  C10 UNL     1       3.691   1.044   0.896  1.00  0.00     0.048 C 
BRANCH  16  17
HETATM   17  C11 UNL     1       5.124   0.806   0.688  1.00  0.00    -0.052 A 
HETATM   18  C12 UNL     1       5.754   1.433  -0.367  1.00  0.00     0.007 A 
HETATM   19  C13 UNL     1       7.100   1.276  -0.651  1.00  0.00     0.001 A 
HETATM   20  C14 UNL     1       7.775   0.431   0.218  1.00  0.00     0.001 A 
HETATM   21  C15 UNL     1       7.205  -0.227   1.293  1.00  0.00     0.007 A 
HETATM   22  C16 UNL     1       5.846  -0.018   1.512  1.00  0.00    -0.056 A 
HETATM   23  C17 UNL     1       5.252  -0.726   2.660  1.00  0.00     0.049 C 
ENDBRANCH  16  17
ENDBRANCH  14  16
ENDBRANCH  10  12
ENDBRANCH   9  10
ENDBRANCH   6   9
BRANCH   8  24
HETATM   24  N4  UNL     1      -5.013  -1.477   0.434  1.00  0.00    -0.350 N 
HETATM   25  C21 UNL     1      -5.902  -2.480  -0.027  1.00  0.00     0.214 C 
HETATM   26  C22 UNL     1      -6.651  -3.128   1.083  1.00  0.00     0.117 C 
HETATM   27  O2  UNL     1      -5.978  -2.725  -1.262  1.00  0.00    -0.274 OA
HETATM   28  H25 UNL     1      -4.868  -1.193   1.410  1.00  0.00     0.163 HD
ENDBRANCH   8  24
BRANCH   1  29
HETATM   29  O1  UNL     1      -5.691   1.005   0.568  1.00  0.00    -0.358 OA
HETATM   30  C1  UNL     1      -6.177   2.290   0.884  1.00  0.00     0.209 C 
ENDBRANCH   1  29
TORSDOF 7
