C:\Qe-CaDD\Project\Data\Stage_6_Molecular_Dynamics\ligands_top\out_16424_EGFR_extracted.pdbqt
 OpenBabel01082506443D

 22 23  0  0  0  0  0  0  0  0999 V2000
   23.6460    2.9540   51.3480 N   0  0  0  0  0  0  0  0  0  0  0  0
   24.4990    3.0090   50.2350 C   0  0  0  0  0  2  0  0  0  0  0  0
   23.9120    3.9440   49.1950 C   0  0  0  0  0  1  0  0  0  0  0  0
   23.9570    3.6660   52.5190 C   0  0  0  0  0  2  0  0  0  0  0  0
   24.9100    2.8500   53.2810 C   0  0  0  0  0  0  0  0  0  0  0  0
   25.6790    2.1790   53.9240 C   0  0  0  0  0  0  0  0  0  0  0  0
   26.5370    1.4160   54.6700 O   0  0  0  0  0  0  0  0  0  0  0  0
   27.2770    0.3530   54.1260 C   0  0  0  0  0  0  0  0  0  0  0  0
   26.6140   -0.5330   53.3240 C   0  0  0  0  0  3  0  0  0  0  0  0
   27.2820   -1.6060   52.7540 C   0  0  0  0  0  3  0  0  0  0  0  0
   28.6230   -1.6960   53.0560 C   0  0  0  0  0  3  0  0  0  0  0  0
   29.3000   -0.8300   53.8500 C   0  0  0  0  0  3  0  0  0  0  0  0
   28.6360    0.2570   54.4320 C   0  0  0  0  0  3  0  0  0  0  0  0
   22.3610    2.5400   51.1920 N   0  0  0  0  0  0  0  0  0  0  0  0
   21.9890    2.9550   50.2940 H   0  0  0  0  0  0  0  0  0  0  0  0
   22.2330    1.1040   51.0360 C   0  0  0  0  0  2  0  0  0  0  0  0
   21.9680    0.5500   52.3870 C   0  0  0  0  0  0  0  0  0  0  0  0
   22.9240   -0.3320   52.9010 C   0  0  0  0  0  3  0  0  0  0  0  0
   22.8300   -0.9340   54.1460 C   0  0  0  0  0  3  0  0  0  0  0  0
   21.7410   -0.6610   54.9390 C   0  0  0  0  0  3  0  0  0  0  0  0
   20.7930    0.2080   54.4420 C   0  0  0  0  0  3  0  0  0  0  0  0
   20.8830    0.8060   53.2070 C   0  0  0  0  0  3  0  0  0  0  0  0
  1  4  1  0  0  0  0
  2  1  1  0  0  0  0
  3  2  1  0  0  0  0
  4  5  1  0  0  0  0
  5  6  3  0  0  0  0
  6  7  1  0  0  0  0
  8 13  1  0  0  0  0
  8  7  1  0  0  0  0
  9  8  2  0  0  0  0
 10 11  2  0  0  0  0
 10  9  1  0  0  0  0
 11 12  1  0  0  0  0
 12 13  2  0  0  0  0
 14  1  1  0  0  0  0
 15 14  1  0  0  0  0
 16 14  1  0  0  0  0
 16 17  1  0  0  0  0
 17 18  2  0  0  0  0
 17 22  1  0  0  0  0
 18 19  1  0  0  0  0
 19 20  2  0  0  0  0
 21 20  1  0  0  0  0
 22 21  2  0  0  0  0
M  END
>  <TORSDO>
F 8

$$$$
