C:\Qe-CaDD\Project\Data\Stage_6_Molecular_Dynamics\ligands_top\out_18562_EGFR_extracted.pdbqt
 OpenBabel01082506443D

 25 31  0  0  1  0  0  0  0  0999 V2000
   21.9300    5.5200   51.5680 C   0  0  0  0  0  1  0  0  0  0  0  0
   21.8620    4.0700   51.8570 N   0  0  0  0  0  0  0  0  0  0  0  0
   20.9620    3.2380   52.3370 N   0  0  2  0  0  0  0  0  0  0  0  0
   21.2120    1.9660   52.4830 C   0  0  1  0  0  3  0  0  0  0  0  0
   22.4310    2.2150   51.9810 C   0  0  1  0  0  0  0  0  0  0  0  0
   23.5270    1.5340   51.6830 C   0  0  0  0  0  3  0  0  0  0  0  0
   24.5700    2.0110   51.2490 C   0  0  0  0  0  0  0  0  0  0  0  0
   24.2600    3.2980   51.1450 N   0  0  0  0  0  0  0  0  0  0  0  0
   22.9930    3.4110   51.5650 C   0  0  2  0  0  3  0  0  0  0  0  0
   25.5070    3.8200   50.7190 C   0  0  0  0  0  0  0  0  0  0  0  0
   25.5140    5.1660   50.4870 F   0  0  0  0  0  0  0  0  0  0  0  0
   26.4030    2.7430   50.6610 C   0  0  0  0  0  3  0  0  0  0  0  0
   25.9210    1.4010   51.0370 C   0  0  1  0  0  3  0  0  0  0  0  0
   26.1220    0.7850   52.3510 C   0  0  0  0  0  0  0  0  0  0  0  0
   24.9640    0.2720   53.0250 C   0  0  0  0  0  0  0  0  0  0  0  0
   23.8960   -0.2580   53.7820 C   0  0  0  0  0  0  0  0  0  0  0  0
   24.7730   -0.5200   54.7700 C   0  0  0  0  0  3  0  0  0  0  0  0
   26.1140   -0.1980   54.6090 C   0  0  0  0  0  2  0  0  0  0  0  0
   26.7370    0.3900   53.5260 C   0  0  1  0  0  0  0  0  0  0  0  0
   28.4330    0.8160   53.3250 Cl  0  0  0  0  0  0  0  0  0  0  0  0
   22.4760   -0.2690   53.4250 C   0  0  2  0  0  3  0  0  0  0  0  0
   21.5450    0.5220   52.6320 N   0  0  0  0  0  0  0  0  0  0  0  0
   20.9030    0.1190   51.9810 H   0  0  0  0  0  0  0  0  0  0  0  0
   21.9460   -1.6040   54.2280 P   0  0  0  0  0  2  0  0  0  0  0  0
   20.6690   -1.7340   54.8520 H   0  0  0  0  0  0  0  0  0  0  0  0
  1  2  1  0  0  0  0
  3  2  1  1  0  0  0
  3  4  1  0  0  0  0
  4 22  1  1  0  0  0
  5  6  1  6  0  0  0
  5  3  1  0  0  0  0
  5  4  1  0  0  0  0
  7  6  2  0  0  0  0
  8  7  1  0  0  0  0
  9  8  1  1  0  0  0
  9  2  1  0  0  0  0
  9  5  1  0  0  0  0
 10  8  1  0  0  0  0
 11 10  1  0  0  0  0
 12 10  2  0  0  0  0
 13 12  1  1  0  0  0
 13  7  1  0  0  0  0
 13 14  1  0  0  0  0
 14 15  2  3  0  0  0
 14 19  1  0  0  0  0
 15 19  1  0  0  0  0
 15 16  1  0  0  0  0
 16 17  2  0  0  0  0
 18 17  1  0  0  0  0
 19 20  1  1  0  0  0
 19 18  1  0  0  0  0
 21 16  1  0  0  0  0
 21 24  1  1  0  0  0
 22 21  1  0  0  0  0
 23 22  1  0  0  0  0
 24 25  1  0  0  0  0
M  END
>  <TORSDO>
F 1

$$$$
