C:\Qe-CaDD\Project\Data\Stage_6_Molecular_Dynamics\ligands_top\out_12069_EGFR_extracted.pdbqt
 OpenBabel01082506443D

 23 23  0  0  1  0  0  0  0  0999 V2000
   27.0700    0.0870   52.8420 C   0  0  1  0  0  3  0  0  0  0  0  0
   27.2530   -1.3660   52.8530 C   0  0  0  0  0  0  0  0  0  0  0  0
   27.4090   -2.5080   52.8780 N   0  0  0  0  0  0  0  0  0  0  0  0
   25.6290    0.3820   52.7400 C   0  0  0  0  0  0  0  0  0  0  0  0
   24.7550   -0.2400   53.6000 C   0  0  0  0  0  3  0  0  0  0  0  0
   23.3960   -0.0240   53.5770 C   0  0  0  0  0  0  0  0  0  0  0  0
   22.9310    0.8650   52.6310 C   0  0  0  0  0  0  0  0  0  0  0  0
   23.7240    1.5320   51.7320 C   0  0  0  0  0  0  0  0  0  0  0  0
   25.0710    1.2610   51.8210 C   0  0  0  0  0  3  0  0  0  0  0  0
   22.5440   -0.7480   54.5480 C   0  0  0  0  0  3  0  0  0  0  0  0
   23.4190   -1.3330   55.6310 C   0  0  0  0  0  1  0  0  0  0  0  0
   21.6890   -1.8150   53.9490 C   0  0  0  0  0  1  0  0  0  0  0  0
   21.5630    1.0870   52.6010 O   0  0  0  0  0  0  0  0  0  0  0  0
   21.1670    2.0290   52.7120 H   0  0  0  0  0  0  0  0  0  0  0  0
   23.1470    2.4670   50.7520 C   0  0  0  0  0  0  0  0  0  0  0  0
   24.2870    3.0580   49.9600 C   0  0  0  0  0  1  0  0  0  0  0  0
   22.4760    3.5900   51.5250 C   0  0  0  0  0  1  0  0  0  0  0  0
   22.1710    1.8230   49.8120 C   0  0  0  0  0  1  0  0  0  0  0  0
   27.7320    0.7300   53.9960 C   0  0  0  0  0  0  0  0  0  0  0  0
   28.2600   -0.1500   54.9840 N   0  0  0  0  0  0  0  0  0  0  0  0
   28.2030    0.1070   56.0090 H   0  0  0  0  0  0  0  0  0  0  0  0
   28.7420   -1.0690   55.0790 H   0  0  0  0  0  0  0  0  0  0  0  0
   27.9000    1.9590   54.2350 O   0  0  0  0  0  0  0  0  0  0  0  0
  1  2  1  1  0  0  0
  1 19  1  0  0  0  0
  2  3  3  0  0  0  0
  4  1  1  0  0  0  0
  4  5  1  0  0  0  0
  6  5  2  0  0  0  0
  6 10  1  0  0  0  0
  7  6  1  0  0  0  0
  8  9  1  0  0  0  0
  8  7  2  0  0  0  0
  9  4  2  0  0  0  0
 10 11  1  0  0  0  0
 12 10  1  0  0  0  0
 13  7  1  0  0  0  0
 13 14  1  0  0  0  0
 15 17  1  0  0  0  0
 15  8  1  0  0  0  0
 16 15  1  0  0  0  0
 18 15  1  0  0  0  0
 19 23  2  0  0  0  0
 19 20  1  0  0  0  0
 20 22  1  0  0  0  0
 20 21  1  0  0  0  0
M  END
>  <TORSDO>
F 5

$$$$
