C:\Qe-CaDD\Project\Data\Stage_6_Molecular_Dynamics\ligands_top\out_10560_EGFR_extracted.pdbqt
 OpenBabel01082506443D

 22 23  0  0  0  0  0  0  0  0999 V2000
   23.5200    1.3910   52.0680 S   0  0  1  0  0  0  0  0  0  0  0  0
   23.3510   -0.1700   52.9860 C   0  0  0  0  0  2  0  0  0  0  0  0
   22.6410   -0.8270   53.6880 N   0  0  0  0  0  2  0  0  0  0  0  0
   21.9360   -1.6000   54.4500 N   0  0  0  0  0  0  0  0  0  0  0  0
   20.6690   -0.8670   54.0460 C   0  0  0  0  0  2  0  0  0  0  0  0
   21.0210    0.5360   54.2350 C   0  0  0  0  0  2  0  0  0  0  0  0
   21.2320    0.8820   53.0260 C   0  0  0  0  0  3  0  0  0  0  0  0
   21.1190    0.1400   51.8370 C   0  0  0  0  0  3  0  0  0  0  0  0
   21.4780    0.5310   50.6560 C   0  0  0  0  0  2  0  0  0  0  0  0
   21.9030    1.7130   51.3760 C   0  0  0  0  0  2  0  0  0  0  0  0
   24.5710    1.0290   50.8010 H   0  0  0  0  0  0  0  0  0  0  0  0
   22.5700   -2.3030   54.9320 H   0  0  0  0  0  0  0  0  0  0  0  0
   24.1800    2.7550   53.0210 C   0  0  0  0  0  2  0  0  0  0  0  0
   25.4130    2.3560   53.7550 C   0  0  0  0  0  2  0  0  0  0  0  0
   26.5600    2.1700   52.8250 C   0  0  0  0  0  2  0  0  0  0  0  0
   27.1240    0.8380   52.8230 N   0  0  0  0  0  0  0  0  0  0  0  0
   28.2090    0.6090   53.7370 C   0  0  0  0  0  0  0  0  0  0  0  0
   28.6130    1.5620   54.4920 O   0  0  0  0  0  0  0  0  0  0  0  0
   29.0190   -0.6100   54.0020 C   0  0  0  0  0  2  0  0  0  0  0  0
   28.5290   -1.6780   53.2600 O   0  0  0  0  0  0  0  0  0  0  0  0
   27.1770   -1.5460   53.0610 C   0  0  0  0  0  2  0  0  0  0  0  0
   26.8630   -0.3830   52.1070 C   0  0  0  0  0  2  0  0  0  0  0  0
  1 11  1  6  0  0  0
  1  2  1  0  0  0  0
  1 13  1  0  0  0  0
  2  3  1  0  0  0  0
  3  4  1  0  0  0  0
  4 12  1  0  0  0  0
  5  6  1  0  0  0  0
  5  4  1  0  0  0  0
  7  6  1  0  0  0  0
  8  7  2  0  0  0  0
  9 10  1  0  0  0  0
  9  8  1  0  0  0  0
 10  1  1  0  0  0  0
 13 14  1  0  0  0  0
 15 14  1  0  0  0  0
 16 15  1  0  0  0  0
 16 17  1  0  0  0  0
 17 19  1  0  0  0  0
 17 18  2  0  0  0  0
 20 19  1  0  0  0  0
 21 20  1  0  0  0  0
 22 16  1  0  0  0  0
 22 21  1  0  0  0  0
M  END
>  <TORSDO>
F 4

$$$$
