C:\Qe-CaDD\Project\Data\Stage_6_Molecular_Dynamics\ligands_top\out_14398_EGFR_extracted.pdbqt
 OpenBabel01082506443D

 23 25  0  0  1  0  0  0  0  0999 V2000
   26.7670   -1.4820   52.2450 O   0  0  0  0  0  1  0  0  0  0  0  0
   27.1590   -0.4830   52.9640 C   0  0  1  0  0  3  0  0  0  0  0  0
   27.9830    0.3160   54.0150 C   0  0  0  0  0  2  0  0  0  0  0  0
   26.9510    1.1030   54.6570 O   0  0  0  0  0  0  0  0  0  0  0  0
   26.5760    2.1870   53.8690 C   0  0  2  0  0  3  0  0  0  0  0  0
   25.1310    2.5720   53.7980 C   0  0  0  0  0  2  0  0  0  0  0  0
   24.3870    1.8990   52.6260 C   0  0  0  0  0  2  0  0  0  0  0  0
   24.7960    0.6080   52.6790 C   0  0  2  0  0  3  0  0  0  0  0  0
   26.3150    0.7160   52.6000 C   0  0  1  0  0  3  0  0  0  0  0  0
   26.9670    1.9110   52.4620 C   0  0  1  0  0  3  0  0  0  0  0  0
   24.2010   -0.6520   52.7680 O   0  0  0  0  0  0  0  0  0  0  0  0
   23.1000   -0.7290   53.6130 C   0  0  0  0  0  0  0  0  0  0  0  0
   23.4300   -0.9990   54.8620 C   0  0  0  0  0  3  0  0  0  0  0  0
   24.7640   -1.1640   55.1680 O   0  0  0  0  0  0  0  0  0  0  0  0
   25.4850   -0.5940   54.7260 H   0  0  0  0  0  0  0  0  0  0  0  0
   21.7360   -0.5320   53.1570 C   0  0  0  0  0  0  0  0  0  0  0  0
   21.5330    0.0960   51.9560 C   0  0  0  0  0  3  0  0  0  0  0  0
   20.2600    0.3100   51.4730 C   0  0  0  0  0  3  0  0  0  0  0  0
   19.2080   -0.1440   52.2640 C   0  0  0  0  0  3  0  0  0  0  0  0
   19.4150   -0.7840   53.4870 C   0  0  0  0  0  3  0  0  0  0  0  0
   20.7130   -0.9860   53.9500 C   0  0  0  0  0  3  0  0  0  0  0  0
   27.7020    2.8490   51.7600 O   0  0  0  0  0  0  0  0  0  0  0  0
   27.6780    3.8440   51.8820 H   0  0  0  0  0  0  0  0  0  0  0  0
  2  1  1  6  0  0  0
  2  3  1  0  0  0  0
  3  4  1  0  0  0  0
  5  6  1  6  0  0  0
  5  4  1  0  0  0  0
  7  8  1  0  0  0  0
  7  6  1  0  0  0  0
  8 11  1  6  0  0  0
  9  8  1  0  0  0  0
  9  2  1  0  0  0  0
 10  9  1  0  0  0  0
 10  5  1  0  0  0  0
 11 12  1  0  0  0  0
 12 13  2  0  0  0  0
 13 14  1  0  0  0  0
 15 14  1  0  0  0  0
 16 12  1  0  0  0  0
 16 21  1  0  0  0  0
 17 16  2  0  0  0  0
 18 17  1  0  0  0  0
 18 19  2  0  0  0  0
 19 20  1  0  0  0  0
 20 21  2  0  0  0  0
 22 23  1  0  0  0  0
 22 10  1  0  0  0  0
M  END
>  <TORSDO>
F 5

$$$$
