C:\Qe-CaDD\Project\Data\Stage_6_Molecular_Dynamics\ligands_top\out_12115_EGFR_extracted.pdbqt
 OpenBabel01082506443D

 26 27  0  0  1  0  0  0  0  0999 V2000
   28.9050    0.9720   54.7390 N   0  0  0  0  0  0  0  0  0  0  0  0
   28.5570    0.0910   54.0340 C   0  0  0  0  0  0  0  0  0  0  0  0
   28.1100   -0.9990   53.1820 C   0  0  1  0  0  3  0  0  0  0  0  0
   27.0290   -0.9140   52.3830 C   0  0  0  0  0  2  0  0  0  0  0  0
   29.0240   -2.1930   53.3110 C   0  0  0  0  0  2  0  0  0  0  0  0
   28.4230   -3.3690   52.9040 O   0  0  0  0  0  0  0  0  0  0  0  0
   27.6800   -3.2230   52.2460 H   0  0  0  0  0  0  0  0  0  0  0  0
   26.3470    0.3710   52.4430 C   0  0  0  0  0  0  0  0  0  0  0  0
   25.3810    0.6140   53.4200 C   0  0  0  0  0  3  0  0  0  0  0  0
   24.6760    1.8200   53.4880 C   0  0  0  0  0  3  0  0  0  0  0  0
   24.9870    2.7870   52.5210 C   0  0  0  0  0  0  0  0  0  0  0  0
   25.9580    2.5430   51.5400 C   0  0  0  0  0  0  0  0  0  0  0  0
   26.6260    1.3410   51.5110 C   0  0  0  0  0  3  0  0  0  0  0  0
   24.2200    3.9610   52.6780 O   0  0  0  0  0  0  0  0  0  0  0  0
   23.4110    4.1230   52.0590 H   0  0  0  0  0  0  0  0  0  0  0  0
   26.0400    3.6520   50.7440 O   0  0  0  0  0  0  0  0  0  0  0  0
   25.6760    3.8160   49.4120 C   0  0  0  0  0  2  0  0  0  0  0  0
   24.5690    4.8730   49.2970 C   0  0  0  0  0  2  0  0  0  0  0  0
   23.3270    4.2160   48.7380 C   0  0  0  0  0  2  0  0  0  0  0  0
   23.1010    2.8490   49.1950 C   0  0  0  0  0  3  0  0  0  0  0  0
   22.3750    2.4990   50.2330 C   0  0  0  0  0  0  0  0  0  0  0  0
   22.2190    1.0750   50.5940 C   0  0  0  0  0  2  0  0  0  0  0  0
   21.7470    3.5470   50.9980 N   0  0  0  0  0  2  0  0  0  0  0  0
   21.4600    0.8570   51.6730 C   0  0  0  0  0  3  0  0  0  0  0  0
   20.8680    1.9970   52.3830 C   0  0  0  0  0  3  0  0  0  0  0  0
   20.8520    3.2120   51.8590 C   0  0  0  0  0  2  0  0  0  0  0  0
  2  1  3  0  0  0  0
  3  4  1  6  0  0  0
  3  5  1  0  0  0  0
  3  2  1  0  0  0  0
  4  8  1  0  0  0  0
  6  5  1  0  0  0  0
  7  6  1  0  0  0  0
  8  9  1  0  0  0  0
  9 10  2  0  0  0  0
 11 14  1  0  0  0  0
 11 10  1  0  0  0  0
 12 11  2  0  0  0  0
 13 12  1  0  0  0  0
 13  8  2  0  0  0  0
 15 14  1  0  0  0  0
 16 12  1  0  0  0  0
 17 16  1  0  0  0  0
 18 17  1  0  0  0  0
 19 20  1  0  0  0  0
 19 18  1  0  0  0  0
 20 21  2  0  0  0  0
 21 22  1  0  0  0  0
 21 23  1  0  0  0  0
 22 24  1  0  0  0  0
 23 26  1  0  0  0  0
 24 25  2  0  0  0  0
 26 25  1  0  0  0  0
M  END
>  <TORSDO>
F 9

$$$$
