C:\Qe-CaDD\Project\Data\Stage_6_Molecular_Dynamics\ligands_top\out_11919_EGFR_extracted.pdbqt
 OpenBabel01082506443D

 35 38  0  0  1  0  0  0  0  0999 V2000
   21.8990    1.6410   51.6330 C   0  0  0  0  0  0  0  0  0  0  0  0
   22.7920    0.8290   52.2240 C   0  0  0  0  0  3  0  0  0  0  0  0
   22.6940   -0.0550   53.3800 C   0  0  0  0  0  0  0  0  0  0  0  0
   21.5920   -0.7120   53.9430 C   0  0  0  0  0  0  0  0  0  0  0  0
   21.8490   -1.4740   55.0110 N   0  0  0  0  0  0  0  0  0  0  0  0
   23.0910   -1.5940   55.5020 C   0  0  0  0  0  3  0  0  0  0  0  0
   24.0890   -0.9430   54.9190 N   0  0  0  0  0  0  0  0  0  0  0  0
   23.9740   -0.1470   53.8460 C   0  0  0  0  0  0  0  0  0  0  0  0
   20.1500   -0.7910   53.6640 C   0  0  0  0  0  3  0  0  0  0  0  0
   19.4400   -0.1390   52.7270 C   0  0  0  0  0  3  0  0  0  0  0  0
   19.5480    0.8340   51.6290 C   0  0  0  0  0  2  0  0  0  0  0  0
   20.4690    1.9820   51.8830 C   0  0  2  0  0  3  0  0  0  0  0  0
   22.5430    2.2800   50.5280 N   0  0  0  0  0  0  0  0  0  0  0  0
   23.7110    2.9570   50.9760 C   0  0  0  0  0  0  0  0  0  0  0  0
   24.4250    3.2270   51.9770 O   0  0  0  0  0  0  0  0  0  0  0  0
   22.3890    2.3810   49.5020 H   0  0  0  0  0  0  0  0  0  0  0  0
   24.6510    3.7370   50.1340 C   0  0  2  0  0  3  0  0  0  0  0  0
   25.1170    4.8420   50.9550 N   0  0  0  0  0  0  0  0  0  0  0  0
   25.1930    6.0150   50.1360 C   0  0  0  0  0  0  0  0  0  0  0  0
   25.4050    5.0010   51.9630 H   0  0  0  0  0  0  0  0  0  0  0  0
   25.7790    7.1340   50.2680 O   0  0  0  0  0  0  0  0  0  0  0  0
   24.4400    5.7830   48.9890 O   0  0  0  0  0  0  0  0  0  0  0  0
   23.9690    4.4310   48.9880 C   0  0  0  0  0  2  0  0  0  0  0  0
   20.1410    2.9900   50.9540 O   0  0  0  0  0  0  0  0  0  0  0  0
   19.8500    3.8240   51.4000 H   0  0  0  0  0  0  0  0  0  0  0  0
   25.1030    0.5250   53.3060 N   0  0  0  0  0  0  0  0  0  0  0  0
   25.3660    1.4090   52.8560 H   0  0  0  0  0  0  0  0  0  0  0  0
   26.3480   -0.2110   53.3990 C   0  0  2  0  0  3  0  0  0  0  0  0
   27.4630    0.7200   53.7730 C   0  0  0  0  0  3  0  0  0  0  0  0
   28.7620    0.6290   53.8920 C   0  0  0  0  0  3  0  0  0  0  0  0
   29.7370   -0.4400   53.7110 C   0  0  0  0  0  3  0  0  0  0  0  0
   29.7100   -1.7410   53.3750 C   0  0  0  0  0  3  0  0  0  0  0  0
   28.5530   -2.5950   53.0480 C   0  0  0  0  0  3  0  0  0  0  0  0
   27.3230   -2.3310   52.5800 C   0  0  0  0  0  3  0  0  0  0  0  0
   26.6550   -1.0560   52.2080 C   0  0  0  0  0  2  0  0  0  0  0  0
  1 12  1  0  0  0  0
  1  2  2  0  0  0  0
  2  3  1  0  0  0  0
  3  8  2  0  0  0  0
  3  4  1  0  0  0  0
  4  5  2  0  0  0  0
  5  6  1  0  0  0  0
  7  6  2  0  0  0  0
  8  7  1  0  0  0  0
  9  4  1  0  0  0  0
 10  9  2  0  0  0  0
 11 12  1  0  0  0  0
 11 10  1  0  0  0  0
 12 24  1  6  0  0  0
 13 14  1  0  0  0  0
 13  1  1  0  0  0  0
 14 15  2  0  0  0  0
 16 13  1  0  0  0  0
 17 18  1  0  0  0  0
 17 14  1  1  0  0  0
 18 20  1  0  0  0  0
 19 21  2  0  0  0  0
 19 18  1  0  0  0  0
 22 19  1  0  0  0  0
 23 22  1  0  0  0  0
 23 17  1  0  0  0  0
 24 25  1  0  0  0  0
 26  8  1  0  0  0  0
 27 26  1  0  0  0  0
 28 26  1  6  0  0  0
 28 29  1  0  0  0  0
 29 30  2  0  0  0  0
 31 30  1  0  0  0  0
 32 31  2  0  0  0  0
 33 32  1  0  0  0  0
 34 33  2  0  0  0  0
 35 34  1  0  0  0  0
 35 28  1  0  0  0  0
M  END
>  <TORSDO>
F 5

$$$$
