C:\Qe-CaDD\Project\Data\Stage_6_Molecular_Dynamics\ligands_top\out_10799_EGFR_extracted.pdbqt
 OpenBabel01082506443D

 24 26  0  0  1  0  0  0  0  0999 V2000
   20.3530   -0.5730   53.3230 C   0  0  0  0  0  0  0  0  0  0  0  0
   21.0010   -1.1720   54.2890 C   0  0  0  0  0  3  0  0  0  0  0  0
   22.4250   -0.9860   54.5210 C   0  0  0  0  0  0  0  0  0  0  0  0
   22.8840   -1.6960   55.5660 N   0  0  0  0  0  0  0  0  0  0  0  0
   24.1780   -1.6500   55.9320 C   0  0  0  0  0  3  0  0  0  0  0  0
   25.0190   -0.8550   55.2080 N   0  0  0  0  0  0  0  0  0  0  0  0
   24.5550   -0.1430   54.1590 C   0  0  0  0  0  0  0  0  0  0  0  0
   23.2320   -0.1750   53.7670 C   0  0  0  0  0  0  0  0  0  0  0  0
   22.7340    0.5830   52.6500 C   0  0  0  0  0  2  0  0  0  0  0  0
   21.1800    0.5370   52.1980 P   0  0  2  0  0  4  0  0  0  0  0  0
   21.0300    0.1520   50.8590 H   0  0  0  0  0  0  0  0  0  0  0  0
   25.4990    0.6640   53.4540 N   0  0  0  0  0  0  0  0  0  0  0  0
   25.7990    2.0940   53.5690 C   0  0  0  0  0  1  0  0  0  0  0  0
   26.3560    0.0680   52.4290 C   0  0  2  0  0  3  0  0  0  0  0  0
   26.2120   -1.4020   52.4920 C   0  0  0  0  0  3  0  0  0  0  0  0
   27.3550   -1.9910   52.8700 C   0  0  0  0  0  3  0  0  0  0  0  0
   28.3330   -0.9100   53.0790 C   0  0  0  0  0  0  0  0  0  0  0  0
   27.7840    0.2720   52.8340 C   0  0  0  0  0  3  0  0  0  0  0  0
   29.7370   -1.2090   53.5130 C   0  0  0  0  0  2  0  0  0  0  0  0
   30.4480   -0.0490   53.6470 F   0  0  0  0  0  0  0  0  0  0  0  0
   20.5780    2.1200   52.4460 O   0  0  0  0  0  0  0  0  0  0  0  0
   21.5990    3.0470   52.1940 C   0  0  0  0  0  1  0  0  0  0  0  0
   19.0350   -0.6270   52.9600 O   0  0  0  0  0  0  0  0  0  0  0  0
   18.1020   -1.6070   53.2890 C   0  0  0  0  0  1  0  0  0  0  0  0
  1  2  2  0  0  0  0
  2  3  1  0  0  0  0
  3  4  1  0  0  0  0
  4  5  2  0  0  0  0
  6  5  1  0  0  0  0
  7  6  2  0  0  0  0
  8  7  1  0  0  0  0
  8  3  2  0  0  0  0
  9  8  1  0  0  0  0
 10 11  1  6  0  0  0
 10 21  1  0  0  0  0
 10  9  1  0  0  0  0
 10  1  1  0  0  0  0
 12 13  1  0  0  0  0
 12  7  1  0  0  0  0
 14 15  1  0  0  0  0
 14 18  1  0  0  0  0
 14 12  1  1  0  0  0
 15 16  2  0  0  0  0
 16 17  1  0  0  0  0
 17 19  1  0  0  0  0
 18 17  2  0  0  0  0
 19 20  1  0  0  0  0
 22 21  1  0  0  0  0
 23 24  1  0  0  0  0
 23  1  1  0  0  0  0
M  END
>  <TORSDO>
F 5

$$$$
