C:\Qe-CaDD\Project\Data\Stage_6_Molecular_Dynamics\ligands_top\out_16421_EGFR_extracted.pdbqt
 OpenBabel01082506443D

 22 24  0  0  1  0  0  0  0  0999 V2000
   24.9860    1.8820   52.2460 C   0  0  1  0  0  3  0  0  0  0  0  0
   26.0260    1.0320   51.7460 N   0  0  0  0  0  0  0  0  0  0  0  0
   25.9960    0.6260   50.7860 H   0  0  0  0  0  0  0  0  0  0  0  0
   27.1560    0.6990   52.5400 C   0  0  0  0  0  0  0  0  0  0  0  0
   27.5150   -0.6050   52.8280 C   0  0  0  0  0  0  0  0  0  0  0  0
   26.6740   -1.7090   52.2740 C   0  0  0  0  0  1  0  0  0  0  0  0
   28.6010   -0.9560   53.5920 C   0  0  0  0  0  3  0  0  0  0  0  0
   29.4040    0.0320   54.1240 C   0  0  0  0  0  3  0  0  0  0  0  0
   29.0990    1.3370   53.8740 C   0  0  0  0  0  3  0  0  0  0  0  0
   28.0010    1.6330   53.1020 C   0  0  0  0  0  3  0  0  0  0  0  0
   24.9360    3.1400   51.4840 C   0  0  0  0  0  3  0  0  0  0  0  0
   25.9550    3.2890   50.1620 P   0  0  0  0  0  0  0  0  0  0  0  0
   26.0160    4.5830   49.5160 H   0  0  0  0  0  0  0  0  0  0  0  0
   23.6450    1.2390   52.1810 C   0  0  0  0  0  0  0  0  0  0  0  0
   22.6010    1.4100   51.2680 C   0  0  0  0  0  3  0  0  0  0  0  0
   21.6090    0.6270   51.6140 O   0  0  0  0  0  0  0  0  0  0  0  0
   21.9090   -0.0600   52.6950 C   0  0  0  0  0  0  0  0  0  0  0  0
   21.2170   -1.0060   53.4480 C   0  0  0  0  0  3  0  0  0  0  0  0
   23.1860    0.2970   53.0830 C   0  0  0  0  0  0  0  0  0  0  0  0
   21.8040   -1.5750   54.5670 C   0  0  0  0  0  3  0  0  0  0  0  0
   23.0810   -1.2060   54.9420 C   0  0  0  0  0  3  0  0  0  0  0  0
   23.7880   -0.2590   54.1960 C   0  0  0  0  0  3  0  0  0  0  0  0
  1 11  1  6  0  0  0
  2  1  1  0  0  0  0
  2  4  1  0  0  0  0
  3  2  1  0  0  0  0
  4  5  2  0  0  0  0
  4 10  1  0  0  0  0
  5  7  1  0  0  0  0
  6  5  1  0  0  0  0
  7  8  2  0  0  0  0
  9  8  1  0  0  0  0
 10  9  2  0  0  0  0
 12 11  2  0  0  0  0
 13 12  1  0  0  0  0
 14  1  1  0  0  0  0
 14 19  1  0  0  0  0
 15 16  1  0  0  0  0
 15 14  2  0  0  0  0
 16 17  1  0  0  0  0
 17 19  2  0  0  0  0
 17 18  1  0  0  0  0
 18 20  2  0  0  0  0
 19 22  1  0  0  0  0
 20 21  1  0  0  0  0
 22 21  2  0  0  0  0
M  END
>  <TORSDO>
F 5

$$$$
