C:\Qe-CaDD\Project\Data\Stage_6_Molecular_Dynamics\ligands_top\out_17479_EGFR_extracted.pdbqt
 OpenBabel01082506443D

 31 35  0  0  1  0  0  0  0  0999 V2000
   22.7150    1.5790   52.5550 C   0  0  2  0  0  3  0  0  0  0  0  0
   23.7490    0.8700   52.3970 N   0  0  0  0  0  2  0  0  0  0  0  0
   24.9010    1.6130   52.3780 N   0  0  2  0  0  0  0  0  0  0  0  0
   24.5040    3.0290   52.1970 C   0  0  2  0  0  3  0  0  0  0  0  0
   23.0720    3.0060   52.6790 C   0  0  0  0  0  2  0  0  0  0  0  0
   26.2890    1.1260   52.4790 C   0  0  2  0  0  3  0  0  0  0  0  0
   25.9750   -0.0480   53.3520 C   0  0  0  0  0  2  0  0  0  0  0  0
   26.0520   -1.3080   52.8900 C   0  0  0  0  0  2  0  0  0  0  0  0
   27.3700   -1.5760   52.6560 C   0  0  0  0  0  2  0  0  0  0  0  0
   28.1730   -0.5770   53.4580 C   0  0  0  0  0  0  0  0  0  0  0  0
   29.0290   -0.1150   54.4920 C   0  0  0  0  0  2  0  0  0  0  0  0
   28.6550    0.9220   53.7210 C   0  0  0  0  0  0  0  0  0  0  0  0
   28.3150    1.8010   53.0580 C   0  0  0  0  0  2  0  0  0  0  0  0
   27.8970    2.8100   52.2880 N   0  0  0  0  0  0  0  0  0  0  0  0
   26.9350    2.1770   53.0270 O   0  0  0  0  0  0  0  0  0  0  0  0
   28.8780    2.9690   51.9480 H   0  0  0  0  0  0  0  0  0  0  0  0
   24.5630    3.3910   50.7750 C   0  0  0  0  0  2  0  0  0  0  0  0
   24.3270    4.6240   50.8980 C   0  0  0  0  0  2  0  0  0  0  0  0
   24.4230    4.9440   49.1460 C   0  0  0  0  0  2  0  0  0  0  0  0
   23.9530    6.3940   51.4730 C   0  0  0  0  0  1  0  0  0  0  0  0
   24.3140    6.0690   48.0400 C   0  0  0  0  0  2  0  0  0  0  0  0
   24.0790    6.3070   50.2180 C   0  0  0  0  0  0  0  0  0  0  0  0
   24.1790    6.2160   49.2700 C   0  0  0  0  0  0  0  0  0  0  0  0
   21.4460    0.8710   52.5850 C   0  0  0  0  0  0  0  0  0  0  0  0
   20.4860    0.9240   51.6030 C   0  0  0  0  0  3  0  0  0  0  0  0
   19.3060    0.1890   51.7710 C   0  0  0  0  0  3  0  0  0  0  0  0
   19.1210   -0.5730   52.9060 C   0  0  0  0  0  0  0  0  0  0  0  0
   20.1000   -0.6060   53.8750 C   0  0  0  0  0  3  0  0  0  0  0  0
   21.2790    0.1290   53.7070 C   0  0  0  0  0  3  0  0  0  0  0  0
   17.9250   -1.2730   52.9980 O   0  0  0  0  0  0  0  0  0  0  0  0
   17.7650   -2.5340   53.5730 C   0  0  0  0  0  1  0  0  0  0  0  0
  1 24  1  1  0  0  0
  1  5  1  0  0  0  0
  2  1  1  0  0  0  0
  3  2  1  6  0  0  0
  3  6  1  0  0  0  0
  4 17  1  6  0  0  0
  4  3  1  0  0  0  0
  4  5  1  0  0  0  0
  6 15  1  0  0  0  0
  6  7  1  1  0  0  0
  8  7  1  0  0  0  0
  9  8  1  0  0  0  0
  9 10  1  0  0  0  0
 10 12  2  0  0  0  0
 10 11  1  0  0  0  0
 12 11  1  0  0  0  0
 13 12  1  0  0  0  0
 14 15  1  0  0  0  0
 14 13  1  0  0  0  0
 16 14  1  0  0  0  0
 17 18  1  0  0  0  0
 19 23  1  0  0  0  0
 21 19  1  0  0  0  0
 21 23  1  0  0  0  0
 22 18  1  0  0  0  0
 22 20  1  0  0  0  0
 23 22  2  0  0  0  0
 24 29  1  0  0  0  0
 25 26  1  0  0  0  0
 25 24  2  0  0  0  0
 26 27  2  0  0  0  0
 27 30  1  0  0  0  0
 27 28  1  0  0  0  0
 29 28  2  0  0  0  0
 30 31  1  0  0  0  0
M  END
>  <TORSDO>
F 4

$$$$
