C:\Qe-CaDD\Project\Data\Stage_6_Molecular_Dynamics\ligands_top\out_17491_EGFR_extracted.pdbqt
 OpenBabel01082506443D

 30 34  0  0  1  0  0  0  0  0999 V2000
   22.5350    2.5300   50.2290 C   0  0  0  0  0  0  0  0  0  0  0  0
   23.6260    2.6740   51.0000 C   0  0  0  0  0  3  0  0  0  0  0  0
   25.1840    3.4980   51.0530 S   0  0  0  0  0  0  0  0  0  0  0  0
   26.5460    2.4290   50.6150 C   0  0  0  0  0  2  0  0  0  0  0  0
   26.8080    1.4290   51.6260 N   0  0  1  0  0  0  0  0  0  0  0  0
   26.5740   -0.0560   51.6550 N   0  0  0  0  0  2  0  0  0  0  0  0
   26.4510   -0.2100   52.9610 C   0  0  1  0  0  3  0  0  0  0  0  0
   27.9130    0.2050   53.1220 C   0  0  0  0  0  2  0  0  0  0  0  0
   27.4490    1.7060   52.9660 C   0  0  2  0  0  3  0  0  0  0  0  0
   26.4200    1.8880   53.8560 O   0  0  0  0  0  0  0  0  0  0  0  0
   26.3580    0.9950   54.9360 C   0  0  0  0  0  2  0  0  0  0  0  0
   25.9370   -0.4420   54.4090 C   0  0  1  0  0  3  0  0  0  0  0  0
   24.6420   -0.4800   54.3950 O   0  0  0  0  0  0  0  0  0  0  0  0
   23.7350   -1.2640   54.9770 C   0  0  0  0  0  2  0  0  0  0  0  0
   22.3970   -0.7150   54.4090 C   0  0  0  0  0  0  0  0  0  0  0  0
   21.3040   -0.1100   54.9590 C   0  0  0  0  0  3  0  0  0  0  0  0
   20.4200    0.3300   54.0180 C   0  0  0  0  0  3  0  0  0  0  0  0
   20.6220    0.1710   52.6850 C   0  0  0  0  0  0  0  0  0  0  0  0
   21.6780   -0.4270   52.0360 C   0  0  0  0  0  3  0  0  0  0  0  0
   22.5450   -0.8520   53.0190 C   0  0  0  0  0  3  0  0  0  0  0  0
   19.7990    0.5960   51.6060 O   0  0  0  0  0  0  0  0  0  0  0  0
   20.3490    1.6600   50.8060 C   0  0  0  0  0  2  0  0  0  0  0  0
   21.6130    1.6860   50.8420 N   0  0  0  0  0  2  0  0  0  0  0  0
   22.3810    3.1930   48.9530 C   0  0  0  0  0  0  0  0  0  0  0  0
   22.3040    4.5630   48.8720 C   0  0  0  0  0  3  0  0  0  0  0  0
   22.1590    5.2380   47.6850 C   0  0  0  0  0  3  0  0  0  0  0  0
   22.0820    4.5680   46.4880 C   0  0  0  0  0  0  0  0  0  0  0  0
   21.8980    5.4100   44.9640 Cl  0  0  0  0  0  0  0  0  0  0  0  0
   22.1540    3.1920   46.5210 C   0  0  0  0  0  3  0  0  0  0  0  0
   22.2990    2.5620   47.7390 C   0  0  0  0  0  3  0  0  0  0  0  0
  1 23  1  0  0  0  0
  1  2  2  0  0  0  0
  2  3  1  0  0  0  0
  4  3  1  0  0  0  0
  5  4  1  6  0  0  0
  5  6  1  0  0  0  0
  5  9  1  0  0  0  0
  6  7  1  0  0  0  0
  7  8  1  1  0  0  0
  7 12  1  0  0  0  0
  9  8  1  1  0  0  0
  9 10  1  0  0  0  0
 10 11  1  0  0  0  0
 12 11  1  1  0  0  0
 13 12  1  0  0  0  0
 13 14  1  0  0  0  0
 15 16  1  0  0  0  0
 15 14  1  0  0  0  0
 17 16  2  0  0  0  0
 18 17  1  0  0  0  0
 19 18  2  0  0  0  0
 19 20  1  0  0  0  0
 20 15  2  0  0  0  0
 21 18  1  0  0  0  0
 22 23  1  0  0  0  0
 22 21  1  0  0  0  0
 24  1  1  0  0  0  0
 25 24  1  0  0  0  0
 26 25  2  0  0  0  0
 27 29  2  0  0  0  0
 27 26  1  0  0  0  0
 28 27  1  0  0  0  0
 29 30  1  0  0  0  0
 30 24  2  0  0  0  0
M  END
>  <TORSDO>
F 1

$$$$
