C:\Qe-CaDD\Project\Data\Stage_6_Molecular_Dynamics\ligands_top\out_18146_EGFR_extracted.pdbqt
 OpenBabel01082506443D

 21 24  0  0  1  0  0  0  0  0999 V2000
   22.5910    2.1630   50.8420 C   0  0  1  0  0  0  0  0  0  0  0  0
   23.1410    1.1580   51.7630 C   0  0  0  0  0  3  0  0  0  0  0  0
   22.7090    0.5920   52.8790 C   0  0  0  0  0  0  0  0  0  0  0  0
   21.3610    0.5730   53.4630 C   0  0  0  0  0  2  0  0  0  0  0  0
   20.3970    1.4220   53.0650 C   0  0  0  0  0  3  0  0  0  0  0  0
   20.4690    2.6500   52.2420 C   0  0  0  0  0  3  0  0  0  0  0  0
   21.5450    2.9960   51.5150 C   0  0  1  0  0  3  0  0  0  0  0  0
   22.2040    4.2560   51.0400 C   0  0  0  0  0  2  0  0  0  0  0  0
   23.4290    3.4170   50.7510 C   0  0  1  0  0  3  0  0  0  0  0  0
   24.4060    3.3500   51.7360 O   0  0  0  0  0  0  0  0  0  0  0  0
   24.2780    3.5610   53.0790 C   0  0  0  0  0  2  0  0  0  0  0  0
   24.8500    2.5660   53.7810 C   0  0  0  0  0  2  0  0  0  0  0  0
   25.5620    1.3350   53.3760 C   0  0  0  0  0  0  0  0  0  0  0  0
   26.8300    1.6200   53.0250 N   0  0  0  0  0  0  0  0  0  0  0  0
   27.6470    0.6130   52.6210 C   0  0  0  0  0  3  0  0  0  0  0  0
   27.2220   -0.6970   52.5570 C   0  0  0  0  0  3  0  0  0  0  0  0
   25.9110   -0.9010   52.9340 C   0  0  0  0  0  3  0  0  0  0  0  0
   25.0330    0.0780   53.3530 C   0  0  0  0  0  0  0  0  0  0  0  0
   23.6470   -0.1610   53.7480 C   0  0  0  0  0  2  0  0  0  0  0  0
   22.1910    1.6390   49.5200 C   0  0  0  0  0  3  0  0  0  0  0  0
   21.4400    0.6750   49.4060 O   0  0  0  0  0  0  0  0  0  0  0  0
  1 20  1  6  0  0  0
  1  7  1  0  0  0  0
  1  2  1  0  0  0  0
  2  3  2  0  0  0  0
  3  4  1  0  0  0  0
  3 19  1  0  0  0  0
  5  4  1  0  0  0  0
  6  5  2  0  0  0  0
  7  8  1  1  0  0  0
  7  6  1  0  0  0  0
  9  1  1  0  0  0  0
  9  8  1  1  0  0  0
  9 10  1  0  0  0  0
 10 11  1  0  0  0  0
 11 12  1  0  0  0  0
 13 12  1  0  0  0  0
 14 13  2  0  0  0  0
 15 14  1  0  0  0  0
 16 15  2  0  0  0  0
 16 17  1  0  0  0  0
 17 18  2  0  0  0  0
 18 13  1  0  0  0  0
 18 19  1  0  0  0  0
 21 20  2  0  0  0  0
M  END
>  <TORSDO>
F 1

$$$$
