C:\Qe-CaDD\Project\Data\Stage_6_Molecular_Dynamics\ligands_top\out_11378_EGFR_extracted.pdbqt
 OpenBabel01082506443D

 32 35  0  0  0  0  0  0  0  0999 V2000
   24.2460    1.7560   52.3100 C   0  0  0  0  0  0  0  0  0  0  0  0
   24.0480    3.1160   52.2210 C   0  0  0  0  0  3  0  0  0  0  0  0
   22.8310    3.7550   52.1520 C   0  0  0  0  0  3  0  0  0  0  0  0
   21.7010    2.9670   52.1710 C   0  0  0  0  0  0  0  0  0  0  0  0
   20.3700    3.6420   52.0920 C   0  0  0  0  0  1  0  0  0  0  0  0
   21.8080    1.6010   52.2580 C   0  0  0  0  0  0  0  0  0  0  0  0
   23.0660    1.0460   52.3240 C   0  0  0  0  0  3  0  0  0  0  0  0
   20.6650    0.7590   52.2860 N   0  0  0  0  0  0  0  0  0  0  0  0
   20.5410    0.0600   53.5260 C   0  0  0  0  0  2  0  0  0  0  0  0
   19.5210   -0.7870   53.7460 C   0  0  0  0  0  3  0  0  0  0  0  0
   18.5490   -0.9630   52.6750 C   0  0  0  0  0  0  0  0  0  0  0  0
   18.6600   -0.3350   51.5590 N   0  0  0  0  0  0  0  0  0  0  0  0
   19.7050    0.5910   51.2140 C   0  0  0  0  0  3  0  0  0  0  0  0
   17.4130   -1.8630   52.8310 C   0  0  0  0  0  0  0  0  0  0  0  0
   17.5110   -3.0300   53.4390 C   0  0  0  0  0  3  0  0  0  0  0  0
   16.4460   -4.0230   53.6600 C   0  0  0  0  0  2  0  0  0  0  0  0
   15.2180   -3.5470   53.1060 N   0  0  0  0  0  0  0  0  0  0  0  0
   15.0700   -2.3230   52.4560 N   0  0  0  0  0  0  0  0  0  0  0  0
   14.4660   -4.2600   53.2680 H   0  0  0  0  0  0  0  0  0  0  0  0
   16.0990   -1.5530   52.3380 C   0  0  0  0  0  3  0  0  0  0  0  0
   25.4870    1.0880   52.3820 N   0  0  0  0  0  0  0  0  0  0  0  0
   26.0300    0.2570   53.3750 C   0  0  0  0  0  0  0  0  0  0  0  0
   25.2830    0.0770   54.3710 O   0  0  0  0  0  0  0  0  0  0  0  0
   26.1030    1.2360   51.5590 H   0  0  0  0  0  0  0  0  0  0  0  0
   27.3160   -0.4120   53.4080 C   0  0  0  0  0  0  0  0  0  0  0  0
   28.5180    0.0470   53.8970 C   0  0  0  0  0  0  0  0  0  0  0  0
   29.7000   -0.6490   53.8920 C   0  0  0  0  0  3  0  0  0  0  0  0
   29.7070   -1.9110   53.3610 C   0  0  0  0  0  3  0  0  0  0  0  0
   28.5530   -2.4540   52.8490 C   0  0  0  0  0  3  0  0  0  0  0  0
   27.4120   -1.7010   52.8860 C   0  0  0  0  0  3  0  0  0  0  0  0
   28.5310    1.3120   54.4340 O   0  0  0  0  0  0  0  0  0  0  0  0
   28.7230    2.4570   53.6390 C   0  0  0  0  0  1  0  0  0  0  0  0
  1  7  1  0  0  0  0
  1 21  1  0  0  0  0
  2  1  2  0  0  0  0
  3  4  2  0  0  0  0
  3  2  1  0  0  0  0
  4  6  1  0  0  0  0
  5  4  1  0  0  0  0
  6  8  1  0  0  0  0
  6  7  2  0  0  0  0
  8  9  1  0  0  0  0
  9 10  1  0  0  0  0
 11 14  1  0  0  0  0
 11 10  2  0  0  0  0
 12 11  1  0  0  0  0
 13 12  2  0  0  0  0
 13  8  1  0  0  0  0
 14 15  2  0  0  0  0
 15 16  1  0  0  0  0
 17 19  1  0  0  0  0
 17 16  1  0  0  0  0
 18 17  1  0  0  0  0
 20 18  2  0  0  0  0
 20 14  1  0  0  0  0
 21 22  1  0  0  0  0
 22 25  1  0  0  0  0
 22 23  2  0  0  0  0
 24 21  1  0  0  0  0
 25 26  1  0  0  0  0
 26 31  1  0  0  0  0
 27 26  2  0  0  0  0
 28 27  1  0  0  0  0
 29 30  1  0  0  0  0
 29 28  2  0  0  0  0
 30 25  2  0  0  0  0
 32 31  1  0  0  0  0
M  END
>  <TORSDO>
F 5

$$$$
