C:\Qe-CaDD\Project\Data\Stage_6_Molecular_Dynamics\ligands_top\out_12255_EGFR_extracted.pdbqt
 OpenBabel01082506443D

 27 29  0  0  0  0  0  0  0  0999 V2000
   25.1200    4.0080   50.5560 C   0  0  0  0  0  0  0  0  0  0  0  0
   23.7950    3.9830   50.1690 C   0  0  0  0  0  3  0  0  0  0  0  0
   22.9590    2.9470   50.6020 C   0  0  0  0  0  3  0  0  0  0  0  0
   23.4540    1.9480   51.4150 C   0  0  0  0  0  0  0  0  0  0  0  0
   22.6970    0.9360   51.8700 N   0  0  0  0  0  0  0  0  0  0  0  0
   23.2990    0.0130   52.6780 C   0  0  0  0  0  3  0  0  0  0  0  0
   24.5930    0.0570   53.0410 N   0  0  0  0  0  0  0  0  0  0  0  0
   25.3880    1.0740   52.5930 C   0  0  0  0  0  0  0  0  0  0  0  0
   24.7800    1.9980   51.7840 C   0  0  0  0  0  0  0  0  0  0  0  0
   25.6120    3.0110   51.3660 C   0  0  0  0  0  3  0  0  0  0  0  0
   25.8100    5.1310   50.0260 N   0  0  0  0  0  0  0  0  0  0  0  0
   26.9040    4.6470   49.2550 C   0  0  0  0  0  0  0  0  0  0  0  0
   27.1030    3.4070   49.1480 O   0  0  0  0  0  0  0  0  0  0  0  0
   25.6920    6.1750   50.0790 H   0  0  0  0  0  0  0  0  0  0  0  0
   27.8480    5.4970   48.5550 C   0  0  0  0  0  0  0  0  0  0  0  0
   28.6410    6.1930   47.9730 C   0  0  0  0  0  0  0  0  0  0  0  0
   29.6310    7.0320   47.2630 C   0  0  0  0  0  2  0  0  0  0  0  0
   30.4340    7.8190   48.1560 N   0  0  0  0  0  0  0  0  0  0  0  0
   31.3910    7.0840   48.9250 C   0  0  0  0  0  1  0  0  0  0  0  0
   29.6530    8.7470   48.9200 C   0  0  0  0  0  1  0  0  0  0  0  0
   26.7570    0.9910   53.0680 C   0  0  0  0  0  0  0  0  0  0  0  0
   27.5810    1.9600   53.5940 C   0  0  0  0  0  3  0  0  0  0  0  0
   28.8620    1.6810   54.0180 C   0  0  0  0  0  3  0  0  0  0  0  0
   29.3720    0.4130   53.9300 C   0  0  0  0  0  3  0  0  0  0  0  0
   28.6180   -0.6200   53.4170 C   0  0  0  0  0  0  0  0  0  0  0  0
   29.2770   -2.3990   53.2710 Br  0  0  0  0  0  0  0  0  0  0  0  0
   27.3290   -0.2850   53.0030 C   0  0  0  0  0  3  0  0  0  0  0  0
  1 10  1  0  0  0  0
  2  1  2  0  0  0  0
  2  3  1  0  0  0  0
  3  4  2  0  0  0  0
  4  9  1  0  0  0  0
  4  5  1  0  0  0  0
  5  6  2  0  0  0  0
  6  7  1  0  0  0  0
  8  7  2  0  0  0  0
  8 21  1  0  0  0  0
  9  8  1  0  0  0  0
 10  9  2  0  0  0  0
 11 14  1  0  0  0  0
 11  1  1  0  0  0  0
 12 11  1  0  0  0  0
 13 12  2  0  0  0  0
 15 12  1  0  0  0  0
 16 15  3  0  0  0  0
 17 16  1  0  0  0  0
 17 18  1  0  0  0  0
 18 20  1  0  0  0  0
 18 19  1  0  0  0  0
 21 22  1  0  0  0  0
 22 23  2  0  0  0  0
 24 23  1  0  0  0  0
 25 24  2  0  0  0  0
 26 25  1  0  0  0  0
 27 21  2  0  0  0  0
 27 25  1  0  0  0  0
M  END
>  <TORSDO>
F 5

$$$$
