C:\Qe-CaDD\Project\Data\Stage_6_Molecular_Dynamics\ligands_top\out_10743_EGFR_extracted.pdbqt
 OpenBabel01082506443D

 25 27  0  0  0  0  0  0  0  0999 V2000
   25.2900    4.7900   49.5650 N   0  0  0  0  0  0  0  0  0  0  0  0
   25.4650    3.3250   49.5770 C   0  0  0  0  0  2  0  0  0  0  0  0
   25.4690    2.8230   50.9790 C   0  0  0  0  0  0  0  0  0  0  0  0
   26.7840    2.6000   51.3090 C   0  0  0  0  0  3  0  0  0  0  0  0
   27.2350    2.1330   52.5120 C   0  0  0  0  0  0  0  0  0  0  0  0
   26.2530    1.8660   53.4750 C   0  0  0  0  0  0  0  0  0  0  0  0
   24.9180    2.0750   53.1880 C   0  0  0  0  0  3  0  0  0  0  0  0
   24.5020    2.5550   51.9400 C   0  0  0  0  0  0  0  0  0  0  0  0
   23.0320    2.6690   51.9490 C   0  0  0  0  0  2  0  0  0  0  0  0
   22.6650    4.0010   51.5930 N   0  0  0  0  0  0  0  0  0  0  0  0
   23.0260    5.1970   50.9120 C   0  0  0  0  0  0  0  0  0  0  0  0
   22.0880    6.1690   51.1710 C   0  0  0  0  0  3  0  0  0  0  0  0
   22.1960    7.4340   50.6250 C   0  0  0  0  0  3  0  0  0  0  0  0
   23.2570    7.7050   49.8170 C   0  0  0  0  0  3  0  0  0  0  0  0
   24.1890    6.7240   49.5650 C   0  0  0  0  0  3  0  0  0  0  0  0
   24.1190    5.4300   50.0980 C   0  0  0  0  0  0  0  0  0  0  0  0
   21.7180    4.1420   52.0270 H   0  0  0  0  0  0  0  0  0  0  0  0
   28.5320    1.8870   52.9120 O   0  0  0  0  0  0  0  0  0  0  0  0
   29.0440    2.5690   53.9810 N   0  0  0  0  0  0  0  0  0  0  0  0
   29.3880    1.8740   54.6810 H   0  0  0  0  0  0  0  0  0  0  0  0
   28.1900    3.0310   54.4320 H   0  0  0  0  0  0  0  0  0  0  0  0
   26.6090    1.3890   54.7280 O   0  0  0  0  0  0  0  0  0  0  0  0
   26.3500    0.0560   55.0600 C   0  0  0  0  0  1  0  0  0  0  0  0
   26.3130    5.6360   49.0000 C   0  0  0  0  0  2  0  0  0  0  0  0
   27.6000    5.0180   48.6410 C   0  0  0  0  0  1  0  0  0  0  0  0
  1  2  1  0  0  0  0
  1 16  1  0  0  0  0
  2  3  1  0  0  0  0
  3  4  2  0  0  0  0
  3  8  1  0  0  0  0
  4  5  1  0  0  0  0
  5 18  1  0  0  0  0
  5  6  2  0  0  0  0
  6 22  1  0  0  0  0
  7  6  1  0  0  0  0
  8  9  1  0  0  0  0
  8  7  2  0  0  0  0
 10  9  1  0  0  0  0
 10 17  1  0  0  0  0
 11 12  1  0  0  0  0
 11 10  1  0  0  0  0
 13 12  2  0  0  0  0
 14 13  1  0  0  0  0
 15 14  2  0  0  0  0
 15 16  1  0  0  0  0
 16 11  2  0  0  0  0
 18 19  1  0  0  0  0
 19 21  1  0  0  0  0
 19 20  1  0  0  0  0
 22 23  1  0  0  0  0
 24  1  1  0  0  0  0
 25 24  1  0  0  0  0
M  END
>  <TORSDO>
F 4

$$$$
