C:\Qe-CaDD\Project\Data\Stage_6_Molecular_Dynamics\ligands_top\out_16583_EGFR_extracted.pdbqt
 OpenBabel01082506443D

 27 31  0  0  1  0  0  0  0  0999 V2000
   27.3170    0.6000   54.0490 C   0  0  2  0  0  3  0  0  0  0  0  0
   27.6930   -0.2240   52.8400 C   0  0  0  0  0  2  0  0  0  0  0  0
   26.4130   -0.6710   52.1720 C   0  0  0  0  0  2  0  0  0  0  0  0
   25.4660    0.4250   52.2610 N   0  0  1  0  0  0  0  0  0  0  0  0
   23.9040    0.5480   52.2020 C   0  0  2  0  0  0  0  0  0  0  0  0
   23.7480    1.7140   51.7780 C   0  0  0  0  0  2  0  0  0  0  0  0
   23.6630    1.0250   53.1490 C   0  0  1  0  0  3  0  0  0  0  0  0
   23.6450    0.1770   54.2140 C   0  0  0  0  0  2  0  0  0  0  0  0
   23.1990   -0.6070   52.8510 C   0  0  0  0  0  2  0  0  0  0  0  0
   24.5490    2.3170   53.0890 N   0  0  2  0  0  0  0  0  0  0  0  0
   24.1510    3.7670   53.3620 C   0  0  0  0  0  2  0  0  0  0  0  0
   23.2820    4.0150   52.1000 N   0  0  0  0  0  2  0  0  0  0  0  0
   23.5830    3.0410   51.1970 C   0  0  2  0  0  3  0  0  0  0  0  0
   25.9410    1.8840   52.5110 C   0  0  1  0  0  3  0  0  0  0  0  0
   26.8910    1.9560   53.5990 C   0  0  0  0  0  2  0  0  0  0  0  0
   23.7140    2.8340   49.7680 N   0  0  0  0  0  0  0  0  0  0  0  0
   23.1040    2.1020   49.2890 H   0  0  0  0  0  0  0  0  0  0  0  0
   24.7250    3.7810   49.4330 C   0  0  0  0  0  0  0  0  0  0  0  0
   26.0610    3.3740   49.4870 C   0  0  0  0  0  3  0  0  0  0  0  0
   27.0560    4.2710   49.1720 C   0  0  0  0  0  3  0  0  0  0  0  0
   26.6950    5.5650   48.8090 C   0  0  0  0  0  3  0  0  0  0  0  0
   25.3580    5.9360   48.7670 C   0  0  0  0  0  3  0  0  0  0  0  0
   24.3430    5.0520   49.0770 C   0  0  0  0  0  3  0  0  0  0  0  0
   28.5220    0.5910   54.9610 C   0  0  0  0  0  2  0  0  0  0  0  0
   29.3490    1.7660   54.8490 N   0  0  0  0  0  0  0  0  0  0  0  0
   29.6550    2.0630   55.8230 H   0  0  0  0  0  0  0  0  0  0  0  0
   28.7240    2.5370   54.4860 H   0  0  0  0  0  0  0  0  0  0  0  0
  1 24  1  1  0  0  0
  2  1  1  0  0  0  0
  3  2  1  0  0  0  0
  4  3  1  1  0  0  0
  4 14  1  0  0  0  0
  5  6  1  6  0  0  0
  5  4  1  0  0  0  0
  5  9  1  0  0  0  0
  5  7  1  0  0  0  0
  7  8  1  1  0  0  0
  9  8  1  0  0  0  0
 10  7  1  0  0  0  0
 10 11  1  6  0  0  0
 12 11  1  0  0  0  0
 13 16  1  6  0  0  0
 13  6  1  0  0  0  0
 13 12  1  0  0  0  0
 14 10  1  0  0  0  0
 14 15  1  1  0  0  0
 15  1  1  0  0  0  0
 17 16  1  0  0  0  0
 18 19  1  0  0  0  0
 18 16  1  0  0  0  0
 20 19  2  0  0  0  0
 21 20  1  0  0  0  0
 22 21  2  0  0  0  0
 22 23  1  0  0  0  0
 23 18  2  0  0  0  0
 25 24  1  0  0  0  0
 25 26  1  0  0  0  0
 27 25  1  0  0  0  0
M  END
>  <TORSDO>
F 4

$$$$
