C:\Qe-CaDD\Project\Data\Stage_6_Molecular_Dynamics\ligands_top\out_18340_EGFR_extracted.pdbqt
 OpenBabel01082506443D

 28 27  0  0  1  0  0  0  0  0999 V2000
   23.5440    0.8510   53.8180 C   0  0  2  0  0  3  0  0  0  0  0  0
   23.6720    2.0910   53.0000 C   0  0  0  0  0  2  0  0  0  0  0  0
   25.1640    2.3730   52.7400 C   0  0  1  0  0  3  0  0  0  0  0  0
   25.9420    1.0920   52.7180 N   0  0  0  0  0  0  0  0  0  0  0  0
   26.2520   -0.2450   53.6620 C   0  0  0  0  0  3  0  0  0  0  0  0
   26.3610    0.0610   55.0680 C   0  0  0  0  0  3  0  0  0  0  0  0
   26.3810   -0.4680   53.8520 C   0  0  0  0  0  3  0  0  0  0  0  0
   26.4260   -1.0180   52.7220 N   0  0  0  0  0  0  0  0  0  0  0  0
   26.8000   -2.1070   52.0990 C   0  0  0  0  0  1  0  0  0  0  0  0
   26.3480   -0.9260   52.5100 N   0  0  0  0  0  1  0  0  0  0  0  0
   24.7030   -0.0520   53.4440 N   0  0  0  0  0  0  0  0  0  0  0  0
   26.3270    1.3380   51.6980 H   0  0  0  0  0  0  0  0  0  0  0  0
   23.8840   -0.3710   52.6730 H   0  0  0  0  0  0  0  0  0  0  0  0
   22.3780    0.0570   53.8500 C   0  0  0  0  0  0  0  0  0  0  0  0
   21.2460    0.7340   53.3200 C   0  0  0  0  0  3  0  0  0  0  0  0
   20.0450   -0.0080   53.3410 C   0  0  0  0  0  3  0  0  0  0  0  0
   19.8700   -1.3430   53.8330 C   0  0  0  0  0  0  0  0  0  0  0  0
   21.0530   -1.8000   54.2940 C   0  0  0  0  0  3  0  0  0  0  0  0
   22.2650   -1.1920   54.3300 C   0  0  0  0  0  3  0  0  0  0  0  0
   18.6610   -1.9480   53.7930 O   0  0  0  0  0  0  0  0  0  0  0  0
   18.4870   -2.9280   53.6590 H   0  0  0  0  0  0  0  0  0  0  0  0
   25.3630    3.1320   51.5260 C   0  0  0  0  0  0  0  0  0  0  0  0
   24.5210    4.1290   51.0910 C   0  0  0  0  0  3  0  0  0  0  0  0
   24.7140    4.9450   49.9440 C   0  0  0  0  0  3  0  0  0  0  0  0
   25.8880    4.5800   49.3160 C   0  0  0  0  0  0  0  0  0  0  0  0
   26.1730    5.3400   48.1930 F   0  0  0  0  0  0  0  0  0  0  0  0
   26.7730    3.6060   49.6840 C   0  0  0  0  0  3  0  0  0  0  0  0
   26.5050    2.8790   50.7980 C   0  0  0  0  0  3  0  0  0  0  0  0
  1 14  1  6  0  0  0
  2  1  1  0  0  0  0
  3 22  1  6  0  0  0
  3  2  1  0  0  0  0
  4  3  1  0  0  0  0
  4 11  1  0  0  0  0
  7  6  3  0  0  0  0
  8  5  3  0  0  0  0
  9 10  1  0  0  0  0
 11  1  1  0  0  0  0
 12  4  1  0  0  0  0
 13 11  1  0  0  0  0
 14 19  1  0  0  0  0
 15 16  1  0  0  0  0
 15 14  2  0  0  0  0
 16 17  2  0  0  0  0
 17 18  1  0  0  0  0
 18 19  2  0  0  0  0
 20 17  1  0  0  0  0
 21 20  1  0  0  0  0
 23 22  1  0  0  0  0
 24 23  2  0  0  0  0
 25 27  2  0  0  0  0
 25 24  1  0  0  0  0
 26 25  1  0  0  0  0
 27 28  1  0  0  0  0
 28 22  2  0  0  0  0
M  END
>  <TORSDO>
F 3

$$$$
