C:\Qe-CaDD\Project\Data\Stage_6_Molecular_Dynamics\ligands_top\out_20660_EGFR_extracted.pdbqt
 OpenBabel01082506443D

 23 27  0  0  1  0  0  0  0  0999 V2000
   24.9420    2.5030   53.5860 C   0  0  0  0  0  1  0  0  0  0  0  0
   25.4900    1.8570   52.3050 C   0  0  1  0  0  0  0  0  0  0  0  0
   25.5140    2.6890   51.2200 C   0  0  1  0  0  3  0  0  0  0  0  0
   26.8160    2.6410   51.8840 C   0  0  2  0  0  3  0  0  0  0  0  0
   27.3810    1.9880   53.0000 C   0  0  2  0  0  3  0  0  0  0  0  0
   27.0600    0.5020   53.0520 C   0  0  1  0  0  3  0  0  0  0  0  0
   26.0700    0.1150   54.0200 N   0  0  0  0  0  2  0  0  0  0  0  0
   25.7840   -1.0960   54.3160 C   0  0  1  0  0  3  0  0  0  0  0  0
   24.7480   -1.3580   55.2990 O   0  0  0  0  0  0  0  0  0  0  0  0
   23.4450   -0.9370   54.9260 C   0  0  1  0  0  3  0  0  0  0  0  0
   24.0710   -0.5810   53.9250 O   0  0  0  0  0  0  0  0  0  0  0  0
   22.0840   -0.4730   54.4830 C   0  0  0  0  0  3  0  0  0  0  0  0
   21.9890    0.1490   53.3140 C   0  0  0  0  0  0  0  0  0  0  0  0
   21.5970    0.8440   52.0950 C   0  0  0  0  0  3  0  0  0  0  0  0
   21.8510    1.4320   50.8980 C   0  0  2  0  0  0  0  0  0  0  0  0
   23.2100    1.4660   50.4810 O   0  0  0  0  0  0  0  0  0  0  0  0
   24.1380    2.2700   51.1140 C   0  0  1  0  0  3  0  0  0  0  0  0
   23.0730    2.5750   51.7180 O   0  0  0  0  0  0  0  0  0  0  0  0
   26.0090    0.5610   51.9220 O   0  0  0  0  0  0  0  0  0  0  0  0
   28.1040    2.8710   53.7950 O   0  0  0  0  0  0  0  0  0  0  0  0
   28.3770    2.5650   54.7080 H   0  0  0  0  0  0  0  0  0  0  0  0
   20.7060    1.9000   50.3120 O   0  0  0  0  0  0  0  0  0  0  0  0
   20.3460    1.3840   49.4920 H   0  0  0  0  0  0  0  0  0  0  0  0
  2  1  1  1  0  0  0
  3  4  1  0  0  0  0
  3  2  1  0  0  0  0
  4  2  1  0  0  0  0
  4  5  1  0  0  0  0
  5  6  1  0  0  0  0
  5 20  1  0  0  0  0
  6  7  1  0  0  0  0
  7  8  1  0  0  0  0
  8  9  1  0  0  0  0
 10  9  1  0  0  0  0
 11  8  1  0  0  0  0
 11 10  1  0  0  0  0
 12 10  1  0  0  0  0
 13 12  2  0  0  0  0
 14 13  2  0  0  0  0
 15 18  1  0  0  0  0
 15 14  1  0  0  0  0
 16 15  1  0  0  0  0
 16 17  1  0  0  0  0
 17  3  1  0  0  0  0
 17 18  1  0  0  0  0
 19  2  1  0  0  0  0
 19  6  1  0  0  0  0
 20 21  1  0  0  0  0
 22 15  1  0  0  0  0
 23 22  1  0  0  0  0
M  END
>  <TORSDO>
F 2

$$$$
