C:\Qe-CaDD\Project\Data\Stage_6_Molecular_Dynamics\ligands_top\out_20688_EGFR_extracted.pdbqt
 OpenBabel01082506443D

 21 23  0  0  1  0  0  0  0  0999 V2000
   25.8100    2.0330   51.9450 C   0  0  0  0  0  0  0  0  0  0  0  0
   26.8580    1.7810   52.7810 C   0  0  0  0  0  2  0  0  0  0  0  0
   27.3520    0.8700   53.8030 C   0  0  2  0  0  0  0  0  0  0  0  0
   28.7940    1.3170   54.0330 C   0  0  0  0  0  3  0  0  0  0  0  0
   29.8990    0.6470   53.8230 C   0  0  0  0  0  3  0  0  0  0  0  0
   29.8680   -0.7250   53.2990 C   0  0  0  0  0  2  0  0  0  0  0  0
   28.5180   -1.2840   53.1530 C   0  0  0  0  0  0  0  0  0  0  0  0
   28.3920   -2.9640   52.6580 Cl  0  0  0  0  0  0  0  0  0  0  0  0
   27.4130   -0.5770   53.3760 C   0  0  0  0  0  0  0  0  0  0  0  0
   26.1990   -1.4740   53.1260 C   0  0  0  0  0  2  0  0  0  0  0  0
   24.9810   -0.6050   53.4670 C   0  0  1  0  0  3  0  0  0  0  0  0
   24.6450   -0.5110   54.7640 N   0  0  0  0  0  2  0  0  0  0  0  0
   25.7000    0.2160   55.6020 C   0  0  0  0  0  3  0  0  0  0  0  0
   26.8080    0.8900   55.1510 N   0  0  0  0  0  0  0  0  0  0  0  0
   24.0270    0.3210   52.6930 C   0  0  0  0  0  2  0  0  0  0  0  0
   24.4690    1.3280   51.8150 C   0  0  0  0  0  0  0  0  0  0  0  0
   25.6360    3.2910   50.7400 S   0  0  0  0  0  0  0  0  0  0  0  0
   27.1590    3.6910   50.0990 O   0  0  0  0  0  0  0  0  0  0  0  0
   27.0870    4.5320   49.0040 C   0  0  0  0  0  1  0  0  0  0  0  0
   23.4360    1.3890   51.0020 O   0  0  0  0  0  0  0  0  0  0  0  0
   22.1370    1.0010   51.3410 C   0  0  0  0  0  1  0  0  0  0  0  0
  1  2  1  0  0  0  0
  3  2  1  6  0  0  0
  3  4  1  0  0  0  0
  3 14  1  0  0  0  0
  5  4  2  0  0  0  0
  6  5  1  0  0  0  0
  7  6  1  0  0  0  0
  7  9  2  0  0  0  0
  8  7  1  0  0  0  0
  9  3  1  0  0  0  0
 10  9  1  0  0  0  0
 10 11  1  0  0  0  0
 11 15  1  1  0  0  0
 11 12  1  0  0  0  0
 12 13  1  0  0  0  0
 14 13  2  0  0  0  0
 16  1  2  0  0  0  0
 16 15  1  0  0  0  0
 17  1  1  0  0  0  0
 18 17  1  0  0  0  0
 19 18  1  0  0  0  0
 20 21  1  0  0  0  0
 20 16  1  0  0  0  0
M  END
>  <TORSDO>
F 3

$$$$
