C:\Qe-CaDD\Project\Data\Stage_6_Molecular_Dynamics\ligands_top\out_18631_EGFR_extracted.pdbqt
 OpenBabel01082506443D

 23 24  0  0  0  0  0  0  0  0999 V2000
   28.6710    0.3090   54.8620 C   0  0  0  0  0  3  0  0  0  0  0  0
   27.4880    0.1430   54.5800 C   0  0  0  0  0  0  0  0  0  0  0  0
   26.0550   -0.0730   54.2600 C   0  0  0  0  0  0  0  0  0  0  0  0
   25.3450   -0.6850   55.2090 C   0  0  0  0  0  3  0  0  0  0  0  0
   24.1060   -1.2450   55.7250 C   0  0  0  0  0  3  0  0  0  0  0  0
   22.8720   -1.4180   55.2750 C   0  0  0  0  0  3  0  0  0  0  0  0
   22.1840   -1.1340   54.0150 C   0  0  0  0  0  2  0  0  0  0  0  0
   21.1030   -0.2230   54.1080 O   0  0  0  0  0  0  0  0  0  0  0  0
   21.1500    0.8390   53.1430 C   0  0  0  0  0  0  0  0  0  0  0  0
   22.2360    1.4250   52.8000 N   0  0  0  0  0  0  0  0  0  0  0  0
   23.5220    1.2480   53.1910 N   0  0  0  0  0  0  0  0  0  0  0  0
   24.5400    0.7910   52.5790 C   0  0  0  0  0  3  0  0  0  0  0  0
   25.9570    0.5730   52.9350 C   0  0  0  0  0  0  0  0  0  0  0  0
   26.6370   -0.3540   51.9460 C   0  0  0  0  0  1  0  0  0  0  0  0
   26.6990    1.9160   52.8850 C   0  0  0  0  0  1  0  0  0  0  0  0
   20.1580    1.8320   52.0580 S   0  0  0  0  0  0  0  0  0  0  0  0
   19.5710    0.8240   50.6970 C   0  0  0  0  0  2  0  0  0  0  0  0
   18.3160    0.1120   51.0040 C   0  0  0  0  0  0  0  0  0  0  0  0
   18.0960   -0.5650   52.1840 C   0  0  0  0  0  3  0  0  0  0  0  0
   16.9630   -1.2500   52.5430 C   0  0  0  0  0  3  0  0  0  0  0  0
   15.9580   -1.2440   51.6090 C   0  0  0  0  0  3  0  0  0  0  0  0
   16.0860   -0.5920   50.3950 C   0  0  0  0  0  3  0  0  0  0  0  0
   17.2620    0.0870   50.0880 C   0  0  0  0  0  3  0  0  0  0  0  0
  2  1  3  0  0  0  0
  3  2  1  0  0  0  0
  3  4  2  0  0  0  0
  4  5  1  0  0  0  0
  6  5  2  0  0  0  0
  7  8  1  0  0  0  0
  7  6  1  0  0  0  0
  9  8  1  0  0  0  0
 10  9  2  0  0  0  0
 10 11  1  0  0  0  0
 12 13  1  0  0  0  0
 12 11  2  0  0  0  0
 13  3  1  0  0  0  0
 14 13  1  0  0  0  0
 15 13  1  0  0  0  0
 16  9  1  0  0  0  0
 17 18  1  0  0  0  0
 17 16  1  0  0  0  0
 18 19  1  0  0  0  0
 19 20  2  0  0  0  0
 21 20  1  0  0  0  0
 22 21  2  0  0  0  0
 23 22  1  0  0  0  0
 23 18  2  0  0  0  0
M  END
>  <TORSDO>
F 3

$$$$
