C:\Qe-CaDD\Project\Data\Stage_6_Molecular_Dynamics\ligands_top\out_12448_EGFR_extracted.pdbqt
 OpenBabel01082506443D

 29 33  0  0  1  0  0  0  0  0999 V2000
   16.6340    0.6340   49.4150 C   0  0  0  0  0  3  0  0  0  0  0  0
   17.2970    0.2670   50.3650 C   0  0  0  0  0  0  0  0  0  0  0  0
   18.0650   -0.1850   51.4750 C   0  0  0  0  0  0  0  0  0  0  0  0
   17.5360   -1.0840   52.4040 C   0  0  0  0  0  3  0  0  0  0  0  0
   18.3310   -1.5080   53.4710 C   0  0  0  0  0  3  0  0  0  0  0  0
   19.6440   -1.0320   53.6050 C   0  0  0  0  0  3  0  0  0  0  0  0
   20.1490   -0.1520   52.6880 C   0  0  0  0  0  0  0  0  0  0  0  0
   19.3660    0.2440   51.6690 C   0  0  0  0  0  3  0  0  0  0  0  0
   21.4820    0.2270   52.9960 N   0  0  0  0  0  0  0  0  0  0  0  0
   22.0450   -0.0060   53.7950 H   0  0  0  0  0  0  0  0  0  0  0  0
   22.0430    1.0480   52.0250 C   0  0  0  0  0  0  0  0  0  0  0  0
   21.9380    1.0940   50.7580 N   0  0  0  0  0  0  0  0  0  0  0  0
   22.3210    1.7170   49.6040 C   0  0  1  0  0  3  0  0  0  0  0  0
   21.0860    1.6020   48.5600 C   0  0  0  0  0  1  0  0  0  0  0  0
   23.0610    2.8870   49.1860 C   0  0  0  0  0  2  0  0  0  0  0  0
   24.4800    3.2220   49.4160 C   0  0  0  0  0  2  0  0  0  0  0  0
   24.8030    3.7200   50.7920 O   0  0  0  0  0  0  0  0  0  0  0  0
   24.2410    2.7700   51.7120 C   0  0  2  0  0  0  0  0  0  0  0  0
   23.3260    3.6980   51.4760 C   0  0  0  0  0  2  0  0  0  0  0  0
   25.1310    1.8430   51.9570 C   0  0  0  0  0  0  0  0  0  0  0  0
   23.0800    2.1000   52.4010 C   0  0  2  0  0  0  0  0  0  0  0  0
   24.0700    1.1230   52.6370 C   0  0  0  0  0  0  0  0  0  0  0  0
   26.3950    1.3510   51.8650 O   0  0  0  0  0  0  0  0  0  0  0  0
   24.1670   -0.1080   53.2580 O   0  0  0  0  0  0  0  0  0  0  0  0
   25.5620   -0.4380   53.3980 C   0  0  0  0  0  2  0  0  0  0  0  0
   26.4410   -0.0490   52.2790 C   0  0  0  0  0  2  0  0  0  0  0  0
   22.2790    3.1200   52.0930 C   0  0  1  0  0  3  0  0  0  0  0  0
   20.9360    3.2900   52.4370 N   0  0  0  0  0  0  0  0  0  0  0  0
   20.1520    3.9910   51.6770 C   0  0  0  0  0  2  0  0  0  0  0  0
  1  2  3  0  0  0  0
  2  3  1  0  0  0  0
  3  8  2  0  0  0  0
  3  4  1  0  0  0  0
  4  5  2  0  0  0  0
  5  6  1  0  0  0  0
  7  9  1  0  0  0  0
  7  6  2  0  0  0  0
  8  7  1  0  0  0  0
  9 10  1  0  0  0  0
 11  9  1  0  0  0  0
 12 11  2  0  0  0  0
 13 14  1  1  0  0  0
 13 12  1  0  0  0  0
 15 16  1  0  0  0  0
 15 13  1  0  0  0  0
 16 17  1  0  0  0  0
 17 18  1  0  0  0  0
 18 19  1  1  0  0  0
 18 20  1  0  0  0  0
 18 21  1  0  0  0  0
 19 27  1  0  0  0  0
 20 22  2  0  0  0  0
 21 11  1  6  0  0  0
 21 22  1  0  0  0  0
 22 24  1  0  0  0  0
 23 20  1  0  0  0  0
 23 26  1  0  0  0  0
 24 25  1  0  0  0  0
 26 25  1  0  0  0  0
 27 21  1  0  0  0  0
 27 28  1  1  0  0  0
 29 28  2  0  0  0  0
M  END
>  <TORSDO>
F 3

$$$$
