C:\Qe-CaDD\Project\Data\Stage_6_Molecular_Dynamics\ligands_top\out_10622_EGFR_extracted.pdbqt
 OpenBabel01082506443D

 33 37  0  0  1  0  0  0  0  0999 V2000
   26.5630   -1.2500   53.5300 C   0  0  0  0  0  2  0  0  0  0  0  0
   25.6610   -0.4050   52.9860 C   0  0  0  0  0  0  0  0  0  0  0  0
   24.2330   -0.3940   53.4180 C   0  0  0  0  0  0  0  0  0  0  0  0
   23.1300   -0.3700   53.7360 C   0  0  0  0  0  0  0  0  0  0  0  0
   21.7100   -0.3650   54.1420 C   0  0  0  0  0  1  0  0  0  0  0  0
   20.8440    0.2160   53.0380 C   0  0  0  0  0  2  0  0  0  0  0  0
   21.7500    0.8120   52.4460 C   0  0  1  0  0  3  0  0  0  0  0  0
   21.6360    1.6230   51.1910 C   0  0  0  0  0  2  0  0  0  0  0  0
   23.0140    1.9360   51.2760 C   0  0  1  0  0  3  0  0  0  0  0  0
   24.3400    2.6030   50.7790 C   0  0  0  0  0  2  0  0  0  0  0  0
   25.2530    1.7870   51.6870 C   0  0  1  0  0  0  0  0  0  0  0  0
   25.4160    2.6270   52.6030 N   0  0  1  0  0  0  0  0  0  0  0  0
   24.1360    3.0760   53.1950 C   0  0  0  0  0  2  0  0  0  0  0  0
   24.0810    2.1510   52.1770 N   0  0  1  0  0  4  0  0  0  0  0  0
   25.9110    0.5240   51.9320 N   0  0  0  0  0  4  0  0  0  0  0  0
   20.5200    0.9300   51.8730 O   0  0  0  0  0  0  0  0  0  0  0  0
   19.8220    0.5350   50.7890 C   0  0  0  0  0  2  0  0  0  0  0  0
   18.3110    0.8960   50.9100 C   0  0  0  0  0  0  0  0  0  0  0  0
   18.7970    1.5510   51.8460 O   0  0  0  0  0  0  0  0  0  0  0  0
   16.8450    1.0240   50.7400 C   0  0  2  0  0  3  0  0  0  0  0  0
   16.2960    2.1860   51.5320 C   0  0  0  0  0  2  0  0  0  0  0  0
   15.1670    1.7820   52.2790 O   0  0  0  0  0  0  0  0  0  0  0  0
   14.2460    1.1300   51.4710 C   0  0  0  0  0  2  0  0  0  0  0  0
   14.8420   -0.2120   51.1300 C   0  0  0  0  0  2  0  0  0  0  0  0
   16.2470   -0.2330   51.2240 N   0  0  2  0  0  0  0  0  0  0  0  0
   16.7910   -0.3700   52.5750 C   0  0  0  0  0  2  0  0  0  0  0  0
   17.6850   -1.5610   52.6880 C   0  0  0  0  0  2  0  0  0  0  0  0
   18.7120   -1.4410   53.8280 C   0  0  0  0  0  2  0  0  0  0  0  0
   19.6880   -0.4510   53.6540 N   0  0  0  0  0  0  0  0  0  0  0  0
   26.5650    0.5340   51.1680 H   0  0  0  0  0  0  0  0  0  0  0  0
   19.9680   -0.9920   52.7700 H   0  0  0  0  0  0  0  0  0  0  0  0
   27.8530   -0.9870   52.8580 C   0  0  0  0  0  2  0  0  0  0  0  0
   28.9000   -0.5140   53.8740 C   0  0  0  0  0  1  0  0  0  0  0  0
  2  3  1  0  0  0  0
  2  1  1  0  0  0  0
  3  4  3  0  0  0  0
  4  5  1  0  0  0  0
  6 29  1  0  0  0  0
  7  8  1  6  0  0  0
  7  6  1  0  0  0  0
  9  8  1  1  0  0  0
  9 14  1  0  0  0  0
 10  9  1  0  0  0  0
 10 11  1  0  0  0  0
 11 15  1  6  0  0  0
 11 14  1  0  0  0  0
 11 12  1  0  0  0  0
 12 13  1  6  0  0  0
 14 12  1  0  0  0  0
 14 13  1  1  0  0  0
 15  2  2  0  0  0  0
 16  7  1  0  0  0  0
 17 18  1  0  0  0  0
 17 16  1  0  0  0  0
 18 19  2  0  0  0  0
 20 18  1  0  0  0  0
 20 25  1  0  0  0  0
 20 21  1  1  0  0  0
 21 22  1  0  0  0  0
 23 22  1  0  0  0  0
 24 23  1  0  0  0  0
 25 24  1  1  0  0  0
 25 26  1  0  0  0  0
 26 27  1  0  0  0  0
 27 28  1  0  0  0  0
 29 28  1  0  0  0  0
 30 15  1  0  0  0  0
 31 29  1  0  0  0  0
 32  1  1  0  0  0  0
 32 33  1  0  0  0  0
M  END
>  <TORSDO>
F 1

$$$$
