C:\Qe-CaDD\Project\Data\Stage_6_Molecular_Dynamics\ligands_top\out_10751_EGFR_extracted.pdbqt
 OpenBabel01082506443D

 23 25  0  0  0  0  0  0  0  0999 V2000
   24.7690   -0.3290   54.0490 C   0  0  0  0  0  0  0  0  0  0  0  0
   25.0130   -0.9760   55.2330 N   0  0  0  0  0  0  0  0  0  0  0  0
   23.9940   -1.5350   55.9380 C   0  0  0  0  0  3  0  0  0  0  0  0
   22.6860   -1.5150   55.5690 N   0  0  0  0  0  0  0  0  0  0  0  0
   22.4450   -0.8800   54.4060 C   0  0  0  0  0  0  0  0  0  0  0  0
   21.1690   -0.7720   53.8870 C   0  0  0  0  0  3  0  0  0  0  0  0
   20.8870   -0.1210   52.6800 C   0  0  0  0  0  0  0  0  0  0  0  0
   21.9400    0.4370   51.9830 C   0  0  0  0  0  0  0  0  0  0  0  0
   23.2360    0.3590   52.4570 C   0  0  0  0  0  3  0  0  0  0  0  0
   23.4460   -0.2980   53.6550 C   0  0  0  0  0  0  0  0  0  0  0  0
   25.9030    0.2050   53.4390 N   0  0  0  0  0  0  0  0  0  0  0  0
   25.8740    1.5000   52.9150 C   0  0  0  0  0  2  0  0  0  0  0  0
   26.5040    1.6630   51.5320 C   0  0  0  0  0  1  0  0  0  0  0  0
   27.0820   -0.6080   53.3630 C   0  0  0  0  0  0  0  0  0  0  0  0
   27.1410   -1.8330   52.7900 C   0  0  0  0  0  3  0  0  0  0  0  0
   28.2780   -2.6110   52.7160 C   0  0  0  0  0  3  0  0  0  0  0  0
   29.4530   -2.1310   53.2550 C   0  0  0  0  0  3  0  0  0  0  0  0
   29.4480   -0.8930   53.8490 C   0  0  0  0  0  3  0  0  0  0  0  0
   28.2960   -0.1600   53.8970 C   0  0  0  0  0  3  0  0  0  0  0  0
   21.6920    1.0940   50.7770 O   0  0  0  0  0  0  0  0  0  0  0  0
   22.0150    0.7900   49.8770 H   0  0  0  0  0  0  0  0  0  0  0  0
   19.6190   -0.0070   52.1520 O   0  0  0  0  0  0  0  0  0  0  0  0
   18.5480   -0.6990   52.7610 C   0  0  0  0  0  1  0  0  0  0  0  0
  1  2  1  0  0  0  0
  2  3  2  0  0  0  0
  4  3  1  0  0  0  0
  5  4  2  0  0  0  0
  6  5  1  0  0  0  0
  7  6  2  0  0  0  0
  8  9  2  0  0  0  0
  8  7  1  0  0  0  0
  9 10  1  0  0  0  0
 10  1  2  0  0  0  0
 10  5  1  0  0  0  0
 11  1  1  0  0  0  0
 12 11  1  0  0  0  0
 13 12  1  0  0  0  0
 14 11  1  0  0  0  0
 14 19  1  0  0  0  0
 15 14  2  0  0  0  0
 16 15  1  0  0  0  0
 16 17  2  0  0  0  0
 17 18  1  0  0  0  0
 18 19  2  0  0  0  0
 20  8  1  0  0  0  0
 21 20  1  0  0  0  0
 22  7  1  0  0  0  0
 22 23  1  0  0  0  0
M  END
>  <TORSDO>
F 5

$$$$
