C:\Qe-CaDD\Project\Data\Stage_6_Molecular_Dynamics\ligands_top\out_16723_EGFR_extracted.pdbqt
 OpenBabel01082506443D

 27 29  0  0  0  0  0  0  0  0999 V2000
   25.6820   -0.4260   52.8770 N   0  0  0  0  0  0  0  0  0  0  0  0
   25.6530   -0.8860   51.9430 H   0  0  0  0  0  0  0  0  0  0  0  0
   24.7320   -0.8000   53.8630 C   0  0  0  0  0  0  0  0  0  0  0  0
   23.4040   -0.9220   53.5330 C   0  0  0  0  0  3  0  0  0  0  0  0
   22.4030   -1.2740   54.4080 C   0  0  0  0  0  0  0  0  0  0  0  0
   22.7690   -1.5130   55.6720 N   0  0  0  0  0  0  0  0  0  0  0  0
   24.0580   -1.4010   56.0190 C   0  0  0  0  0  3  0  0  0  0  0  0
   25.0220   -1.0560   55.1500 N   0  0  0  0  0  0  0  0  0  0  0  0
   21.0420   -1.3630   53.9180 C   0  0  0  0  0  3  0  0  0  0  0  0
   20.3610   -0.4110   53.3120 C   0  0  0  0  0  3  0  0  0  0  0  0
   20.6030    0.9630   52.9070 C   0  0  0  0  0  3  0  0  0  0  0  0
   21.1010    1.5240   51.8380 C   0  0  0  0  0  3  0  0  0  0  0  0
   21.5600    0.7240   50.7170 C   0  0  0  0  0  3  0  0  0  0  0  0
   21.6420    1.2830   49.5140 C   0  0  0  0  0  2  0  0  0  0  0  0
   26.7060    0.5200   52.9890 C   0  0  0  0  0  0  0  0  0  0  0  0
   27.5660    0.2490   53.9750 C   0  0  0  0  0  3  0  0  0  0  0  0
   28.6840    1.1670   54.1960 C   0  0  0  0  0  3  0  0  0  0  0  0
   28.8420    2.2410   53.4370 C   0  0  0  0  0  2  0  0  0  0  0  0
   27.9360    2.4930   52.4260 O   0  0  0  0  0  0  0  0  0  0  0  0
   26.8390    1.6930   52.1250 C   0  0  0  0  0  0  0  0  0  0  0  0
   25.6230    2.5300   52.0130 C   0  0  0  0  0  0  0  0  0  0  0  0
   24.7230    2.9530   52.9600 C   0  0  0  0  0  3  0  0  0  0  0  0
   23.6540    3.7390   52.5880 C   0  0  0  0  0  3  0  0  0  0  0  0
   23.4080    4.1510   51.2950 C   0  0  0  0  0  3  0  0  0  0  0  0
   24.3200    3.7190   50.3550 C   0  0  0  0  0  0  0  0  0  0  0  0
   24.0780    4.1270   49.0690 F   0  0  0  0  0  0  0  0  0  0  0  0
   25.4170    2.9200   50.6970 C   0  0  0  0  0  3  0  0  0  0  0  0
  1 15  1  0  0  0  0
  1  3  1  0  0  0  0
  2  1  1  0  0  0  0
  3  8  1  0  0  0  0
  4  3  2  0  0  0  0
  4  5  1  0  0  0  0
  5  6  2  0  0  0  0
  6  7  1  0  0  0  0
  8  7  2  0  0  0  0
  9  5  1  0  0  0  0
 10  9  2  0  0  0  0
 11 10  1  0  0  0  0
 12 11  2  0  0  0  0
 13 12  1  0  0  0  0
 14 13  2  0  0  0  0
 15 16  1  0  0  0  0
 16 17  2  0  0  0  0
 18 17  1  0  0  0  0
 19 18  1  0  0  0  0
 20 19  1  0  0  0  0
 20 15  2  0  0  0  0
 21 20  1  0  0  0  0
 21 22  1  0  0  0  0
 23 22  2  0  0  0  0
 24 23  1  0  0  0  0
 25 27  1  0  0  0  0
 25 24  2  0  0  0  0
 26 25  1  0  0  0  0
 27 21  2  0  0  0  0
M  END
>  <TORSDO>
F 6

$$$$
