C:\Qe-CaDD\Project\Data\Stage_6_Molecular_Dynamics\ligands_top\out_12931_EGFR_extracted.pdbqt
 OpenBabel01082506443D

 27 33  0  0  1  0  0  0  0  0999 V2000
   24.6720    0.1290   53.0130 N   0  0  1  0  0  0  0  0  0  0  0  0
   23.5010   -0.5780   53.2580 N   0  0  0  0  0  2  0  0  0  0  0  0
   22.2220   -0.2650   53.2740 C   0  0  0  0  0  2  0  0  0  0  0  0
   21.8820    1.0080   52.5090 C   0  0  2  0  0  3  0  0  0  0  0  0
   20.7620    1.7300   52.8850 C   0  0  0  0  0  2  0  0  0  0  0  0
   20.3410    3.0190   52.2730 C   0  0  0  0  0  3  0  0  0  0  0  0
   21.0100    3.6920   51.3950 C   0  0  0  0  0  0  0  0  0  0  0  0
   21.6980    4.5140   50.4000 C   0  0  0  0  0  3  0  0  0  0  0  0
   22.4570    3.8200   49.3590 N   0  0  0  0  0  2  0  0  0  0  0  0
   23.7150    3.3150   49.6460 C   0  0  2  0  0  3  0  0  0  0  0  0
   24.7400    3.2650   51.0420 C   0  0  2  0  0  3  0  0  0  0  0  0
   25.0010    2.2910   51.7700 N   0  0  2  0  0  0  0  0  0  0  0  0
   24.4990    1.2490   52.2360 C   0  0  1  0  0  3  0  0  0  0  0  0
   23.7010    2.0240   51.4240 C   0  0  1  0  0  0  0  0  0  0  0  0
   23.7650    3.1190   50.7480 N   0  0  2  0  0  4  0  0  0  0  0  0
   24.4920    4.1700   50.3620 C   0  0  2  0  0  0  0  0  0  0  0  0
   22.4170    1.3500   51.1850 C   0  0  0  0  0  2  0  0  0  0  0  0
   26.0570    0.2550   53.2500 C   0  0  0  0  0  3  0  0  0  0  0  0
   26.4920   -0.0580   54.6540 C   0  0  0  0  0  2  0  0  0  0  0  0
   28.0120    0.2540   54.6510 C   0  0  0  0  0  2  0  0  0  0  0  0
   28.6450   -0.5910   53.7150 N   0  0  0  0  0  0  0  0  0  0  0  0
   30.0130   -0.7110   53.6300 C   0  0  0  0  0  1  0  0  0  0  0  0
   27.7730   -1.4730   53.0340 C   0  0  0  0  0  2  0  0  0  0  0  0
   26.7670   -0.6650   52.2740 C   0  0  0  0  0  2  0  0  0  0  0  0
   25.7590    4.8370   50.4350 N   0  0  0  0  0  0  0  0  0  0  0  0
   25.8040    5.4150   51.3380 H   0  0  0  0  0  0  0  0  0  0  0  0
   26.6670    4.9340   49.8530 H   0  0  0  0  0  0  0  0  0  0  0  0
  1 18  1  1  0  0  0
  1  2  1  0  0  0  0
  2  3  1  0  0  0  0
  4 17  1  6  0  0  0
  4  5  1  0  0  0  0
  4  3  1  0  0  0  0
  6  5  1  0  0  0  0
  7  6  2  0  0  0  0
  8  7  2  0  0  0  0
  9  8  1  0  0  0  0
 10  9  1  1  0  0  0
 10 16  1  0  0  0  0
 10 15  1  0  0  0  0
 11 12  1  0  0  0  0
 12 13  1  0  0  0  0
 13  1  1  0  0  0  0
 14 12  1  0  0  0  0
 14 13  1  0  0  0  0
 15 11  1  0  0  0  0
 15 14  1  0  0  0  0
 16 25  1  0  0  0  0
 16 15  1  0  0  0  0
 16 11  1  0  0  0  0
 17 14  1  0  0  0  0
 18 19  1  0  0  0  0
 20 19  1  0  0  0  0
 21 20  1  0  0  0  0
 22 21  1  0  0  0  0
 23 21  1  0  0  0  0
 24 23  1  0  0  0  0
 24 18  1  0  0  0  0
 25 26  1  0  0  0  0
 27 25  1  0  0  0  0
M  END
>  <TORSDO>
F 3

$$$$
