C:\Qe-CaDD\Project\Data\Stage_6_Molecular_Dynamics\ligands_top\out_11486_EGFR_extracted.pdbqt
 OpenBabel01082506443D

 24 26  0  0  1  0  0  0  0  0999 V2000
   20.2080   -0.0660   52.8250 C   0  0  0  0  0  0  0  0  0  0  0  0
   20.5070   -0.7580   53.9130 C   0  0  0  0  0  3  0  0  0  0  0  0
   21.9330   -0.8220   54.1990 C   0  0  0  0  0  0  0  0  0  0  0  0
   22.2830   -1.3770   55.3120 N   0  0  0  0  0  0  0  0  0  0  0  0
   23.6570   -1.4400   55.6630 C   0  0  0  0  0  3  0  0  0  0  0  0
   24.6200   -0.9370   54.9290 N   0  0  0  0  0  0  0  0  0  0  0  0
   24.3060   -0.2750   53.7230 N   0  0  0  0  0  0  0  0  0  0  0  0
   22.9960   -0.4360   53.2770 C   0  0  2  0  0  3  0  0  0  0  0  0
   22.4780    0.3530   52.1670 C   0  0  0  0  0  3  0  0  0  0  0  0
   21.1910    0.5280   51.9310 C   0  0  0  0  0  0  0  0  0  0  0  0
   25.1800    0.5070   52.9620 N   0  0  0  0  0  0  0  0  0  0  0  0
   24.8270    1.0580   52.1450 H   0  0  0  0  0  0  0  0  0  0  0  0
   26.5680    0.6040   53.2370 C   0  0  0  0  0  0  0  0  0  0  0  0
   27.1950    1.7840   53.5680 C   0  0  0  0  0  3  0  0  0  0  0  0
   28.5580    1.7910   53.8240 C   0  0  0  0  0  3  0  0  0  0  0  0
   29.3240    0.6490   53.7580 C   0  0  0  0  0  3  0  0  0  0  0  0
   28.7080   -0.5420   53.4270 C   0  0  0  0  0  0  0  0  0  0  0  0
   29.6790   -2.0010   53.3420 Cl  0  0  0  0  0  0  0  0  0  0  0  0
   27.3400   -0.5330   53.1740 C   0  0  0  0  0  3  0  0  0  0  0  0
   20.8520    1.2840   50.8170 O   0  0  0  0  0  0  0  0  0  0  0  0
   21.2510    0.8590   49.5230 C   0  0  0  0  0  2  0  0  0  0  0  0
   22.3770    1.5670   49.1210 F   0  0  0  0  0  0  0  0  0  0  0  0
   18.8910    0.1240   52.4200 O   0  0  0  0  0  0  0  0  0  0  0  0
   18.0300   -0.9970   52.6560 C   0  0  0  0  0  1  0  0  0  0  0  0
  1  2  2  0  0  0  0
  2  3  1  0  0  0  0
  3  4  2  0  0  0  0
  4  5  1  0  0  0  0
  6  5  2  0  0  0  0
  7  6  1  0  0  0  0
  8  9  1  1  0  0  0
  8  7  1  0  0  0  0
  8  3  1  0  0  0  0
 10  9  2  0  0  0  0
 10  1  1  0  0  0  0
 11 13  1  0  0  0  0
 11  7  1  0  0  0  0
 12 11  1  0  0  0  0
 13 14  1  0  0  0  0
 14 15  2  0  0  0  0
 16 15  1  0  0  0  0
 17 16  2  0  0  0  0
 18 17  1  0  0  0  0
 19 13  2  0  0  0  0
 19 17  1  0  0  0  0
 20 10  1  0  0  0  0
 21 20  1  0  0  0  0
 22 21  1  0  0  0  0
 23 24  1  0  0  0  0
 23  1  1  0  0  0  0
M  END
>  <TORSDO>
F 5

$$$$
