C:\Qe-CaDD\Project\Data\Stage_6_Molecular_Dynamics\ligands_top\out_14070_EGFR_extracted.pdbqt
 OpenBabel01082506443D

 25 28  0  0  1  0  0  0  0  0999 V2000
   24.6470    3.4180   50.5180 C   0  0  0  0  0  0  0  0  0  0  0  0
   23.2680    3.5230   50.5040 C   0  0  0  0  0  3  0  0  0  0  0  0
   22.7970    2.5380   51.2240 O   0  0  0  0  0  0  0  0  0  0  0  0
   23.7550    1.7970   51.7070 C   0  0  0  0  0  0  0  0  0  0  0  0
   23.7710    0.6710   52.5030 C   0  0  0  0  0  3  0  0  0  0  0  0
   24.9540    0.0680   52.8780 C   0  0  0  0  0  3  0  0  0  0  0  0
   26.1860    0.5690   52.4690 C   0  0  0  0  0  0  0  0  0  0  0  0
   26.1300    1.6900   51.6760 C   0  0  0  0  0  3  0  0  0  0  0  0
   24.9620    2.3150   51.2840 C   0  0  0  0  0  0  0  0  0  0  0  0
   25.6030    4.2950   49.8520 C   0  0  0  0  0  0  0  0  0  0  0  0
   26.7920    3.9220   49.2610 C   0  0  0  0  0  3  0  0  0  0  0  0
   27.6170    4.8490   48.6610 C   0  0  0  0  0  3  0  0  0  0  0  0
   27.2750    6.1880   48.6340 C   0  0  0  0  0  0  0  0  0  0  0  0
   26.0860    6.5690   49.2250 C   0  0  0  0  0  3  0  0  0  0  0  0
   25.2510    5.6470   49.8300 C   0  0  0  0  0  3  0  0  0  0  0  0
   28.4220    7.2600   47.8340 S   0  0  2  0  0  0  0  0  0  0  0  0
   29.6490    6.4960   47.3550 O   0  0  0  0  0  0  0  0  0  0  0  0
   28.8910    8.6510   48.8480 C   0  0  0  0  0  2  0  0  0  0  0  0
   30.4020    8.6600   48.9910 C   0  0  0  0  0  1  0  0  0  0  0  0
   27.4320   -0.0750   52.8690 C   0  0  2  0  0  3  0  0  0  0  0  0
   27.6480   -1.3810   52.8590 C   0  0  0  0  0  3  0  0  0  0  0  0
   28.9130   -1.9890   53.2680 C   0  0  0  0  0  3  0  0  0  0  0  0
   29.8850   -1.2170   53.6640 C   0  0  0  0  0  3  0  0  0  0  0  0
   29.7290    0.2570   53.7060 C   0  0  0  0  0  3  0  0  0  0  0  0
   28.4790    0.7190   53.2940 O   0  0  0  0  0  0  0  0  0  0  0  0
  1  9  1  0  0  0  0
  2  1  2  0  0  0  0
  2  3  1  0  0  0  0
  3  4  1  0  0  0  0
  4  5  1  0  0  0  0
  5  6  2  0  0  0  0
  7  6  1  0  0  0  0
  8  7  2  0  0  0  0
  9  8  1  0  0  0  0
  9  4  2  0  0  0  0
 10  1  1  0  0  0  0
 11 10  2  0  0  0  0
 12 11  1  0  0  0  0
 13 12  2  0  0  0  0
 13 14  1  0  0  0  0
 14 15  2  0  0  0  0
 15 10  1  0  0  0  0
 16 17  2  1  0  0  0
 16 13  1  0  0  0  0
 16 18  1  0  0  0  0
 18 19  1  0  0  0  0
 20  7  1  1  0  0  0
 20 25  1  0  0  0  0
 21 20  1  0  0  0  0
 21 22  2  0  0  0  0
 22 23  1  0  0  0  0
 23 24  2  0  0  0  0
 25 24  1  0  0  0  0
M  END
>  <TORSDO>
F 4

$$$$
