C:\Qe-CaDD\Project\Data\Stage_6_Molecular_Dynamics\ligands_top\out_21821_EGFR_extracted.pdbqt
 OpenBabel01082506443D

 26 29  0  0  1  0  0  0  0  0999 V2000
   22.9230    1.7150   52.3200 C   0  0  0  0  0  0  0  0  0  0  0  0
   23.1200    2.2470   51.1280 C   0  0  2  0  0  0  0  0  0  0  0  0
   22.4620    2.6010   49.8960 C   0  0  0  0  0  2  0  0  0  0  0  0
   23.6770    2.9590   49.4870 N   0  0  2  0  0  0  0  0  0  0  0  0
   24.7700    2.7760   50.4270 C   0  0  1  0  0  3  0  0  0  0  0  0
   25.9900    3.1900   50.1200 C   0  0  0  0  0  0  0  0  0  0  0  0
   26.7370    2.7840   51.2840 C   0  0  0  0  0  3  0  0  0  0  0  0
   26.1200    2.0860   52.3610 N   0  0  0  0  0  0  0  0  0  0  0  0
   25.1620    2.1590   53.3960 C   0  0  0  0  0  2  0  0  0  0  0  0
   23.8500    1.5150   53.3880 C   0  0  0  0  0  3  0  0  0  0  0  0
   26.6970    0.7550   52.5040 C   0  0  0  0  0  0  0  0  0  0  0  0
   26.1280   -0.4460   52.2020 C   0  0  0  0  0  3  0  0  0  0  0  0
   26.8180   -1.6490   52.4050 C   0  0  0  0  0  3  0  0  0  0  0  0
   28.1150   -1.6340   52.9230 C   0  0  0  0  0  0  0  0  0  0  0  0
   28.7990   -2.7840   53.1270 F   0  0  0  0  0  0  0  0  0  0  0  0
   28.6050   -0.3800   53.1950 C   0  0  0  0  0  0  0  0  0  0  0  0
   30.2500   -0.3940   53.8630 Cl  0  0  0  0  0  0  0  0  0  0  0  0
   28.0020    0.8360   53.0270 C   0  0  0  0  0  3  0  0  0  0  0  0
   26.9590    3.8300   49.2090 N   0  0  0  0  0  0  0  0  0  0  0  0
   26.5820    3.8750   48.2250 H   0  0  0  0  0  0  0  0  0  0  0  0
   27.7090    4.0170   49.9040 H   0  0  0  0  0  0  0  0  0  0  0  0
   21.7260    1.1830   52.9300 O   0  0  0  0  0  0  0  0  0  0  0  0
   21.2410   -0.0790   52.5640 C   0  0  0  0  0  0  0  0  0  0  0  0
   20.0690   -0.4910   53.4620 C   0  0  0  0  0  1  0  0  0  0  0  0
   22.2680   -0.9960   52.6220 F   0  0  0  0  0  0  0  0  0  0  0  0
   20.8010   -0.0260   51.2310 F   0  0  0  0  0  0  0  0  0  0  0  0
  1 22  1  0  0  0  0
  1 10  2  0  0  0  0
  2  3  1  1  0  0  0
  2  1  1  0  0  0  0
  4  3  1  6  0  0  0
  4  5  1  0  0  0  0
  4  2  1  0  0  0  0
  5  6  1  1  0  0  0
  5  2  1  0  0  0  0
  6  7  2  0  0  0  0
  7  8  1  0  0  0  0
  8 11  1  0  0  0  0
  8  9  1  0  0  0  0
 10  9  1  0  0  0  0
 11 18  1  0  0  0  0
 12 13  1  0  0  0  0
 12 11  2  0  0  0  0
 13 14  2  0  0  0  0
 14 15  1  0  0  0  0
 14 16  1  0  0  0  0
 16 17  1  0  0  0  0
 18 16  2  0  0  0  0
 19 21  1  0  0  0  0
 19  6  1  0  0  0  0
 20 19  1  0  0  0  0
 23 25  1  0  0  0  0
 23 22  1  0  0  0  0
 23 24  1  0  0  0  0
 26 23  1  0  0  0  0
M  END
>  <TORSDO>
F 4

$$$$
