C:\Qe-CaDD\Project\Data\Stage_6_Molecular_Dynamics\ligands_top\out_12336_EGFR_extracted.pdbqt
 OpenBabel01082506443D

 32 35  0  0  1  0  0  0  0  0999 V2000
   23.1790    3.8850   52.2540 C   0  0  0  0  0  0  0  0  0  0  0  0
   22.0500    4.4340   51.8250 C   0  0  0  0  0  3  0  0  0  0  0  0
   20.9920    4.5200   50.7670 C   0  0  2  0  0  0  0  0  0  0  0  0
   19.7220    4.0460   51.5680 C   0  0  0  0  0  2  0  0  0  0  0  0
   20.1660    3.1730   52.5230 C   0  0  0  0  0  2  0  0  0  0  0  0
   21.2140    2.3440   51.9600 N   0  0  0  0  0  0  0  0  0  0  0  0
   21.5690    2.5360   50.6640 N   0  0  0  0  0  2  0  0  0  0  0  0
   21.1180    3.3620   49.8360 C   0  0  0  0  0  2  0  0  0  0  0  0
   22.1970    1.3730   52.3680 C   0  0  0  0  0  0  0  0  0  0  0  0
   21.6480    0.2410   52.9310 C   0  0  0  0  0  3  0  0  0  0  0  0
   22.4950   -0.7470   53.4060 C   0  0  0  0  0  0  0  0  0  0  0  0
   21.7890   -2.1870   54.1250 Cl  0  0  0  0  0  0  0  0  0  0  0  0
   23.8440   -0.5780   53.3060 C   0  0  0  0  0  3  0  0  0  0  0  0
   24.3840    0.5700   52.7340 C   0  0  0  0  0  3  0  0  0  0  0  0
   23.6070    1.5690   52.2510 C   0  0  0  0  0  0  0  0  0  0  0  0
   24.1010    2.7530   51.6120 C   0  0  2  0  0  0  0  0  0  0  0  0
   25.3050    3.3010   51.8940 O   0  0  0  0  0  0  0  0  0  0  0  0
   26.4470    2.9150   51.2660 C   0  0  0  0  0  2  0  0  0  0  0  0
   26.3480    3.3050   49.7780 C   0  0  0  0  0  2  0  0  0  0  0  0
   26.0260    4.7710   49.6550 C   0  0  0  0  0  2  0  0  0  0  0  0
   25.0370    4.9280   48.6120 N   0  0  0  0  0  0  0  0  0  0  0  0
   24.6210    6.2850   48.3730 C   0  0  0  0  0  2  0  0  0  0  0  0
   23.3510    6.2720   47.5670 C   0  0  0  0  0  2  0  0  0  0  0  0
   22.3150    5.6670   48.2950 O   0  0  0  0  0  0  0  0  0  0  0  0
   21.9760    6.3690   49.4360 C   0  0  0  0  0  2  0  0  0  0  0  0
   20.7960    5.8340   50.1810 C   0  0  0  0  0  2  0  0  0  0  0  0
   25.5040    4.6130   47.7120 H   0  0  0  0  0  0  0  0  0  0  0  0
   23.6560    4.3780   53.5840 C   0  0  0  0  0  2  0  0  0  0  0  0
   23.9780    5.6000   53.3930 N   0  0  0  0  0  2  0  0  0  0  0  0
   24.3460    6.2110   54.1400 H   0  0  0  0  0  0  0  0  0  0  0  0
   23.7730    2.8040   50.2620 O   0  0  0  0  0  0  0  0  0  0  0  0
   23.1150    2.0600   50.0370 H   0  0  0  0  0  0  0  0  0  0  0  0
  1 28  1  0  0  0  0
  2  1  2  0  0  0  0
  3  8  1  6  0  0  0
  3  4  1  0  0  0  0
  3  2  1  0  0  0  0
  4  5  1  0  0  0  0
  6  9  1  0  0  0  0
  6  5  1  0  0  0  0
  7  6  1  0  0  0  0
  8  7  1  0  0  0  0
  9 10  1  0  0  0  0
 10 11  2  0  0  0  0
 11 12  1  0  0  0  0
 13 11  1  0  0  0  0
 14 13  2  0  0  0  0
 15  9  2  0  0  0  0
 15 14  1  0  0  0  0
 16 31  1  6  0  0  0
 16 17  1  0  0  0  0
 16 15  1  0  0  0  0
 16  1  1  0  0  0  0
 18 17  1  0  0  0  0
 19 18  1  0  0  0  0
 20 19  1  0  0  0  0
 21 20  1  0  0  0  0
 22 21  1  0  0  0  0
 23 24  1  0  0  0  0
 23 22  1  0  0  0  0
 24 25  1  0  0  0  0
 25 26  1  0  0  0  0
 26  3  1  0  0  0  0
 27 21  1  0  0  0  0
 29 28  1  0  0  0  0
 29 30  1  0  0  0  0
 32 31  1  0  0  0  0
M  END
>  <TORSDO>
F 2

$$$$
