C:\Qe-CaDD\Project\Data\Stage_6_Molecular_Dynamics\ligands_top\out_16978_EGFR_extracted.pdbqt
 OpenBabel01082506443D

 25 27  0  0  1  0  0  0  0  0999 V2000
   22.6910   -0.9080   53.5290 C   0  0  0  0  0  3  0  0  0  0  0  0
   23.6520   -0.0090   53.1980 C   0  0  0  0  0  0  0  0  0  0  0  0
   25.0180   -0.1330   53.7860 C   0  0  0  0  0  2  0  0  0  0  0  0
   25.6750    1.3270   53.9480 P   0  0  1  0  0  4  0  0  0  0  0  0
   27.3700    1.3490   54.3010 N   0  0  0  0  0  0  0  0  0  0  0  0
   28.2390    1.9320   53.3400 C   0  0  0  0  0  2  0  0  0  0  0  0
   27.9070    2.4160   52.2130 N   0  0  0  0  0  0  0  0  0  0  0  0
   26.6280    2.4960   51.6560 C   0  0  0  0  0  0  0  0  0  0  0  0
   25.5490    2.0570   52.2860 C   0  0  1  0  0  3  0  0  0  0  0  0
   24.1710    2.0040   51.8310 C   0  0  0  0  0  3  0  0  0  0  0  0
   23.3080    1.0510   52.2570 C   0  0  0  0  0  0  0  0  0  0  0  0
   24.9450    2.1400   54.8540 H   0  0  0  0  0  0  0  0  0  0  0  0
   27.9680    1.0330   55.0730 H   0  0  0  0  0  0  0  0  0  0  0  0
   26.2500    2.9900   50.4680 O   0  0  0  0  0  0  0  0  0  0  0  0
   26.4050    4.1630   49.8290 C   0  0  0  0  0  0  0  0  0  0  0  0
   27.4040    4.4980   48.9390 C   0  0  0  0  0  3  0  0  0  0  0  0
   27.4380    5.7470   48.3580 C   0  0  0  0  0  3  0  0  0  0  0  0
   26.4380    6.6300   48.7050 C   0  0  0  0  0  3  0  0  0  0  0  0
   25.3800    6.3840   49.5990 C   0  0  0  0  0  0  0  0  0  0  0  0
   24.0410    7.6280   50.0470 Br  0  0  0  0  0  0  0  0  0  0  0  0
   25.4370    5.0870   50.1350 C   0  0  0  0  0  3  0  0  0  0  0  0
   22.0790    1.2530   51.6580 O   0  0  0  0  0  0  0  0  0  0  0  0
   21.9830    1.3880   50.2340 C   0  0  0  0  0  1  0  0  0  0  0  0
   21.4200   -0.8250   53.0070 O   0  0  0  0  0  0  0  0  0  0  0  0
   20.2540   -0.8280   53.7950 C   0  0  0  0  0  1  0  0  0  0  0  0
  2  1  2  0  0  0  0
  2  3  1  0  0  0  0
  3  4  1  0  0  0  0
  4  5  1  0  0  0  0
  4 12  1  1  0  0  0
  5 13  1  0  0  0  0
  6  5  1  0  0  0  0
  7  6  1  0  0  0  0
  8  7  2  0  0  0  0
  8  9  1  0  0  0  0
  9 10  1  6  0  0  0
  9  4  1  0  0  0  0
 10 11  2  0  0  0  0
 11  2  1  0  0  0  0
 14  8  1  0  0  0  0
 15 21  1  0  0  0  0
 15 14  1  0  0  0  0
 16 15  2  0  0  0  0
 17 18  2  0  0  0  0
 17 16  1  0  0  0  0
 18 19  1  0  0  0  0
 19 20  1  0  0  0  0
 19 21  2  0  0  0  0
 22 11  1  0  0  0  0
 23 22  1  0  0  0  0
 24  1  1  0  0  0  0
 24 25  1  0  0  0  0
M  END
>  <TORSDO>
F 4

$$$$
