C:\Qe-CaDD\Project\Data\Stage_6_Molecular_Dynamics\ligands_top\out_16894_EGFR_extracted.pdbqt
 OpenBabel01082506443D

 27 31  0  0  0  0  0  0  0  0999 V2000
   26.1360    2.3210   51.3390 C   0  0  0  0  0  0  0  0  0  0  0  0
   26.7340    3.2710   50.6120 N   0  0  0  0  0  0  0  0  0  0  0  0
   25.8670    4.0800   50.0030 C   0  0  0  0  0  0  0  0  0  0  0  0
   26.1210    5.1320   49.2060 N   0  0  0  0  0  0  0  0  0  0  0  0
   25.1130    5.8560   48.6670 C   0  0  0  0  0  3  0  0  0  0  0  0
   23.8390    5.4430   48.9880 C   0  0  0  0  0  3  0  0  0  0  0  0
   23.6840    4.3580   49.8100 C   0  0  0  0  0  3  0  0  0  0  0  0
   24.6600    3.6190   50.3610 N   0  0  0  0  0  0  0  0  0  0  0  0
   24.7950    2.5530   51.1680 C   0  0  0  0  0  0  0  0  0  0  0  0
   26.9410    1.3580   52.0450 C   0  0  0  0  0  0  0  0  0  0  0  0
   27.8070    1.7930   52.9380 C   0  0  0  0  0  3  0  0  0  0  0  0
   28.6990    0.9380   53.7310 C   0  0  0  0  0  2  0  0  0  0  0  0
   28.3230   -0.5220   54.0130 S   0  0  2  0  0  0  0  0  0  0  0  0
   29.6070   -1.5270   53.4290 N   0  0  0  0  0  2  0  0  0  0  0  0
   27.3130   -1.0430   52.5330 C   0  0  0  0  0  0  0  0  0  0  0  0
   27.9880   -0.9710   55.0640 H   0  0  0  0  0  0  0  0  0  0  0  0
   28.6860   -2.7870   53.3270 N   0  0  0  0  0  2  0  0  0  0  0  0
   27.5850   -2.4160   52.8670 C   0  0  0  0  0  2  0  0  0  0  0  0
   26.7760   -0.0480   51.9220 C   0  0  0  0  0  3  0  0  0  0  0  0
   23.7240    1.7790   51.6660 N   0  0  0  0  0  0  0  0  0  0  0  0
   23.1540    1.3720   50.9160 H   0  0  0  0  0  0  0  0  0  0  0  0
   23.0000    1.3120   52.8060 C   0  0  0  0  0  3  0  0  0  0  0  0
   23.6980    0.2180   53.5170 C   0  0  0  0  0  2  0  0  0  0  0  0
   22.8540   -0.8850   54.0670 C   0  0  0  0  0  2  0  0  0  0  0  0
   21.5220   -0.4550   54.5890 C   0  0  0  0  0  2  0  0  0  0  0  0
   20.8840    0.6360   53.7710 C   0  0  0  0  0  2  0  0  0  0  0  0
   21.6040    0.8260   52.4470 C   0  0  0  0  0  2  0  0  0  0  0  0
  1 10  1  0  0  0  0
  2  1  1  0  0  0  0
  3  8  1  0  0  0  0
  3  2  2  0  0  0  0
  4  3  1  0  0  0  0
  5  6  1  0  0  0  0
  5  4  2  0  0  0  0
  6  7  2  0  0  0  0
  7  8  1  0  0  0  0
  8  9  1  0  0  0  0
  9  1  2  0  0  0  0
  9 20  1  0  0  0  0
 10 11  2  0  0  0  0
 11 12  1  0  0  0  0
 12 13  1  0  0  0  0
 13 16  1  1  0  0  0
 14 13  1  0  0  0  0
 15 18  1  0  0  0  0
 15 13  1  0  0  0  0
 17 14  1  0  0  0  0
 18 17  1  0  0  0  0
 19 10  1  0  0  0  0
 19 15  2  0  0  0  0
 20 22  1  0  0  0  0
 21 20  1  0  0  0  0
 22 23  1  0  0  0  0
 23 24  1  0  0  0  0
 24 25  1  0  0  0  0
 26 25  1  0  0  0  0
 27 22  1  0  0  0  0
 27 26  1  0  0  0  0
M  END
>  <TORSDO>
F 3

$$$$
