C:\Qe-CaDD\Project\Data\Stage_6_Molecular_Dynamics\ligands_top\out_22415_EGFR_extracted.pdbqt
 OpenBabel01082506443D

 34 37  0  0  1  0  0  0  0  0999 V2000
   25.4180    6.4410   48.9760 N   0  0  0  0  0  0  0  0  0  0  0  0
   26.6570    5.5880   48.7670 C   0  0  0  0  0  2  0  0  0  0  0  0
   26.6060    4.4340   49.5440 C   0  0  0  0  0  2  0  0  0  0  0  0
   26.5480    3.5140   50.1510 C   0  0  1  0  0  3  0  0  0  0  0  0
   26.4650    2.3470   50.8940 C   0  0  1  0  0  3  0  0  0  0  0  0
   27.4790    2.9160   51.3360 O   0  0  0  0  0  0  0  0  0  0  0  0
   26.7950    1.3830   51.8400 N   0  0  2  0  0  0  0  0  0  0  0  0
   27.9320    1.3350   52.7970 C   0  0  0  0  0  2  0  0  0  0  0  0
   28.2460    0.0320   53.2550 N   0  0  0  0  0  2  0  0  0  0  0  0
   27.5590   -0.6350   54.1770 C   0  0  0  0  0  2  0  0  0  0  0  0
   26.0700   -0.5340   54.2380 C   0  0  0  0  0  0  0  0  0  0  0  0
   25.5610   -0.9170   55.4590 N   0  0  0  0  0  0  0  0  0  0  0  0
   24.2390   -0.8430   55.6110 C   0  0  0  0  0  3  0  0  0  0  0  0
   23.4500   -0.4030   54.5830 N   0  0  0  0  0  0  0  0  0  0  0  0
   23.9210   -0.0250   53.3910 C   0  0  0  0  0  0  0  0  0  0  0  0
   25.2880   -0.0770   53.1590 C   0  0  0  0  0  0  0  0  0  0  0  0
   25.8520    0.3090   51.8270 C   0  0  0  0  0  2  0  0  0  0  0  0
   22.7840    0.3440   52.6630 N   0  0  0  0  0  0  0  0  0  0  0  0
   21.7480   -0.2080   51.8760 C   0  0  0  0  0  2  0  0  0  0  0  0
   21.1890    0.3080   50.8220 C   0  0  0  0  0  2  0  0  0  0  0  0
   20.7130    1.0620   49.6840 C   0  0  0  0  0  2  0  0  0  0  0  0
   21.5470    2.0300   49.9130 C   0  0  2  0  0  3  0  0  0  0  0  0
   20.8900    2.4980   48.7810 F   0  0  0  0  0  0  0  0  0  0  0  0
   22.0250    3.2460   49.5230 C   0  0  0  0  0  0  0  0  0  0  0  0
   22.4390    4.2570   49.2110 C   0  0  0  0  0  0  0  0  0  0  0  0
   22.9670    5.5700   48.8340 C   0  0  2  0  0  3  0  0  0  0  0  0
   24.3960    5.4650   48.9300 C   0  0  0  0  0  2  0  0  0  0  0  0
   22.6270    1.3710   52.7060 H   0  0  0  0  0  0  0  0  0  0  0  0
   25.5090    7.0870   50.2740 C   0  0  0  0  0  2  0  0  0  0  0  0
   25.6960    8.5670   50.0680 C   0  0  0  0  0  2  0  0  0  0  0  0
   27.0940    9.0720   50.2880 C   0  0  0  0  0  2  0  0  0  0  0  0
   27.8880    9.2570   49.0210 C   0  0  0  0  0  1  0  0  0  0  0  0
   22.1480    6.6620   49.3680 C   0  0  0  0  0  2  0  0  0  0  0  0
   21.9410    6.6140   50.8410 C   0  0  0  0  0  1  0  0  0  0  0  0
  1 29  1  0  0  0  0
  2  1  1  0  0  0  0
  2  3  1  0  0  0  0
  4  3  1  6  0  0  0
  4  5  1  0  0  0  0
  4  6  1  0  0  0  0
  5  6  1  6  0  0  0
  5  7  1  0  0  0  0
  7 17  1  6  0  0  0
  7  8  1  0  0  0  0
  8  9  1  0  0  0  0
  9 10  1  0  0  0  0
 10 11  1  0  0  0  0
 11 12  1  0  0  0  0
 12 13  2  0  0  0  0
 14 13  1  0  0  0  0
 15 14  2  0  0  0  0
 16 15  1  0  0  0  0
 16 11  2  0  0  0  0
 17 16  1  0  0  0  0
 18 28  1  0  0  0  0
 18 15  1  0  0  0  0
 19 18  1  0  0  0  0
 20 19  1  0  0  0  0
 21 22  1  0  0  0  0
 21 20  1  0  0  0  0
 22 23  1  1  0  0  0
 24 22  1  0  0  0  0
 25 24  3  0  0  0  0
 26 27  1  0  0  0  0
 26 25  1  0  0  0  0
 26 33  1  1  0  0  0
 27  1  1  0  0  0  0
 30 29  1  0  0  0  0
 30 31  1  0  0  0  0
 32 31  1  0  0  0  0
 33 34  1  0  0  0  0
M  END
>  <TORSDO>
F 4

$$$$
