C:\Qe-CaDD\Project\Data\Stage_6_Molecular_Dynamics\ligands_top\out_22853_EGFR_extracted.pdbqt
 OpenBabel01082506443D

 34 37  0  0  1  0  0  0  0  0999 V2000
   23.1130    2.4540   51.6130 C   0  0  0  0  0  0  0  0  0  0  0  0
   22.2900    3.2670   52.3180 N   0  0  0  0  0  0  0  0  0  0  0  0
   22.5100    4.6130   52.2600 C   0  0  0  0  0  3  0  0  0  0  0  0
   23.5480    5.1340   51.5020 C   0  0  0  0  0  0  0  0  0  0  0  0
   23.6820    6.5020   51.5150 F   0  0  0  0  0  0  0  0  0  0  0  0
   24.3700    4.2780   50.7950 C   0  0  0  0  0  0  0  0  0  0  0  0
   24.1040    2.9550   50.8890 N   0  0  0  0  0  0  0  0  0  0  0  0
   22.8130    1.0730   51.7310 N   0  0  0  0  0  0  0  0  0  0  0  0
   22.4590    0.6780   50.8530 H   0  0  0  0  0  0  0  0  0  0  0  0
   22.9690    0.2920   52.9080 C   0  0  0  0  0  0  0  0  0  0  0  0
   21.8380   -0.1900   53.5230 C   0  0  0  0  0  3  0  0  0  0  0  0
   21.9140   -0.9650   54.6690 C   0  0  0  0  0  3  0  0  0  0  0  0
   23.1830   -1.2080   55.1330 C   0  0  0  0  0  3  0  0  0  0  0  0
   24.3500   -0.7660   54.5780 C   0  0  0  0  0  0  0  0  0  0  0  0
   24.2380    0.0180   53.4180 C   0  0  0  0  0  3  0  0  0  0  0  0
   25.6780   -0.9220   54.9180 O   0  0  0  0  0  0  0  0  0  0  0  0
   26.4900    0.2200   55.0590 C   0  0  0  0  0  2  0  0  0  0  0  0
   27.8610   -0.0410   54.5860 C   0  0  0  0  0  0  0  0  0  0  0  0
   28.5750   -1.0310   53.8610 N   0  0  0  0  0  0  0  0  0  0  0  0
   29.9910   -0.8380   53.6260 C   0  0  0  0  0  1  0  0  0  0  0  0
   27.9060   -1.7870   53.6160 H   0  0  0  0  0  0  0  0  0  0  0  0
   28.5340    0.9720   54.9950 O   0  0  0  0  0  0  0  0  0  0  0  0
   25.4360    4.8600   50.0270 C   0  0  0  0  0  0  0  0  0  0  0  0
   26.4370    4.0090   49.5400 C   0  0  0  0  0  3  0  0  0  0  0  0
   27.4880    4.4970   48.8000 C   0  0  0  0  0  3  0  0  0  0  0  0
   27.5670    5.8540   48.5250 C   0  0  0  0  0  0  0  0  0  0  0  0
   26.5550    6.6680   49.0260 C   0  0  0  0  0  0  0  0  0  0  0  0
   28.5730    6.6140   47.7670 C   0  0  1  0  0  3  0  0  0  0  0  0
   25.4940    6.1940   49.7700 C   0  0  0  0  0  3  0  0  0  0  0  0
   26.8400    8.0050   48.6270 N   0  0  0  0  0  0  0  0  0  0  0  0
   28.0520    8.0140   47.8650 C   0  0  0  0  0  0  0  0  0  0  0  0
   26.3080    8.8710   48.8180 H   0  0  0  0  0  0  0  0  0  0  0  0
   28.6380    8.9750   47.3400 O   0  0  0  0  0  0  0  0  0  0  0  0
   29.8080    6.6380   48.3870 F   0  0  0  0  0  0  0  0  0  0  0  0
  1  8  1  0  0  0  0
  1  2  2  0  0  0  0
  3  2  1  0  0  0  0
  4  5  1  0  0  0  0
  4  3  2  0  0  0  0
  6  7  2  0  0  0  0
  6  4  1  0  0  0  0
  7  1  1  0  0  0  0
  8 10  1  0  0  0  0
  9  8  1  0  0  0  0
 10 15  2  0  0  0  0
 10 11  1  0  0  0  0
 11 12  2  0  0  0  0
 12 13  1  0  0  0  0
 14 16  1  0  0  0  0
 14 13  2  0  0  0  0
 15 14  1  0  0  0  0
 16 17  1  0  0  0  0
 18 22  2  0  0  0  0
 18 17  1  0  0  0  0
 19 18  1  0  0  0  0
 20 19  1  0  0  0  0
 21 19  1  0  0  0  0
 23  6  1  0  0  0  0
 24 23  2  0  0  0  0
 25 24  1  0  0  0  0
 26 25  2  0  0  0  0
 26 27  1  0  0  0  0
 27 29  2  0  0  0  0
 28 31  1  0  0  0  0
 28 34  1  1  0  0  0
 28 26  1  0  0  0  0
 29 23  1  0  0  0  0
 30 32  1  0  0  0  0
 30 27  1  0  0  0  0
 31 30  1  0  0  0  0
 33 31  2  0  0  0  0
M  END
>  <TORSDO>
F 6

$$$$
