C:\Qe-CaDD\Project\Data\Stage_6_Molecular_Dynamics\ligands_top\out_10654_EGFR_extracted.pdbqt
 OpenBabel01082506443D

 32 36  0  0  0  0  0  0  0  0999 V2000
   22.7200   -1.7450   55.6630 O   0  0  0  0  0  0  0  0  0  0  0  0
   22.6480   -1.1080   54.5970 C   0  0  0  0  0  0  0  0  0  0  0  0
   21.4470   -0.9840   53.7360 C   0  0  0  0  0  2  0  0  0  0  0  0
   21.9190   -0.0870   52.6680 N   0  0  0  0  0  0  0  0  0  0  0  0
   23.2730    0.2110   52.8880 C   0  0  0  0  0  0  0  0  0  0  0  0
   24.0860    0.9850   52.1110 C   0  0  0  0  0  3  0  0  0  0  0  0
   25.4100    1.2270   52.4030 C   0  0  0  0  0  0  0  0  0  0  0  0
   26.2860    2.0060   51.6450 C   0  0  0  0  0  0  0  0  0  0  0  0
   27.5200    2.1000   52.1180 N   0  0  0  0  0  0  0  0  0  0  0  0
   27.9700    1.5200   53.2310 C   0  0  0  0  0  3  0  0  0  0  0  0
   27.1320    0.7620   53.9730 N   0  0  0  0  0  0  0  0  0  0  0  0
   25.8720    0.6220   53.5590 C   0  0  0  0  0  0  0  0  0  0  0  0
   25.0930   -0.1650   54.3760 C   0  0  0  0  0  3  0  0  0  0  0  0
   23.7740   -0.3730   54.0330 C   0  0  0  0  0  0  0  0  0  0  0  0
   20.8850    0.2120   51.7490 C   0  0  0  0  0  2  0  0  0  0  0  0
   19.8230    1.1640   52.1590 C   0  0  0  0  0  2  0  0  0  0  0  0
   20.4390    2.5000   52.6250 C   0  0  0  0  0  2  0  0  0  0  0  0
   20.9150    3.3030   51.5390 N   0  0  0  0  0  0  0  0  0  0  0  0
   19.8300    4.1860   51.1560 C   0  0  0  0  0  2  0  0  0  0  0  0
   20.2470    5.1380   50.0550 C   0  0  0  0  0  2  0  0  0  0  0  0
   21.5570    5.5830   50.2410 O   0  0  0  0  0  0  0  0  0  0  0  0
   21.9240    5.4740   51.5820 C   0  0  0  0  0  2  0  0  0  0  0  0
   22.0810    4.0360   51.9910 C   0  0  0  0  0  2  0  0  0  0  0  0
   25.7870    2.6070   50.4670 N   0  0  0  0  0  0  0  0  0  0  0  0
   25.1310    2.1300   49.8390 H   0  0  0  0  0  0  0  0  0  0  0  0
   26.0840    3.8980   49.9660 C   0  0  0  0  0  0  0  0  0  0  0  0
   27.1260    4.1640   49.1110 C   0  0  0  0  0  3  0  0  0  0  0  0
   27.4650    5.3850   48.5830 C   0  0  0  0  0  3  0  0  0  0  0  0
   26.6780    6.4770   48.9440 C   0  0  0  0  0  3  0  0  0  0  0  0
   25.6120    6.2950   49.7990 C   0  0  0  0  0  0  0  0  0  0  0  0
   24.5840    7.6210   50.2920 Cl  0  0  0  0  0  0  0  0  0  0  0  0
   25.3620    5.0280   50.2700 C   0  0  0  0  0  3  0  0  0  0  0  0
  2  1  2  0  0  0  0
  3  2  1  0  0  0  0
  4  5  1  0  0  0  0
  4  3  1  0  0  0  0
  5 14  1  0  0  0  0
  6  7  1  0  0  0  0
  6  5  2  0  0  0  0
  7 12  1  0  0  0  0
  8  9  1  0  0  0  0
  8  7  2  0  0  0  0
  9 10  2  0  0  0  0
 10 11  1  0  0  0  0
 12 11  2  0  0  0  0
 12 13  1  0  0  0  0
 14 13  2  0  0  0  0
 14  2  1  0  0  0  0
 15 16  1  0  0  0  0
 15  4  1  0  0  0  0
 16 17  1  0  0  0  0
 18 23  1  0  0  0  0
 18 17  1  0  0  0  0
 19 18  1  0  0  0  0
 20 21  1  0  0  0  0
 20 19  1  0  0  0  0
 21 22  1  0  0  0  0
 22 23  1  0  0  0  0
 24  8  1  0  0  0  0
 25 24  1  0  0  0  0
 26 32  1  0  0  0  0
 26 24  1  0  0  0  0
 27 26  2  0  0  0  0
 28 29  2  0  0  0  0
 28 27  1  0  0  0  0
 29 30  1  0  0  0  0
 30 32  2  0  0  0  0
 30 31  1  0  0  0  0
M  END
>  <TORSDO>
F 6

$$$$
