C:\Qe-CaDD\Project\Data\Stage_6_Molecular_Dynamics\ligands_top\out_10542_EGFR_extracted.pdbqt
 OpenBabel01082506443D

 33 35  0  0  0  0  0  0  0  0999 V2000
   23.2510    6.0260   50.7620 C   0  0  0  0  0  2  0  0  0  0  0  0
   22.8910    4.8490   50.3260 C   0  0  0  0  0  0  0  0  0  0  0  0
   22.1890    3.9830   51.1270 C   0  0  0  0  0  0  0  0  0  0  0  0
   21.9150    4.4110   52.3230 C   0  0  0  0  0  1  0  0  0  0  0  0
   21.7730    2.7280   50.7440 C   0  0  0  0  0  0  0  0  0  0  0  0
   22.0910    2.3500   49.4860 N   0  0  0  0  0  0  0  0  0  0  0  0
   22.7800    3.1920   48.6900 C   0  0  0  0  0  3  0  0  0  0  0  0
   23.1760    4.4150   49.0850 N   0  0  0  0  0  0  0  0  0  0  0  0
   21.0440    1.9550   51.7110 N   0  0  0  0  0  0  0  0  0  0  0  0
   19.9920    2.0930   51.6700 H   0  0  0  0  0  0  0  0  0  0  0  0
   21.5980    1.0790   52.6500 C   0  0  0  0  0  0  0  0  0  0  0  0
   22.9320    0.7280   52.5950 C   0  0  0  0  0  3  0  0  0  0  0  0
   23.4800   -0.1390   53.5150 C   0  0  0  0  0  3  0  0  0  0  0  0
   22.6910   -0.6760   54.5200 C   0  0  0  0  0  0  0  0  0  0  0  0
   23.1300   -1.6180   55.5790 C   0  0  0  0  0  1  0  0  0  0  0  0
   21.3570   -0.2980   54.5380 C   0  0  0  0  0  3  0  0  0  0  0  0
   20.7730    0.5670   53.6350 C   0  0  0  0  0  3  0  0  0  0  0  0
   23.9340    7.1200   50.0340 C   0  0  0  0  0  2  0  0  0  0  0  0
   25.2530    7.1620   50.5450 O   0  0  0  0  0  0  0  0  0  0  0  0
   26.1090    6.9460   49.4550 C   0  0  0  0  0  2  0  0  0  0  0  0
   26.5440    5.5440   49.3550 C   0  0  0  0  0  0  0  0  0  0  0  0
   27.3490    5.4750   48.4040 O   0  0  0  0  0  0  0  0  0  0  0  0
   26.2420    4.3740   50.0730 N   0  0  0  0  0  0  0  0  0  0  0  0
   25.5420    4.7800   50.7820 H   0  0  0  0  0  0  0  0  0  0  0  0
   26.4870    2.9810   50.2160 C   0  0  0  0  0  3  0  0  0  0  0  0
   26.7350    2.4970   51.5900 C   0  0  0  0  0  3  0  0  0  0  0  0
   26.7290    1.0240   51.7620 C   0  0  0  0  0  2  0  0  0  0  0  0
   27.2190    0.5880   53.0480 N   0  0  0  0  0  0  0  0  0  0  0  0
   28.0840    1.5560   53.6280 C   0  0  0  0  0  2  0  0  0  0  0  0
   29.1620    0.9750   54.4740 C   0  0  0  0  0  2  0  0  0  0  0  0
   29.8670    0.0710   53.6510 O   0  0  0  0  0  0  0  0  0  0  0  0
   29.0350   -1.0320   53.5380 C   0  0  0  0  0  2  0  0  0  0  0  0
   27.6890   -0.7470   52.9600 C   0  0  0  0  0  2  0  0  0  0  0  0
  2  1  1  0  0  0  0
  2  3  1  0  0  0  0
  3  4  1  0  0  0  0
  5  3  2  0  0  0  0
  5  9  1  0  0  0  0
  6  5  1  0  0  0  0
  7  8  1  0  0  0  0
  7  6  2  0  0  0  0
  8  2  2  0  0  0  0
  9 11  1  0  0  0  0
 10  9  1  0  0  0  0
 11 17  1  0  0  0  0
 12 11  2  0  0  0  0
 12 13  1  0  0  0  0
 13 14  2  0  0  0  0
 14 16  1  0  0  0  0
 14 15  1  0  0  0  0
 17 16  2  0  0  0  0
 18 19  1  0  0  0  0
 18  1  1  0  0  0  0
 20 19  1  0  0  0  0
 21 20  1  0  0  0  0
 21 23  1  0  0  0  0
 22 21  2  0  0  0  0
 23 25  1  0  0  0  0
 23 24  1  0  0  0  0
 25 26  2  0  0  0  0
 26 27  1  0  0  0  0
 27 28  1  0  0  0  0
 28 29  1  0  0  0  0
 29 30  1  0  0  0  0
 31 30  1  0  0  0  0
 32 31  1  0  0  0  0
 33 28  1  0  0  0  0
 33 32  1  0  0  0  0
M  END
>  <TORSDO>
F 11

$$$$
