C:\Qe-CaDD\Project\Data\Stage_6_Molecular_Dynamics\ligands_top\out_12452_EGFR_extracted.pdbqt
 OpenBabel01082506443D

 28 30  0  0  1  0  0  0  0  0999 V2000
   28.9050    5.6660   48.1370 C   0  0  0  0  0  3  0  0  0  0  0  0
   27.7830    5.6310   48.5770 C   0  0  0  0  0  0  0  0  0  0  0  0
   26.4420    5.5940   49.0860 C   0  0  0  0  0  0  0  0  0  0  0  0
   25.9730    6.7150   49.7350 C   0  0  0  0  0  3  0  0  0  0  0  0
   24.6910    6.7040   50.2330 C   0  0  0  0  0  3  0  0  0  0  0  0
   23.9290    5.5740   50.0610 C   0  0  0  0  0  3  0  0  0  0  0  0
   24.3250    4.4120   49.4220 C   0  0  0  0  0  0  0  0  0  0  0  0
   25.6190    4.5230   48.9640 C   0  0  0  0  0  3  0  0  0  0  0  0
   23.4510    3.2550   49.4030 C   0  0  0  0  0  0  0  0  0  0  0  0
   23.0330    2.9430   48.2000 N   0  0  0  0  0  0  0  0  0  0  0  0
   22.1470    1.8550   48.0490 C   0  0  0  0  0  3  0  0  0  0  0  0
   21.6750    1.1290   48.9720 N   0  0  0  0  0  0  0  0  0  0  0  0
   22.0060    1.3530   50.3960 C   0  0  0  0  0  2  0  0  0  0  0  0
   23.1530    2.2770   50.4440 C   0  0  0  0  0  0  0  0  0  0  0  0
   24.1350    2.1670   51.3650 C   0  0  0  0  0  0  0  0  0  0  0  0
   25.3690    2.7770   51.5080 O   0  0  0  0  0  0  0  0  0  0  0  0
   24.2150    1.3430   52.5650 C   0  0  0  0  0  0  0  0  0  0  0  0
   26.5900    2.0920   51.7090 C   0  0  0  0  0  2  0  0  0  0  0  0
   26.5840    1.3720   53.0400 C   0  0  0  0  0  2  0  0  0  0  0  0
   25.2470    1.2740   53.4680 O   0  0  0  0  0  0  0  0  0  0  0  0
   23.1650    0.5660   52.8460 C   0  0  0  0  0  3  0  0  0  0  0  0
   23.0700   -0.2700   53.9290 O   0  0  0  0  0  0  0  0  0  0  0  0
   21.9410   -0.5590   54.7070 C   0  0  2  0  0  3  0  0  0  0  0  0
   21.6570   -2.0300   54.6580 C   0  0  0  0  0  1  0  0  0  0  0  0
   20.7200    0.2460   54.3960 C   0  0  0  0  0  2  0  0  0  0  0  0
   19.6490   -0.6690   53.9450 N   0  0  0  0  0  0  0  0  0  0  0  0
   19.9810   -1.2610   53.1420 H   0  0  0  0  0  0  0  0  0  0  0  0
   18.8510   -0.1140   53.5750 H   0  0  0  0  0  0  0  0  0  0  0  0
  1  2  3  0  0  0  0
  2  3  1  0  0  0  0
  3  4  1  0  0  0  0
  4  5  2  0  0  0  0
  6  5  1  0  0  0  0
  7  6  2  0  0  0  0
  8  3  2  0  0  0  0
  8  7  1  0  0  0  0
  9  7  1  0  0  0  0
  9 14  1  0  0  0  0
 10  9  2  0  0  0  0
 11 10  1  0  0  0  0
 11 12  2  0  0  0  0
 12 13  1  0  0  0  0
 13 14  1  0  0  0  0
 14 15  2  0  0  0  0
 15 16  1  0  0  0  0
 15 17  1  0  0  0  0
 16 18  1  0  0  0  0
 17 21  2  0  0  0  0
 17 20  1  0  0  0  0
 18 19  1  0  0  0  0
 19 20  1  0  0  0  0
 21 22  1  0  0  0  0
 22 23  1  0  0  0  0
 23 24  1  6  0  0  0
 25 23  1  0  0  0  0
 26 25  1  0  0  0  0
 27 26  1  0  0  0  0
 28 26  1  0  0  0  0
M  END
>  <TORSDO>
F 5

$$$$
