C:\Qe-CaDD\Project\Data\Stage_6_Molecular_Dynamics\ligands_top\out_18312_EGFR_extracted.pdbqt
 OpenBabel01082506443D

 26 29  0  0  0  0  0  0  0  0999 V2000
   25.0620    3.1770   51.1520 C   0  0  0  0  0  0  0  0  0  0  0  0
   24.1190    3.5660   52.1200 C   0  0  0  0  0  3  0  0  0  0  0  0
   24.3950    3.0910   53.3850 C   0  0  0  0  0  3  0  0  0  0  0  0
   25.4510    2.3360   53.6760 N   0  0  0  0  0  0  0  0  0  0  0  0
   26.3430    1.9740   52.7410 C   0  0  0  0  0  0  0  0  0  0  0  0
   26.1340    2.4070   51.4640 N   0  0  0  0  0  0  0  0  0  0  0  0
   24.9090    3.6250   49.7870 N   0  0  0  0  0  0  0  0  0  0  0  0
   23.7830    3.0900   49.0520 C   0  0  0  0  0  1  0  0  0  0  0  0
   25.8500    4.5590   49.2440 C   0  0  0  0  0  0  0  0  0  0  0  0
   25.3840    5.8150   48.8920 C   0  0  0  0  0  3  0  0  0  0  0  0
   26.3160    6.7010   48.3580 C   0  0  0  0  0  3  0  0  0  0  0  0
   27.6530    6.4230   48.1560 C   0  0  0  0  0  0  0  0  0  0  0  0
   28.7030    7.1550   47.6490 C   0  0  0  0  0  0  0  0  0  0  0  0
   28.0810    5.1470   48.5240 C   0  0  0  0  0  0  0  0  0  0  0  0
   28.5800    8.5570   47.1580 C   0  0  0  0  0  1  0  0  0  0  0  0
   29.7750    6.3150   47.7110 N   0  0  0  0  0  0  0  0  0  0  0  0
   29.3900    5.1630   48.2200 N   0  0  0  0  0  0  0  0  0  0  0  0
   31.0990    6.6970   47.2710 C   0  0  0  0  0  1  0  0  0  0  0  0
   27.1670    4.2330   49.0630 C   0  0  0  0  0  3  0  0  0  0  0  0
   27.5170    1.1480   53.0490 C   0  0  0  0  0  0  0  0  0  0  0  0
   28.6820    1.5730   53.5690 C   0  0  0  0  0  2  0  0  0  0  0  0
   29.5920    0.4040   53.7160 C   0  0  0  0  0  3  0  0  0  0  0  0
   28.7310   -0.6770   53.2030 C   0  0  0  0  0  0  0  0  0  0  0  0
   27.5350   -0.2960   52.8100 C   0  0  0  0  0  3  0  0  0  0  0  0
   29.1550   -2.0590   53.1400 C   0  0  0  0  0  3  0  0  0  0  0  0
   28.7360   -3.1510   53.5390 O   0  0  0  0  0  0  0  0  0  0  0  0
  1  6  2  0  0  0  0
  1  2  1  0  0  0  0
  2  3  2  0  0  0  0
  3  4  1  0  0  0  0
  5 20  1  0  0  0  0
  5  4  2  0  0  0  0
  6  5  1  0  0  0  0
  7  1  1  0  0  0  0
  8  7  1  0  0  0  0
  9  7  1  0  0  0  0
 10  9  1  0  0  0  0
 11 10  2  0  0  0  0
 12 11  1  0  0  0  0
 12 14  1  0  0  0  0
 13 16  1  0  0  0  0
 13 12  2  0  0  0  0
 14 19  1  0  0  0  0
 15 13  1  0  0  0  0
 16 17  1  0  0  0  0
 17 14  2  0  0  0  0
 18 16  1  0  0  0  0
 19  9  2  0  0  0  0
 20 21  1  0  0  0  0
 21 22  1  0  0  0  0
 23 22  2  0  0  0  0
 24 20  2  0  0  0  0
 24 23  1  0  0  0  0
 25 23  1  0  0  0  0
 25 26  2  0  0  0  0
M  END
>  <TORSDO>
F 4

$$$$
