C:\Qe-CaDD\Project\Data\Stage_6_Molecular_Dynamics\ligands_top\out_22108_EGFR_extracted.pdbqt
 OpenBabel01082506443D

 29 31  0  0  0  0  0  0  0  0999 V2000
   26.7800    0.2000   52.3010 C   0  0  0  0  0  0  0  0  0  0  0  0
   25.6440   -0.2290   52.9900 C   0  0  0  0  0  0  0  0  0  0  0  0
   24.4580   -0.7450   53.7770 C   0  0  0  0  0  3  0  0  0  0  0  0
   23.1200   -0.4470   53.7420 N   0  0  0  0  0  2  0  0  0  0  0  0
   22.8410    0.5700   52.7150 C   0  0  0  0  0  3  0  0  0  0  0  0
   23.0960    1.8570   52.3380 C   0  0  0  0  0  0  0  0  0  0  0  0
   22.3340    1.8490   51.1880 C   0  0  0  0  0  0  0  0  0  0  0  0
   21.6520    1.8650   50.1360 N   0  0  0  0  0  0  0  0  0  0  0  0
   23.7150    3.2150   52.5670 C   0  0  0  0  0  2  0  0  0  0  0  0
   24.8220    3.3150   51.5830 N   0  0  0  0  0  0  0  0  0  0  0  0
   25.5960    2.2830   52.1530 C   0  0  0  0  0  2  0  0  0  0  0  0
   26.4640    1.3580   51.3270 C   0  0  0  0  0  2  0  0  0  0  0  0
   24.8880    4.2640   50.5430 C   0  0  0  0  0  0  0  0  0  0  0  0
   26.1890    4.2860   50.0330 C   0  0  0  0  0  3  0  0  0  0  0  0
   26.5220    5.2350   49.0480 C   0  0  0  0  0  0  0  0  0  0  0  0
   27.9080    5.2510   48.5260 C   0  0  0  0  0  1  0  0  0  0  0  0
   25.4820    6.0690   48.6830 C   0  0  0  0  0  0  0  0  0  0  0  0
   24.2210    6.0220   49.1910 C   0  0  0  0  0  0  0  0  0  0  0  0
   23.0630    7.1850   48.5890 Cl  0  0  0  0  0  0  0  0  0  0  0  0
   23.8960    5.0990   50.1490 C   0  0  0  0  0  3  0  0  0  0  0  0
   25.9720    7.0030   47.6880 O   0  0  0  0  0  0  0  0  0  0  0  0
   25.7650    8.3400   48.2160 C   0  0  0  0  0  2  0  0  0  0  0  0
   26.8930    8.7930   49.0100 C   0  0  0  0  0  3  0  0  0  0  0  0
   27.4140    9.2390   50.1310 C   0  0  0  0  0  2  0  0  0  0  0  0
   28.7280    9.2810   49.5120 C   0  0  0  0  0  2  0  0  0  0  0  0
   28.2360    8.8360   48.3660 C   0  0  0  0  0  2  0  0  0  0  0  0
   27.8270   -0.5060   52.6820 O   0  0  0  0  0  0  0  0  0  0  0  0
   28.5910   -0.2450   53.8220 C   0  0  0  0  0  2  0  0  0  0  0  0
   29.9490   -0.9060   53.7240 C   0  0  0  0  0  1  0  0  0  0  0  0
  1 27  1  0  0  0  0
  1  2  2  0  0  0  0
  2  3  2  0  0  0  0
  4  3  1  0  0  0  0
  5  4  1  0  0  0  0
  6  9  1  0  0  0  0
  6  5  2  0  0  0  0
  7  6  1  0  0  0  0
  8  7  3  0  0  0  0
 10 11  1  0  0  0  0
 10  9  1  0  0  0  0
 12 11  1  0  0  0  0
 12  1  1  0  0  0  0
 13 10  1  0  0  0  0
 14 13  2  0  0  0  0
 15 14  1  0  0  0  0
 16 15  1  0  0  0  0
 17 15  2  0  0  0  0
 17 18  1  0  0  0  0
 18 20  2  0  0  0  0
 19 18  1  0  0  0  0
 20 13  1  0  0  0  0
 21 22  1  0  0  0  0
 21 17  1  0  0  0  0
 22 23  1  0  0  0  0
 23 24  1  0  0  0  0
 25 24  1  0  0  0  0
 26 23  1  0  0  0  0
 26 25  1  0  0  0  0
 27 28  1  0  0  0  0
 29 28  1  0  0  0  0
M  END
>  <TORSDO>
F 6

$$$$
