C:\Qe-CaDD\Project\Data\Stage_6_Molecular_Dynamics\ligands_top\out_17762_EGFR_extracted.pdbqt
 OpenBabel01082506443D

 33 36  0  0  0  0  0  0  0  0999 V2000
   19.6540   -0.6460   53.2220 C   0  0  0  0  0  0  0  0  0  0  0  0
   20.1890   -1.6060   54.0310 N   0  0  0  0  0  0  0  0  0  0  0  0
   21.4680   -1.6060   54.3730 C   0  0  0  0  0  3  0  0  0  0  0  0
   22.3010   -0.6290   53.9190 C   0  0  0  0  0  0  0  0  0  0  0  0
   21.7980    0.3570   53.0990 C   0  0  0  0  0  3  0  0  0  0  0  0
   20.4700    0.3780   52.7280 C   0  0  0  0  0  0  0  0  0  0  0  0
   23.6830   -0.6510   54.3130 C   0  0  0  0  0  0  0  0  0  0  0  0
   24.3300   -1.2510   55.3570 C   0  0  0  0  0  3  0  0  0  0  0  0
   25.6470   -0.9860   55.2990 N   0  0  0  0  0  0  0  0  0  0  0  0
   25.8760   -0.2220   54.2350 N   0  0  0  0  0  0  0  0  0  0  0  0
   24.7090   -0.0120   53.6330 C   0  0  0  0  0  3  0  0  0  0  0  0
   27.1730    0.2510   53.8560 C   0  0  0  0  0  3  0  0  0  0  0  0
   28.2540   -0.0270   54.8770 C   0  0  0  0  0  2  0  0  0  0  0  0
   29.5740    0.1210   54.1080 C   0  0  0  0  0  2  0  0  0  0  0  0
   29.6390    1.3500   53.3710 N   0  0  0  0  0  0  0  0  0  0  0  0
   28.5990    2.2920   53.6710 C   0  0  0  0  0  2  0  0  0  0  0  0
   30.5520    1.8170   53.6560 H   0  0  0  0  0  0  0  0  0  0  0  0
   27.2090    1.7400   53.5960 C   0  0  0  0  0  2  0  0  0  0  0  0
   19.7950    1.2620   51.9340 O   0  0  0  0  0  0  0  0  0  0  0  0
   20.1740    2.5690   51.5950 C   0  0  0  0  0  2  0  0  0  0  0  0
   20.9310    2.5700   50.2950 C   0  0  0  0  0  0  0  0  0  0  0  0
   20.2390    2.3500   49.1100 C   0  0  0  0  0  0  0  0  0  0  0  0
   18.5170    2.0840   49.2190 Cl  0  0  0  0  0  0  0  0  0  0  0  0
   20.9200    2.3480   47.9110 C   0  0  0  0  0  3  0  0  0  0  0  0
   22.2760    2.5550   47.8150 C   0  0  0  0  0  3  0  0  0  0  0  0
   22.9540    2.7730   48.9960 C   0  0  0  0  0  0  0  0  0  0  0  0
   24.2930    2.9910   49.0230 F   0  0  0  0  0  0  0  0  0  0  0  0
   22.2960    2.7820   50.2260 C   0  0  0  0  0  0  0  0  0  0  0  0
   23.1440    3.0610   51.7460 Cl  0  0  0  0  0  0  0  0  0  0  0  0
   18.1880   -0.7240   52.8970 C   0  0  0  0  0  2  0  0  0  0  0  0
   17.6110   -1.6520   53.8720 N   0  0  0  0  0  0  0  0  0  0  0  0
   17.0690   -1.0780   54.5670 H   0  0  0  0  0  0  0  0  0  0  0  0
   18.4140   -2.0480   54.4340 H   0  0  0  0  0  0  0  0  0  0  0  0
  1  2  1  0  0  0  0
  2  3  2  0  0  0  0
  4  7  1  0  0  0  0
  4  3  1  0  0  0  0
  5  4  2  0  0  0  0
  6  5  1  0  0  0  0
  6  1  2  0  0  0  0
  7  8  1  0  0  0  0
  9  8  2  0  0  0  0
 10  9  1  0  0  0  0
 11 10  1  0  0  0  0
 11  7  2  0  0  0  0
 12 10  1  0  0  0  0
 12 13  1  0  0  0  0
 14 13  1  0  0  0  0
 15 17  1  0  0  0  0
 15 16  1  0  0  0  0
 15 14  1  0  0  0  0
 18 16  1  0  0  0  0
 18 12  1  0  0  0  0
 19  6  1  0  0  0  0
 20 19  1  0  0  0  0
 21 20  1  0  0  0  0
 22 23  1  0  0  0  0
 22 21  2  0  0  0  0
 24 22  1  0  0  0  0
 25 24  2  0  0  0  0
 25 26  1  0  0  0  0
 26 27  1  0  0  0  0
 26 28  2  0  0  0  0
 28 21  1  0  0  0  0
 28 29  1  0  0  0  0
 30  1  1  0  0  0  0
 30 31  1  0  0  0  0
 31 33  1  0  0  0  0
 31 32  1  0  0  0  0
M  END
>  <TORSDO>
F 7

$$$$
