C:\Qe-CaDD\Project\Data\Stage_6_Molecular_Dynamics\ligands_top\out_17496_EGFR_extracted.pdbqt
 OpenBabel01082506443D

 29 32  0  0  1  0  0  0  0  0999 V2000
   21.4680    1.1100   52.6370 C   0  0  2  0  0  3  0  0  0  0  0  0
   20.8890    2.4430   52.4810 C   0  0  0  0  0  3  0  0  0  0  0  0
   21.4550    3.6000   52.2130 C   0  0  0  0  0  3  0  0  0  0  0  0
   22.8700    3.8700   51.9920 C   0  0  0  0  0  0  0  0  0  0  0  0
   23.9370    3.3440   52.5570 N   0  0  0  0  0  0  0  0  0  0  0  0
   24.9810    2.6990   51.8300 N   0  0  0  0  0  0  0  0  0  0  0  0
   25.5940    3.3460   50.6880 C   0  0  0  0  0  3  0  0  0  0  0  0
   25.3100    4.4900   50.0860 C   0  0  0  0  0  0  0  0  0  0  0  0
   24.0270    5.1110   50.1250 N   0  0  0  0  0  0  0  0  0  0  0  0
   23.0590    4.9050   50.9500 C   0  0  0  0  0  0  0  0  0  0  0  0
   25.6490    1.4230   51.9600 C   0  0  0  0  0  2  0  0  0  0  0  0
   25.0170    0.4760   52.9160 C   0  0  2  0  0  0  0  0  0  0  0  0
   23.5700    0.6660   53.1850 C   0  0  0  0  0  2  0  0  0  0  0  0
   22.7790    0.9980   52.1160 O   0  0  0  0  0  0  0  0  0  0  0  0
   25.8090    0.0910   54.1770 C   0  0  0  0  0  2  0  0  0  0  0  0
   25.5840   -0.8930   53.0380 C   0  0  2  0  0  3  0  0  0  0  0  0
   26.3190    5.2160   49.3220 C   0  0  0  0  0  0  0  0  0  0  0  0
   27.5430    4.7330   48.9320 C   0  0  0  0  0  3  0  0  0  0  0  0
   28.4770    5.4410   48.2080 C   0  0  0  0  0  3  0  0  0  0  0  0
   28.1860    6.7360   47.8330 C   0  0  0  0  0  0  0  0  0  0  0  0
   29.3880    7.6170   46.9110 Cl  0  0  0  0  0  0  0  0  0  0  0  0
   26.9650    7.2570   48.2050 C   0  0  0  0  0  3  0  0  0  0  0  0
   26.0620    6.5090   48.9300 C   0  0  0  0  0  3  0  0  0  0  0  0
   21.6860    6.0730   50.8290 S   0  0  0  0  0  0  0  0  0  0  0  0
   21.3400    6.4940   52.1240 H   0  0  0  0  0  0  0  0  0  0  0  0
   26.7310   -1.2560   52.3730 O   0  0  0  0  0  0  0  0  0  0  0  0
   27.8720   -1.1480   53.1650 C   0  0  0  0  0  1  0  0  0  0  0  0
   20.5710    0.1080   52.0180 C   0  0  0  0  0  2  0  0  0  0  0  0
   19.4690   -0.1430   52.7040 C   0  0  0  0  0  1  0  0  0  0  0  0
  1 28  1  6  0  0  0
  2  1  1  0  0  0  0
  3  2  2  0  0  0  0
  4  3  1  0  0  0  0
  4  5  2  0  0  0  0
  6 11  1  0  0  0  0
  6  5  1  0  0  0  0
  7  6  1  0  0  0  0
  8  9  1  0  0  0  0
  8  7  2  0  0  0  0
  9 10  2  0  0  0  0
 10  4  1  0  0  0  0
 12 11  1  6  0  0  0
 12 16  1  0  0  0  0
 12 13  1  0  0  0  0
 12 15  1  0  0  0  0
 14  1  1  0  0  0  0
 14 13  1  0  0  0  0
 16 26  1  6  0  0  0
 16 15  1  0  0  0  0
 17  8  1  0  0  0  0
 18 17  1  0  0  0  0
 19 18  2  0  0  0  0
 20 22  2  0  0  0  0
 20 19  1  0  0  0  0
 21 20  1  0  0  0  0
 22 23  1  0  0  0  0
 23 17  2  0  0  0  0
 24 10  1  0  0  0  0
 24 25  1  0  0  0  0
 26 27  1  0  0  0  0
 28 29  1  0  0  0  0
M  END
>  <TORSDO>
F 4

$$$$
