C:\Qe-CaDD\Project\Data\Stage_6_Molecular_Dynamics\ligands_top\out_12441_EGFR_extracted.pdbqt
 OpenBabel01082506443D

 20 21  0  0  1  0  0  0  0  0999 V2000
   24.4950    0.0090   53.6330 C   0  0  0  0  0  0  0  0  0  0  0  0
   25.6920   -0.0310   54.0750 C   0  0  0  0  0  0  0  0  0  0  0  0
   24.7610    0.6290   52.4250 O   0  0  0  0  0  0  0  0  0  0  0  0
   24.4100    1.9700   52.1220 C   0  0  2  0  0  3  0  0  0  0  0  0
   23.4640    2.0490   50.9550 C   0  0  0  0  0  1  0  0  0  0  0  0
   25.5210    2.7970   51.9790 O   0  0  0  0  0  0  0  0  0  0  0  0
   26.4030    2.3450   51.0300 C   0  0  0  0  0  2  0  0  0  0  0  0
   26.5850    3.2790   49.8550 C   0  0  0  0  0  1  0  0  0  0  0  0
   23.1760   -0.3850   54.0590 C   0  0  0  0  0  0  0  0  0  0  0  0
   22.9130   -1.3650   54.8960 C   0  0  0  0  0  3  0  0  0  0  0  0
   21.5800   -1.6120   55.1990 O   0  0  0  0  0  0  0  0  0  0  0  0
   20.6510   -1.5630   54.1340 C   0  0  0  0  0  2  0  0  0  0  0  0
   20.8790   -0.3320   53.3020 C   0  0  0  0  0  2  0  0  0  0  0  0
   22.1020    0.3200   53.5510 O   0  0  0  0  0  0  0  0  0  0  0  0
   27.0780    0.1850   54.0400 C   0  0  0  0  0  0  0  0  0  0  0  0
   27.6400   -0.9190   53.6550 N   0  0  0  0  0  2  0  0  0  0  0  0
   29.0600   -0.9970   53.5250 C   0  0  0  0  0  3  0  0  0  0  0  0
   29.7480    0.0410   53.7980 N   0  0  0  0  0  0  0  0  0  0  0  0
   29.2080    1.3030   54.2320 C   0  0  0  0  0  2  0  0  0  0  0  0
   27.8020    1.3020   54.3350 O   0  0  0  0  0  0  0  0  0  0  0  0
  1  9  1  0  0  0  0
  1  2  2  0  0  0  0
  3  1  1  0  0  0  0
  4  5  1  6  0  0  0
  4  3  1  0  0  0  0
  6  4  1  0  0  0  0
  7  6  1  0  0  0  0
  8  7  1  0  0  0  0
  9 10  2  0  0  0  0
 10 11  1  0  0  0  0
 12 11  1  0  0  0  0
 13 14  1  0  0  0  0
 13 12  1  0  0  0  0
 14  9  1  0  0  0  0
 15  2  2  0  0  0  0
 15 20  1  0  0  0  0
 16 15  1  0  0  0  0
 17 16  1  0  0  0  0
 17 18  2  0  0  0  0
 18 19  1  0  0  0  0
 19 20  1  0  0  0  0
M  END
>  <TORSDO>
F 6

$$$$
