C:\Qe-CaDD\Project\Data\Stage_6_Molecular_Dynamics\ligands_top\out_11672_EGFR_extracted.pdbqt
 OpenBabel01082506443D

 25 27  0  0  1  0  0  0  0  0999 V2000
   26.5170    4.1270   49.5450 C   0  0  0  0  0  0  0  0  0  0  0  0
   27.6300    4.3230   48.9130 N   0  0  0  0  0  0  0  0  0  0  0  0
   27.7860    5.6570   48.4850 C   0  0  0  0  0  0  0  0  0  0  0  0
   26.7680    6.3420   48.8380 N   0  0  0  0  0  2  0  0  0  0  0  0
   25.8640    5.4530   49.5410 C   0  0  0  0  0  3  0  0  0  0  0  0
   26.2830    2.7450   50.0270 C   0  0  0  0  0  2  0  0  0  0  0  0
   26.6130    2.5030   51.4550 C   0  0  2  0  0  3  0  0  0  0  0  0
   26.9800    1.0150   51.6090 C   0  0  0  0  0  2  0  0  0  0  0  0
   26.8690    0.9040   53.0770 N   0  0  0  0  0  0  0  0  0  0  0  0
   27.5690   -0.0530   53.8830 C   0  0  0  0  0  0  0  0  0  0  0  0
   25.9440    1.9060   53.5920 C   0  0  0  0  0  2  0  0  0  0  0  0
   27.4650   -0.1370   55.1390 O   0  0  0  0  0  0  0  0  0  0  0  0
   25.3330    2.4760   52.3010 C   0  0  2  0  0  3  0  0  0  0  0  0
   28.4670   -1.0060   53.2640 C   0  0  0  0  0  2  0  0  0  0  0  0
   29.7330   -0.7910   53.5700 C   0  0  0  0  0  1  0  0  0  0  0  0
   24.4730    1.5740   51.7380 O   0  0  0  0  0  0  0  0  0  0  0  0
   23.2940    1.3410   52.3820 C   0  0  0  0  0  1  0  0  0  0  0  0
   28.9010    6.1860   47.7660 N   0  0  0  0  0  0  0  0  0  0  0  0
   28.7520    6.8590   46.9820 H   0  0  0  0  0  0  0  0  0  0  0  0
   30.2230    5.7970   48.1150 C   0  0  0  0  0  0  0  0  0  0  0  0
   31.0170    6.3290   49.1030 C   0  0  0  0  0  3  0  0  0  0  0  0
   32.1920    5.6400   49.0640 N   0  0  0  0  0  0  0  0  0  0  0  0
   32.1730    4.7280   48.1220 N   0  0  0  0  0  0  0  0  0  0  0  0
   33.2470    3.8000   47.7800 C   0  0  0  0  0  1  0  0  0  0  0  0
   30.9670    4.8050   47.5210 C   0  0  0  0  0  3  0  0  0  0  0  0
  1  6  1  0  0  0  0
  2  1  1  0  0  0  0
  3  4  1  0  0  0  0
  3  2  2  0  0  0  0
  4  5  1  0  0  0  0
  5  1  2  0  0  0  0
  7  6  1  6  0  0  0
  7  8  1  0  0  0  0
  7 13  1  0  0  0  0
  8  9  1  0  0  0  0
  9 11  1  0  0  0  0
  9 10  1  0  0  0  0
 10 12  2  0  0  0  0
 13 16  1  6  0  0  0
 13 11  1  0  0  0  0
 14 15  1  0  0  0  0
 14 10  1  0  0  0  0
 16 17  1  0  0  0  0
 18 20  1  0  0  0  0
 18  3  1  0  0  0  0
 19 18  1  0  0  0  0
 20 21  1  0  0  0  0
 22 21  2  0  0  0  0
 23 22  1  0  0  0  0
 24 23  1  0  0  0  0
 25 20  2  0  0  0  0
 25 23  1  0  0  0  0
M  END
>  <TORSDO>
F 6

$$$$
