C:\Qe-CaDD\Project\Data\Stage_6_Molecular_Dynamics\ligands_top\out_14248_EGFR_extracted.pdbqt
 OpenBabel01082506443D

 25 27  0  0  0  0  0  0  0  0999 V2000
   25.1240   -0.7030   54.2800 C   0  0  0  0  0  0  0  0  0  0  0  0
   24.4570   -1.2930   55.3330 C   0  0  0  0  0  3  0  0  0  0  0  0
   23.0890   -1.2800   55.4190 C   0  0  0  0  0  3  0  0  0  0  0  0
   22.3640   -0.6600   54.4290 C   0  0  0  0  0  0  0  0  0  0  0  0
   21.0190   -0.6790   54.5690 N   0  0  0  0  0  0  0  0  0  0  0  0
   20.2580   -0.0870   53.6300 C   0  0  0  0  0  3  0  0  0  0  0  0
   20.8870    0.4880   52.6060 N   0  0  0  0  0  0  0  0  0  0  0  0
   22.1960    0.5590   52.3830 C   0  0  0  0  0  0  0  0  0  0  0  0
   22.9450   -0.0440   53.3410 C   0  0  0  0  0  0  0  0  0  0  0  0
   24.3180   -0.1080   53.3390 C   0  0  0  0  0  3  0  0  0  0  0  0
   22.7900    1.1820   51.2820 N   0  0  0  0  0  0  0  0  0  0  0  0
   22.9150    0.6770   50.3820 H   0  0  0  0  0  0  0  0  0  0  0  0
   23.2980    2.4990   51.1550 C   0  0  0  0  0  0  0  0  0  0  0  0
   22.6920    3.5840   51.7450 C   0  0  0  0  0  3  0  0  0  0  0  0
   23.1440    4.8820   51.6540 C   0  0  0  0  0  3  0  0  0  0  0  0
   24.2840    5.1550   50.9300 C   0  0  0  0  0  3  0  0  0  0  0  0
   24.9270    4.1060   50.3210 C   0  0  0  0  0  0  0  0  0  0  0  0
   26.5070    4.4130   49.3050 Br  0  0  0  0  0  0  0  0  0  0  0  0
   24.4160    2.8380   50.4560 C   0  0  0  0  0  3  0  0  0  0  0  0
   26.5370   -0.7740   54.2890 N   0  0  0  0  0  0  0  0  0  0  0  0
   27.5110    0.2090   54.5570 C   0  0  0  0  0  0  0  0  0  0  0  0
   27.1150    1.3510   54.8400 O   0  0  0  0  0  0  0  0  0  0  0  0
   26.9960   -1.7060   54.0590 H   0  0  0  0  0  0  0  0  0  0  0  0
   28.9440   -0.0520   54.5170 C   0  0  0  0  0  3  0  0  0  0  0  0
   29.5920   -0.8210   53.6390 C   0  0  0  0  0  2  0  0  0  0  0  0
  1 20  1  0  0  0  0
  1  2  1  0  0  0  0
  2  3  2  0  0  0  0
  4  5  1  0  0  0  0
  4  3  1  0  0  0  0
  6  5  2  0  0  0  0
  7  6  1  0  0  0  0
  8  7  2  0  0  0  0
  8  9  1  0  0  0  0
  9  4  2  0  0  0  0
 10  9  1  0  0  0  0
 10  1  2  0  0  0  0
 11  8  1  0  0  0  0
 12 11  1  0  0  0  0
 13 11  1  0  0  0  0
 13 14  1  0  0  0  0
 15 14  2  0  0  0  0
 16 15  1  0  0  0  0
 17 19  1  0  0  0  0
 17 16  2  0  0  0  0
 18 17  1  0  0  0  0
 19 13  2  0  0  0  0
 20 21  1  0  0  0  0
 21 22  2  0  0  0  0
 23 20  1  0  0  0  0
 24 21  1  0  0  0  0
 25 24  2  0  0  0  0
M  END
>  <TORSDO>
F 4

$$$$
