C:\Qe-CaDD\Project\Data\Stage_6_Molecular_Dynamics\ligands_top\out_12138_EGFR_extracted.pdbqt
 OpenBabel01082506443D

 26 27  0  0  0  0  0  0  0  0999 V2000
   23.8220    0.7990   52.2030 C   0  0  0  0  0  0  0  0  0  0  0  0
   23.6400   -0.0140   53.3300 C   0  0  0  0  0  3  0  0  0  0  0  0
   22.4460   -0.6150   53.6660 C   0  0  0  0  0  0  0  0  0  0  0  0
   21.3630   -0.4020   52.8380 C   0  0  0  0  0  3  0  0  0  0  0  0
   21.5150    0.3950   51.7200 C   0  0  0  0  0  0  0  0  0  0  0  0
   22.7070    0.9870   51.3980 C   0  0  0  0  0  0  0  0  0  0  0  0
   25.1690    1.3670   51.9870 C   0  0  0  0  0  0  0  0  0  0  0  0
   25.4470    2.2680   53.1110 C   0  0  0  0  0  0  0  0  0  0  0  0
   26.4410    2.3760   53.9760 C   0  0  0  0  0  3  0  0  0  0  0  0
   27.4960    1.3940   53.7730 C   0  0  0  0  0  0  0  0  0  0  0  0
   27.3800    0.5180   52.7940 C   0  0  0  0  0  3  0  0  0  0  0  0
   26.2540    0.3910   51.8110 C   0  0  0  0  0  3  0  0  0  0  0  0
   24.3680    3.2320   53.2760 C   0  0  0  0  0  3  0  0  0  0  0  0
   23.8410    4.2830   52.6720 C   0  0  0  0  0  2  0  0  0  0  0  0
   28.5970    1.3940   54.6090 O   0  0  0  0  0  0  0  0  0  0  0  0
   29.5240    1.3040   54.1650 H   0  0  0  0  0  0  0  0  0  0  0  0
   22.9480    1.8000   50.2980 O   0  0  0  0  0  0  0  0  0  0  0  0
   22.3020    1.6760   49.5150 H   0  0  0  0  0  0  0  0  0  0  0  0
   22.3300   -1.4490   54.8560 C   0  0  0  0  0  0  0  0  0  0  0  0
   23.4310   -1.5190   55.7550 N   0  0  0  0  0  0  0  0  0  0  0  0
   24.1300   -2.2250   56.0240 H   0  0  0  0  0  0  0  0  0  0  0  0
   23.9100   -0.8880   56.4480 H   0  0  0  0  0  0  0  0  0  0  0  0
   21.2800   -2.0890   55.0770 O   0  0  0  0  0  0  0  0  0  0  0  0
   20.4440    0.6260   50.8710 O   0  0  0  0  0  0  0  0  0  0  0  0
   19.1970    1.1200   51.3310 C   0  0  0  0  0  2  0  0  0  0  0  0
   18.1740    0.0320   51.0470 C   0  0  0  0  0  1  0  0  0  0  0  0
  1  2  1  0  0  0  0
  2  3  2  0  0  0  0
  3 19  1  0  0  0  0
  4  3  1  0  0  0  0
  5  4  2  0  0  0  0
  6  5  1  0  0  0  0
  6  1  2  0  0  0  0
  7  1  1  0  0  0  0
  7  8  1  0  0  0  0
  8 13  1  0  0  0  0
  8  9  2  0  0  0  0
 10  9  1  0  0  0  0
 10 15  1  0  0  0  0
 11 10  2  0  0  0  0
 12  7  2  0  0  0  0
 12 11  1  0  0  0  0
 14 13  2  0  0  0  0
 16 15  1  0  0  0  0
 17  6  1  0  0  0  0
 18 17  1  0  0  0  0
 19 23  2  0  0  0  0
 19 20  1  0  0  0  0
 20 21  1  0  0  0  0
 20 22  1  0  0  0  0
 24 25  1  0  0  0  0
 24  5  1  0  0  0  0
 26 25  1  0  0  0  0
M  END
>  <TORSDO>
F 7

$$$$
