C:\Qe-CaDD\Project\Data\Stage_6_Molecular_Dynamics\ligands_top\out_16764_EGFR_extracted.pdbqt
 OpenBabel01082506443D

 20 21  0  0  1  0  0  0  0  0999 V2000
   30.6560    5.3830   47.8220 C   0  0  0  0  0  1  0  0  0  0  0  0
   29.2200    5.5860   48.1070 C   0  0  0  0  0  0  0  0  0  0  0  0
   28.4100    4.7270   48.6300 N   0  0  0  0  0  0  0  0  0  0  0  0
   27.1010    5.2310   48.7710 C   0  0  0  0  0  0  0  0  0  0  0  0
   26.0780    4.5920   49.2660 C   0  0  0  0  0  3  0  0  0  0  0  0
   27.1720    6.5880   48.2480 C   0  0  0  0  0  0  0  0  0  0  0  0
   26.1890    7.4650   48.1690 C   0  0  0  0  0  3  0  0  0  0  0  0
   24.5230    7.3790   48.6190 Cl  0  0  0  0  0  0  0  0  0  0  0  0
   28.5490    6.8970   47.7870 C   0  0  1  0  0  3  0  0  0  0  0  0
   29.1810    8.0000   48.6040 C   0  0  0  0  0  1  0  0  0  0  0  0
   26.3060    3.2210   49.7200 C   0  0  0  0  0  3  0  0  0  0  0  0
   25.9020    2.8390   50.9240 C   0  0  0  0  0  3  0  0  0  0  0  0
   26.0800    1.5690   51.4200 O   0  0  0  0  0  0  0  0  0  0  0  0
   27.0850    1.2840   52.3240 C   0  0  0  0  0  0  0  0  0  0  0  0
   27.2350   -0.0900   52.5130 C   0  0  0  0  0  3  0  0  0  0  0  0
   28.1980   -0.5730   53.3870 C   0  0  0  0  0  3  0  0  0  0  0  0
   29.0110    0.3030   54.0740 C   0  0  0  0  0  3  0  0  0  0  0  0
   28.8530    1.6580   53.8790 C   0  0  0  0  0  0  0  0  0  0  0  0
   29.6180    2.5960   54.5200 F   0  0  0  0  0  0  0  0  0  0  0  0
   27.8930    2.1540   53.0070 C   0  0  0  0  0  3  0  0  0  0  0  0
  1  2  1  0  0  0  0
  2  3  2  0  0  0  0
  3  4  1  0  0  0  0
  4  5  2  0  0  0  0
  5 11  1  0  0  0  0
  6  4  1  0  0  0  0
  7  6  2  0  0  0  0
  7  8  1  0  0  0  0
  9  2  1  0  0  0  0
  9  6  1  0  0  0  0
  9 10  1  1  0  0  0
 11 12  2  0  0  0  0
 12 13  1  0  0  0  0
 13 14  1  0  0  0  0
 14 15  2  0  0  0  0
 14 20  1  0  0  0  0
 15 16  1  0  0  0  0
 16 17  2  0  0  0  0
 18 17  1  0  0  0  0
 18 19  1  0  0  0  0
 20 18  2  0  0  0  0
M  END
>  <TORSDO>
F 3

$$$$
