C:\Qe-CaDD\Project\Data\Stage_6_Molecular_Dynamics\ligands_top\out_22916_EGFR_extracted.pdbqt
 OpenBabel01082506443D

 33 35  0  0  1  0  0  0  0  0999 V2000
   22.9550   -0.1140   53.7980 C   0  0  0  0  0  0  0  0  0  0  0  0
   22.4850   -1.2550   54.3160 N   0  0  0  0  0  0  0  0  0  0  0  0
   21.1950   -1.5730   54.1580 C   0  0  0  0  0  3  0  0  0  0  0  0
   20.3270   -0.7920   53.4950 N   0  0  0  0  0  0  0  0  0  0  0  0
   20.7460    0.3890   52.9430 C   0  0  0  0  0  0  0  0  0  0  0  0
   19.9150    1.2280   52.2630 C   0  0  0  0  0  3  0  0  0  0  0  0
   20.4620    2.3960   51.7560 C   0  0  0  0  0  0  0  0  0  0  0  0
   21.8180    2.7110   51.9330 C   0  0  0  0  0  0  0  0  0  0  0  0
   22.6460    1.8450   52.6260 C   0  0  0  0  0  3  0  0  0  0  0  0
   22.0730    0.6970   53.1160 C   0  0  0  0  0  0  0  0  0  0  0  0
   24.3410    0.0660   54.0540 N   0  0  0  0  0  0  0  0  0  0  0  0
   24.6260    0.8590   54.6780 H   0  0  0  0  0  0  0  0  0  0  0  0
   25.2360   -0.8550   53.4450 C   0  0  0  0  0  3  0  0  0  0  0  0
   26.5120   -1.1590   53.2380 C   0  0  0  0  0  3  0  0  0  0  0  0
   27.6640   -0.4070   53.7230 C   0  0  2  0  0  3  0  0  0  0  0  0
   27.7970    0.9310   53.1580 N   0  0  0  0  0  0  0  0  0  0  0  0
   28.9800    1.3530   53.9230 C   0  0  0  0  0  2  0  0  0  0  0  0
   29.9450    0.2180   53.5370 C   0  0  0  0  0  2  0  0  0  0  0  0
   29.0110   -0.9700   53.2380 C   0  0  0  0  0  2  0  0  0  0  0  0
   27.1440    1.7040   52.2060 C   0  0  0  0  0  0  0  0  0  0  0  0
   26.5660    2.3740   51.4000 C   0  0  0  0  0  0  0  0  0  0  0  0
   25.8400    3.1870   50.4300 C   0  0  0  0  0  2  0  0  0  0  0  0
   26.7860    3.7350   49.3790 C   0  0  0  0  0  3  0  0  0  0  0  0
   27.1820    4.9450   49.0380 C   0  0  0  0  0  3  0  0  0  0  0  0
   27.9580    5.8850   48.2260 C   0  0  0  0  0  1  0  0  0  0  0  0
   22.1840    3.9520   51.3490 N   0  0  0  0  0  0  0  0  0  0  0  0
   23.0200    5.0280   51.7280 C   0  0  0  0  0  0  0  0  0  0  0  0
   23.6800    5.1010   52.7840 O   0  0  0  0  0  0  0  0  0  0  0  0
   21.6040    3.8380   50.4770 H   0  0  0  0  0  0  0  0  0  0  0  0
   22.9850    6.0580   50.6540 C   0  0  0  0  0  2  0  0  0  0  0  0
   24.1720    6.9840   50.7700 C   0  0  0  0  0  1  0  0  0  0  0  0
   19.5780    3.2270   51.0660 O   0  0  0  0  0  0  0  0  0  0  0  0
   18.2700    3.5220   51.5440 C   0  0  0  0  0  1  0  0  0  0  0  0
  1 11  1  0  0  0  0
  1  2  1  0  0  0  0
  3  2  2  0  0  0  0
  4  3  1  0  0  0  0
  5 10  1  0  0  0  0
  5  4  2  0  0  0  0
  6  5  1  0  0  0  0
  7  8  1  0  0  0  0
  7  6  2  0  0  0  0
  8  9  2  0  0  0  0
  9 10  1  0  0  0  0
 10  1  2  0  0  0  0
 11 12  1  0  0  0  0
 13 11  1  0  0  0  0
 14 13  2  0  0  0  0
 15 14  1  6  0  0  0
 16 15  1  0  0  0  0
 16 17  1  0  0  0  0
 18 17  1  0  0  0  0
 19 18  1  0  0  0  0
 19 15  1  0  0  0  0
 20 16  1  0  0  0  0
 21 20  3  0  0  0  0
 22 21  1  0  0  0  0
 23 22  1  0  0  0  0
 24 23  2  0  0  0  0
 25 24  1  0  0  0  0
 26 27  1  0  0  0  0
 26  8  1  0  0  0  0
 27 28  2  0  0  0  0
 29 26  1  0  0  0  0
 30 31  1  0  0  0  0
 30 27  1  0  0  0  0
 32 33  1  0  0  0  0
 32  7  1  0  0  0  0
M  END
>  <TORSDO>
F 9

$$$$
