C:\Qe-CaDD\Project\Data\Stage_6_Molecular_Dynamics\ligands_top\out_22910_EGFR_extracted.pdbqt
 OpenBabel01082506443D

 29 35  0  0  1  0  0  0  0  0999 V2000
   21.1350    0.2240   50.5930 C   0  0  0  0  0  1  0  0  0  0  0  0
   22.0300    0.3480   51.6200 C   0  0  1  0  0  3  0  0  0  0  0  0
   21.6770    0.6690   53.0770 C   0  0  2  0  0  0  0  0  0  0  0  0
   22.9560    0.1810   52.9490 C   0  0  1  0  0  0  0  0  0  0  0  0
   22.6470   -0.7610   53.8850 N   0  0  0  0  0  0  0  0  0  0  0  0
   21.3850   -0.7860   54.4390 C   0  0  0  0  0  3  0  0  0  0  0  0
   20.3530    0.0500   54.1640 N   0  0  0  0  0  0  0  0  0  0  0  0
   20.4290    1.0520   53.2840 C   0  0  1  0  0  3  0  0  0  0  0  0
   19.8620    2.2550   52.6800 C   0  0  1  0  0  3  0  0  0  0  0  0
   20.8120    2.9980   51.7810 C   0  0  0  0  0  2  0  0  0  0  0  0
   22.2080    3.1610   52.3240 C   0  0  2  0  0  3  0  0  0  0  0  0
   22.4550    4.7230   52.4360 C   0  0  0  0  0  2  0  0  0  0  0  0
   23.9510    4.6690   52.6810 C   0  0  0  0  0  2  0  0  0  0  0  0
   24.4390    3.5690   52.0600 C   0  0  2  0  0  3  0  0  0  0  0  0
   23.2990    2.8450   51.3710 C   0  0  1  0  0  3  0  0  0  0  0  0
   24.1930    1.7290   51.3960 C   0  0  2  0  0  3  0  0  0  0  0  0
   24.0980    0.6120   52.2450 N   0  0  0  0  0  0  0  0  0  0  0  0
   25.3750    2.5800   51.6100 N   0  0  0  0  0  0  0  0  0  0  0  0
   24.8550   -0.0610   52.4820 H   0  0  0  0  0  0  0  0  0  0  0  0
   26.8060    2.5930   51.4820 C   0  0  0  0  0  2  0  0  0  0  0  0
   27.3700    1.7010   52.5250 C   0  0  0  0  0  0  0  0  0  0  0  0
   28.2550    2.3040   53.4060 C   0  0  0  0  0  3  0  0  0  0  0  0
   28.8570    1.6020   54.4320 C   0  0  0  0  0  3  0  0  0  0  0  0
   28.5250    0.2590   54.5290 C   0  0  0  0  0  3  0  0  0  0  0  0
   27.6460   -0.3000   53.6370 C   0  0  0  0  0  3  0  0  0  0  0  0
   27.0520    0.3850   52.6280 N   0  0  0  0  0  0  0  0  0  0  0  0
   18.7180    1.9490   51.9800 O   0  0  0  0  0  0  0  0  0  0  0  0
   18.3230    2.9700   51.1170 C   0  0  0  0  0  2  0  0  0  0  0  0
   17.1000    3.7170   51.5880 C   0  0  0  0  0  1  0  0  0  0  0  0
  2  1  1  1  0  0  0
  2  4  1  0  0  0  0
  2  3  1  0  0  0  0
  3  8  1  0  0  0  0
  3  7  1  1  0  0  0
  4  3  1  0  0  0  0
  4  5  1  1  0  0  0
  5  6  2  0  0  0  0
  7  6  1  0  0  0  0
  8  7  1  1  0  0  0
  9 27  1  6  0  0  0
  9  8  1  0  0  0  0
 10  9  1  0  0  0  0
 11 10  1  6  0  0  0
 11 12  1  0  0  0  0
 12 13  1  0  0  0  0
 14 13  1  1  0  0  0
 15 16  1  0  0  0  0
 15 14  1  0  0  0  0
 15 11  1  0  0  0  0
 16 18  1  0  0  0  0
 16 17  1  0  0  0  0
 17 19  1  0  0  0  0
 17  4  1  0  0  0  0
 18 14  1  0  0  0  0
 20 18  1  0  0  0  0
 20 21  1  0  0  0  0
 21 26  2  0  0  0  0
 21 22  1  0  0  0  0
 22 23  2  0  0  0  0
 23 24  1  0  0  0  0
 25 24  2  0  0  0  0
 26 25  1  0  0  0  0
 28 29  1  0  0  0  0
 28 27  1  0  0  0  0
M  END
>  <TORSDO>
F 4

$$$$
