C:\Qe-CaDD\Project\Data\Stage_6_Molecular_Dynamics\ligands_top\out_13812_EGFR_extracted.pdbqt
 OpenBabel01082506443D

 29 34  0  0  1  0  0  0  0  0999 V2000
   18.6490   -0.1130   52.2000 C   0  0  0  0  0  0  0  0  0  0  0  0
   18.3170   -1.2380   52.9640 C   0  0  0  0  0  3  0  0  0  0  0  0
   19.2370   -1.8130   53.8520 C   0  0  0  0  0  3  0  0  0  0  0  0
   20.4740   -1.2420   53.9540 C   0  0  0  0  0  0  0  0  0  0  0  0
   21.4170   -1.7770   54.7950 N   0  0  0  0  0  0  0  0  0  0  0  0
   22.6150   -1.2640   54.8980 C   0  0  2  0  0  3  0  0  0  0  0  0
   22.8040   -0.2230   54.1410 N   0  0  0  0  0  0  0  0  0  0  0  0
   21.9730    0.3840   53.2910 C   0  0  0  0  0  0  0  0  0  0  0  0
   20.7180   -0.1390   53.1690 C   0  0  0  0  0  0  0  0  0  0  0  0
   19.9030    0.4970   52.2770 C   0  0  0  0  0  3  0  0  0  0  0  0
   22.5320    1.5540   52.5300 N   0  0  0  0  0  0  0  0  0  0  0  0
   23.8800    1.3700   52.7400 C   0  0  0  0  0  2  0  0  0  0  0  0
   25.1640    1.7460   52.4660 C   0  0  0  0  0  2  0  0  0  0  0  0
   26.1050    1.0560   53.1980 C   0  0  0  0  0  0  0  0  0  0  0  0
   27.3830    1.4230   52.9250 C   0  0  0  0  0  3  0  0  0  0  0  0
   28.5080    0.8930   53.5010 C   0  0  0  0  0  3  0  0  0  0  0  0
   28.3800   -0.0960   54.4400 C   0  0  0  0  0  3  0  0  0  0  0  0
   27.1150   -0.4570   54.7080 N   0  0  0  0  0  0  0  0  0  0  0  0
   25.9830    0.0220   54.1810 C   0  0  0  0  0  0  0  0  0  0  0  0
   25.2530   -0.8100   54.9930 C   0  0  0  0  0  2  0  0  0  0  0  0
   23.9280   -1.0920   55.3030 N   0  0  2  0  0  4  0  0  0  0  0  0
   21.8490    2.1450   52.0890 H   0  0  0  0  0  0  0  0  0  0  0  0
   23.6760   -1.2970   56.3010 H   0  0  0  0  0  0  0  0  0  0  0  0
   17.6660    0.4510   51.2840 C   0  0  0  0  0  0  0  0  0  0  0  0
   16.9700    1.6400   51.3870 C   0  0  0  0  0  3  0  0  0  0  0  0
   16.1800    1.7210   50.2990 N   0  0  0  0  0  0  0  0  0  0  0  0
   15.2570    2.7960   49.9610 C   0  0  0  0  0  1  0  0  0  0  0  0
   16.3420    0.6540   49.5200 N   0  0  0  0  0  0  0  0  0  0  0  0
   17.2640   -0.1570   50.1100 C   0  0  0  0  0  3  0  0  0  0  0  0
  1 10  2  0  0  0  0
  1  2  1  0  0  0  0
  2  3  2  0  0  0  0
  3  4  1  0  0  0  0
  4  5  2  0  0  0  0
  6  5  1  6  0  0  0
  6 21  1  0  0  0  0
  7  6  1  0  0  0  0
  7 21  1  0  0  0  0
  8  7  1  0  0  0  0
  9  8  2  0  0  0  0
  9  4  1  0  0  0  0
 10  9  1  0  0  0  0
 11 12  1  0  0  0  0
 11  8  1  0  0  0  0
 13 12  1  0  0  0  0
 13 14  1  0  0  0  0
 14 19  1  0  0  0  0
 15 14  2  0  0  0  0
 15 16  1  0  0  0  0
 16 17  2  0  0  0  0
 17 18  1  0  0  0  0
 19 18  2  0  0  0  0
 19 20  1  0  0  0  0
 20 21  1  0  0  0  0
 21 23  1  1  0  0  0
 22 11  1  0  0  0  0
 24 25  2  0  0  0  0
 24  1  1  0  0  0  0
 26 25  1  0  0  0  0
 27 26  1  0  0  0  0
 28 29  2  0  0  0  0
 28 26  1  0  0  0  0
 29 24  1  0  0  0  0
M  END
>  <TORSDO>
F 1

$$$$
