C:\Qe-CaDD\Project\Data\Stage_6_Molecular_Dynamics\ligands_top\out_20642_EGFR_extracted.pdbqt
 OpenBabel01082506443D

 27 30  0  0  1  0  0  0  0  0999 V2000
   23.5880   -1.1750   54.4690 C   0  0  0  0  0  3  0  0  0  0  0  0
   24.4930   -0.3940   53.9300 C   0  0  0  0  0  0  0  0  0  0  0  0
   25.8860   -0.9020   53.8940 C   0  0  0  0  0  3  0  0  0  0  0  0
   27.0560   -0.4190   53.4360 C   0  0  0  0  0  0  0  0  0  0  0  0
   28.7910   -1.1830   53.4570 Br  0  0  0  0  0  0  0  0  0  0  0  0
   26.5590    0.8440   52.9090 C   0  0  0  0  0  0  0  0  0  0  0  0
   26.4760    0.9080   51.5630 C   0  0  0  0  0  2  0  0  0  0  0  0
   26.1730    2.2850   51.1860 C   0  0  2  0  0  3  0  0  0  0  0  0
   26.4960    3.2800   50.3750 C   0  0  0  0  0  2  0  0  0  0  0  0
   25.6950    4.4320   50.6070 N   0  0  0  0  0  0  0  0  0  0  0  0
   24.5570    3.9350   51.4040 C   0  0  2  0  0  3  0  0  0  0  0  0
   25.0420    2.7180   52.0970 C   0  0  2  0  0  0  0  0  0  0  0  0
   25.6690    2.9780   53.4420 C   0  0  0  0  0  2  0  0  0  0  0  0
   26.1670    1.8540   53.8210 N   0  0  0  0  0  0  0  0  0  0  0  0
   24.0440    1.7130   52.2810 N   0  0  0  0  0  0  0  0  0  0  0  0
   24.1770    0.9030   53.4000 N   0  0  0  0  0  0  0  0  0  0  0  0
   25.9180    5.3890   50.2620 H   0  0  0  0  0  0  0  0  0  0  0  0
   23.1350    2.2540   52.4420 H   0  0  0  0  0  0  0  0  0  0  0  0
   23.9580    1.3770   54.3340 H   0  0  0  0  0  0  0  0  0  0  0  0
   23.4860    3.6830   50.3950 C   0  0  0  0  0  0  0  0  0  0  0  0
   23.2420    3.1030   49.2320 C   0  0  0  0  0  3  0  0  0  0  0  0
   21.8480    3.2980   48.8550 C   0  0  0  0  0  0  0  0  0  0  0  0
   21.1720    2.6630   47.3730 Cl  0  0  0  0  0  0  0  0  0  0  0  0
   21.2220    3.9950   49.7690 C   0  0  0  0  0  3  0  0  0  0  0  0
   22.1830    4.3100   50.8270 C   0  0  0  0  0  2  0  0  0  0  0  0
   22.2310   -0.6600   54.4960 C   0  0  0  0  0  3  0  0  0  0  0  0
   21.2470   -1.4940   54.2050 C   0  0  0  0  0  2  0  0  0  0  0  0
  1 26  1  0  0  0  0
  2  1  2  0  0  0  0
  3  2  1  0  0  0  0
  4  5  1  0  0  0  0
  4  3  2  0  0  0  0
  6  4  1  0  0  0  0
  6 14  2  0  0  0  0
  7  6  1  0  0  0  0
  8  9  1  1  0  0  0
  8  7  1  0  0  0  0
  8 12  1  0  0  0  0
  9 10  1  0  0  0  0
 10 11  1  0  0  0  0
 11 20  1  6  0  0  0
 11 12  1  0  0  0  0
 12 15  1  0  0  0  0
 12 13  1  1  0  0  0
 13 14  1  0  0  0  0
 15 18  1  0  0  0  0
 15 16  1  0  0  0  0
 16  2  1  0  0  0  0
 16 19  1  0  0  0  0
 17 10  1  0  0  0  0
 20 25  1  0  0  0  0
 21 20  2  0  0  0  0
 22 21  1  0  0  0  0
 22 24  2  0  0  0  0
 23 22  1  0  0  0  0
 24 25  1  0  0  0  0
 27 26  2  0  0  0  0
M  END
>  <TORSDO>
F 2

$$$$
