C:\Qe-CaDD\Project\Data\Stage_6_Molecular_Dynamics\ligands_top\out_18573_EGFR_extracted.pdbqt
 OpenBabel01082506443D

 23 25  0  0  1  0  0  0  0  0999 V2000
   23.4330    2.2200   50.5380 C   0  0  0  0  0  0  0  0  0  0  0  0
   23.1060    2.5710   49.3690 N   0  0  0  0  0  0  0  0  0  0  0  0
   22.0220    2.1250   48.5650 C   0  0  0  0  0  3  0  0  0  0  0  0
   21.1520    1.1090   49.1640 C   0  0  0  0  0  3  0  0  0  0  0  0
   21.4560    0.7180   50.3730 C   0  0  0  0  0  3  0  0  0  0  0  0
   22.5730    1.1970   51.1730 C   0  0  0  0  0  0  0  0  0  0  0  0
   22.8640    0.8020   52.3950 C   0  0  0  0  0  2  0  0  0  0  0  0
   24.5780    2.7910   51.1950 N   0  0  0  0  0  0  0  0  0  0  0  0
   24.3300    3.4830   51.9370 H   0  0  0  0  0  0  0  0  0  0  0  0
   25.8920    2.3590   50.7750 C   0  0  1  0  0  3  0  0  0  0  0  0
   26.6610    3.4870   50.1380 C   0  0  0  0  0  1  0  0  0  0  0  0
   26.6420    1.6620   51.8120 C   0  0  0  0  0  0  0  0  0  0  0  0
   26.5040    0.2930   51.9980 C   0  0  0  0  0  3  0  0  0  0  0  0
   27.1780   -0.4340   52.9530 C   0  0  0  0  0  3  0  0  0  0  0  0
   28.0520    0.2310   53.7890 C   0  0  0  0  0  0  0  0  0  0  0  0
   28.7730   -0.3770   54.7690 F   0  0  0  0  0  0  0  0  0  0  0  0
   28.2480    1.5980   53.6700 C   0  0  0  0  0  3  0  0  0  0  0  0
   27.5440    2.2610   52.6950 C   0  0  0  0  0  3  0  0  0  0  0  0
   22.3130   -0.1410   53.3570 C   0  0  0  0  0  0  0  0  0  0  0  0
   21.2260   -0.7280   53.8150 C   0  0  0  0  0  0  0  0  0  0  0  0
   19.4190   -0.5190   53.2340 Br  0  0  0  0  0  0  0  0  0  0  0  0
   21.9890   -1.4730   54.8070 C   0  0  0  0  0  2  0  0  0  0  0  0
   23.0730   -0.8880   54.3510 C   0  0  0  0  0  2  0  0  0  0  0  0
  1  6  1  0  0  0  0
  1  8  1  0  0  0  0
  2  1  2  0  0  0  0
  3  4  2  0  0  0  0
  3  2  1  0  0  0  0
  4  5  1  0  0  0  0
  5  6  2  0  0  0  0
  6  7  1  0  0  0  0
  7 19  1  0  0  0  0
  8  9  1  0  0  0  0
 10 11  1  1  0  0  0
 10  8  1  0  0  0  0
 10 12  1  0  0  0  0
 12 13  2  0  0  0  0
 12 18  1  0  0  0  0
 13 14  1  0  0  0  0
 14 15  2  0  0  0  0
 15 16  1  0  0  0  0
 17 15  1  0  0  0  0
 18 17  2  0  0  0  0
 19 20  2  0  0  0  0
 19 23  1  0  0  0  0
 20 22  1  0  0  0  0
 21 20  1  0  0  0  0
 23 22  1  0  0  0  0
M  END
>  <TORSDO>
F 4

$$$$
