C:\Qe-CaDD\Project\Data\Stage_6_Molecular_Dynamics\ligands_top\out_22922_EGFR_extracted.pdbqt
 OpenBabel01082506443D

 27 27  0  0  1  0  0  0  0  0999 V2000
   26.8330   -0.8100   52.6340 C   0  0  0  0  0  1  0  0  0  0  0  0
   28.1040   -0.9150   53.0810 C   0  0  0  0  0  2  0  0  0  0  0  0
   29.7590   -0.9550   53.7370 Cl  0  0  0  0  0  0  0  0  0  0  0  0
   26.6320    0.4740   53.5100 C   0  0  0  0  0  2  0  0  0  0  0  0
   25.1630    0.6400   53.2680 N   0  0  0  0  0  0  0  0  0  0  0  0
   24.3400   -0.5210   53.6730 C   0  0  0  0  0  2  0  0  0  0  0  0
   24.2730    1.6690   52.7490 C   0  0  0  0  0  2  0  0  0  0  0  0
   26.1460    0.5490   53.4400 F   0  0  0  0  0  0  0  0  0  0  0  0
   22.9740   -0.4390   53.2500 N   0  0  0  0  0  2  0  0  0  0  0  0
   22.0180    0.2030   53.6990 C   0  0  0  0  0  2  0  0  0  0  0  0
   20.6680    0.7140   53.8250 N   0  0  0  0  0  2  0  0  0  0  0  0
   20.4410    1.7210   52.9850 C   0  0  0  0  0  3  0  0  0  0  0  0
   21.3690    2.2860   52.0250 C   0  0  0  0  0  0  0  0  0  0  0  0
   22.4810    2.4600   51.2820 C   0  0  0  0  0  0  0  0  0  0  0  0
   23.5760    1.4160   51.4940 C   0  0  0  0  0  2  0  0  0  0  0  0
   26.3450    1.5660   54.2350 C   0  0  0  0  0  2  0  0  0  0  0  0
   22.7240    3.4660   50.3500 O   0  0  0  0  0  0  0  0  0  0  0  0
   23.4940    3.3610   49.1930 C   0  0  0  0  0  2  0  0  0  0  0  0
   23.7410    4.7560   48.6800 C   0  0  0  0  0  2  0  0  0  0  0  0
   25.0120    5.3290   49.2030 C   0  0  1  0  0  3  0  0  0  0  0  0
   25.4510    6.5620   48.4790 C   0  0  2  0  0  3  0  0  0  0  0  0
   26.9220    6.7770   48.8380 C   0  0  0  0  0  1  0  0  0  0  0  0
   24.6140    7.7500   48.8360 C   0  0  0  0  0  2  0  0  0  0  0  0
   24.1020    7.7630   50.0950 O   0  0  0  0  0  0  0  0  0  0  0  0
   24.5680    6.8930   51.0180 C   0  0  0  0  0  2  0  0  0  0  0  0
   24.9180    5.5710   50.6080 N   0  0  0  0  0  0  0  0  0  0  0  0
   24.4430    4.8050   51.1330 H   0  0  0  0  0  0  0  0  0  0  0  0
  1  2  1  0  0  0  0
  2  3  1  0  0  0  0
  4 16  1  0  0  0  0
  5  6  1  0  0  0  0
  5 16  1  0  0  0  0
  7  5  1  0  0  0  0
  8  4  1  0  0  0  0
  9  6  1  0  0  0  0
  9 10  1  0  0  0  0
 10 11  1  0  0  0  0
 12 11  1  0  0  0  0
 13 12  2  0  0  0  0
 14 15  1  0  0  0  0
 14 13  2  0  0  0  0
 15  7  1  0  0  0  0
 17 14  1  0  0  0  0
 18 17  1  0  0  0  0
 19 18  1  0  0  0  0
 20 19  1  6  0  0  0
 20 26  1  0  0  0  0
 21 23  1  0  0  0  0
 21 22  1  1  0  0  0
 21 20  1  0  0  0  0
 23 24  1  0  0  0  0
 24 25  1  0  0  0  0
 26 25  1  0  0  0  0
 26 27  1  0  0  0  0
M  END
>  <TORSDO>
F 5

$$$$
