C:\Qe-CaDD\Project\Data\Stage_6_Molecular_Dynamics\ligands_top\out_22867_EGFR_extracted.pdbqt
 OpenBabel01082506443D

 28 30  0  0  1  0  0  0  0  0999 V2000
   26.0670    2.5060   51.0160 C   0  0  0  0  0  0  0  0  0  0  0  0
   26.4490    1.3190   51.3880 C   0  0  0  0  0  3  0  0  0  0  0  0
   26.5730    0.6760   52.6340 C   0  0  0  0  0  0  0  0  0  0  0  0
   27.8790    1.1440   52.9070 C   0  0  0  0  0  3  0  0  0  0  0  0
   28.6490    0.8870   54.0280 N   0  0  0  0  0  0  0  0  0  0  0  0
   28.0710    0.0860   54.9740 C   0  0  0  0  0  3  0  0  0  0  0  0
   26.8370   -0.3710   54.7370 N   0  0  0  0  0  0  0  0  0  0  0  0
   26.1210   -0.1060   53.6470 C   0  0  0  0  0  0  0  0  0  0  0  0
   24.9010   -0.8200   53.7850 N   0  0  0  0  0  0  0  0  0  0  0  0
   23.5770   -0.3250   53.8440 C   0  0  2  0  0  3  0  0  0  0  0  0
   22.5670   -0.6820   54.6610 C   0  0  0  0  0  2  0  0  0  0  0  0
   21.3130   -0.4740   53.8970 C   0  0  0  0  0  2  0  0  0  0  0  0
   21.6260   -0.0190   52.6940 C   0  0  0  0  0  0  0  0  0  0  0  0
   22.8980    0.7280   53.0160 C   0  0  0  0  0  2  0  0  0  0  0  0
   20.7860   -0.3420   51.5680 N   0  0  0  0  0  0  0  0  0  0  0  0
   20.9660    0.2680   50.4620 C   0  0  0  0  0  0  0  0  0  0  0  0
   21.4960    1.1580   49.4540 C   0  0  0  0  0  0  0  0  0  0  0  0
   21.7070    1.8070   48.3380 C   0  0  0  0  0  3  0  0  0  0  0  0
   22.7200    2.8040   48.1440 C   0  0  0  0  0  3  0  0  0  0  0  0
   23.5340    3.0940   49.1980 C   0  0  0  0  0  2  0  0  0  0  0  0
   24.6340    3.9760   49.4960 C   0  0  0  0  0  2  0  0  0  0  0  0
   25.9220    3.3100   49.8260 C   0  0  0  0  0  2  0  0  0  0  0  0
   25.0060   -1.8860   53.8550 H   0  0  0  0  0  0  0  0  0  0  0  0
   25.7440    3.1610   52.1850 N   0  0  0  0  0  0  0  0  0  0  0  0
   26.5400    3.6930   52.6630 H   0  0  0  0  0  0  0  0  0  0  0  0
   24.4580    3.1840   52.8120 C   0  0  0  0  0  2  0  0  0  0  0  0
   23.8090    4.5240   52.8550 C   0  0  0  0  0  3  0  0  0  0  0  0
   22.7080    4.8120   52.4150 O   0  0  0  0  0  0  0  0  0  0  0  0
  1  2  2  0  0  0  0
  1 24  1  0  0  0  0
  2  3  1  0  0  0  0
  3  4  2  0  0  0  0
  3  8  1  0  0  0  0
  4  5  1  0  0  0  0
  5  6  2  0  0  0  0
  7  6  1  0  0  0  0
  8  9  1  0  0  0  0
  8  7  2  0  0  0  0
  9 10  1  0  0  0  0
  9 23  1  0  0  0  0
 10 14  1  6  0  0  0
 10 11  1  0  0  0  0
 12 11  1  0  0  0  0
 13 14  1  0  0  0  0
 13 12  1  0  0  0  0
 15 13  2  0  0  0  0
 16 15  1  0  0  0  0
 17 16  3  0  0  0  0
 18 17  1  0  0  0  0
 19 18  2  0  0  0  0
 19 20  1  0  0  0  0
 20 21  1  0  0  0  0
 21 22  1  0  0  0  0
 22  1  1  0  0  0  0
 24 25  1  0  0  0  0
 24 26  1  0  0  0  0
 26 27  1  0  0  0  0
 28 27  2  0  0  0  0
M  END
>  <TORSDO>
F 3

$$$$
