C:\Qe-CaDD\Project\Data\Stage_6_Molecular_Dynamics\ligands_top\out_11995_EGFR_extracted.pdbqt
 OpenBabel01082506443D

 23 24  0  0  0  0  0  0  0  0999 V2000
   24.5900    1.7140   51.4140 C   0  0  0  0  0  3  0  0  0  0  0  0
   24.2130    2.9600   51.2430 C   0  0  0  0  0  3  0  0  0  0  0  0
   23.7980    3.9720   52.1690 C   0  0  0  0  0  0  0  0  0  0  0  0
   23.4690    4.7810   52.9350 N   0  0  0  0  0  0  0  0  0  0  0  0
   24.7400    0.8640   52.5760 C   0  0  0  0  0  0  0  0  0  0  0  0
   25.9780    0.7420   53.2160 C   0  0  0  0  0  3  0  0  0  0  0  0
   26.0980   -0.0690   54.3120 C   0  0  0  0  0  0  0  0  0  0  0  0
   25.0230   -0.7670   54.7970 C   0  0  0  0  0  0  0  0  0  0  0  0
   23.7650   -0.7380   54.2730 C   0  0  0  0  0  0  0  0  0  0  0  0
   23.7210    0.1160   53.1490 C   0  0  0  0  0  3  0  0  0  0  0  0
   27.2670   -0.2600   55.0110 O   0  0  0  0  0  0  0  0  0  0  0  0
   28.5390    0.0420   54.5210 C   0  0  0  0  0  2  0  0  0  0  0  0
   29.0750   -1.0270   53.6070 C   0  0  0  0  0  1  0  0  0  0  0  0
   25.1240   -1.5920   55.8980 O   0  0  0  0  0  0  0  0  0  0  0  0
   25.7010   -1.4110   56.7040 H   0  0  0  0  0  0  0  0  0  0  0  0
   22.4440   -1.3230   54.5870 C   0  0  0  0  0  2  0  0  0  0  0  0
   21.1120   -0.1710   54.5970 S   0  0  0  0  0  0  0  0  0  0  0  0
   19.8260   -0.3170   53.4450 C   0  0  0  0  0  0  0  0  0  0  0  0
   20.1900    0.4540   52.3350 C   0  0  0  0  0  3  0  0  0  0  0  0
   19.3760    0.5400   51.1970 C   0  0  0  0  0  3  0  0  0  0  0  0
   18.1720   -0.1560   51.1590 C   0  0  0  0  0  3  0  0  0  0  0  0
   17.7830   -0.9270   52.2350 C   0  0  0  0  0  3  0  0  0  0  0  0
   18.6240   -0.9690   53.3170 C   0  0  0  0  0  3  0  0  0  0  0  0
  1  5  1  0  0  0  0
  2  1  2  0  0  0  0
  2  3  1  0  0  0  0
  3  4  3  0  0  0  0
  5 10  2  0  0  0  0
  5  6  1  0  0  0  0
  6  7  2  0  0  0  0
  7  8  1  0  0  0  0
  7 11  1  0  0  0  0
  8 14  1  0  0  0  0
  9 16  1  0  0  0  0
  9  8  2  0  0  0  0
 10  9  1  0  0  0  0
 12 11  1  0  0  0  0
 13 12  1  0  0  0  0
 14 15  1  0  0  0  0
 16 17  1  0  0  0  0
 18 17  1  0  0  0  0
 19 18  2  0  0  0  0
 20 19  1  0  0  0  0
 21 20  2  0  0  0  0
 21 22  1  0  0  0  0
 22 23  2  0  0  0  0
 23 18  1  0  0  0  0
M  END
>  <TORSDO>
F 7

$$$$
