C:\Qe-CaDD\Project\Data\Stage_6_Molecular_Dynamics\ligands_top\out_13823_EGFR_extracted.pdbqt
 OpenBabel01082506443D

 28 32  0  0  0  0  0  0  0  0999 V2000
   24.3000    0.8420   52.6510 C   0  0  0  0  0  0  0  0  0  0  0  0
   23.9910    1.5580   51.5150 C   0  0  0  0  0  0  0  0  0  0  0  0
   22.7160    1.4800   51.0000 C   0  0  0  0  0  3  0  0  0  0  0  0
   21.7880    0.6760   51.6560 C   0  0  0  0  0  3  0  0  0  0  0  0
   22.0660   -0.0560   52.7980 C   0  0  0  0  0  0  0  0  0  0  0  0
   21.1290   -0.8150   53.3880 N   0  0  0  0  0  0  0  0  0  0  0  0
   21.4050   -1.5270   54.5060 C   0  0  0  0  0  3  0  0  0  0  0  0
   22.6770   -1.4670   55.0450 C   0  0  0  0  0  3  0  0  0  0  0  0
   23.6230   -0.6820   54.4230 C   0  0  0  0  0  3  0  0  0  0  0  0
   23.3610    0.0510   53.2820 C   0  0  0  0  0  0  0  0  0  0  0  0
   24.9960    2.3590   50.9110 N   0  0  0  0  0  0  0  0  0  0  0  0
   25.8730    1.9310   50.5440 H   0  0  0  0  0  0  0  0  0  0  0  0
   24.9390    3.7470   50.7420 C   0  0  0  0  0  0  0  0  0  0  0  0
   23.9180    4.3010   51.4200 N   0  0  0  0  0  0  0  0  0  0  0  0
   23.6990    5.6480   51.3800 C   0  0  0  0  0  3  0  0  0  0  0  0
   24.5050    6.4470   50.6600 N   0  0  0  0  0  0  0  0  0  0  0  0
   25.5350    5.9140   49.9750 C   0  0  0  0  0  0  0  0  0  0  0  0
   26.3900    6.7080   49.2230 C   0  0  0  0  0  3  0  0  0  0  0  0
   25.7750    4.5560   50.0000 C   0  0  0  0  0  0  0  0  0  0  0  0
   27.4220    6.0920   48.5480 C   0  0  0  0  0  3  0  0  0  0  0  0
   27.6360    4.7250   48.5940 C   0  0  0  0  0  3  0  0  0  0  0  0
   26.7850    3.9150   49.3470 C   0  0  0  0  0  3  0  0  0  0  0  0
   25.6110    0.8360   53.2980 C   0  0  0  0  0  0  0  0  0  0  0  0
   26.6360   -0.0860   53.1960 C   0  0  0  0  0  3  0  0  0  0  0  0
   27.6810    0.2660   53.9520 N   0  0  0  0  0  0  0  0  0  0  0  0
   28.9450   -0.3930   54.1440 C   0  0  0  0  0  1  0  0  0  0  0  0
   27.3470    1.3990   54.5360 N   0  0  0  0  0  0  0  0  0  0  0  0
   26.0980    1.7860   54.1710 C   0  0  0  0  0  3  0  0  0  0  0  0
  1 10  1  0  0  0  0
  1 23  1  0  0  0  0
  2  1  2  0  0  0  0
  3  2  1  0  0  0  0
  3  4  2  0  0  0  0
  4  5  1  0  0  0  0
  5 10  2  0  0  0  0
  5  6  1  0  0  0  0
  6  7  2  0  0  0  0
  7  8  1  0  0  0  0
  9  8  2  0  0  0  0
 10  9  1  0  0  0  0
 11  2  1  0  0  0  0
 12 11  1  0  0  0  0
 13 11  1  0  0  0  0
 13 14  1  0  0  0  0
 15 14  2  0  0  0  0
 16 15  1  0  0  0  0
 17 19  1  0  0  0  0
 17 16  2  0  0  0  0
 18 17  1  0  0  0  0
 19 13  2  0  0  0  0
 20 21  1  0  0  0  0
 20 18  2  0  0  0  0
 21 22  2  0  0  0  0
 22 19  1  0  0  0  0
 23 28  1  0  0  0  0
 24 23  2  0  0  0  0
 24 25  1  0  0  0  0
 25 26  1  0  0  0  0
 25 27  1  0  0  0  0
 28 27  2  0  0  0  0
M  END
>  <TORSDO>
F 3

$$$$
