C:\Qe-CaDD\Project\Data\Stage_6_Molecular_Dynamics\ligands_top\out_22380_EGFR_extracted.pdbqt
 OpenBabel01082506443D

 24 26  0  0  1  0  0  0  0  0999 V2000
   26.4130    2.3500   51.2160 C   0  0  2  0  0  3  0  0  0  0  0  0
   27.1970    2.3580   52.3420 C   0  0  0  0  0  2  0  0  0  0  0  0
   27.8580    1.3560   53.0140 C   0  0  0  0  0  3  0  0  0  0  0  0
   27.5140    0.4120   53.9520 C   0  0  0  0  0  0  0  0  0  0  0  0
   26.2230    0.2190   54.2580 N   0  0  0  0  0  0  0  0  0  0  0  0
   25.5980   -0.9040   53.8620 C   0  0  0  0  0  2  0  0  0  0  0  0
   24.5400   -0.0180   53.6290 C   0  0  2  0  0  3  0  0  0  0  0  0
   23.8850    1.0630   53.1470 N   0  0  0  0  0  2  0  0  0  0  0  0
   24.5170    2.1470   52.6450 C   0  0  0  0  0  2  0  0  0  0  0  0
   25.3270    1.7090   51.6810 N   0  0  0  0  0  2  0  0  0  0  0  0
   26.5400    2.8210   49.8870 N   0  0  0  0  0  0  0  0  0  0  0  0
   26.5590    2.0850   49.1760 H   0  0  0  0  0  0  0  0  0  0  0  0
   26.6380    4.1780   49.5000 C   0  0  0  0  0  0  0  0  0  0  0  0
   27.6080    4.7280   48.7020 C   0  0  0  0  0  3  0  0  0  0  0  0
   27.6730    6.0530   48.3500 C   0  0  0  0  0  3  0  0  0  0  0  0
   26.6850    6.9020   48.8330 C   0  0  0  0  0  0  0  0  0  0  0  0
   26.6650    8.2220   48.5390 F   0  0  0  0  0  0  0  0  0  0  0  0
   25.6860    6.4030   49.6380 C   0  0  0  0  0  0  0  0  0  0  0  0
   25.6850    5.0810   49.9470 C   0  0  0  0  0  3  0  0  0  0  0  0
   24.4410    7.4890   50.2430 Cl  0  0  0  0  0  0  0  0  0  0  0  0
   28.5730   -0.3060   54.5440 N   0  0  0  0  0  0  0  0  0  0  0  0
   28.5960   -0.3190   55.6030 H   0  0  0  0  0  0  0  0  0  0  0  0
   29.5980   -1.0030   53.7970 C   0  0  0  0  0  2  0  0  0  0  0  0
   29.0120   -2.5470   53.1130 Cl  0  0  0  0  0  0  0  0  0  0  0  0
  1 11  1  6  0  0  0
  1 10  1  0  0  0  0
  1  2  1  0  0  0  0
  2  3  1  0  0  0  0
  3  4  2  0  0  0  0
  4  5  1  0  0  0  0
  4 21  1  0  0  0  0
  6  5  1  0  0  0  0
  7  6  1  6  0  0  0
  7  5  1  0  0  0  0
  8  7  1  0  0  0  0
  9  8  1  0  0  0  0
 10  9  1  0  0  0  0
 12 11  1  0  0  0  0
 13 11  1  0  0  0  0
 13 19  1  0  0  0  0
 14 13  2  0  0  0  0
 15 14  1  0  0  0  0
 15 16  2  0  0  0  0
 16 18  1  0  0  0  0
 17 16  1  0  0  0  0
 18 19  2  0  0  0  0
 18 20  1  0  0  0  0
 21 22  1  0  0  0  0
 23 21  1  0  0  0  0
 24 23  1  0  0  0  0
M  END
>  <TORSDO>
F 4

$$$$
