C:\Qe-CaDD\Project\Data\Stage_6_Molecular_Dynamics\ligands_top\out_22007_EGFR_extracted.pdbqt
 OpenBabel01082506443D

 25 26  0  0  1  0  0  0  0  0999 V2000
   27.2790    1.3200   53.4600 C   0  0  0  0  0  0  0  0  0  0  0  0
   26.8710    2.0130   52.4120 C   0  0  0  0  0  3  0  0  0  0  0  0
   25.5270    2.0120   51.8450 C   0  0  0  0  0  2  0  0  0  0  0  0
   24.9560    3.3560   51.7970 N   0  0  0  0  0  0  0  0  0  0  0  0
   23.5240    3.2790   51.7050 C   0  0  0  0  0  2  0  0  0  0  0  0
   22.9630    2.6710   50.5040 C   0  0  1  0  0  3  0  0  0  0  0  0
   23.2310    3.2000   49.3300 C   0  0  0  0  0  3  0  0  0  0  0  0
   22.7090    2.6560   48.0850 C   0  0  0  0  0  3  0  0  0  0  0  0
   21.9460    1.5920   48.2560 C   0  0  0  0  0  3  0  0  0  0  0  0
   21.5330    0.8650   49.4730 C   0  0  0  0  0  3  0  0  0  0  0  0
   22.1320    1.4840   50.6660 N   0  0  0  0  0  0  0  0  0  0  0  0
   21.8390    0.8440   51.9020 C   0  0  0  0  0  2  0  0  0  0  0  0
   20.5550    1.2960   52.5720 C   0  0  0  0  0  2  0  0  0  0  0  0
   20.5190    0.6020   53.8890 C   0  0  0  0  0  3  0  0  0  0  0  0
   21.3020   -0.1930   54.6010 C   0  0  0  0  0  3  0  0  0  0  0  0
   22.5660   -0.8140   54.5220 N   0  0  0  0  0  2  0  0  0  0  0  0
   23.4640   -0.7380   55.4640 C   0  0  0  0  0  2  0  0  0  0  0  0
   24.7230   -1.4780   55.1500 C   0  0  0  0  0  2  0  0  0  0  0  0
   25.7240   -0.5180   54.6480 C   0  0  0  0  0  0  0  0  0  0  0  0
   26.6690    0.3000   54.2810 C   0  0  0  0  0  0  0  0  0  0  0  0
   25.3750    3.8640   50.9850 H   0  0  0  0  0  0  0  0  0  0  0  0
   28.6910    1.3910   53.9850 C   0  0  0  0  0  0  0  0  0  0  0  0
   29.4650    0.8080   53.0300 F   0  0  0  0  0  0  0  0  0  0  0  0
   29.0020    2.7360   54.0390 F   0  0  0  0  0  0  0  0  0  0  0  0
   28.8140    0.7710   55.2020 F   0  0  0  0  0  0  0  0  0  0  0  0
  1 22  1  0  0  0  0
  1 20  1  0  0  0  0
  2  1  2  0  0  0  0
  3  2  1  0  0  0  0
  4  3  1  0  0  0  0
  5  4  1  0  0  0  0
  6  7  1  6  0  0  0
  6 11  1  0  0  0  0
  6  5  1  0  0  0  0
  8  9  1  0  0  0  0
  8  7  2  0  0  0  0
  9 10  2  0  0  0  0
 10 11  1  0  0  0  0
 11 12  1  0  0  0  0
 12 13  1  0  0  0  0
 13 14  1  0  0  0  0
 14 15  2  0  0  0  0
 16 15  1  0  0  0  0
 16 17  1  0  0  0  0
 18 17  1  0  0  0  0
 19 18  1  0  0  0  0
 20 19  3  0  0  0  0
 21  4  1  0  0  0  0
 22 24  1  0  0  0  0
 22 25  1  0  0  0  0
 23 22  1  0  0  0  0
M  END
>  <TORSDO>
F 1

$$$$
