C:\Qe-CaDD\Project\Data\Stage_6_Molecular_Dynamics\ligands_top\out_11571_EGFR_extracted.pdbqt
 OpenBabel01082506443D

 34 38  0  0  1  0  0  0  0  0999 V2000
   23.7390    1.2140   53.1300 C   0  0  0  0  0  0  0  0  0  0  0  0
   22.4660    1.4760   52.6410 C   0  0  0  0  0  3  0  0  0  0  0  0
   22.1350    2.7710   52.2470 C   0  0  0  0  0  0  0  0  0  0  0  0
   20.9300    3.1050   51.7650 N   0  0  0  0  0  0  0  0  0  0  0  0
   20.6490    4.3720   51.3920 C   0  0  0  0  0  3  0  0  0  0  0  0
   21.5950    5.3520   51.4990 N   0  0  0  0  0  0  0  0  0  0  0  0
   22.8230    5.0850   51.9750 C   0  0  0  0  0  0  0  0  0  0  0  0
   23.0660    3.7800   52.3430 C   0  0  0  0  0  0  0  0  0  0  0  0
   24.3050    3.4550   52.8340 C   0  0  0  0  0  3  0  0  0  0  0  0
   24.7150    2.2070   53.2450 C   0  0  0  0  0  0  0  0  0  0  0  0
   23.7900    6.1550   52.0670 N   0  0  0  0  0  0  0  0  0  0  0  0
   24.4400    6.2890   52.8560 H   0  0  0  0  0  0  0  0  0  0  0  0
   23.7680    7.0510   50.9220 C   0  0  1  0  0  3  0  0  0  0  0  0
   25.1860    7.5240   50.5980 C   0  0  0  0  0  2  0  0  0  0  0  0
   24.3550    6.7520   49.6200 C   0  0  1  0  0  3  0  0  0  0  0  0
   24.8530    5.4200   49.1890 C   0  0  0  0  0  2  0  0  0  0  0  0
   23.8000    4.4790   48.7220 C   0  0  1  0  0  3  0  0  0  0  0  0
   23.7090    3.1840   48.9820 C   0  0  0  0  0  3  0  0  0  0  0  0
   22.6540    2.3370   48.4890 C   0  0  0  0  0  3  0  0  0  0  0  0
   21.7090    2.8610   47.7310 C   0  0  0  0  0  3  0  0  0  0  0  0
   21.3320    4.1730   47.1560 C   0  0  0  0  0  3  0  0  0  0  0  0
   22.5980    5.4130   47.6960 P   0  0  0  0  0  0  0  0  0  0  0  0
   23.3370    5.9060   46.5520 H   0  0  0  0  0  0  0  0  0  0  0  0
   25.8440    1.6790   53.7470 O   0  0  0  0  0  0  0  0  0  0  0  0
   27.1630    1.7680   53.3420 C   0  0  0  0  0  2  0  0  0  0  0  0
   28.0610    0.9480   54.1940 C   0  0  0  0  0  2  0  0  0  0  0  0
   28.1530   -0.4350   53.8170 N   0  0  0  0  0  0  0  0  0  0  0  0
   29.4630   -0.8650   53.4250 C   0  0  0  0  0  2  0  0  0  0  0  0
   29.5700   -2.3480   53.3060 C   0  0  0  0  0  2  0  0  0  0  0  0
   28.3130   -2.9360   53.3630 O   0  0  0  0  0  0  0  0  0  0  0  0
   27.3900   -2.3460   52.5010 C   0  0  0  0  0  2  0  0  0  0  0  0
   27.2170   -0.8670   52.8280 C   0  0  0  0  0  2  0  0  0  0  0  0
   23.9010   -0.1030   53.4700 O   0  0  0  0  0  0  0  0  0  0  0  0
   22.9690   -0.8210   54.2490 C   0  0  0  0  0  1  0  0  0  0  0  0
  1 10  1  0  0  0  0
  1 33  1  0  0  0  0
  2  1  2  0  0  0  0
  3  8  1  0  0  0  0
  3  2  1  0  0  0  0
  4  3  2  0  0  0  0
  5  6  2  0  0  0  0
  5  4  1  0  0  0  0
  6  7  1  0  0  0  0
  7 11  1  0  0  0  0
  7  8  2  0  0  0  0
  8  9  1  0  0  0  0
  9 10  2  0  0  0  0
 10 24  1  0  0  0  0
 11 12  1  0  0  0  0
 13 11  1  1  0  0  0
 14 13  1  0  0  0  0
 15 16  1  1  0  0  0
 15 14  1  0  0  0  0
 15 13  1  0  0  0  0
 17 18  1  0  0  0  0
 17 16  1  1  0  0  0
 19 18  2  0  0  0  0
 20 19  1  0  0  0  0
 21 22  1  0  0  0  0
 21 20  2  0  0  0  0
 22 17  1  0  0  0  0
 23 22  1  0  0  0  0
 25 24  1  0  0  0  0
 25 26  1  0  0  0  0
 27 26  1  0  0  0  0
 28 27  1  0  0  0  0
 29 30  1  0  0  0  0
 29 28  1  0  0  0  0
 31 32  1  0  0  0  0
 31 30  1  0  0  0  0
 32 27  1  0  0  0  0
 33 34  1  0  0  0  0
M  END
>  <TORSDO>
F 9

$$$$
