C:\Qe-CaDD\Project\Data\Stage_6_Molecular_Dynamics\ligands_top\out_13816_EGFR_extracted.pdbqt
 OpenBabel01082506443D

 30 34  0  0  0  0  0  0  0  0999 V2000
   24.3470   -0.5730   54.0870 C   0  0  0  0  0  0  0  0  0  0  0  0
   23.6770   -1.1700   55.1570 C   0  0  0  0  0  3  0  0  0  0  0  0
   22.2890   -1.1920   55.1310 C   0  0  0  0  0  3  0  0  0  0  0  0
   21.5980   -0.6370   54.0730 C   0  0  0  0  0  0  0  0  0  0  0  0
   22.2710   -0.0500   53.0220 C   0  0  0  0  0  0  0  0  0  0  0  0
   23.6620   -0.0140   53.0240 C   0  0  0  0  0  3  0  0  0  0  0  0
   21.5340    0.5270   51.9190 C   0  0  0  0  0  0  0  0  0  0  0  0
   20.2310    0.5190   51.8690 N   0  0  0  0  0  0  0  0  0  0  0  0
   19.4880   -0.0600   52.9000 N   0  0  0  0  0  0  0  0  0  0  0  0
   20.1670   -0.6380   54.0030 N   0  0  0  0  0  0  0  0  0  0  0  0
   18.4570   -0.1480   53.0100 H   0  0  0  0  0  0  0  0  0  0  0  0
   19.7180   -1.1030   54.8410 H   0  0  0  0  0  0  0  0  0  0  0  0
   22.1960    1.1370   50.8250 N   0  0  0  0  0  0  0  0  0  0  0  0
   22.2430    0.5580   49.9520 H   0  0  0  0  0  0  0  0  0  0  0  0
   22.7860    2.4250   50.8260 C   0  0  0  0  0  0  0  0  0  0  0  0
   22.2460    3.3970   51.6700 C   0  0  0  0  0  3  0  0  0  0  0  0
   22.7110    4.6870   51.7750 C   0  0  0  0  0  3  0  0  0  0  0  0
   23.7840    5.0810   51.0080 C   0  0  0  0  0  0  0  0  0  0  0  0
   24.2020    6.3500   51.1480 N   0  0  0  0  0  0  0  0  0  0  0  0
   24.3450    4.1490   50.1620 C   0  0  0  0  0  0  0  0  0  0  0  0
   25.2490    6.8030   50.4270 C   0  0  0  0  0  3  0  0  0  0  0  0
   25.8330    5.8730   49.5630 C   0  0  0  0  0  3  0  0  0  0  0  0
   25.4110    4.5670   49.4130 C   0  0  0  0  0  3  0  0  0  0  0  0
   23.8520    2.8660   50.0840 C   0  0  0  0  0  3  0  0  0  0  0  0
   25.8250   -0.5210   54.0610 C   0  0  0  0  0  0  0  0  0  0  0  0
   26.6040    0.2460   54.9350 C   0  0  0  0  0  3  0  0  0  0  0  0
   27.8720   -0.0000   54.5640 N   0  0  0  0  0  0  0  0  0  0  0  0
   28.9310    0.5670   55.1820 F   0  0  0  0  0  0  0  0  0  0  0  0
   27.9230   -0.8460   53.5450 N   0  0  0  0  0  0  0  0  0  0  0  0
   26.6550   -1.2030   53.1920 C   0  0  0  0  0  3  0  0  0  0  0  0
  1  2  1  0  0  0  0
  3  2  2  0  0  0  0
  4  3  1  0  0  0  0
  5  6  1  0  0  0  0
  5  4  2  0  0  0  0
  6  1  2  0  0  0  0
  7  5  1  0  0  0  0
  8  7  2  0  0  0  0
  8  9  1  0  0  0  0
  9 11  1  0  0  0  0
  9 10  1  0  0  0  0
 10  4  1  0  0  0  0
 10 12  1  0  0  0  0
 13 15  1  0  0  0  0
 13  7  1  0  0  0  0
 14 13  1  0  0  0  0
 15 16  1  0  0  0  0
 16 17  2  0  0  0  0
 18 19  1  0  0  0  0
 18 17  1  0  0  0  0
 20 18  2  0  0  0  0
 21 19  2  0  0  0  0
 22 21  1  0  0  0  0
 23 22  2  0  0  0  0
 23 20  1  0  0  0  0
 24 20  1  0  0  0  0
 24 15  2  0  0  0  0
 25  1  1  0  0  0  0
 25 26  2  0  0  0  0
 27 26  1  0  0  0  0
 27 28  1  0  0  0  0
 29 27  1  0  0  0  0
 30 29  2  0  0  0  0
 30 25  1  0  0  0  0
M  END
>  <TORSDO>
F 3

$$$$
