C:\Qe-CaDD\Project\Data\Stage_6_Molecular_Dynamics\ligands_top\out_11530_EGFR_extracted.pdbqt
 OpenBabel01082506443D

 25 29  0  0  1  0  0  0  0  0999 V2000
   24.4940    4.5400   50.5420 C   0  0  2  0  0  3  0  0  0  0  0  0
   25.7020    4.0380   50.1090 C   0  0  0  0  0  2  0  0  0  0  0  0
   26.5460    2.9790   50.0070 C   0  0  0  0  0  2  0  0  0  0  0  0
   26.6870    2.5850   51.2890 N   0  0  0  0  0  2  0  0  0  0  0  0
   26.0090    1.4600   51.6680 C   0  0  0  0  0  2  0  0  0  0  0  0
   24.7630    1.9010   51.6780 N   0  0  0  0  0  0  0  0  0  0  0  0
   23.7610    1.4300   52.4550 C   0  0  0  0  0  0  0  0  0  0  0  0
   22.8130    2.4740   52.2340 C   0  0  0  0  0  2  0  0  0  0  0  0
   23.0190    3.8160   52.3550 C   0  0  0  0  0  3  0  0  0  0  0  0
   23.7880    4.7370   51.6990 C   0  0  0  0  0  0  0  0  0  0  0  0
   21.7000    1.5460   51.8790 C   0  0  2  0  0  0  0  0  0  0  0  0
   22.1590    1.3490   50.6030 C   0  0  0  0  0  2  0  0  0  0  0  0
   21.6970    0.2280   51.2380 C   0  0  2  0  0  3  0  0  0  0  0  0
   21.2210    0.3510   52.5190 C   0  0  2  0  0  0  0  0  0  0  0  0
   20.7900    0.6770   53.7750 C   0  0  0  0  0  2  0  0  0  0  0  0
   21.2590    1.8030   53.1450 C   0  0  0  0  0  2  0  0  0  0  0  0
   21.8630   -0.9480   52.9550 C   0  0  2  0  0  3  0  0  0  0  0  0
   22.1350   -1.5690   54.2080 C   0  0  0  0  0  2  0  0  0  0  0  0
   22.9350   -0.4060   54.0270 C   0  0  1  0  0  3  0  0  0  0  0  0
   23.8890    0.1600   53.1630 N   0  0  0  0  0  0  0  0  0  0  0  0
   24.7890   -0.3080   52.9610 H   0  0  0  0  0  0  0  0  0  0  0  0
   23.5580    5.0610   49.6280 O   0  0  0  0  0  0  0  0  0  0  0  0
   23.1060    4.2870   48.5320 C   0  0  0  0  0  1  0  0  0  0  0  0
   23.8390    5.9880   52.2960 O   0  0  0  0  0  0  0  0  0  0  0  0
   23.4720    6.7940   51.8390 H   0  0  0  0  0  0  0  0  0  0  0  0
  1 22  1  6  0  0  0
  1 10  1  0  0  0  0
  2  1  1  0  0  0  0
  3  2  1  0  0  0  0
  3  4  1  0  0  0  0
  4  5  1  0  0  0  0
  5  6  1  0  0  0  0
  6  7  2  0  0  0  0
  7 20  1  0  0  0  0
  8  9  1  0  0  0  0
  8  7  1  0  0  0  0
 10 24  1  0  0  0  0
 10  9  2  0  0  0  0
 11 12  1  6  0  0  0
 11 14  1  0  0  0  0
 11 16  1  0  0  0  0
 13 12  1  6  0  0  0
 13 11  1  0  0  0  0
 13 14  1  0  0  0  0
 14 17  1  0  0  0  0
 14 15  1  1  0  0  0
 16 15  1  0  0  0  0
 17 19  1  0  0  0  0
 17 18  1  1  0  0  0
 19 20  1  6  0  0  0
 19 18  1  0  0  0  0
 21 20  1  0  0  0  0
 23 22  1  0  0  0  0
 25 24  1  0  0  0  0
M  END
>  <TORSDO>
F 2

$$$$
