C:\Qe-CaDD\Project\Data\Stage_6_Molecular_Dynamics\ligands_top\out_16427_EGFR_extracted.pdbqt
 OpenBabel01082506443D

 22 25  0  0  0  0  0  0  0  0999 V2000
   23.1560   -0.9990   54.3960 C   0  0  0  0  0  1  0  0  0  0  0  0
   24.3450   -0.5100   54.1330 C   0  0  0  0  0  0  0  0  0  0  0  0
   25.4620   -1.0060   54.5340 O   0  0  0  0  0  0  0  0  0  0  0  0
   26.4860   -0.3210   54.1310 C   0  0  0  0  0  0  0  0  0  0  0  0
   27.7940   -0.5390   54.3540 N   0  0  0  0  0  0  0  0  0  0  0  0
   28.7080    0.3080   53.8350 C   0  0  0  0  0  3  0  0  0  0  0  0
   28.2280    1.3510   53.1030 C   0  0  0  0  0  3  0  0  0  0  0  0
   26.8720    1.5950   52.8590 C   0  0  0  0  0  0  0  0  0  0  0  0
   25.9580    0.7200   53.3970 C   0  0  0  0  0  0  0  0  0  0  0  0
   24.5830    0.6450   53.3680 C   0  0  0  0  0  0  0  0  0  0  0  0
   26.5430    2.7290   52.0770 N   0  0  0  0  0  0  0  0  0  0  0  0
   26.3160    3.6810   52.3240 H   0  0  0  0  0  0  0  0  0  0  0  0
   26.4880    2.6300   50.6590 C   0  0  0  0  0  2  0  0  0  0  0  0
   26.2840    3.8600   49.9060 C   0  0  0  0  0  0  0  0  0  0  0  0
   25.0290    4.4770   49.8740 C   0  0  0  0  0  3  0  0  0  0  0  0
   24.7910    5.6450   49.1700 C   0  0  0  0  0  3  0  0  0  0  0  0
   25.8610    6.2070   48.4780 C   0  0  0  0  0  3  0  0  0  0  0  0
   27.0890    5.5900   48.5190 C   0  0  0  0  0  3  0  0  0  0  0  0
   27.3310    4.4440   49.2050 C   0  0  0  0  0  3  0  0  0  0  0  0
   23.7570    1.5030   52.7390 C   0  0  0  0  0  3  0  0  0  0  0  0
   22.8730    2.5540   52.1790 C   0  0  0  0  0  2  0  0  0  0  0  0
   22.9950    1.4540   51.4650 C   0  0  0  0  0  2  0  0  0  0  0  0
  2  1  1  0  0  0  0
  2  3  1  0  0  0  0
  4  5  2  0  0  0  0
  4  3  1  0  0  0  0
  6  5  1  0  0  0  0
  7  6  2  0  0  0  0
  8  7  1  0  0  0  0
  8  9  2  0  0  0  0
  9  4  1  0  0  0  0
 10  9  1  0  0  0  0
 10  2  2  0  0  0  0
 11 12  1  0  0  0  0
 11  8  1  0  0  0  0
 13 11  1  0  0  0  0
 14 13  1  0  0  0  0
 15 14  1  0  0  0  0
 16 15  2  0  0  0  0
 17 18  2  0  0  0  0
 17 16  1  0  0  0  0
 18 19  1  0  0  0  0
 19 14  2  0  0  0  0
 20 10  1  0  0  0  0
 21 20  1  0  0  0  0
 22 21  1  0  0  0  0
 22 20  1  0  0  0  0
M  END
>  <TORSDO>
F 4

$$$$
