C:\Qe-CaDD\Project\Data\Stage_6_Molecular_Dynamics\ligands_top\out_11038_EGFR_extracted.pdbqt
 OpenBabel01082506443D

 26 30  0  0  1  0  0  0  0  0999 V2000
   24.3340   -0.8790   54.5710 C   0  0  0  0  0  3  0  0  0  0  0  0
   23.2930   -0.5420   53.9230 C   0  0  0  0  0  0  0  0  0  0  0  0
   22.1280   -0.2890   53.2810 C   0  0  0  0  0  0  0  0  0  0  0  0
   20.9200   -0.0280   52.6160 C   0  0  2  0  0  0  0  0  0  0  0  0
   20.2600   -0.9770   53.4990 C   0  0  0  0  0  2  0  0  0  0  0  0
   18.8780   -1.3140   53.4670 C   0  0  0  0  0  3  0  0  0  0  0  0
   18.1360   -0.6480   52.4830 C   0  0  0  0  0  3  0  0  0  0  0  0
   18.7610    0.2200   51.6820 N   0  0  0  0  0  0  0  0  0  0  0  0
   20.0400    0.4820   51.7670 C   0  0  0  0  0  3  0  0  0  0  0  0
   22.3460    0.6180   52.3580 N   0  0  0  0  0  0  0  0  0  0  0  0
   23.4840    1.2750   52.0020 C   0  0  0  0  0  0  0  0  0  0  0  0
   23.0800    2.5690   51.5970 C   0  0  0  0  0  3  0  0  0  0  0  0
   23.8460    3.6590   51.1600 C   0  0  0  0  0  3  0  0  0  0  0  0
   25.2180    3.5730   51.0730 C   0  0  0  0  0  3  0  0  0  0  0  0
   25.7560    2.3680   51.4400 C   0  0  0  0  0  0  0  0  0  0  0  0
   24.8470    1.3840   51.8470 C   0  0  0  0  0  3  0  0  0  0  0  0
   26.8640    1.4850   51.6650 O   0  0  0  0  0  0  0  0  0  0  0  0
   27.3840    1.7590   52.9910 C   0  0  0  0  0  2  0  0  0  0  0  0
   28.3940    0.8640   53.5180 C   0  0  2  0  0  3  0  0  0  0  0  0
   29.6710    0.7030   52.9280 N   0  0  0  0  0  0  0  0  0  0  0  0
   30.0720   -0.4660   53.7390 C   0  0  0  0  0  2  0  0  0  0  0  0
   29.0050   -1.2530   53.9930 N   0  0  0  0  0  2  0  0  0  0  0  0
   27.8970   -0.6310   53.3610 C   0  0  1  0  0  3  0  0  0  0  0  0
   26.5500   -0.7130   53.8340 C   0  0  0  0  0  2  0  0  0  0  0  0
   25.6190   -0.1960   54.6300 N   0  0  0  0  0  2  0  0  0  0  0  0
   30.4470    0.9460   52.2670 H   0  0  0  0  0  0  0  0  0  0  0  0
  1 25  1  0  0  0  0
  2  1  2  0  0  0  0
  3  2  2  0  0  0  0
  4  9  1  6  0  0  0
  4  3  1  0  0  0  0
  4  5  1  0  0  0  0
  6  5  1  0  0  0  0
  7  6  2  0  0  0  0
  8  9  2  0  0  0  0
  8  7  1  0  0  0  0
 10  4  1  0  0  0  0
 10  3  1  0  0  0  0
 11 10  1  0  0  0  0
 12 11  2  0  0  0  0
 13 12  1  0  0  0  0
 14 13  2  0  0  0  0
 14 15  1  0  0  0  0
 15 17  1  0  0  0  0
 15 16  2  0  0  0  0
 16 11  1  0  0  0  0
 17 18  1  0  0  0  0
 19 18  1  6  0  0  0
 20 19  1  0  0  0  0
 20 21  1  0  0  0  0
 21 22  1  0  0  0  0
 23 19  1  0  0  0  0
 23 24  1  1  0  0  0
 23 22  1  0  0  0  0
 24 25  1  0  0  0  0
 26 20  1  0  0  0  0
M  END
>  <TORSDO>
F 0

$$$$
