C:\Qe-CaDD\Project\Data\Stage_6_Molecular_Dynamics\ligands_top\out_16418_EGFR_extracted.pdbqt
 OpenBabel01082506443D

 23 26  0  0  1  0  0  0  0  0999 V2000
   23.9820    1.3950   52.9340 C   0  0  0  0  0  0  0  0  0  0  0  0
   22.8030    0.7250   53.0720 C   0  0  0  0  0  3  0  0  0  0  0  0
   22.6700   -0.4750   53.7730 C   0  0  0  0  0  3  0  0  0  0  0  0
   23.7680   -1.0280   54.3630 N   0  0  0  0  0  0  0  0  0  0  0  0
   24.9470   -0.3940   54.2480 C   0  0  0  0  0  0  0  0  0  0  0  0
   26.1380   -0.6900   54.7020 O   0  0  0  0  0  0  0  0  0  0  0  0
   27.0260    0.1970   54.3660 C   0  0  0  0  0  0  0  0  0  0  0  0
   28.3710    0.2840   54.6210 C   0  0  0  0  0  3  0  0  0  0  0  0
   29.0710    1.3470   54.1320 C   0  0  0  0  0  3  0  0  0  0  0  0
   28.4090    2.3130   53.3910 C   0  0  0  0  0  3  0  0  0  0  0  0
   27.0690    2.1930   53.1560 C   0  0  0  0  0  3  0  0  0  0  0  0
   26.3510    1.1450   53.6320 C   0  0  0  0  0  0  0  0  0  0  0  0
   25.0330    0.7870   53.5470 C   0  0  0  0  0  0  0  0  0  0  0  0
   23.9480    2.6020   52.2340 N   0  0  0  0  0  0  0  0  0  0  0  0
   24.4920    3.4590   52.4110 H   0  0  0  0  0  0  0  0  0  0  0  0
   23.1500    2.9570   51.0860 C   0  0  0  0  0  2  0  0  0  0  0  0
   24.0100    3.7900   50.1580 C   0  0  0  0  0  2  0  0  0  0  0  0
   25.3270    3.2860   49.9150 C   0  0  1  0  0  3  0  0  0  0  0  0
   26.0370    4.5580   49.3020 C   0  0  2  0  0  3  0  0  0  0  0  0
   26.4340    3.2630   49.5860 C   0  0  0  0  0  2  0  0  0  0  0  0
   27.5520    4.5520   48.8440 C   0  0  0  0  0  2  0  0  0  0  0  0
   28.3350    5.8230   48.2580 C   0  0  0  0  0  1  0  0  0  0  0  0
   27.2360    5.8550   48.5840 C   0  0  0  0  0  2  0  0  0  0  0  0
  1  2  1  0  0  0  0
  1 13  2  0  0  0  0
  2  3  2  0  0  0  0
  3  4  1  0  0  0  0
  5  4  2  0  0  0  0
  5  6  1  0  0  0  0
  7  8  1  0  0  0  0
  7  6  1  0  0  0  0
  9  8  2  0  0  0  0
 10  9  1  0  0  0  0
 11 10  2  0  0  0  0
 11 12  1  0  0  0  0
 12  7  2  0  0  0  0
 13 12  1  0  0  0  0
 13  5  1  0  0  0  0
 14 15  1  0  0  0  0
 14  1  1  0  0  0  0
 16 14  1  0  0  0  0
 17 16  1  0  0  0  0
 18 17  1  1  0  0  0
 19 21  1  1  0  0  0
 19 20  1  0  0  0  0
 19 18  1  0  0  0  0
 20 18  1  0  0  0  0
 22 23  1  0  0  0  0
 23 21  1  0  0  0  0
M  END
>  <TORSDO>
F 6

$$$$
