C:\Qe-CaDD\Project\Data\Stage_6_Molecular_Dynamics\ligands_top\out_10621_EGFR_extracted.pdbqt
 OpenBabel01082506443D

 34 37  0  0  1  0  0  0  0  0999 V2000
   22.1230    0.7450   52.1330 C   0  0  0  0  0  0  0  0  0  0  0  0
   21.9900   -0.1110   53.1760 N   0  0  0  0  0  0  0  0  0  0  0  0
   23.1420   -0.3390   53.8460 C   0  0  0  0  0  3  0  0  0  0  0  0
   24.2730    0.2620   53.4580 N   0  0  0  0  0  0  0  0  0  0  0  0
   24.4120    1.0930   52.4450 C   0  0  0  0  0  0  0  0  0  0  0  0
   23.2320    1.4020   51.6670 C   0  0  0  0  0  0  0  0  0  0  0  0
   22.9650    2.1900   50.6140 C   0  0  0  0  0  2  0  0  0  0  0  0
   22.3140    2.8710   49.5710 C   0  0  0  0  0  2  0  0  0  0  0  0
   23.0280    4.2110   49.2470 C   0  0  1  0  0  3  0  0  0  0  0  0
   22.0550    5.3010   49.4940 C   0  0  0  0  0  2  0  0  0  0  0  0
   22.5550    6.5870   49.3750 O   0  0  0  0  0  0  0  0  0  0  0  0
   23.9300    6.6150   49.4410 C   0  0  0  0  0  2  0  0  0  0  0  0
   24.4510    5.6210   50.4590 C   0  0  0  0  0  2  0  0  0  0  0  0
   24.2360    4.2480   50.0660 N   0  0  2  0  0  0  0  0  0  0  0  0
   25.2820    3.7220   49.2490 C   0  0  0  0  0  2  0  0  0  0  0  0
   26.6650    3.6960   49.7620 C   0  0  0  0  0  2  0  0  0  0  0  0
   27.0700    2.9680   50.8500 N   0  0  0  0  0  0  0  0  0  0  0  0
   26.7060    2.1870   51.7440 C   0  0  0  0  0  0  0  0  0  0  0  0
   25.7570    1.3250   52.5470 C   0  0  0  0  0  2  0  0  0  0  0  0
   21.0610    1.1340   51.2390 N   0  0  0  0  0  0  0  0  0  0  0  0
   21.4570    2.0240   50.8270 H   0  0  0  0  0  0  0  0  0  0  0  0
   19.9590    0.2570   51.2350 C   0  0  0  0  0  3  0  0  0  0  0  0
   18.6970    0.6060   51.3290 C   0  0  0  0  0  0  0  0  0  0  0  0
   18.4350    2.0180   51.4600 C   0  0  0  0  0  0  0  0  0  0  0  0
   17.2740   -0.4500   51.3150 S   0  0  0  0  0  0  0  0  0  0  0  0
   17.3110    2.6770   51.5760 C   0  0  0  0  0  3  0  0  0  0  0  0
   16.1020    1.9110   51.5770 C   0  0  0  0  0  3  0  0  0  0  0  0
   15.8480    0.6170   51.4810 C   0  0  0  0  0  3  0  0  0  0  0  0
   19.4720    2.9520   51.4820 O   0  0  0  0  0  0  0  0  0  0  0  0
   19.2840    4.3250   51.1740 C   0  0  0  0  0  1  0  0  0  0  0  0
   27.8870    1.9150   52.4920 O   0  0  0  0  0  0  0  0  0  0  0  0
   27.9730    0.7660   53.3370 C   0  0  0  0  0  2  0  0  0  0  0  0
   29.0640    0.8400   54.3030 C   0  0  0  0  0  2  0  0  0  0  0  0
   29.1920    1.9450   54.8120 O   0  0  0  0  0  1  0  0  0  0  0  0
  1  2  1  0  0  0  0
  2  3  2  0  0  0  0
  4  3  1  0  0  0  0
  5 19  1  0  0  0  0
  5  4  2  0  0  0  0
  6  1  2  0  0  0  0
  6  5  1  0  0  0  0
  7  6  1  0  0  0  0
  8  7  1  0  0  0  0
  9 10  1  1  0  0  0
  9  8  1  0  0  0  0
  9 14  1  0  0  0  0
 11 12  1  0  0  0  0
 11 10  1  0  0  0  0
 12 13  1  0  0  0  0
 14 15  1  6  0  0  0
 14 13  1  0  0  0  0
 15 16  1  0  0  0  0
 16 17  1  0  0  0  0
 17 18  2  0  0  0  0
 18 31  1  0  0  0  0
 18 19  1  0  0  0  0
 20  1  1  0  0  0  0
 21 20  1  0  0  0  0
 22 20  1  0  0  0  0
 22 23  2  0  0  0  0
 23 24  1  0  0  0  0
 24 29  1  0  0  0  0
 24 26  2  0  0  0  0
 25 23  1  0  0  0  0
 25 28  1  0  0  0  0
 26 27  1  0  0  0  0
 28 27  2  0  0  0  0
 30 29  1  0  0  0  0
 31 32  1  0  0  0  0
 32 33  1  0  0  0  0
 33 34  1  0  0  0  0
M  END
>  <TORSDO>
F 6

$$$$
