C:\Qe-CaDD\Project\Data\Stage_6_Molecular_Dynamics\ligands_top\out_22972_EGFR_extracted.pdbqt
 OpenBabel01082506443D

 23 24  0  0  1  0  0  0  0  0999 V2000
   29.8030   -1.0650   53.4990 C   0  0  0  0  0  1  0  0  0  0  0  0
   28.5970   -1.4070   53.1080 C   0  0  0  0  0  2  0  0  0  0  0  0
   27.3310   -1.6320   52.8620 C   0  0  0  0  0  2  0  0  0  0  0  0
   26.4090   -0.5060   52.9240 C   0  0  2  0  0  3  0  0  0  0  0  0
   27.1200    0.6780   53.4740 C   0  0  0  0  0  3  0  0  0  0  0  0
   27.0790    1.8260   52.8330 C   0  0  0  0  0  3  0  0  0  0  0  0
   26.3410    1.9760   51.5740 C   0  0  0  0  0  3  0  0  0  0  0  0
   26.3920    3.0860   50.8670 C   0  0  0  0  0  3  0  0  0  0  0  0
   25.6870    3.2570   49.6310 N   0  0  0  0  0  0  0  0  0  0  0  0
   25.9940    3.0510   48.6350 H   0  0  0  0  0  0  0  0  0  0  0  0
   24.3530    3.8070   49.8900 C   0  0  0  0  0  2  0  0  0  0  0  0
   23.3010    2.7850   49.6100 C   0  0  0  0  0  0  0  0  0  0  0  0
   22.7550    2.0690   50.6580 C   0  0  0  0  0  3  0  0  0  0  0  0
   21.7920    1.1360   50.3500 C   0  0  0  0  0  3  0  0  0  0  0  0
   21.4170    0.9590   49.0320 C   0  0  0  0  0  3  0  0  0  0  0  0
   21.9990    1.7070   48.0150 C   0  0  0  0  0  3  0  0  0  0  0  0
   22.9430    2.6190   48.3280 N   0  0  0  0  0  0  0  0  0  0  0  0
   25.2390   -0.7280   53.7510 N   0  0  0  0  0  0  0  0  0  0  0  0
   23.9600   -0.5120   53.1190 C   0  0  0  0  0  2  0  0  0  0  0  0
   22.9350   -0.2660   53.8840 C   0  0  0  0  0  2  0  0  0  0  0  0
   22.7880   -1.0370   54.9480 C   0  0  0  0  0  2  0  0  0  0  0  0
   24.0460   -1.2850   55.6830 C   0  0  0  0  0  3  0  0  0  0  0  0
   25.1880   -1.1280   55.0840 N   0  0  0  0  0  0  0  0  0  0  0  0
  2  1  1  0  0  0  0
  3  2  1  0  0  0  0
  4  3  1  1  0  0  0
  4  5  1  0  0  0  0
  4 18  1  0  0  0  0
  6  5  2  0  0  0  0
  7  6  1  0  0  0  0
  8  7  2  0  0  0  0
  9 11  1  0  0  0  0
  9  8  1  0  0  0  0
 10  9  1  0  0  0  0
 12 11  1  0  0  0  0
 12 13  1  0  0  0  0
 14 13  2  0  0  0  0
 15 14  1  0  0  0  0
 16 17  1  0  0  0  0
 16 15  2  0  0  0  0
 17 12  2  0  0  0  0
 18 23  1  0  0  0  0
 19 18  1  0  0  0  0
 19 20  1  0  0  0  0
 20 21  1  0  0  0  0
 21 22  1  0  0  0  0
 23 22  2  0  0  0  0
M  END
>  <TORSDO>
F 7

$$$$
