C:\Qe-CaDD\Project\Data\Stage_6_Molecular_Dynamics\ligands_top\out_11165_EGFR_extracted.pdbqt
 OpenBabel01082506443D

 26 26  0  0  1  0  0  0  0  0999 V2000
   24.0400    1.6770   51.5620 C   0  0  0  0  0  0  0  0  0  0  0  0
   22.7950    1.7580   51.0390 C   0  0  0  0  0  3  0  0  0  0  0  0
   21.4140    1.1910   51.3030 C   0  0  0  0  0  0  0  0  0  0  0  0
   20.5570    1.5380   50.3750 C   0  0  0  0  0  3  0  0  0  0  0  0
   19.4000    0.9190   50.5970 N   0  0  0  0  0  0  0  0  0  0  0  0
   19.1140    0.0730   51.5880 C   0  0  0  0  0  3  0  0  0  0  0  0
   20.0410   -0.2960   52.5820 C   0  0  0  0  0  3  0  0  0  0  0  0
   21.2580    0.3530   52.3590 C   0  0  0  0  0  0  0  0  0  0  0  0
   21.9310   -0.3030   53.5280 C   0  0  0  0  0  0  0  0  0  0  0  0
   21.1380   -0.9070   54.5480 C   0  0  0  0  0  1  0  0  0  0  0  0
   22.5120   -1.1920   54.9750 C   0  0  0  0  0  1  0  0  0  0  0  0
   23.5950   -0.8190   54.3420 N   0  0  0  0  0  0  0  0  0  0  0  0
   24.3170   -0.3110   53.5030 C   0  0  0  0  0  1  0  0  0  0  0  0
   23.1520   -0.5580   53.9290 N   0  0  0  0  0  0  0  0  0  0  0  0
   24.1300    0.6080   52.5670 N   0  0  0  0  0  2  0  0  0  0  0  0
   25.1440    0.7590   53.0150 H   0  0  0  0  0  0  0  0  0  0  0  0
   25.0920    2.4840   51.2430 C   0  0  0  0  0  3  0  0  0  0  0  0
   26.3730    2.5250   51.3680 C   0  0  0  0  0  3  0  0  0  0  0  0
   27.1670    1.4970   52.0290 C   0  0  0  0  0  2  0  0  0  0  0  0
   27.7590    1.8940   53.1560 C   0  0  0  0  0  2  0  0  0  0  0  0
   28.5410    1.6660   54.2400 O   0  0  0  0  0  0  0  0  0  0  0  0
   28.6040    0.3720   54.8460 C   0  0  1  0  0  3  0  0  0  0  0  0
   27.2960   -0.0920   54.8950 F   0  0  0  0  0  0  0  0  0  0  0  0
   29.4330   -0.5970   54.0500 C   0  0  0  0  0  3  0  0  0  0  0  0
   28.5680   -1.2950   53.2030 F   0  0  0  0  0  0  0  0  0  0  0  0
   30.3740    0.0180   53.2470 F   0  0  0  0  0  0  0  0  0  0  0  0
  1 15  1  0  0  0  0
  2  3  1  0  0  0  0
  2  1  2  0  0  0  0
  3  8  1  0  0  0  0
  4  5  1  0  0  0  0
  4  3  2  0  0  0  0
  5  6  2  0  0  0  0
  6  7  1  0  0  0  0
  8  7  2  0  0  0  0
  8  9  1  0  0  0  0
  9 14  2  0  0  0  0
  9 10  1  0  0  0  0
 12 11  1  0  0  0  0
 13 12  1  0  0  0  0
 14 12  1  0  0  0  0
 15 16  1  0  0  0  0
 17 18  2  0  0  0  0
 17  1  1  0  0  0  0
 18 19  1  0  0  0  0
 19 20  1  0  0  0  0
 20 21  1  0  0  0  0
 21 22  1  0  0  0  0
 22 23  1  6  0  0  0
 24 22  1  0  0  0  0
 25 24  1  0  0  0  0
 26 24  1  0  0  0  0
M  END
>  <TORSDO>
F 5

$$$$
