C:\Qe-CaDD\Project\Data\Stage_6_Molecular_Dynamics\ligands_top\out_11238_EGFR_extracted.pdbqt
 OpenBabel01082506443D

 29 33  0  0  1  0  0  0  0  0999 V2000
   21.5890   -0.6220   53.8960 C   0  0  0  0  0  0  0  0  0  0  0  0
   21.7590   -1.3910   54.9970 N   0  0  0  0  0  0  0  0  0  0  0  0
   23.0000   -1.5580   55.4620 C   0  0  0  0  0  3  0  0  0  0  0  0
   24.0860   -0.9960   54.8860 N   0  0  0  0  0  0  0  0  0  0  0  0
   23.9640   -0.2140   53.7780 C   0  0  0  0  0  0  0  0  0  0  0  0
   22.6940   -0.0450   53.3040 C   0  0  0  0  0  0  0  0  0  0  0  0
   22.6730    0.7520   52.1970 C   0  0  0  0  0  0  0  0  0  0  0  0
   21.6940    1.2650   51.2700 C   0  0  0  0  0  0  0  0  0  0  0  0
   20.7170    0.6040   50.5620 C   0  0  0  0  0  3  0  0  0  0  0  0
   19.8450    1.2400   49.7200 C   0  0  0  0  0  3  0  0  0  0  0  0
   19.9030    2.6060   49.5330 C   0  0  0  0  0  3  0  0  0  0  0  0
   20.8620    3.3250   50.2140 C   0  0  0  0  0  0  0  0  0  0  0  0
   21.7180    2.6470   51.0520 C   0  0  0  0  0  3  0  0  0  0  0  0
   24.0210    1.0760   52.0070 C   0  0  0  0  0  3  0  0  0  0  0  0
   24.7800    0.4850   52.9670 N   0  0  0  0  0  0  0  0  0  0  0  0
   26.2140    0.5510   53.1500 C   0  0  2  0  0  3  0  0  0  0  0  0
   26.8130    1.7820   52.4910 C   0  0  0  0  0  2  0  0  0  0  0  0
   27.9500    2.2400   53.3800 C   0  0  0  0  0  2  0  0  0  0  0  0
   29.0220    1.1890   53.3830 C   0  0  0  0  0  2  0  0  0  0  0  0
   28.7150    0.0370   54.1660 N   0  0  2  0  0  0  0  0  0  0  0  0
   29.8900   -0.8280   54.2090 C   0  0  0  0  0  2  0  0  0  0  0  0
   28.0370   -1.0180   53.5070 C   0  0  2  0  0  3  0  0  0  0  0  0
   29.3250   -1.5210   52.9640 C   0  0  0  0  0  2  0  0  0  0  0  0
   26.9460   -0.6280   52.5640 C   0  0  0  0  0  2  0  0  0  0  0  0
   20.2720   -0.4480   53.4250 N   0  0  0  0  0  0  0  0  0  0  0  0
   20.0720    0.3710   52.7890 H   0  0  0  0  0  0  0  0  0  0  0  0
   19.3330   -0.8730   53.4780 H   0  0  0  0  0  0  0  0  0  0  0  0
   20.9340    4.6910   50.0400 O   0  0  0  0  0  0  0  0  0  0  0  0
   21.6830    5.2230   50.5000 H   0  0  0  0  0  0  0  0  0  0  0  0
  1  2  1  0  0  0  0
  2  3  2  0  0  0  0
  4  3  1  0  0  0  0
  5  4  2  0  0  0  0
  6  5  1  0  0  0  0
  6  1  2  0  0  0  0
  7  6  1  0  0  0  0
  8  7  1  0  0  0  0
  9  8  2  0  0  0  0
 10  9  1  0  0  0  0
 11 10  2  0  0  0  0
 11 12  1  0  0  0  0
 12 13  2  0  0  0  0
 13  8  1  0  0  0  0
 14  7  2  0  0  0  0
 14 15  1  0  0  0  0
 15 16  1  0  0  0  0
 15  5  1  0  0  0  0
 16 17  1  6  0  0  0
 17 18  1  0  0  0  0
 18 19  1  0  0  0  0
 20 19  1  6  0  0  0
 20 21  1  0  0  0  0
 22 24  1  6  0  0  0
 22 20  1  0  0  0  0
 23 22  1  0  0  0  0
 23 21  1  0  0  0  0
 24 16  1  0  0  0  0
 25 27  1  0  0  0  0
 25  1  1  0  0  0  0
 26 25  1  0  0  0  0
 28 12  1  0  0  0  0
 28 29  1  0  0  0  0
M  END
>  <TORSDO>
F 3

$$$$
