C:\Qe-CaDD\Project\Data\Stage_6_Molecular_Dynamics\ligands_top\out_12186_EGFR_extracted.pdbqt
 OpenBabel01082506443D

 26 28  0  0  1  0  0  0  0  0999 V2000
   21.4500   -0.6140   53.4050 C   0  0  2  0  0  3  0  0  0  0  0  0
   21.8200   -0.9980   54.8140 C   0  0  0  0  0  2  0  0  0  0  0  0
   23.2030   -1.2990   54.8240 O   0  0  0  0  0  0  0  0  0  0  0  0
   24.0160   -0.3790   54.1450 C   0  0  0  0  0  0  0  0  0  0  0  0
   25.3940   -0.4530   54.3760 C   0  0  0  0  0  3  0  0  0  0  0  0
   26.1820    0.4660   53.6950 C   0  0  0  0  0  0  0  0  0  0  0  0
   27.4990    0.3670   53.9410 N   0  0  0  0  0  0  0  0  0  0  0  0
   28.3650    1.2200   53.3290 C   0  0  0  0  0  3  0  0  0  0  0  0
   27.8620    2.1460   52.4870 N   0  0  0  0  0  0  0  0  0  0  0  0
   26.5710    2.2930   52.2040 C   0  0  0  0  0  0  0  0  0  0  0  0
   25.6980    1.4240   52.8290 C   0  0  0  0  0  0  0  0  0  0  0  0
   24.3360    1.4740   52.6230 C   0  0  0  0  0  3  0  0  0  0  0  0
   23.5160    0.5730   53.2830 C   0  0  0  0  0  0  0  0  0  0  0  0
   22.1390    0.5930   53.1010 O   0  0  0  0  0  0  0  0  0  0  0  0
   26.0760    3.2900   51.3020 N   0  0  0  0  0  0  0  0  0  0  0  0
   25.2840    3.9820   51.4590 H   0  0  0  0  0  0  0  0  0  0  0  0
   26.6300    3.4860   49.9810 C   0  0  0  0  0  2  0  0  0  0  0  0
   26.0700    4.4370   49.2140 C   0  0  0  0  0  2  0  0  0  0  0  0
   25.0950    4.8290   50.1910 C   0  0  0  0  0  2  0  0  0  0  0  0
   24.0880    5.6790   50.1620 C   0  0  0  0  0  2  0  0  0  0  0  0
   23.7580    5.3470   51.5710 C   0  0  0  0  0  3  0  0  0  0  0  0
   22.8200    4.7610   52.3080 C   0  0  0  0  0  3  0  0  0  0  0  0
   21.0730    3.9070   51.5370 I   0  0  0  0  0  0  0  0  0  0  0  0
   19.9550   -0.4270   53.2480 C   0  0  0  0  0  2  0  0  0  0  0  0
   19.6520    0.2660   52.0860 O   0  0  0  0  0  0  0  0  0  0  0  0
   18.4150   -0.1850   51.6220 C   0  0  0  0  0  1  0  0  0  0  0  0
  1 24  1  1  0  0  0
  1  2  1  0  0  0  0
  2  3  1  0  0  0  0
  4  5  1  0  0  0  0
  4  3  1  0  0  0  0
  6  7  1  0  0  0  0
  6  5  2  0  0  0  0
  8  7  2  0  0  0  0
  9  8  1  0  0  0  0
 10  9  2  0  0  0  0
 10 11  1  0  0  0  0
 11  6  1  0  0  0  0
 12 11  2  0  0  0  0
 12 13  1  0  0  0  0
 13  4  2  0  0  0  0
 14 13  1  0  0  0  0
 14  1  1  0  0  0  0
 15 16  1  0  0  0  0
 15 10  1  0  0  0  0
 17 15  1  0  0  0  0
 18 17  1  0  0  0  0
 18 19  1  0  0  0  0
 20 19  1  0  0  0  0
 20 21  1  0  0  0  0
 21 22  2  0  0  0  0
 23 22  1  0  0  0  0
 25 24  1  0  0  0  0
 26 25  1  0  0  0  0
M  END
>  <TORSDO>
F 6

$$$$
