C:\Qe-CaDD\Project\Data\Stage_6_Molecular_Dynamics\ligands_top\out_11306_EGFR_extracted.pdbqt
 OpenBabel01082506443D

 24 26  0  0  1  0  0  0  0  0999 V2000
   24.7500    2.7100   52.2720 C   0  0  0  0  0  0  0  0  0  0  0  0
   23.5460    2.1990   52.5760 N   0  0  0  0  0  0  0  0  0  0  0  0
   23.3870    0.9240   53.0370 C   0  0  0  0  0  3  0  0  0  0  0  0
   24.5070    0.1090   53.2070 C   0  0  0  0  0  3  0  0  0  0  0  0
   25.7320    0.6540   52.8870 C   0  0  0  0  0  0  0  0  0  0  0  0
   25.8180    1.9140   52.4380 N   0  0  0  0  0  0  0  0  0  0  0  0
   24.7030    4.0540   51.8200 N   0  0  0  0  0  0  0  0  0  0  0  0
   24.6850    4.4590   52.7710 H   0  0  0  0  0  0  0  0  0  0  0  0
   24.7090    3.9190   50.3430 C   0  0  0  0  0  2  0  0  0  0  0  0
   25.8030    4.8420   49.8510 C   0  0  2  0  0  3  0  0  0  0  0  0
   25.3560    5.8870   48.9950 N   0  0  0  0  0  0  0  0  0  0  0  0
   26.4610    6.7980   48.7790 C   0  0  0  0  0  2  0  0  0  0  0  0
   27.7340    6.1200   48.4340 C   0  0  0  0  0  3  0  0  0  0  0  0
   27.9540    4.8410   48.5940 C   0  0  0  0  0  3  0  0  0  0  0  0
   26.8710    4.0270   49.1500 C   0  0  0  0  0  2  0  0  0  0  0  0
   24.1490    6.5480   49.3710 C   0  0  0  0  0  2  0  0  0  0  0  0
   24.3120    7.7200   50.2720 C   0  0  0  0  0  2  0  0  0  0  0  0
   23.9410    7.2090   51.3260 O   0  0  0  0  0  1  0  0  0  0  0  0
   26.9320   -0.1480   53.0420 C   0  0  0  0  0  0  0  0  0  0  0  0
   28.1390    0.3990   53.3610 C   0  0  0  0  0  3  0  0  0  0  0  0
   29.1820   -0.4930   53.4650 C   0  0  0  0  0  3  0  0  0  0  0  0
   29.1320   -1.8360   53.2870 C   0  0  0  0  0  3  0  0  0  0  0  0
   27.9040   -2.3500   52.9710 N   0  0  0  0  0  0  0  0  0  0  0  0
   26.8310   -1.5280   52.8510 C   0  0  0  0  0  3  0  0  0  0  0  0
  1  6  1  0  0  0  0
  1  2  2  0  0  0  0
  2  3  1  0  0  0  0
  3  4  2  0  0  0  0
  5 19  1  0  0  0  0
  5  4  1  0  0  0  0
  6  5  2  0  0  0  0
  7  1  1  0  0  0  0
  7  8  1  0  0  0  0
  9  7  1  0  0  0  0
 10  9  1  6  0  0  0
 11 16  1  0  0  0  0
 11 10  1  0  0  0  0
 12 11  1  0  0  0  0
 13 14  2  0  0  0  0
 13 12  1  0  0  0  0
 14 15  1  0  0  0  0
 15 10  1  0  0  0  0
 16 17  1  0  0  0  0
 17 18  1  0  0  0  0
 19 20  1  0  0  0  0
 20 21  2  0  0  0  0
 22 21  1  0  0  0  0
 23 22  2  0  0  0  0
 24 23  1  0  0  0  0
 24 19  2  0  0  0  0
M  END
>  <TORSDO>
F 6

$$$$
