C:\Qe-CaDD\Project\Data\Stage_6_Molecular_Dynamics\ligands_top\out_16845_EGFR_extracted.pdbqt
 OpenBabel01082506443D

 34 40  0  0  1  0  0  0  0  0999 V2000
   25.6920    6.7960   49.4480 C   0  0  0  0  0  2  0  0  0  0  0  0
   25.4440    6.0340   50.4560 N   0  0  2  0  0  0  0  0  0  0  0  0
   25.1130    5.0080   49.5130 C   0  0  1  0  0  0  0  0  0  0  0  0
   24.9800    3.8070   48.9610 C   0  0  0  0  0  2  0  0  0  0  0  0
   25.5790    3.3140   50.1610 C   0  0  0  0  0  0  0  0  0  0  0  0
   26.0290    2.3880   50.9440 C   0  0  0  0  0  0  0  0  0  0  0  0
   26.4340    1.1580   51.5710 C   0  0  0  0  0  3  0  0  0  0  0  0
   26.9700    1.2640   52.7640 C   0  0  1  0  0  3  0  0  0  0  0  0
   27.2650    2.4230   53.6330 C   0  0  0  0  0  2  0  0  0  0  0  0
   28.8080    2.4680   53.6630 C   0  0  0  0  0  2  0  0  0  0  0  0
   29.2140    1.1660   54.3100 C   0  0  0  0  0  2  0  0  0  0  0  0
   28.6970   -0.0620   53.6260 C   0  0  0  0  0  2  0  0  0  0  0  0
   27.3040   -0.0270   53.3210 N   0  0  1  0  0  0  0  0  0  0  0  0
   26.1130   -0.8540   53.3870 C   0  0  0  0  0  2  0  0  0  0  0  0
   25.2200   -0.3730   54.5050 C   0  0  0  0  0  2  0  0  0  0  0  0
   23.9300   -1.1230   54.5120 C   0  0  0  0  0  2  0  0  0  0  0  0
   23.1510   -1.0480   53.3720 O   0  0  0  0  0  0  0  0  0  0  0  0
   22.6610    0.2130   52.9200 C   0  0  0  0  0  0  0  0  0  0  0  0
   21.3660   -0.1290   52.3700 C   0  0  0  0  0  3  0  0  0  0  0  0
   20.7520    1.0320   51.8710 C   0  0  0  0  0  3  0  0  0  0  0  0
   21.2130    2.3410   51.8520 C   0  0  0  0  0  0  0  0  0  0  0  0
   22.5180    2.3740   52.4630 C   0  0  0  0  0  3  0  0  0  0  0  0
   23.4290    1.4340   53.0630 C   0  0  0  0  0  3  0  0  0  0  0  0
   20.7160    3.5610   51.3890 N   0  0  0  0  0  0  0  0  0  0  0  0
   21.1010    3.8960   50.0590 C   0  0  0  0  0  0  0  0  0  0  0  0
   20.4230    3.2580   49.1050 N   0  0  0  0  0  0  0  0  0  0  0  0
   20.7280    3.5190   47.8160 C   0  0  0  0  0  3  0  0  0  0  0  0
   21.7360    4.4420   47.5980 C   0  0  0  0  0  3  0  0  0  0  0  0
   22.4260    5.0920   48.5900 C   0  0  0  0  0  0  0  0  0  0  0  0
   22.1020    4.8130   49.8670 N   0  0  0  0  0  0  0  0  0  0  0  0
   23.4210    5.9980   48.1590 N   0  0  0  0  0  0  0  0  0  0  0  0
   24.6400    6.2610   48.8910 C   0  0  2  0  0  0  0  0  0  0  0  0
   20.2330    3.7010   52.3260 H   0  0  0  0  0  0  0  0  0  0  0  0
   23.3230    6.5300   47.2750 H   0  0  0  0  0  0  0  0  0  0  0  0
  2  1  1  6  0  0  0
  3  4  1  6  0  0  0
  3  5  1  0  0  0  0
  3  2  1  0  0  0  0
  4  5  1  0  0  0  0
  5  6  2  0  0  0  0
  6  7  2  0  0  0  0
  8  7  1  1  0  0  0
  8 13  1  0  0  0  0
  8  9  1  0  0  0  0
  9 10  1  0  0  0  0
 10 11  1  0  0  0  0
 12 11  1  0  0  0  0
 13 14  1  1  0  0  0
 13 12  1  0  0  0  0
 14 15  1  0  0  0  0
 15 16  1  0  0  0  0
 17 16  1  0  0  0  0
 18 23  1  0  0  0  0
 18 17  1  0  0  0  0
 19 18  2  0  0  0  0
 20 19  1  0  0  0  0
 21 20  2  0  0  0  0
 21 22  1  0  0  0  0
 22 23  2  0  0  0  0
 24 21  1  0  0  0  0
 24 33  1  0  0  0  0
 25 24  1  0  0  0  0
 26 25  2  0  0  0  0
 27 26  1  0  0  0  0
 28 27  2  0  0  0  0
 28 29  1  0  0  0  0
 29 30  2  0  0  0  0
 30 25  1  0  0  0  0
 31 29  1  0  0  0  0
 31 32  1  0  0  0  0
 32  1  1  6  0  0  0
 32  3  1  0  0  0  0
 32  2  1  0  0  0  0
 34 31  1  0  0  0  0
M  END
>  <TORSDO>
F 0

$$$$
