C:\Qe-CaDD\Project\Data\Stage_6_Molecular_Dynamics\ligands_top\out_10614_EGFR_extracted.pdbqt
 OpenBabel01082506443D

 33 35  0  0  1  0  0  0  0  0999 V2000
   26.8560    6.3350   48.9410 C   0  0  1  0  0  3  0  0  0  0  0  0
   27.2570    5.0910   48.7070 C   0  0  0  0  0  3  0  0  0  0  0  0
   26.6560    3.8400   49.2970 C   0  0  0  0  0  0  0  0  0  0  0  0
   25.8630    3.0290   50.0010 C   0  0  0  0  0  3  0  0  0  0  0  0
   24.7250    3.0250   50.8990 N   0  0  0  0  0  0  0  0  0  0  0  0
   23.3810    2.9360   50.3270 C   0  0  0  0  0  0  0  0  0  0  0  0
   23.4510    2.8190   49.0530 O   0  0  0  0  0  0  0  0  0  0  0  0
   22.0340    2.9680   51.0260 C   0  0  0  0  0  2  0  0  0  0  0  0
   22.1680    3.6320   52.2400 O   0  0  0  0  0  0  0  0  0  0  0  0
   23.4070    4.1780   52.4530 C   0  0  2  0  0  3  0  0  0  0  0  0
   23.7740    5.2740   51.4930 C   0  0  0  0  0  2  0  0  0  0  0  0
   23.7290    6.1580   50.5450 N   0  0  0  0  0  0  0  0  0  0  0  0
   24.8580    7.0130   50.2140 C   0  0  0  0  0  0  0  0  0  0  0  0
   25.9610    7.0930   49.6540 N   0  0  0  0  0  2  0  0  0  0  0  0
   24.5280    3.1310   52.3620 C   0  0  1  0  0  3  0  0  0  0  0  0
   24.4840    1.9390   53.1370 C   0  0  0  0  0  2  0  0  0  0  0  0
   25.4280    0.8160   53.0020 C   0  0  0  0  0  2  0  0  0  0  0  0
   26.6260    1.1700   53.7540 N   0  0  0  0  0  0  0  0  0  0  0  0
   27.0330    0.1490   54.6580 C   0  0  0  0  0  2  0  0  0  0  0  0
   28.5410    0.2520   54.9370 C   0  0  0  0  0  2  0  0  0  0  0  0
   28.8330    1.6120   55.0090 O   0  0  0  0  0  0  0  0  0  0  0  0
   28.8700    2.0930   53.6970 C   0  0  0  0  0  2  0  0  0  0  0  0
   27.6770    1.6420   52.8920 C   0  0  0  0  0  2  0  0  0  0  0  0
   24.5680    8.3040   50.7700 N   0  0  0  0  0  0  0  0  0  0  0  0
   24.9560    9.2140   50.3980 H   0  0  0  0  0  0  0  0  0  0  0  0
   23.9290    8.3340   51.5980 H   0  0  0  0  0  0  0  0  0  0  0  0
   27.6250    7.3770   48.2250 C   0  0  0  0  0  2  0  0  0  0  0  0
   29.0650    6.9530   48.1950 C   0  0  0  0  0  3  0  0  0  0  0  0
   30.2030    7.4160   48.6830 C   0  0  0  0  0  0  0  0  0  0  0  0
   29.8000    8.5470   49.3500 F   0  0  0  0  0  0  0  0  0  0  0  0
   31.6700    7.4610   48.9570 C   0  0  1  0  0  3  0  0  0  0  0  0
   32.4000    8.1310   47.8360 C   0  0  0  0  0  1  0  0  0  0  0  0
   31.9050    8.1900   50.1290 F   0  0  0  0  0  0  0  0  0  0  0  0
  1 27  1  1  0  0  0
  1 14  1  0  0  0  0
  2  1  1  0  0  0  0
  2  3  2  0  0  0  0
  3  4  2  0  0  0  0
  4  5  1  0  0  0  0
  5 15  1  0  0  0  0
  6  5  1  0  0  0  0
  6  8  1  0  0  0  0
  7  6  2  0  0  0  0
  8  9  1  0  0  0  0
  9 10  1  0  0  0  0
 10 11  1  6  0  0  0
 12 11  1  0  0  0  0
 13 12  2  0  0  0  0
 13 24  1  0  0  0  0
 14 13  1  0  0  0  0
 15 10  1  0  0  0  0
 15 16  1  6  0  0  0
 17 16  1  0  0  0  0
 17 18  1  0  0  0  0
 18 19  1  0  0  0  0
 19 20  1  0  0  0  0
 20 21  1  0  0  0  0
 22 21  1  0  0  0  0
 23 22  1  0  0  0  0
 23 18  1  0  0  0  0
 24 26  1  0  0  0  0
 25 24  1  0  0  0  0
 28 27  1  0  0  0  0
 28 29  2  0  0  0  0
 29 31  1  0  0  0  0
 29 30  1  0  0  0  0
 31 32  1  6  0  0  0
 31 33  1  0  0  0  0
M  END
>  <TORSDO>
F 7

$$$$
