C:\Qe-CaDD\Project\Data\Stage_6_Molecular_Dynamics\ligands_top\out_20285_EGFR_extracted.pdbqt
 OpenBabel01082506443D

 30 33  0  0  1  0  0  0  0  0999 V2000
   19.8230   -0.4530   53.0710 C   0  0  0  0  0  0  0  0  0  0  0  0
   19.5980    0.1730   51.8620 C   0  0  0  0  0  3  0  0  0  0  0  0
   20.6560    0.6590   51.1240 C   0  0  0  0  0  0  0  0  0  0  0  0
   21.9390    0.4880   51.6500 C   0  0  0  0  0  3  0  0  0  0  0  0
   22.1700   -0.1340   52.8520 C   0  0  0  0  0  0  0  0  0  0  0  0
   23.4580   -0.2770   53.3240 C   0  0  0  0  0  0  0  0  0  0  0  0
   23.6850   -0.8900   54.5060 N   0  0  0  0  0  0  0  0  0  0  0  0
   22.6200   -1.3610   55.2200 C   0  0  0  0  0  3  0  0  0  0  0  0
   21.3520   -1.2290   54.7700 N   0  0  0  0  0  0  0  0  0  0  0  0
   21.0910   -0.6180   53.5850 C   0  0  0  0  0  0  0  0  0  0  0  0
   20.5980    1.3010   49.9110 O   0  0  0  0  0  0  0  0  0  0  0  0
   21.7210    2.0470   49.4810 C   0  0  0  0  0  2  0  0  0  0  0  0
   21.5030    3.5300   49.7430 C   0  0  0  0  0  2  0  0  0  0  0  0
   22.7990    4.1730   49.8700 N   0  0  0  0  0  0  0  0  0  0  0  0
   23.8460    3.2130   50.1540 C   0  0  0  0  0  2  0  0  0  0  0  0
   24.6160    3.5830   51.3870 C   0  0  0  0  0  2  0  0  0  0  0  0
   23.6730    3.6280   52.5560 C   0  0  0  0  0  2  0  0  0  0  0  0
   22.6080    4.6630   52.2620 C   0  0  0  0  0  2  0  0  0  0  0  0
   22.7610    5.2300   50.8670 C   0  0  0  0  0  2  0  0  0  0  0  0
   18.7700   -0.9460   53.8260 O   0  0  0  0  0  0  0  0  0  0  0  0
   17.7970   -1.7540   53.1950 C   0  0  0  0  0  1  0  0  0  0  0  0
   24.5900    0.1860   52.6410 N   0  0  0  0  0  0  0  0  0  0  0  0
   24.7170    0.7120   51.7510 H   0  0  0  0  0  0  0  0  0  0  0  0
   25.9500    0.0370   53.0280 C   0  0  0  0  0  0  0  0  0  0  0  0
   26.7110    0.9410   53.6640 C   0  0  0  0  0  3  0  0  0  0  0  0
   28.1110    0.4500   53.9170 C   0  0  1  0  0  3  0  0  0  0  0  0
   28.2030    0.3520   55.2970 F   0  0  0  0  0  0  0  0  0  0  0  0
   28.0410   -0.9190   53.3130 C   0  0  0  0  0  0  0  0  0  0  0  0
   29.2740   -2.1640   53.1890 Cl  0  0  0  0  0  0  0  0  0  0  0  0
   26.8230   -1.1110   52.8270 C   0  0  0  0  0  3  0  0  0  0  0  0
  1 10  1  0  0  0  0
  1 20  1  0  0  0  0
  2  1  2  0  0  0  0
  3  4  2  0  0  0  0
  3  2  1  0  0  0  0
  4  5  1  0  0  0  0
  5  6  2  0  0  0  0
  5 10  1  0  0  0  0
  6  7  1  0  0  0  0
  7  8  2  0  0  0  0
  9  8  1  0  0  0  0
 10  9  2  0  0  0  0
 11  3  1  0  0  0  0
 12 13  1  0  0  0  0
 12 11  1  0  0  0  0
 13 14  1  0  0  0  0
 14 15  1  0  0  0  0
 14 19  1  0  0  0  0
 15 16  1  0  0  0  0
 16 17  1  0  0  0  0
 18 17  1  0  0  0  0
 19 18  1  0  0  0  0
 21 20  1  0  0  0  0
 22 24  1  0  0  0  0
 22  6  1  0  0  0  0
 23 22  1  0  0  0  0
 24 25  2  0  0  0  0
 25 26  1  0  0  0  0
 26 27  1  1  0  0  0
 28 26  1  0  0  0  0
 29 28  1  0  0  0  0
 30 24  1  0  0  0  0
 30 28  2  0  0  0  0
M  END
>  <TORSDO>
F 7

$$$$
