C:\Qe-CaDD\Project\Data\Stage_6_Molecular_Dynamics\ligands_top\out_1755_EGFR_extracted.pdbqt
 OpenBabel01082506443D

 24 27  0  0  1  0  0  0  0  0999 V2000
   24.6260    2.2820   53.5020 N   0  0  0  0  0  0  0  0  0  0  0  0
   25.2640    1.1060   53.3730 C   0  0  0  0  0  2  0  0  0  0  0  0
   25.9080    2.3060   53.7300 C   0  0  0  0  0  2  0  0  0  0  0  0
   25.2640    1.1010   53.3720 C   0  0  0  0  0  2  0  0  0  0  0  0
   26.2390    1.1470   52.0700 O   0  0  0  0  0  0  0  0  0  0  0  0
   27.6130    0.6210   52.6760 C   0  0  2  0  0  0  0  0  0  0  0  0
   26.7460   -0.5070   52.0920 C   0  0  1  0  0  3  0  0  0  0  0  0
   27.8110   -1.0450   52.6820 C   0  0  1  0  0  0  0  0  0  0  0  0
   28.9690   -1.3300   53.3360 C   0  0  2  0  0  3  0  0  0  0  0  0
   29.1280   -2.9930   53.5040 Cl  0  0  0  0  0  0  0  0  0  0  0  0
   29.5240   -0.1060   53.7110 C   0  0  0  0  0  3  0  0  0  0  0  0
   28.8480    1.0160   53.4020 C   0  0  0  0  0  0  0  0  0  0  0  0
   28.7280    2.4980   53.6150 C   0  0  0  0  0  2  0  0  0  0  0  0
   27.2340    2.7560   54.0520 N   0  0  0  0  0  2  0  0  0  0  0  0
   26.3120   -1.3780   53.0360 N   0  0  1  0  0  4  0  0  0  0  0  0
   25.1850   -0.5150   53.0100 C   0  0  0  0  0  2  0  0  0  0  0  0
   26.5390    3.2560   54.6520 H   0  0  0  0  0  0  0  0  0  0  0  0
   26.3500   -2.3630   53.3120 H   0  0  0  0  0  0  0  0  0  0  0  0
   23.9880    3.0480   52.8200 C   0  0  0  0  0  2  0  0  0  0  0  0
   23.2820    4.0350   52.0330 C   0  0  0  0  0  2  0  0  0  0  0  0
   23.8110    3.4920   50.9040 C   0  0  0  0  0  2  0  0  0  0  0  0
   24.7160    4.4910   50.1590 C   0  0  0  0  0  2  0  0  0  0  0  0
   25.7460    4.9770   49.5350 C   0  0  0  0  0  2  0  0  0  0  0  0
   26.4710    3.7070   49.6800 Br  0  0  0  0  0  0  0  0  0  0  0  0
  1  3  1  0  0  0  0
  2  1  1  0  0  0  0
  2  3  1  0  0  0  0
  5  4  1  0  0  0  0
  6  5  1  1  0  0  0
  6  8  1  0  0  0  0
  6 12  1  0  0  0  0
  7  6  1  0  0  0  0
  7  8  1  0  0  0  0
  7 15  1  0  0  0  0
  8 15  1  0  0  0  0
  8  9  1  0  0  0  0
  9 10  1  0  0  0  0
  9 11  1  0  0  0  0
 12 13  1  0  0  0  0
 12 11  2  0  0  0  0
 13 14  1  0  0  0  0
 14 17  1  0  0  0  0
 15 18  1  0  0  0  0
 16 15  1  0  0  0  0
 16  4  1  0  0  0  0
 19  1  1  0  0  0  0
 20 19  1  0  0  0  0
 21 20  1  0  0  0  0
 22 21  1  0  0  0  0
 23 24  1  0  0  0  0
 23 22  1  0  0  0  0
M  END
>  <TORSDO>
F 5

$$$$
