C:\Qe-CaDD\Project\Data\Stage_6_Molecular_Dynamics\ligands_top\out_16716_EGFR_extracted.pdbqt
 OpenBabel01082506443D

 24 26  0  0  0  0  0  0  0  0999 V2000
   21.9500    0.7520   53.0180 C   0  0  0  0  0  0  0  0  0  0  0  0
   22.5730    1.5650   52.0940 C   0  0  0  0  0  3  0  0  0  0  0  0
   23.9230    1.3720   51.8980 C   0  0  0  0  0  3  0  0  0  0  0  0
   24.7170    0.4530   52.5270 C   0  0  0  0  0  0  0  0  0  0  0  0
   24.0380   -0.3290   53.4380 C   0  0  0  0  0  3  0  0  0  0  0  0
   22.6920   -0.1930   53.6870 C   0  0  0  0  0  0  0  0  0  0  0  0
   21.9260   -1.2380   54.8650 Cl  0  0  0  0  0  0  0  0  0  0  0  0
   20.5880    0.8950   53.2640 O   0  0  0  0  0  0  0  0  0  0  0  0
   19.6750    0.9340   52.1820 C   0  0  0  0  0  2  0  0  0  0  0  0
   18.5800   -0.0550   52.3150 C   0  0  0  0  0  0  0  0  0  0  0  0
   17.4490   -0.0090   51.5400 C   0  0  0  0  0  3  0  0  0  0  0  0
   16.4070   -0.9080   51.6310 C   0  0  0  0  0  3  0  0  0  0  0  0
   16.5310   -1.9120   52.5700 C   0  0  0  0  0  3  0  0  0  0  0  0
   17.6350   -2.0070   53.3680 C   0  0  0  0  0  0  0  0  0  0  0  0
   17.8170   -2.9730   54.3110 F   0  0  0  0  0  0  0  0  0  0  0  0
   18.6540   -1.0810   53.2380 C   0  0  0  0  0  3  0  0  0  0  0  0
   26.0950    0.2610   52.3210 N   0  0  0  0  0  0  0  0  0  0  0  0
   26.3800   -0.2730   51.4610 H   0  0  0  0  0  0  0  0  0  0  0  0
   27.1640    0.7040   53.1410 C   0  0  0  0  0  0  0  0  0  0  0  0
   27.7050    1.9640   52.9830 C   0  0  0  0  0  3  0  0  0  0  0  0
   28.7290    2.4900   53.7130 C   0  0  0  0  0  3  0  0  0  0  0  0
   29.2550    1.6910   54.6790 N   0  0  0  0  0  0  0  0  0  0  0  0
   28.7690    0.4470   54.8840 C   0  0  0  0  0  3  0  0  0  0  0  0
   27.7750    0.0280   54.1250 N   0  0  0  0  0  0  0  0  0  0  0  0
  1  8  1  0  0  0  0
  1  6  1  0  0  0  0
  2  1  2  0  0  0  0
  3  2  1  0  0  0  0
  3  4  2  0  0  0  0
  4  5  1  0  0  0  0
  5  6  2  0  0  0  0
  6  7  1  0  0  0  0
  9 10  1  0  0  0  0
  9  8  1  0  0  0  0
 10 16  1  0  0  0  0
 11 12  1  0  0  0  0
 11 10  2  0  0  0  0
 12 13  2  0  0  0  0
 13 14  1  0  0  0  0
 14 15  1  0  0  0  0
 16 14  2  0  0  0  0
 17  4  1  0  0  0  0
 17 19  1  0  0  0  0
 18 17  1  0  0  0  0
 19 24  1  0  0  0  0
 20 19  2  0  0  0  0
 20 21  1  0  0  0  0
 21 22  2  0  0  0  0
 22 23  1  0  0  0  0
 24 23  2  0  0  0  0
M  END
>  <TORSDO>
F 5

$$$$
