C:\Qe-CaDD\Project\Data\Stage_6_Molecular_Dynamics\ligands_top\out_21744_EGFR_extracted.pdbqt
 OpenBabel01082506443D

 29 30  0  0  0  0  0  0  0  0999 V2000
   24.3370    1.2400   53.3370 C   0  0  0  0  0  0  0  0  0  0  0  0
   23.1100    1.3350   52.7150 C   0  0  0  0  0  3  0  0  0  0  0  0
   22.6690    2.5510   52.2070 C   0  0  0  0  0  0  0  0  0  0  0  0
   21.4660    2.5990   51.6080 N   0  0  0  0  0  0  0  0  0  0  0  0
   20.9850    3.7630   51.0940 C   0  0  0  0  0  3  0  0  0  0  0  0
   21.7180    4.9530   51.1660 C   0  0  0  0  0  0  0  0  0  0  0  0
   21.1940    6.1630   50.6190 C   0  0  0  0  0  0  0  0  0  0  0  0
   20.7530    7.1340   50.1710 N   0  0  0  0  0  0  0  0  0  0  0  0
   22.9360    4.8370   51.7900 C   0  0  0  0  0  0  0  0  0  0  0  0
   23.4640    3.6840   52.3230 C   0  0  0  0  0  0  0  0  0  0  0  0
   24.6900    3.6100   52.9400 C   0  0  0  0  0  3  0  0  0  0  0  0
   25.1100    2.3850   53.4400 C   0  0  0  0  0  0  0  0  0  0  0  0
   23.7150    6.0200   51.8870 N   0  0  0  0  0  0  0  0  0  0  0  0
   23.7860    6.8000   52.5710 H   0  0  0  0  0  0  0  0  0  0  0  0
   24.7040    6.5130   50.9980 C   0  0  0  0  0  3  0  0  0  0  0  0
   25.0710    5.9230   49.8540 C   0  0  0  0  0  3  0  0  0  0  0  0
   26.1000    6.4910   48.9880 C   0  0  0  0  0  3  0  0  0  0  0  0
   27.1240    5.7630   48.5710 C   0  0  0  0  0  0  0  0  0  0  0  0
   27.2270    4.3420   48.9930 C   0  0  0  0  0  1  0  0  0  0  0  0
   28.0520    6.3340   47.7700 F   0  0  0  0  0  0  0  0  0  0  0  0
   26.3980    2.3110   54.0880 N   0  0  0  0  0  0  0  0  0  0  0  0
   27.4780    2.1560   53.1750 C   0  0  0  0  0  0  0  0  0  0  0  0
   27.4060    2.0810   51.9250 O   0  0  0  0  0  0  0  0  0  0  0  0
   26.5500    2.3630   55.1190 H   0  0  0  0  0  0  0  0  0  0  0  0
   28.8210    2.0700   53.7280 C   0  0  0  0  0  2  0  0  0  0  0  0
   29.4400    0.9100   53.7010 C   0  0  0  0  0  2  0  0  0  0  0  0
   30.1470   -0.6750   53.6050 Cl  0  0  0  0  0  0  0  0  0  0  0  0
   24.8250    0.0510   53.8610 O   0  0  0  0  0  0  0  0  0  0  0  0
   25.4080   -0.8640   52.9650 C   0  0  0  0  0  1  0  0  0  0  0  0
  1 12  1  0  0  0  0
  1 28  1  0  0  0  0
  2  1  2  0  0  0  0
  3 10  1  0  0  0  0
  3  2  1  0  0  0  0
  4  3  2  0  0  0  0
  5  6  2  0  0  0  0
  5  4  1  0  0  0  0
  6  9  1  0  0  0  0
  7  6  1  0  0  0  0
  8  7  3  0  0  0  0
  9 13  1  0  0  0  0
  9 10  2  0  0  0  0
 10 11  1  0  0  0  0
 11 12  2  0  0  0  0
 12 21  1  0  0  0  0
 13 14  1  0  0  0  0
 15 13  1  0  0  0  0
 16 15  2  0  0  0  0
 17 16  1  0  0  0  0
 18 17  2  0  0  0  0
 18 19  1  0  0  0  0
 20 18  1  0  0  0  0
 21 24  1  0  0  0  0
 22 25  1  0  0  0  0
 22 21  1  0  0  0  0
 23 22  2  0  0  0  0
 26 25  1  0  0  0  0
 27 26  1  0  0  0  0
 29 28  1  0  0  0  0
M  END
>  <TORSDO>
F 6

$$$$
