C:\Qe-CaDD\Project\Data\Stage_6_Molecular_Dynamics\ligands_top\out_16575_EGFR_extracted.pdbqt
 OpenBabel01082506443D

 30 33  0  0  1  0  0  0  0  0999 V2000
   22.2610    0.5110   52.4400 C   0  0  0  0  0  0  0  0  0  0  0  0
   20.9140    0.7010   52.3290 N   0  0  0  0  0  0  0  0  0  0  0  0
   20.1360    0.1950   53.3230 C   0  0  0  0  0  3  0  0  0  0  0  0
   20.6860   -0.4600   54.3600 N   0  0  0  0  0  0  0  0  0  0  0  0
   22.0070   -0.6510   54.4790 N   0  0  0  0  0  0  0  0  0  0  0  0
   22.8560   -1.2410   55.3140 C   0  0  0  0  0  3  0  0  0  0  0  0
   24.1600   -1.1200   54.8810 C   0  0  0  0  0  3  0  0  0  0  0  0
   24.1310   -0.3960   53.6810 C   0  0  0  0  0  0  0  0  0  0  0  0
   22.7850   -0.1580   53.5120 C   0  0  0  0  0  0  0  0  0  0  0  0
   22.8480    1.0720   51.2470 N   0  0  0  0  0  0  0  0  0  0  0  0
   23.1090    0.7620   50.2870 H   0  0  0  0  0  0  0  0  0  0  0  0
   23.2330    2.4700   51.3190 C   0  0  0  0  0  0  0  0  0  0  0  0
   22.7530    3.4120   52.2440 C   0  0  0  0  0  3  0  0  0  0  0  0
   23.1260    4.7360   52.2520 C   0  0  0  0  0  3  0  0  0  0  0  0
   24.0190    5.2050   51.3160 C   0  0  0  0  0  0  0  0  0  0  0  0
   24.5220    4.3180   50.3810 C   0  0  0  0  0  0  0  0  0  0  0  0
   24.1260    2.9980   50.4020 C   0  0  0  0  0  3  0  0  0  0  0  0
   25.6660    4.8770   49.1740 Cl  0  0  0  0  0  0  0  0  0  0  0  0
   24.4530    6.5130   51.2400 O   0  0  0  0  0  0  0  0  0  0  0  0
   23.7310    7.6230   50.8180 C   0  0  0  0  0  1  0  0  0  0  0  0
   25.3470    0.0460   53.0100 C   0  0  0  0  0  2  0  0  0  0  0  0
   26.3850    0.5720   53.8600 N   0  0  0  0  0  0  0  0  0  0  0  0
   26.6560    1.9570   53.6180 C   0  0  0  0  0  2  0  0  0  0  0  0
   27.9270    2.3260   52.9750 C   0  0  0  0  0  2  0  0  0  0  0  0
   29.0770    1.5250   53.5300 C   0  0  2  0  0  3  0  0  0  0  0  0
   28.7800    0.0670   53.5750 C   0  0  0  0  0  2  0  0  0  0  0  0
   27.4630   -0.2260   54.2190 C   0  0  0  0  0  2  0  0  0  0  0  0
   29.4940    2.0820   54.7870 N   0  0  0  0  0  0  0  0  0  0  0  0
   28.7950    1.7830   55.5170 H   0  0  0  0  0  0  0  0  0  0  0  0
   29.4530    3.1320   54.7690 H   0  0  0  0  0  0  0  0  0  0  0  0
  1  9  1  0  0  0  0
  2  1  2  0  0  0  0
  2  3  1  0  0  0  0
  3  4  2  0  0  0  0
  4  5  1  0  0  0  0
  5  6  1  0  0  0  0
  7  6  2  0  0  0  0
  8  7  1  0  0  0  0
  9  8  2  0  0  0  0
  9  5  1  0  0  0  0
 10 12  1  0  0  0  0
 10  1  1  0  0  0  0
 11 10  1  0  0  0  0
 12 13  1  0  0  0  0
 13 14  2  0  0  0  0
 15 14  1  0  0  0  0
 16 17  1  0  0  0  0
 16 15  2  0  0  0  0
 17 12  2  0  0  0  0
 18 16  1  0  0  0  0
 19 15  1  0  0  0  0
 20 19  1  0  0  0  0
 21  8  1  0  0  0  0
 21 22  1  0  0  0  0
 22 27  1  0  0  0  0
 23 22  1  0  0  0  0
 24 25  1  0  0  0  0
 24 23  1  0  0  0  0
 25 26  1  0  0  0  0
 25 28  1  1  0  0  0
 26 27  1  0  0  0  0
 28 29  1  0  0  0  0
 30 28  1  0  0  0  0
M  END
>  <TORSDO>
F 6

$$$$
