C:\Qe-CaDD\Project\Data\Stage_6_Molecular_Dynamics\ligands_top\out_10353_EGFR_extracted.pdbqt
 OpenBabel01082506443D

 23 25  0  0  1  0  0  0  0  0999 V2000
   24.3730    1.7310   51.3430 C   0  0  0  0  0  0  0  0  0  0  0  0
   23.0820    1.0290   51.5610 C   0  0  0  0  0  3  0  0  0  0  0  0
   22.7450    0.2190   52.5260 N   0  0  0  0  0  0  0  0  0  0  0  0
   23.6910   -0.0960   53.5660 C   0  0  0  0  0  3  0  0  0  0  0  0
   24.9090    0.4210   53.5680 C   0  0  0  0  0  0  0  0  0  0  0  0
   25.8820    0.0990   54.6340 C   0  0  0  0  0  2  0  0  0  0  0  0
   26.6780    1.2430   54.7750 O   0  0  0  0  0  0  0  0  0  0  0  0
   27.4130    1.4600   53.6080 C   0  0  1  0  0  3  0  0  0  0  0  0
   26.4810    1.8200   52.5140 C   0  0  0  0  0  2  0  0  0  0  0  0
   25.2450    1.3240   52.4690 C   0  0  0  0  0  0  0  0  0  0  0  0
   24.2110    3.1590   51.2400 N   0  0  0  0  0  0  0  0  0  0  0  0
   24.7770    4.1600   50.3690 C   0  0  1  0  0  3  0  0  0  0  0  0
   24.2070    5.4790   50.7750 C   0  0  0  0  0  0  0  0  0  0  0  0
   23.3570    5.8880   51.6950 C   0  0  0  0  0  3  0  0  0  0  0  0
   22.8530    4.7890   52.5110 C   0  0  0  0  0  3  0  0  0  0  0  0
   23.2720    3.5360   52.2700 C   0  0  0  0  0  3  0  0  0  0  0  0
   26.1460    4.1680   50.4060 O   0  0  0  0  0  0  0  0  0  0  0  0
   26.7510    3.8470   49.2280 C   0  0  0  0  0  2  0  0  0  0  0  0
   27.6560    4.8650   48.6310 C   0  0  0  0  0  1  0  0  0  0  0  0
   24.7910    6.3990   49.9020 O   0  0  0  0  0  0  0  0  0  0  0  0
   25.4510    7.5620   50.3810 C   0  0  0  0  0  1  0  0  0  0  0  0
   28.4070    2.3860   53.7960 O   0  0  0  0  0  0  0  0  0  0  0  0
   29.4690    1.9330   54.5860 C   0  0  0  0  0  1  0  0  0  0  0  0
  1  2  2  0  0  0  0
  1 10  1  0  0  0  0
  2  3  1  0  0  0  0
  3  4  2  0  0  0  0
  4  5  1  0  0  0  0
  5  6  1  0  0  0  0
  6  7  1  0  0  0  0
  8 22  1  1  0  0  0
  8  7  1  0  0  0  0
  9  8  1  0  0  0  0
 10  9  1  0  0  0  0
 10  5  2  0  0  0  0
 11  1  1  0  0  0  0
 11 16  1  0  0  0  0
 12 17  1  1  0  0  0
 12 13  1  0  0  0  0
 12 11  1  0  0  0  0
 13 14  2  0  0  0  0
 14 15  1  0  0  0  0
 16 15  2  0  0  0  0
 18 17  1  0  0  0  0
 19 18  1  0  0  0  0
 20 21  1  0  0  0  0
 20 13  1  0  0  0  0
 22 23  1  0  0  0  0
M  END
>  <TORSDO>
F 5

$$$$
