C:\Qe-CaDD\Project\Data\Stage_6_Molecular_Dynamics\ligands_top\out_12956_EGFR_extracted.pdbqt
 OpenBabel01082506443D

 21 25  0  0  1  0  0  0  0  0999 V2000
   28.5880   -0.8730   53.4660 C   0  0  0  0  0  1  0  0  0  0  0  0
   27.4060   -0.0130   53.5570 C   0  0  2  0  0  0  0  0  0  0  0  0
   26.0140    0.6280   53.4300 N   0  0  2  0  0  0  0  0  0  0  0  0
   26.6820    1.3040   52.3570 C   0  0  2  0  0  3  0  0  0  0  0  0
   25.6660    2.0740   51.4600 C   0  0  2  0  0  3  0  0  0  0  0  0
   26.7260    2.9950   50.7300 C   0  0  0  0  0  3  0  0  0  0  0  0
   26.2750    3.7440   49.8540 N   0  0  0  0  0  0  0  0  0  0  0  0
   26.9870    4.6810   49.0520 C   0  0  0  0  0  2  0  0  0  0  0  0
   26.0290    5.7600   48.6420 C   0  0  0  0  0  2  0  0  0  0  0  0
   24.7230    6.0120   48.8970 C   0  0  0  0  0  3  0  0  0  0  0  0
   23.7180    5.3000   49.7350 C   0  0  0  0  0  0  0  0  0  0  0  0
   22.4770    5.0730   50.2620 C   0  0  0  0  0  3  0  0  0  0  0  0
   22.2910    3.9440   51.2150 C   0  0  0  0  0  2  0  0  0  0  0  0
   23.5310    3.4110   51.7260 N   0  0  1  0  0  0  0  0  0  0  0  0
   22.9970    2.0360   51.9210 C   0  0  1  0  0  3  0  0  0  0  0  0
   22.4310    0.8070   52.0310 C   0  0  0  0  0  2  0  0  0  0  0  0
   23.4240    0.1830   53.0200 C   0  0  0  0  0  0  0  0  0  0  0  0
   24.2470   -0.3600   53.8670 C   0  0  0  0  0  0  0  0  0  0  0  0
   25.2400   -1.0140   54.8810 C   0  0  0  0  0  2  0  0  0  0  0  0
   26.2950   -0.3070   54.5460 N   0  0  1  0  0  0  0  0  0  0  0  0
   24.7260    2.8550   52.2240 C   0  0  1  0  0  3  0  0  0  0  0  0
  2  1  1  6  0  0  0
  2 20  1  0  0  0  0
  3  2  1  0  0  0  0
  3 20  1  0  0  0  0
  4  3  1  0  0  0  0
  4  2  1  0  0  0  0
  5 21  1  0  0  0  0
  5  4  1  0  0  0  0
  6  5  1  0  0  0  0
  7  6  2  0  0  0  0
  8  7  1  0  0  0  0
  9 10  1  0  0  0  0
  9  8  1  0  0  0  0
 10 11  2  0  0  0  0
 11 12  2  0  0  0  0
 12 13  1  0  0  0  0
 13 14  1  0  0  0  0
 14 15  1  0  0  0  0
 14 21  1  0  0  0  0
 15 16  1  0  0  0  0
 15 21  1  0  0  0  0
 16 17  1  0  0  0  0
 17 18  3  0  0  0  0
 18 19  1  0  0  0  0
 20 19  1  0  0  0  0
M  END
>  <TORSDO>
F 0

$$$$
