C:\Qe-CaDD\Project\Data\Stage_6_Molecular_Dynamics\ligands_top\out_20692_EGFR_extracted.pdbqt
 OpenBabel01082506443D

 23 24  0  0  1  0  0  0  0  0999 V2000
   26.3520   -0.2570   53.6900 C   0  0  0  0  0  0  0  0  0  0  0  0
   25.7050   -0.9580   54.6660 N   0  0  0  0  0  0  0  0  0  0  0  0
   24.3560   -0.8860   54.6520 C   0  0  0  0  0  3  0  0  0  0  0  0
   23.6620   -0.1770   53.7440 N   0  0  0  0  0  0  0  0  0  0  0  0
   24.2600    0.5280   52.7660 C   0  0  0  0  0  0  0  0  0  0  0  0
   25.6580    0.4970   52.7240 C   0  0  0  0  0  0  0  0  0  0  0  0
   26.5310    1.3800   51.4900 Cl  0  0  0  0  0  0  0  0  0  0  0  0
   23.5110    1.2740   51.8130 N   0  0  0  0  0  0  0  0  0  0  0  0
   23.5610    0.9790   50.8140 H   0  0  0  0  0  0  0  0  0  0  0  0
   22.7230    2.3990   52.2910 C   0  0  0  0  0  2  0  0  0  0  0  0
   23.3180    3.6680   51.8600 C   0  0  0  0  0  0  0  0  0  0  0  0
   23.3810    4.7320   52.6450 C   0  0  0  0  0  2  0  0  0  0  0  0
   23.9930    5.8760   52.0610 N   0  0  0  0  0  0  0  0  0  0  0  0
   24.5100    5.9150   50.7360 C   0  0  0  0  0  3  0  0  0  0  0  0
   24.0680    6.7370   52.6330 H   0  0  0  0  0  0  0  0  0  0  0  0
   24.3910    4.7950   50.0440 C   0  0  0  0  0  3  0  0  0  0  0  0
   23.7930    3.5020   50.4630 C   0  0  0  0  0  3  0  0  0  0  0  0
   27.8080   -0.3200   53.6850 C   0  0  1  0  0  3  0  0  0  0  0  0
   28.5690    0.2690   54.7960 C   0  0  0  0  0  2  0  0  0  0  0  0
   28.6490    1.6060   54.8890 O   0  0  0  0  0  0  0  0  0  0  0  0
   28.9640    2.3780   53.8320 C   0  0  0  0  0  1  0  0  0  0  0  0
   28.2730   -1.6380   53.4340 O   0  0  0  0  0  0  0  0  0  0  0  0
   29.6600   -1.5550   53.4330 C   0  0  0  0  0  1  0  0  0  0  0  0
  1  2  1  0  0  0  0
  3  2  2  0  0  0  0
  4  3  1  0  0  0  0
  5  4  2  0  0  0  0
  6  5  1  0  0  0  0
  6  1  2  0  0  0  0
  7  6  1  0  0  0  0
  8 10  1  0  0  0  0
  8  5  1  0  0  0  0
  9  8  1  0  0  0  0
 11 10  1  0  0  0  0
 11 12  1  0  0  0  0
 13 15  1  0  0  0  0
 13 12  1  0  0  0  0
 14 13  1  0  0  0  0
 16 17  1  0  0  0  0
 16 14  2  0  0  0  0
 17 11  2  0  0  0  0
 18  1  1  0  0  0  0
 18 19  1  1  0  0  0
 19 20  1  0  0  0  0
 21 20  1  0  0  0  0
 22 18  1  0  0  0  0
 23 22  1  0  0  0  0
M  END
>  <TORSDO>
F 7

$$$$
