C:\Qe-CaDD\Project\Data\Stage_6_Molecular_Dynamics\ligands_top\out_12328_EGFR_extracted.pdbqt
 OpenBabel01082506443D

 27 28  0  0  0  0  0  0  0  0999 V2000
   26.6210    4.7600   49.1510 C   0  0  0  0  0  0  0  0  0  0  0  0
   27.9340    4.5940   48.8230 N   0  0  0  0  0  0  0  0  0  0  0  0
   28.3730    5.7390   48.2360 C   0  0  0  0  0  0  0  0  0  0  0  0
   27.3180    6.5610   48.2270 N   0  0  0  0  0  0  0  0  0  0  0  0
   26.3020    5.9550   48.7730 O   0  0  0  0  0  0  0  0  0  0  0  0
   25.8040    3.6920   49.8220 C   0  0  0  0  0  2  0  0  0  0  0  0
   26.3540    3.4540   51.1260 N   0  0  0  0  0  4  0  0  0  0  0  0
   26.9040    4.1790   51.6220 H   0  0  0  0  0  0  0  0  0  0  0  0
   26.1820    2.2390   51.8000 C   0  0  0  0  0  0  0  0  0  0  0  0
   25.1320    2.1660   52.8550 C   0  0  0  0  0  1  0  0  0  0  0  0
   26.8640    1.1250   51.6000 C   0  0  0  0  0  2  0  0  0  0  0  0
   26.5820   -0.0690   52.3720 C   0  0  0  0  0  3  0  0  0  0  0  0
   27.4200   -0.6480   53.2010 C   0  0  0  0  0  3  0  0  0  0  0  0
   28.8090   -0.3370   53.6120 C   0  0  0  0  0  0  0  0  0  0  0  0
   29.6360   -1.3600   53.1420 F   0  0  0  0  0  0  0  0  0  0  0  0
   29.2630    0.8790   53.1660 F   0  0  0  0  0  0  0  0  0  0  0  0
   28.8730   -0.3680   54.9920 F   0  0  0  0  0  0  0  0  0  0  0  0
   29.7630    6.0000   47.7150 C   0  0  0  0  0  2  0  0  0  0  0  0
   30.6310    5.0320   48.2030 O   0  0  0  0  0  0  0  0  0  0  0  0
   31.9960    5.0260   48.1900 C   0  0  0  0  0  0  0  0  0  0  0  0
   32.6360    4.0540   47.4500 C   0  0  0  0  0  0  0  0  0  0  0  0
   31.7120    2.8650   46.5540 Cl  0  0  0  0  0  0  0  0  0  0  0  0
   34.0190    3.9810   47.3860 C   0  0  0  0  0  3  0  0  0  0  0  0
   34.8000    4.9050   48.0820 C   0  0  0  0  0  3  0  0  0  0  0  0
   34.1710    5.8890   48.8310 C   0  0  0  0  0  3  0  0  0  0  0  0
   32.7910    5.9300   48.8710 C   0  0  0  0  0  0  0  0  0  0  0  0
   32.0310    7.1740   49.8180 Cl  0  0  0  0  0  0  0  0  0  0  0  0
  1  6  1  0  0  0  0
  2  1  2  0  0  0  0
  3  2  1  0  0  0  0
  4  3  2  0  0  0  0
  4  5  1  0  0  0  0
  5  1  1  0  0  0  0
  6  7  1  0  0  0  0
  7  8  1  0  0  0  0
  7  9  2  0  0  0  0
  9 10  1  0  0  0  0
 11  9  1  0  0  0  0
 11 12  1  0  0  0  0
 12 13  2  0  0  0  0
 13 14  1  0  0  0  0
 14 17  1  0  0  0  0
 15 14  1  0  0  0  0
 16 14  1  0  0  0  0
 18 19  1  0  0  0  0
 18  3  1  0  0  0  0
 20 19  1  0  0  0  0
 20 26  1  0  0  0  0
 21 20  2  0  0  0  0
 22 21  1  0  0  0  0
 23 21  1  0  0  0  0
 23 24  2  0  0  0  0
 24 25  1  0  0  0  0
 25 26  2  0  0  0  0
 26 27  1  0  0  0  0
M  END
>  <TORSDO>
F 8

$$$$
