C:\Qe-CaDD\Project\Data\Stage_6_Molecular_Dynamics\ligands_top\out_16936_EGFR_extracted.pdbqt
 OpenBabel01082506443D

 25 28  0  0  1  0  0  0  0  0999 V2000
   22.7970    5.0550   49.5670 C   0  0  1  0  0  3  0  0  0  0  0  0
   23.5980    3.7840   49.4240 C   0  0  2  0  0  3  0  0  0  0  0  0
   24.6560    3.7390   50.3280 C   0  0  2  0  0  3  0  0  0  0  0  0
   24.4920    2.4210   51.1190 C   0  0  0  0  0  2  0  0  0  0  0  0
   22.9740    2.5610   51.4030 N   0  0  0  0  0  2  0  0  0  0  0  0
   22.7690    3.5630   52.1890 C   0  0  1  0  0  3  0  0  0  0  0  0
   23.6420    4.5940   52.9160 C   0  0  0  0  0  2  0  0  0  0  0  0
   23.2500    5.6050   52.1470 N   0  0  0  0  0  0  0  0  0  0  0  0
   22.7430    5.6790   50.8640 C   0  0  1  0  0  0  0  0  0  0  0  0
   23.8310    6.6580   50.5920 C   0  0  0  0  0  0  0  0  0  0  0  0
   25.1430    6.1900   50.4350 C   0  0  0  0  0  3  0  0  0  0  0  0
   25.6450    4.8010   50.5080 N   0  0  0  0  0  0  0  0  0  0  0  0
   21.4500    5.4560   51.2510 C   0  0  1  0  0  3  0  0  0  0  0  0
   20.4290    4.8840   50.2290 C   0  0  0  0  0  2  0  0  0  0  0  0
   20.7010    3.5660   49.9190 O   0  0  0  0  0  0  0  0  0  0  0  0
   20.6140    2.6650   48.9690 C   0  0  0  0  0  2  0  0  0  0  0  0
   21.8260    2.4830   48.4860 C   0  0  0  0  0  2  0  0  0  0  0  0
   23.2710    2.7740   48.4590 C   0  0  0  0  0  2  0  0  0  0  0  0
   21.4270    4.1880   52.2260 C   0  0  0  0  0  2  0  0  0  0  0  0
   22.9190    6.4080   52.6980 H   0  0  0  0  0  0  0  0  0  0  0  0
   26.5040    4.3090   50.6670 H   0  0  0  0  0  0  0  0  0  0  0  0
   23.5900    5.7510   48.5540 O   0  0  0  0  0  0  0  0  0  0  0  0
   22.8430    6.0400   47.4490 C   0  0  0  0  0  1  0  0  0  0  0  0
   23.7990    8.0830   50.4560 C   0  0  0  0  0  2  0  0  0  0  0  0
   25.4800    8.7290   49.7740 Br  0  0  0  0  0  0  0  0  0  0  0  0
  1 22  1  6  0  0  0
  1  9  1  0  0  0  0
  2 18  1  6  0  0  0
  2  1  1  0  0  0  0
  2  3  1  0  0  0  0
  3 12  1  0  0  0  0
  3  4  1  1  0  0  0
  4  5  1  0  0  0  0
  5  6  1  0  0  0  0
  6 19  1  6  0  0  0
  6  7  1  0  0  0  0
  8 20  1  0  0  0  0
  8  7  1  0  0  0  0
  9 10  1  6  0  0  0
  9 13  1  0  0  0  0
  9  8  1  0  0  0  0
 11 12  1  0  0  0  0
 11 10  2  0  0  0  0
 12 21  1  0  0  0  0
 13 14  1  6  0  0  0
 13 19  1  0  0  0  0
 15 14  1  0  0  0  0
 16 15  1  0  0  0  0
 17 16  1  0  0  0  0
 18 17  1  0  0  0  0
 23 22  1  0  0  0  0
 24 10  1  0  0  0  0
 25 24  1  0  0  0  0
M  END
>  <TORSDO>
F 2

$$$$
