C:\Qe-CaDD\Project\Data\Stage_6_Molecular_Dynamics\ligands_top\out_21441_EGFR_extracted.pdbqt
 OpenBabel01082506443D

 32 34  0  0  0  0  0  0  0  0999 V2000
   25.0480    3.1580   51.1730 C   0  0  0  0  0  0  0  0  0  0  0  0
   25.7070    2.6140   52.2580 C   0  0  0  0  0  3  0  0  0  0  0  0
   25.1540    1.5050   52.8510 C   0  0  0  0  0  0  0  0  0  0  0  0
   23.9750    0.9840   52.3500 C   0  0  0  0  0  0  0  0  0  0  0  0
   23.3370    1.5680   51.2420 C   0  0  0  0  0  3  0  0  0  0  0  0
   23.8820    2.6850   50.6300 C   0  0  0  0  0  0  0  0  0  0  0  0
   25.6900    0.7940   53.9940 N   0  0  0  0  0  0  0  0  0  0  0  0
   25.0580    0.3730   54.7000 H   0  0  0  0  0  0  0  0  0  0  0  0
   27.1140    0.7810   53.9760 N   0  0  0  0  0  0  0  0  0  0  0  0
   27.7600    1.8670   54.4170 N   0  0  0  0  0  0  0  0  0  0  0  0
   29.0980    1.6800   54.3250 C   0  0  0  0  0  3  0  0  0  0  0  0
   29.2660    0.4210   53.8030 C   0  0  0  0  0  0  0  0  0  0  0  0
   30.1940   -0.5230   53.3930 C   0  0  0  0  0  3  0  0  0  0  0  0
   28.0370   -0.0850   53.6090 N   0  0  0  0  0  0  0  0  0  0  0  0
   29.4340   -1.5990   52.9510 C   0  0  0  0  0  3  0  0  0  0  0  0
   28.0700   -1.3200   53.0890 C   0  0  0  0  0  0  0  0  0  0  0  0
   26.9640   -2.2230   52.7200 C   0  0  0  0  0  1  0  0  0  0  0  0
   23.4480   -0.1350   52.9860 O   0  0  0  0  0  0  0  0  0  0  0  0
   22.0780   -0.5020   52.9180 C   0  0  0  0  0  1  0  0  0  0  0  0
   25.7010    4.3090   50.6570 N   0  0  0  0  0  0  0  0  0  0  0  0
   26.6210    4.0950   49.5940 C   0  0  0  0  0  0  0  0  0  0  0  0
   26.6920    2.8540   49.2440 O   0  0  0  0  0  0  0  0  0  0  0  0
   25.7390    5.3790   50.7460 H   0  0  0  0  0  0  0  0  0  0  0  0
   27.5510    4.7570   48.7140 C   0  0  0  0  0  2  0  0  0  0  0  0
   27.2840    6.0150   48.4800 C   0  0  0  0  0  1  0  0  0  0  0  0
   23.2260    3.2340   49.5050 N   0  0  0  0  0  0  0  0  0  0  0  0
   23.0010    2.5690   48.2500 C   0  0  0  0  0  1  0  0  0  0  0  0
   22.6810    4.5710   49.4630 C   0  0  0  0  0  2  0  0  0  0  0  0
   21.1610    4.5880   49.5990 C   0  0  0  0  0  2  0  0  0  0  0  0
   20.7990    5.0350   50.9480 N   0  0  0  0  0  0  0  0  0  0  0  0
   20.4230    3.9080   51.7630 C   0  0  0  0  0  1  0  0  0  0  0  0
   21.8730    5.8170   51.4690 C   0  0  0  0  0  1  0  0  0  0  0  0
  1  2  1  0  0  0  0
  2  3  2  0  0  0  0
  3  7  1  0  0  0  0
  4  3  1  0  0  0  0
  4 18  1  0  0  0  0
  5  4  2  0  0  0  0
  6  1  2  0  0  0  0
  6  5  1  0  0  0  0
  7  8  1  0  0  0  0
  9  7  1  0  0  0  0
  9 10  1  0  0  0  0
 11 10  2  0  0  0  0
 12 11  1  0  0  0  0
 13 12  2  0  0  0  0
 14 12  1  0  0  0  0
 14  9  1  0  0  0  0
 15 16  2  0  0  0  0
 15 13  1  0  0  0  0
 16 14  1  0  0  0  0
 17 16  1  0  0  0  0
 19 18  1  0  0  0  0
 20 23  1  0  0  0  0
 20  1  1  0  0  0  0
 21 20  1  0  0  0  0
 22 21  2  0  0  0  0
 24 21  1  0  0  0  0
 25 24  1  0  0  0  0
 26  6  1  0  0  0  0
 27 26  1  0  0  0  0
 28 26  1  0  0  0  0
 28 29  1  0  0  0  0
 29 30  1  0  0  0  0
 30 32  1  0  0  0  0
 30 31  1  0  0  0  0
M  END
>  <TORSDO>
F 9

$$$$
