C:\Qe-CaDD\Project\Data\Stage_6_Molecular_Dynamics\ligands_top\out_16266_EGFR_extracted.pdbqt
 OpenBabel01082506443D

 31 35  0  0  1  0  0  0  0  0999 V2000
   32.9960    4.4710   46.7440 C   0  0  2  0  0  3  0  0  0  0  0  0
   32.3860    5.7570   47.2090 C   0  0  1  0  0  3  0  0  0  0  0  0
   32.2110    6.5550   48.2020 N   0  0  1  0  0  0  0  0  0  0  0  0
   32.6580    6.4360   49.5130 C   0  0  0  0  0  2  0  0  0  0  0  0
   31.9930    7.4490   49.1580 N   0  0  1  0  0  0  0  0  0  0  0  0
   31.5820    8.5850   49.9110 C   0  0  0  0  0  2  0  0  0  0  0  0
   31.0800    9.8580   48.7130 S   0  0  0  0  0  0  0  0  0  0  0  0
   29.6350    9.3530   47.7990 C   0  0  0  0  0  0  0  0  0  0  0  0
   29.7770    8.6100   46.7010 C   0  0  0  0  0  0  0  0  0  0  0  0
   28.4620    8.2610   46.0360 C   0  0  0  0  0  2  0  0  0  0  0  0
   27.5010    7.7100   47.1030 C   0  0  0  0  0  2  0  0  0  0  0  0
   27.3800    8.7070   48.1500 N   0  0  0  0  0  0  0  0  0  0  0  0
   26.3490    8.6880   49.0960 C   0  0  0  0  0  0  0  0  0  0  0  0
   26.1590    9.5020   50.0430 O   0  0  0  0  0  0  0  0  0  0  0  0
   28.3040    9.7890   48.2970 C   0  0  0  0  0  2  0  0  0  0  0  0
   31.3940    8.1150   46.1240 S   0  0  0  0  0  0  0  0  0  0  0  0
   31.6900    6.3800   46.0330 C   0  0  1  0  0  3  0  0  0  0  0  0
   32.6470    5.9860   44.9550 C   0  0  0  0  0  0  0  0  0  0  0  0
   32.8680    6.5310   43.6960 C   0  0  0  0  0  3  0  0  0  0  0  0
   33.8290    6.0030   42.8310 C   0  0  0  0  0  3  0  0  0  0  0  0
   34.5700    4.9150   43.2530 C   0  0  0  0  0  3  0  0  0  0  0  0
   34.3480    4.3800   44.5010 C   0  0  0  0  0  3  0  0  0  0  0  0
   33.3980    4.9010   45.3550 C   0  0  0  0  0  0  0  0  0  0  0  0
   25.2310    7.7740   49.2780 C   0  0  0  0  0  2  0  0  0  0  0  0
   25.2220    7.1820   50.4590 C   0  0  0  0  0  2  0  0  0  0  0  0
   24.2060    6.2080   50.9120 C   0  0  0  0  0  2  0  0  0  0  0  0
   24.1170    6.0660   52.3370 N   0  0  0  0  0  0  0  0  0  0  0  0
   23.3960    4.8600   52.6920 C   0  0  0  0  0  1  0  0  0  0  0  0
   23.6230    6.8690   52.7760 H   0  0  0  0  0  0  0  0  0  0  0  0
   31.9570    3.3580   46.6470 C   0  0  0  0  0  2  0  0  0  0  0  0
   32.6200    2.0060   46.9390 C   0  0  0  0  0  1  0  0  0  0  0  0
  1 30  1  6  0  0  0
  1  2  1  0  0  0  0
  2  3  1  0  0  0  0
  3  5  1  0  0  0  0
  3  4  1  0  0  0  0
  5  4  1  0  0  0  0
  5  6  1  0  0  0  0
  7  6  1  0  0  0  0
  8 15  1  0  0  0  0
  8  7  1  0  0  0  0
  9  8  2  0  0  0  0
 10  9  1  0  0  0  0
 10 11  1  0  0  0  0
 11 12  1  0  0  0  0
 12 15  1  0  0  0  0
 12 13  1  0  0  0  0
 13 24  1  0  0  0  0
 13 14  2  0  0  0  0
 16  9  1  0  0  0  0
 17 16  1  0  0  0  0
 17  2  1  0  0  0  0
 18 23  1  0  0  0  0
 18 17  1  0  0  0  0
 19 18  2  0  0  0  0
 20 21  2  0  0  0  0
 20 19  1  0  0  0  0
 21 22  1  0  0  0  0
 22 23  2  0  0  0  0
 23  1  1  0  0  0  0
 24 25  1  0  0  0  0
 25 26  1  0  0  0  0
 26 27  1  0  0  0  0
 27 28  1  0  0  0  0
 27 29  1  0  0  0  0
 30 31  1  0  0  0  0
M  END
>  <TORSDO>
F 4

$$$$
