C:\Qe-CaDD\Project\Data\Stage_6_Molecular_Dynamics\ligands_top\out_10681_EGFR_extracted.pdbqt
 OpenBabel01082506443D

 30 34  0  0  1  0  0  0  0  0999 V2000
   24.5960    0.1770   52.9990 C   0  0  0  0  0  0  0  0  0  0  0  0
   24.3310    1.1990   52.2030 C   0  0  0  0  0  3  0  0  0  0  0  0
   22.9700    1.7190   52.1500 C   0  0  0  0  0  0  0  0  0  0  0  0
   22.6930    2.7210   51.3750 C   0  0  0  0  0  2  0  0  0  0  0  0
   21.3300    3.2730   51.2940 C   0  0  2  0  0  0  0  0  0  0  0  0
   21.4610    4.6960   51.8570 C   0  0  0  0  0  2  0  0  0  0  0  0
   22.0040    5.5590   50.9120 O   0  0  0  0  0  0  0  0  0  0  0  0
   21.0310    6.3580   50.3270 C   0  0  0  0  0  2  0  0  0  0  0  0
   20.4290    5.5430   49.2050 C   0  0  0  0  0  2  0  0  0  0  0  0
   19.8330    4.3180   49.6450 N   0  0  2  0  0  0  0  0  0  0  0  0
   18.6540    4.5020   50.3680 C   0  0  0  0  0  2  0  0  0  0  0  0
   18.1530    3.4480   51.2640 C   0  0  0  0  0  2  0  0  0  0  0  0
   19.0190    2.9460   52.2350 O   0  0  0  0  0  0  0  0  0  0  0  0
   20.3710    2.5540   52.1820 C   0  0  0  0  0  0  0  0  0  0  0  0
   20.6340    1.5240   52.9850 C   0  0  0  0  0  3  0  0  0  0  0  0
   22.0140    1.0520   52.9920 C   0  0  0  0  0  0  0  0  0  0  0  0
   22.2700    0.0600   53.7640 N   0  0  0  0  0  0  0  0  0  0  0  0
   23.5940   -0.5190   53.8800 C   0  0  0  0  0  3  0  0  0  0  0  0
   20.7170    3.2590   49.9370 C   0  0  0  0  0  2  0  0  0  0  0  0
   25.8380   -0.4820   53.2060 N   0  0  0  0  0  0  0  0  0  0  0  0
   25.8680   -1.5440   53.2360 H   0  0  0  0  0  0  0  0  0  0  0  0
   27.2390   -0.3250   53.4200 C   0  0  0  0  0  0  0  0  0  0  0  0
   28.0670   -1.4200   53.1510 C   0  0  0  0  0  3  0  0  0  0  0  0
   29.4470   -1.3300   53.3410 C   0  0  0  0  0  3  0  0  0  0  0  0
   29.8730   -0.1050   53.8000 C   0  0  0  0  0  3  0  0  0  0  0  0
   29.1370    1.0100   54.0860 C   0  0  0  0  0  0  0  0  0  0  0  0
   27.7580    0.8810   53.8820 C   0  0  0  0  0  3  0  0  0  0  0  0
   29.7430    2.2060   54.5560 N   0  0  0  0  0  0  0  0  0  0  0  0
   30.7350    2.5670   54.5000 H   0  0  0  0  0  0  0  0  0  0  0  0
   28.8660    2.6040   54.9770 H   0  0  0  0  0  0  0  0  0  0  0  0
  1 20  1  0  0  0  0
  1 18  1  0  0  0  0
  2  1  2  0  0  0  0
  3  2  1  0  0  0  0
  3 16  2  0  0  0  0
  4  3  1  0  0  0  0
  5 19  1  6  0  0  0
  5  4  1  0  0  0  0
  5  6  1  0  0  0  0
  5 14  1  0  0  0  0
  7  6  1  0  0  0  0
  8  7  1  0  0  0  0
  9  8  1  0  0  0  0
 10  9  1  1  0  0  0
 10 19  1  0  0  0  0
 10 11  1  0  0  0  0
 11 12  1  0  0  0  0
 12 13  1  0  0  0  0
 14 13  1  0  0  0  0
 14 15  2  0  0  0  0
 15 16  1  0  0  0  0
 16 17  1  0  0  0  0
 17 18  2  0  0  0  0
 20 21  1  0  0  0  0
 20 22  1  0  0  0  0
 22 27  1  0  0  0  0
 23 24  1  0  0  0  0
 23 22  2  0  0  0  0
 24 25  2  0  0  0  0
 25 26  1  0  0  0  0
 26 28  1  0  0  0  0
 27 26  2  0  0  0  0
 28 30  1  0  0  0  0
 29 28  1  0  0  0  0
M  END
>  <TORSDO>
F 3

$$$$
