C:\Qe-CaDD\Project\Data\Stage_6_Molecular_Dynamics\ligands_top\out_22304_EGFR_extracted.pdbqt
 OpenBabel01082506443D

 29 29  0  0  0  0  0  0  0  0999 V2000
   25.9770    5.0360   49.3670 C   0  0  0  0  0  3  0  0  0  0  0  0
   26.7070    4.0240   49.7750 C   0  0  0  0  0  3  0  0  0  0  0  0
   26.3410    6.1790   48.5450 C   0  0  0  0  0  2  0  0  0  0  0  0
   27.1390    7.1690   48.8640 C   0  0  0  0  0  0  0  0  0  0  0  0
   28.4300    7.4350   48.4450 C   0  0  0  0  0  0  0  0  0  0  0  0
   28.8980    6.5610   47.6000 C   0  0  0  0  0  1  0  0  0  0  0  0
   29.1250    8.5350   48.8760 C   0  0  0  0  0  0  0  0  0  0  0  0
   28.5110    9.3640   49.7320 N   0  0  0  0  0  0  0  0  0  0  0  0
   27.2580    9.1150   50.1480 C   0  0  0  0  0  3  0  0  0  0  0  0
   26.5710    8.0410   49.7300 N   0  0  0  0  0  0  0  0  0  0  0  0
   30.4550    8.7700   48.4410 N   0  0  0  0  0  0  0  0  0  0  0  0
   30.6870    9.6040   47.2810 C   0  0  0  0  0  1  0  0  0  0  0  0
   31.6640    8.2620   49.0470 C   0  0  0  0  0  2  0  0  0  0  0  0
   32.5580    7.8680   48.1250 C   0  0  0  0  0  2  0  0  0  0  0  0
   33.9330    7.2820   48.2500 C   0  0  0  0  0  2  0  0  0  0  0  0
   34.7690    8.2030   48.8680 F   0  0  0  0  0  0  0  0  0  0  0  0
   26.1480    2.9860   50.5900 N   0  0  0  0  0  0  0  0  0  0  0  0
   26.7390    2.3080   51.6910 C   0  0  0  0  0  0  0  0  0  0  0  0
   27.8960    2.5560   52.0930 O   0  0  0  0  0  0  0  0  0  0  0  0
   25.1880    2.7140   50.3190 H   0  0  0  0  0  0  0  0  0  0  0  0
   26.0330    1.2930   52.4130 C   0  0  0  0  0  0  0  0  0  0  0  0
   25.4170    0.4370   53.0390 C   0  0  0  0  0  0  0  0  0  0  0  0
   24.6520   -0.5800   53.8050 C   0  0  0  0  0  2  0  0  0  0  0  0
   23.2810   -0.6420   53.2440 C   0  0  0  0  0  2  0  0  0  0  0  0
   22.3440    0.3210   53.6820 N   0  0  0  0  0  0  0  0  0  0  0  0
   21.9010    1.2990   52.7640 C   0  0  0  0  0  2  0  0  0  0  0  0
   22.1800    1.0580   51.3230 C   0  0  0  0  0  1  0  0  0  0  0  0
   21.3760   -0.1420   54.6290 C   0  0  0  0  0  2  0  0  0  0  0  0
   21.0960   -1.6030   54.3440 C   0  0  0  0  0  1  0  0  0  0  0  0
  1  2  2  0  0  0  0
  2 17  1  0  0  0  0
  3  4  1  0  0  0  0
  3  1  1  0  0  0  0
  4 10  1  0  0  0  0
  5  4  2  0  0  0  0
  5  7  1  0  0  0  0
  6  5  1  0  0  0  0
  7  8  2  0  0  0  0
  8  9  1  0  0  0  0
 10  9  2  0  0  0  0
 11  7  1  0  0  0  0
 11 13  1  0  0  0  0
 12 11  1  0  0  0  0
 14 15  1  0  0  0  0
 14 13  1  0  0  0  0
 15 16  1  0  0  0  0
 17 18  1  0  0  0  0
 18 19  2  0  0  0  0
 18 21  1  0  0  0  0
 20 17  1  0  0  0  0
 21 22  3  0  0  0  0
 22 23  1  0  0  0  0
 24 25  1  0  0  0  0
 24 23  1  0  0  0  0
 25 28  1  0  0  0  0
 26 25  1  0  0  0  0
 27 26  1  0  0  0  0
 29 28  1  0  0  0  0
M  END
>  <TORSDO>
F 12

$$$$
