C:\Qe-CaDD\Project\Data\Stage_6_Molecular_Dynamics\ligands_top\out_16439_EGFR_extracted.pdbqt
 OpenBabel01082506443D

 32 39  0  0  1  0  0  0  0  0999 V2000
   23.8520    0.1980   53.4650 C   0  0  0  0  0  0  0  0  0  0  0  0
   22.8440    0.3190   52.6370 C   0  0  2  0  0  0  0  0  0  0  0  0
   21.8090    0.6190   51.6030 C   0  0  2  0  0  0  0  0  0  0  0  0
   21.5410    0.9260   50.3610 C   0  0  0  0  0  2  0  0  0  0  0  0
   20.1060    1.0430   50.1420 C   0  0  0  0  0  0  0  0  0  0  0  0
   19.5040    1.3280   49.0380 N   0  0  0  0  0  0  0  0  0  0  0  0
   18.1230    1.3430   49.2530 N   0  0  0  0  0  0  0  0  0  0  0  0
   17.7900    1.0190   50.6280 C   0  0  1  0  0  3  0  0  0  0  0  0
   19.1490    0.8400   51.2220 C   0  0  0  0  0  0  0  0  0  0  0  0
   19.5700    0.5530   52.4580 C   0  0  0  0  0  3  0  0  0  0  0  0
   20.9280    0.4200   52.8950 C   0  0  2  0  0  0  0  0  0  0  0  0
   21.7420   -0.7650   52.9760 C   0  0  2  0  0  0  0  0  0  0  0  0
   22.2930   -1.4070   54.1370 C   0  0  0  0  0  2  0  0  0  0  0  0
   23.4940   -0.8650   54.3980 C   0  0  0  0  0  3  0  0  0  0  0  0
   17.3880    1.5580   48.5250 H   0  0  0  0  0  0  0  0  0  0  0  0
   25.0780    1.0100   53.4480 C   0  0  0  0  0  2  0  0  0  0  0  0
   25.9980    0.5520   52.4530 N   0  0  0  0  0  0  0  0  0  0  0  0
   26.8020    1.6610   51.9260 C   0  0  0  0  0  2  0  0  0  0  0  0
   27.6250    2.3100   52.9810 C   0  0  0  0  0  2  0  0  0  0  0  0
   28.5880    1.2780   53.5200 C   0  0  2  0  0  3  0  0  0  0  0  0
   27.8390    0.1140   54.0650 C   0  0  0  0  0  2  0  0  0  0  0  0
   26.8900   -0.4320   53.0540 C   0  0  0  0  0  2  0  0  0  0  0  0
   29.3780    1.9480   54.5390 N   0  0  0  0  0  0  0  0  0  0  0  0
   29.4160    2.9550   54.3510 H   0  0  0  0  0  0  0  0  0  0  0  0
   29.0200    1.7030   55.4850 H   0  0  0  0  0  0  0  0  0  0  0  0
   16.9850    2.0410   51.3060 C   0  0  0  0  0  0  0  0  0  0  0  0
   17.4190    3.3540   51.2240 C   0  0  0  0  0  3  0  0  0  0  0  0
   16.7290    4.3730   51.8290 C   0  0  0  0  0  3  0  0  0  0  0  0
   15.5850    4.0360   52.5200 C   0  0  0  0  0  3  0  0  0  0  0  0
   15.1620    2.7260   52.5950 C   0  0  0  0  0  0  0  0  0  0  0  0
   14.0250    2.4960   53.2990 F   0  0  0  0  0  0  0  0  0  0  0  0
   15.8510    1.6910   51.9900 C   0  0  0  0  0  3  0  0  0  0  0  0
  1 14  2  0  0  0  0
  2 11  1  0  0  0  0
  2 12  1  0  0  0  0
  2  1  1  1  0  0  0
  3  4  1  6  0  0  0
  3  2  1  0  0  0  0
  3 11  1  0  0  0  0
  3 12  1  0  0  0  0
  5  4  1  0  0  0  0
  5  9  1  0  0  0  0
  6  7  1  0  0  0  0
  6  5  2  0  0  0  0
  7  8  1  0  0  0  0
  8  9  1  0  0  0  0
  8 26  1  1  0  0  0
  9 10  2  0  0  0  0
 11 10  1  1  0  0  0
 11 12  1  0  0  0  0
 12 13  1  1  0  0  0
 13 14  1  0  0  0  0
 15  7  1  0  0  0  0
 16  1  1  0  0  0  0
 17 22  1  0  0  0  0
 17 16  1  0  0  0  0
 18 17  1  0  0  0  0
 18 19  1  0  0  0  0
 19 20  1  0  0  0  0
 20 21  1  0  0  0  0
 20 23  1  1  0  0  0
 22 21  1  0  0  0  0
 23 25  1  0  0  0  0
 24 23  1  0  0  0  0
 26 32  1  0  0  0  0
 27 26  2  0  0  0  0
 27 28  1  0  0  0  0
 28 29  2  0  0  0  0
 29 30  1  0  0  0  0
 30 31  1  0  0  0  0
 32 30  2  0  0  0  0
M  END
>  <TORSDO>
F 4

$$$$
