C:\Qe-CaDD\Project\Data\Stage_6_Molecular_Dynamics\ligands_top\out_10931_EGFR_extracted.pdbqt
 OpenBabel01082506443D

 24 27  0  0  1  0  0  0  0  0999 V2000
   22.3780    6.3990   48.1590 C   0  0  0  0  0  1  0  0  0  0  0  0
   22.9500    6.5640   49.4790 N   0  0  0  0  0  0  0  0  0  0  0  0
   23.4000    7.7620   50.1030 C   0  0  0  0  0  3  0  0  0  0  0  0
   24.0760    7.6320   51.2080 C   0  0  0  0  0  3  0  0  0  0  0  0
   24.2980    6.3060   51.6790 N   0  0  0  0  0  0  0  0  0  0  0  0
   23.2410    5.3010   50.6650 P   0  0  1  0  0  4  0  0  0  0  0  0
   21.9170    4.8350   51.4370 C   0  0  0  0  0  2  0  0  0  0  0  0
   21.7980    3.4730   52.0200 C   0  0  1  0  0  3  0  0  0  0  0  0
   20.4260    2.9070   51.7360 C   0  0  0  0  0  2  0  0  0  0  0  0
   20.4170    1.4760   52.1590 C   0  0  0  0  0  2  0  0  0  0  0  0
   20.4280    1.3880   53.4580 N   0  0  0  0  0  2  0  0  0  0  0  0
   20.4250    0.1360   54.1030 C   0  0  0  0  0  3  0  0  0  0  0  0
   21.2710   -0.8130   54.4490 C   0  0  0  0  0  3  0  0  0  0  0  0
   22.6700   -1.2680   54.4480 C   0  0  0  0  0  2  0  0  0  0  0  0
   23.5120   -0.2450   53.7730 C   0  0  0  0  0  0  0  0  0  0  0  0
   24.8930   -0.1860   53.8570 C   0  0  0  0  0  3  0  0  0  0  0  0
   25.6320    0.8020   53.1990 C   0  0  0  0  0  3  0  0  0  0  0  0
   24.9780    1.7390   52.4480 N   0  0  0  0  0  0  0  0  0  0  0  0
   23.6360    1.6450   52.3920 C   0  0  0  0  0  0  0  0  0  0  0  0
   22.9380    0.6980   53.0240 N   0  0  0  0  0  0  0  0  0  0  0  0
   22.8800    2.6040   51.6170 N   0  0  0  0  0  0  0  0  0  0  0  0
   23.3080    2.6670   50.2570 C   0  0  0  0  0  2  0  0  0  0  0  0
   24.1480    3.9000   49.9690 C   0  0  0  0  0  2  0  0  0  0  0  0
   24.9190    5.9730   52.4310 H   0  0  0  0  0  0  0  0  0  0  0  0
  1  2  1  0  0  0  0
  2  3  1  0  0  0  0
  2  6  1  0  0  0  0
  3  4  2  0  0  0  0
  4  5  1  0  0  0  0
  5 24  1  0  0  0  0
  6 23  1  6  0  0  0
  6  7  1  0  0  0  0
  6  5  1  0  0  0  0
  8  7  1  6  0  0  0
  9  8  1  0  0  0  0
  9 10  1  0  0  0  0
 10 11  1  0  0  0  0
 11 12  1  0  0  0  0
 12 13  2  0  0  0  0
 14 13  1  0  0  0  0
 15 16  1  0  0  0  0
 15 14  1  0  0  0  0
 17 16  2  0  0  0  0
 18 17  1  0  0  0  0
 19 18  2  0  0  0  0
 19 20  1  0  0  0  0
 20 15  2  0  0  0  0
 21  8  1  0  0  0  0
 21 19  1  0  0  0  0
 22 21  1  0  0  0  0
 23 22  1  0  0  0  0
M  END
>  <TORSDO>
F 0

$$$$
