C:\Qe-CaDD\Project\Data\Stage_6_Molecular_Dynamics\ligands_top\out_11846_EGFR_extracted.pdbqt
 OpenBabel01082506443D

 29 32  0  0  1  0  0  0  0  0999 V2000
   26.4440    0.8410   53.2960 C   0  0  0  0  0  3  0  0  0  0  0  0
   25.2570    0.6260   52.7740 C   0  0  0  0  0  0  0  0  0  0  0  0
   24.1970   -0.4050   52.9800 C   0  0  0  0  0  2  0  0  0  0  0  0
   23.0900   -0.0400   53.8400 C   0  0  2  0  0  3  0  0  0  0  0  0
   21.7800    0.2690   54.0960 C   0  0  0  0  0  2  0  0  0  0  0  0
   21.6530    0.0920   52.6690 C   0  0  1  0  0  3  0  0  0  0  0  0
   20.5800    0.2980   51.9460 C   0  0  2  0  0  3  0  0  0  0  0  0
   21.5090   -0.1420   50.8490 C   0  0  0  0  0  1  0  0  0  0  0  0
   19.5310    0.6590   50.9060 C   0  0  0  0  0  3  0  0  0  0  0  0
   19.6400    1.3080   49.7110 C   0  0  0  0  0  3  0  0  0  0  0  0
   21.1830    1.9900   48.9450 P   0  0  0  0  0  0  0  0  0  0  0  0
   21.9660    3.2710   50.0670 C   0  0  0  0  0  0  0  0  0  0  0  0
   23.1250    3.4550   50.7600 C   0  0  1  0  0  3  0  0  0  0  0  0
   23.2060    4.6900   51.5040 N   0  0  0  0  0  0  0  0  0  0  0  0
   22.2920    5.8230   51.5920 C   0  0  0  0  0  3  0  0  0  0  0  0
   21.0570    5.5210   50.8100 C   0  0  0  0  0  3  0  0  0  0  0  0
   21.0080    4.3630   50.1660 C   0  0  0  0  0  3  0  0  0  0  0  0
   24.2890    2.5320   50.8320 C   0  0  1  0  0  3  0  0  0  0  0  0
   23.8370    2.1730   51.9960 O   0  0  0  0  0  0  0  0  0  0  0  0
   24.8640    1.5640   51.7140 N   0  0  0  0  0  4  0  0  0  0  0  0
   20.8000    2.6200   47.6880 H   0  0  0  0  0  0  0  0  0  0  0  0
   24.0600    4.7640   52.0710 H   0  0  0  0  0  0  0  0  0  0  0  0
   25.6700    1.3600   50.9970 H   0  0  0  0  0  0  0  0  0  0  0  0
   26.9500   -0.0510   54.3260 C   0  0  0  0  0  2  0  0  0  0  0  0
   28.4140    0.1140   54.4990 C   0  0  0  0  0  0  0  0  0  0  0  0
   28.1460    0.9400   55.3320 O   0  0  0  0  0  0  0  0  0  0  0  0
   29.4880   -0.9270   53.4580 P   0  0  0  0  0  0  0  0  0  0  0  0
   28.6830   -2.5440   53.0830 C   0  0  0  0  0  1  0  0  0  0  0  0
   30.7340   -1.1460   54.1550 H   0  0  0  0  0  0  0  0  0  0  0  0
  1 24  1  0  0  0  0
  2  3  1  0  0  0  0
  2  1  2  0  0  0  0
  4  3  1  1  0  0  0
  4  5  1  0  0  0  0
  6  4  1  0  0  0  0
  6  5  1  1  0  0  0
  7  8  1  6  0  0  0
  7  6  1  0  0  0  0
  9  7  1  0  0  0  0
 10  9  2  0  0  0  0
 11 10  1  0  0  0  0
 11 12  1  0  0  0  0
 12 17  2  0  0  0  0
 13 12  1  1  0  0  0
 13 18  1  0  0  0  0
 13 14  1  0  0  0  0
 14 15  1  0  0  0  0
 14 22  1  0  0  0  0
 16 15  2  0  0  0  0
 17 16  1  0  0  0  0
 18 20  1  0  0  0  0
 18 19  1  1  0  0  0
 20 19  1  0  0  0  0
 20  2  1  0  0  0  0
 21 11  1  0  0  0  0
 23 20  1  0  0  0  0
 24 25  1  0  0  0  0
 25 26  2  0  0  0  0
 27 29  1  0  0  0  0
 27 25  1  0  0  0  0
 28 27  1  0  0  0  0
M  END
>  <TORSDO>
F 3

$$$$
