C:\Qe-CaDD\Project\Data\Stage_6_Molecular_Dynamics\ligands_top\out_21525_EGFR_extracted.pdbqt
 OpenBabel01082506443D

 24 25  0  0  1  0  0  0  0  0999 V2000
   25.8110    2.4500   51.9710 C   0  0  0  0  0  2  0  0  0  0  0  0
   26.5930    2.2050   50.7840 C   0  0  0  0  0  2  0  0  0  0  0  0
   25.5810    1.7610   53.0700 C   0  0  2  0  0  3  0  0  0  0  0  0
   24.1850    1.4380   52.9540 C   0  0  0  0  0  3  0  0  0  0  0  0
   23.4710    0.2820   53.0620 C   0  0  0  0  0  2  0  0  0  0  0  0
   26.3930    1.3460   54.2230 C   0  0  0  0  0  2  0  0  0  0  0  0
   27.4370    0.3500   53.8550 C   0  0  0  0  0  0  0  0  0  0  0  0
   27.0350   -0.9120   53.4450 C   0  0  0  0  0  3  0  0  0  0  0  0
   27.9730   -1.8440   53.0760 C   0  0  0  0  0  3  0  0  0  0  0  0
   29.3220   -1.5940   53.0900 C   0  0  0  0  0  3  0  0  0  0  0  0
   29.6870   -0.3310   53.5030 C   0  0  0  0  0  3  0  0  0  0  0  0
   28.7820    0.6480   53.8860 C   0  0  0  0  0  0  0  0  0  0  0  0
   29.1360    2.0120   54.3570 C   0  0  0  0  0  1  0  0  0  0  0  0
   26.5050    3.1830   49.9750 C   0  0  0  0  0  2  0  0  0  0  0  0
   26.3950    4.4140   49.3000 C   0  0  0  0  0  0  0  0  0  0  0  0
   27.6120    4.2980   48.9200 O   0  0  0  0  0  0  0  0  0  0  0  0
   25.4490    5.5380   48.9960 C   0  0  2  0  0  3  0  0  0  0  0  0
   26.2330    6.8270   49.1950 C   0  0  0  0  0  1  0  0  0  0  0  0
   24.3340    5.3960   49.9580 C   0  0  0  0  0  2  0  0  0  0  0  0
   23.1850    4.7210   49.5920 N   0  0  0  0  0  0  0  0  0  0  0  0
   22.9290    4.3520   48.2550 C   0  0  0  0  0  2  0  0  0  0  0  0
   22.7160    2.8470   48.2530 C   0  0  0  0  0  2  0  0  0  0  0  0
   22.7550    2.3980   49.6840 C   0  0  0  0  0  2  0  0  0  0  0  0
   22.7080    3.6920   50.4660 C   0  0  0  0  0  2  0  0  0  0  0  0
  2  1  1  0  0  0  0
  3  1  1  1  0  0  0
  3  6  1  0  0  0  0
  4  5  2  0  0  0  0
  4  3  1  0  0  0  0
  7 12  1  0  0  0  0
  7  6  1  0  0  0  0
  8  7  2  0  0  0  0
  9 10  2  0  0  0  0
  9  8  1  0  0  0  0
 10 11  1  0  0  0  0
 11 12  2  0  0  0  0
 12 13  1  0  0  0  0
 14  2  1  0  0  0  0
 15 14  1  0  0  0  0
 16 15  2  0  0  0  0
 17 18  1  1  0  0  0
 17 15  1  0  0  0  0
 17 19  1  0  0  0  0
 20 19  1  0  0  0  0
 20 24  1  0  0  0  0
 21 20  1  0  0  0  0
 22 21  1  0  0  0  0
 22 23  1  0  0  0  0
 23 24  1  0  0  0  0
M  END
>  <TORSDO>
F 9

$$$$
