C:\Qe-CaDD\Project\Data\Stage_6_Molecular_Dynamics\ligands_top\out_20445_EGFR_extracted.pdbqt
 OpenBabel01082506443D

 25 26  0  0  1  0  0  0  0  0999 V2000
   26.2190   -1.9340   53.2280 F   0  0  0  0  0  0  0  0  0  0  0  0
   26.3770   -0.6000   53.0880 C   0  0  0  0  0  0  0  0  0  0  0  0
   27.6420   -0.1350   53.0360 C   0  0  0  0  0  3  0  0  0  0  0  0
   28.0920    1.2670   52.8880 C   0  0  0  0  0  3  0  0  0  0  0  0
   27.5360    2.2540   52.3290 N   0  0  0  0  0  0  0  0  0  0  0  0
   26.4770    2.8510   51.6130 C   0  0  1  0  0  3  0  0  0  0  0  0
   26.6500    2.7390   50.1650 N   0  0  0  0  0  2  0  0  0  0  0  0
   26.6980    3.7840   49.4440 C   0  0  0  0  0  2  0  0  0  0  0  0
   26.7070    5.1220   48.9620 N   0  0  0  0  0  2  0  0  0  0  0  0
   25.9470    6.0740   49.4290 C   0  0  0  0  0  2  0  0  0  0  0  0
   25.2170    7.2990   49.7710 C   0  0  0  0  0  3  0  0  0  0  0  0
   24.3200    7.2230   50.7450 C   0  0  0  0  0  3  0  0  0  0  0  0
   24.0950    5.8890   51.4430 C   0  0  0  0  0  2  0  0  0  0  0  0
   22.8100    5.5310   51.2910 O   0  0  0  0  0  0  0  0  0  0  0  0
   22.3940    4.3500   51.7710 C   0  0  0  0  0  2  0  0  0  0  0  0
   22.7710    3.1000   51.0760 C   0  0  2  0  0  3  0  0  0  0  0  0
   24.1790    2.7620   50.8150 C   0  0  0  0  0  2  0  0  0  0  0  0
   25.0810    2.6120   52.0230 C   0  0  1  0  0  3  0  0  0  0  0  0
   24.7760    1.2700   52.5910 C   0  0  0  0  0  2  0  0  0  0  0  0
   25.0500    0.0520   53.0260 C   0  0  1  0  0  3  0  0  0  0  0  0
   23.6950   -0.8840   53.5830 Cl  0  0  0  0  0  0  0  0  0  0  0  0
   22.1330    3.2470   49.6560 C   0  0  0  0  0  2  0  0  0  0  0  0
   23.1470    3.6960   48.7230 N   0  0  0  0  0  0  0  0  0  0  0  0
   22.3450    5.2270   47.5570 I   0  0  0  0  0  0  0  0  0  0  0  0
   23.9570    4.0310   49.2820 H   0  0  0  0  0  0  0  0  0  0  0  0
  2  1  1  0  0  0  0
  3  2  2  0  0  0  0
  4  3  1  0  0  0  0
  5  4  2  0  0  0  0
  6  7  1  6  0  0  0
  6 18  1  0  0  0  0
  6  5  1  0  0  0  0
  8  7  1  0  0  0  0
  9 10  1  0  0  0  0
  9  8  1  0  0  0  0
 10 11  1  0  0  0  0
 11 12  2  0  0  0  0
 12 13  1  0  0  0  0
 14 13  1  0  0  0  0
 14 15  1  0  0  0  0
 16 22  1  6  0  0  0
 16 15  1  0  0  0  0
 17 16  1  0  0  0  0
 18 17  1  6  0  0  0
 18 19  1  0  0  0  0
 19 20  1  0  0  0  0
 20  2  1  0  0  0  0
 20 21  1  6  0  0  0
 23 25  1  0  0  0  0
 23 22  1  0  0  0  0
 24 23  1  0  0  0  0
M  END
>  <TORSDO>
F 2

$$$$
