C:\Qe-CaDD\Project\Data\Stage_6_Molecular_Dynamics\ligands_top\out_11408_EGFR_extracted.pdbqt
 OpenBabel01082506443D

 23 25  0  0  1  0  0  0  0  0999 V2000
   25.9910    2.6630   51.3610 C   0  0  0  0  0  0  0  0  0  0  0  0
   24.6830    2.6520   51.6670 N   0  0  0  0  0  0  0  0  0  0  0  0
   24.1630    1.5900   52.3110 C   0  0  0  0  0  3  0  0  0  0  0  0
   24.9490    0.4900   52.6730 C   0  0  0  0  0  3  0  0  0  0  0  0
   26.2870    0.5320   52.3440 C   0  0  0  0  0  0  0  0  0  0  0  0
   26.7820    1.6040   51.7010 N   0  0  0  0  0  0  0  0  0  0  0  0
   26.5530    3.7790   50.6800 N   0  0  0  0  0  0  0  0  0  0  0  0
   27.5440    4.0570   50.8810 H   0  0  0  0  0  0  0  0  0  0  0  0
   25.6970    4.4740   49.7310 C   0  0  1  0  0  3  0  0  0  0  0  0
   25.3160    5.7730   50.2670 C   0  0  0  0  0  0  0  0  0  0  0  0
   25.9330    6.4170   49.3430 C   0  0  0  0  0  0  0  0  0  0  0  0
   26.1270    7.8500   49.0290 C   0  0  0  0  0  1  0  0  0  0  0  0
   26.4030    5.2430   48.6750 C   0  0  1  0  0  3  0  0  0  0  0  0
   28.1640    5.0050   48.6030 Cl  0  0  0  0  0  0  0  0  0  0  0  0
   24.5130    5.9560   51.4450 N   0  0  0  0  0  0  0  0  0  0  0  0
   23.0690    5.7980   51.4090 C   0  0  0  0  0  1  0  0  0  0  0  0
   24.9050    6.2110   52.3960 H   0  0  0  0  0  0  0  0  0  0  0  0
   27.2190   -0.5430   52.6600 C   0  0  0  0  0  0  0  0  0  0  0  0
   28.4420   -0.2060   53.1970 C   0  0  0  0  0  3  0  0  0  0  0  0
   29.4070   -1.1610   53.5370 C   0  0  0  0  0  3  0  0  0  0  0  0
   29.0990   -2.4940   53.3140 C   0  0  0  0  0  3  0  0  0  0  0  0
   27.9050   -2.8120   52.7910 N   0  0  0  0  0  0  0  0  0  0  0  0
   26.9700   -1.8800   52.4640 C   0  0  0  0  0  3  0  0  0  0  0  0
  1  2  2  0  0  0  0
  1  6  1  0  0  0  0
  2  3  1  0  0  0  0
  3  4  2  0  0  0  0
  5 18  1  0  0  0  0
  5  4  1  0  0  0  0
  6  5  2  0  0  0  0
  7  8  1  0  0  0  0
  7  1  1  0  0  0  0
  9 10  1  0  0  0  0
  9  7  1  1  0  0  0
 10 15  1  0  0  0  0
 11 10  2  0  0  0  0
 12 11  1  0  0  0  0
 13 14  1  1  0  0  0
 13 11  1  0  0  0  0
 13  9  1  0  0  0  0
 15 17  1  0  0  0  0
 16 15  1  0  0  0  0
 18 19  1  0  0  0  0
 19 20  2  0  0  0  0
 21 20  1  0  0  0  0
 22 21  2  0  0  0  0
 23 18  2  0  0  0  0
 23 22  1  0  0  0  0
M  END
>  <TORSDO>
F 4

$$$$
