C:\Qe-CaDD\Project\Data\Stage_6_Molecular_Dynamics\ligands_top\out_20662_EGFR_extracted.pdbqt
 OpenBabel01082506443D

 31 30  0  0  0  0  0  0  0  0999 V2000
   26.5830    5.2780   48.9180 C   0  0  0  0  0  0  0  0  0  0  0  0
   26.8170    3.9860   49.3420 C   0  0  0  0  0  3  0  0  0  0  0  0
   25.8970    3.1410   49.9160 C   0  0  0  0  0  3  0  0  0  0  0  0
   24.6150    3.6710   50.0720 C   0  0  0  0  0  0  0  0  0  0  0  0
   24.3340    4.9550   49.6660 C   0  0  0  0  0  0  0  0  0  0  0  0
   25.2900    5.7840   49.0880 C   0  0  0  0  0  3  0  0  0  0  0  0
   27.6900    6.0550   48.3130 C   0  0  0  0  0  2  0  0  0  0  0  0
   28.9720    5.3060   48.1750 C   0  0  0  0  0  2  0  0  0  0  0  0
   30.1280    6.1010   48.6480 C   0  0  0  0  0  3  0  0  0  0  0  0
   30.4670    7.2340   48.1320 N   0  0  0  0  0  0  0  0  0  0  0  0
   31.5960    7.9230   48.6580 C   0  0  0  0  0  0  0  0  0  0  0  0
   32.5320    8.1990   47.7970 N   0  0  0  0  0  2  0  0  0  0  0  0
   31.4170    8.1520   50.0540 N   0  0  0  0  0  4  0  0  0  0  0  0
   32.4790    7.8550   46.4010 C   0  0  0  0  0  1  0  0  0  0  0  0
   31.7720    7.6250   50.9010 H   0  0  0  0  0  0  0  0  0  0  0  0
   30.8490    8.9580   50.4470 H   0  0  0  0  0  0  0  0  0  0  0  0
   30.9670    5.6830   49.7180 N   0  0  0  0  0  1  0  0  0  0  0  0
   31.6140    5.6620   50.5370 H   0  0  0  0  0  0  0  0  0  0  0  0
   31.5240    6.2330   50.4130 H   0  0  0  0  0 15  0  0  0  0  0  0
   23.0400    5.4180   49.8510 O   0  0  0  0  0  0  0  0  0  0  0  0
   22.7200    6.3490   50.8780 C   0  0  0  0  0  1  0  0  0  0  0  0
   23.6470    2.8560   50.6490 O   0  0  0  0  0  0  0  0  0  0  0  0
   23.3690    2.8350   52.0190 C   0  0  0  0  0  2  0  0  0  0  0  0
   24.2820    1.8970   52.7230 C   0  0  0  0  0  0  0  0  0  0  0  0
   25.3580    2.3960   53.4290 C   0  0  0  0  0  3  0  0  0  0  0  0
   26.2610    1.6180   54.1100 C   0  0  0  0  0  3  0  0  0  0  0  0
   26.1030    0.2500   54.1010 C   0  0  0  0  0  0  0  0  0  0  0  0
   25.0250   -0.3000   53.3980 C   0  0  0  0  0  3  0  0  0  0  0  0
   24.1440    0.5250   52.7290 C   0  0  0  0  0  3  0  0  0  0  0  0
   27.0520   -0.4610   54.8090 O   0  0  0  0  0  0  0  0  0  0  0  0
   28.3570    0.0840   54.8920 C   0  0  0  0  0  1  0  0  0  0  0  0
  1  6  2  0  0  0  0
  1  2  1  0  0  0  0
  2  3  2  0  0  0  0
  3  4  1  0  0  0  0
  4 22  1  0  0  0  0
  5 20  1  0  0  0  0
  5  4  2  0  0  0  0
  6  5  1  0  0  0  0
  7  1  1  0  0  0  0
  8  7  1  0  0  0  0
  8  9  1  0  0  0  0
 10  9  2  0  0  0  0
 10 11  1  0  0  0  0
 11 13  2  0  0  0  0
 12 11  1  0  0  0  0
 13 16  1  0  0  0  0
 13 15  1  0  0  0  0
 14 12  1  0  0  0  0
 17 18  1  0  0  0  0
 20 21  1  0  0  0  0
 22 23  1  0  0  0  0
 23 24  1  0  0  0  0
 24 29  2  0  0  0  0
 24 25  1  0  0  0  0
 25 26  2  0  0  0  0
 27 26  1  0  0  0  0
 27 30  1  0  0  0  0
 28 27  2  0  0  0  0
 29 28  1  0  0  0  0
 30 31  1  0  0  0  0
M  END
>  <TORSDO>
F 9

$$$$
