C:\Qe-CaDD\Project\Data\Stage_6_Molecular_Dynamics\ligands_top\out_10857_EGFR_extracted.pdbqt
 OpenBabel01082506443D

 27 29  0  0  1  0  0  0  0  0999 V2000
   26.4680    0.8110   54.3830 C   0  0  0  0  0  0  0  0  0  0  0  0
   26.0910    1.9270   53.7820 C   0  0  0  0  0  3  0  0  0  0  0  0
   24.7910    1.9270   53.1240 C   0  0  0  0  0  0  0  0  0  0  0  0
   24.2930    2.9140   52.5090 N   0  0  0  0  0  0  0  0  0  0  0  0
   23.0400    2.8700   51.8910 N   0  0  0  0  0  0  0  0  0  0  0  0
   22.1740    1.7010   51.8840 C   0  0  0  0  0  0  0  0  0  0  0  0
   22.7100    0.7080   52.5210 C   0  0  0  0  0  3  0  0  0  0  0  0
   24.0070    0.7040   53.1780 C   0  0  2  0  0  3  0  0  0  0  0  0
   24.4340   -0.3700   53.7900 C   0  0  0  0  0  3  0  0  0  0  0  0
   25.7320   -0.4720   54.4830 C   0  0  0  0  0  0  0  0  0  0  0  0
   20.9570    1.9700   51.1660 C   0  0  0  0  0  2  0  0  0  0  0  0
   20.1500    0.9080   50.5700 C   0  0  0  0  0  2  0  0  0  0  0  0
   19.1530    0.2080   51.3570 C   0  0  0  0  0  0  0  0  0  0  0  0
   19.1380   -0.3920   52.5970 C   0  0  0  0  0  3  0  0  0  0  0  0
   18.0640   -1.0410   53.1620 C   0  0  0  0  0  3  0  0  0  0  0  0
   16.8760   -1.1250   52.4670 C   0  0  0  0  0  3  0  0  0  0  0  0
   16.8080   -0.5490   51.2170 C   0  0  0  0  0  3  0  0  0  0  0  0
   17.9140    0.0870   50.7030 C   0  0  0  0  0  3  0  0  0  0  0  0
   22.7550    4.0790   51.3020 O   0  0  0  0  0  0  0  0  0  0  0  0
   22.7350    4.9940   52.3510 C   0  0  0  0  0  2  0  0  0  0  0  0
   23.8870    5.8750   52.3220 N   0  0  0  0  0  0  0  0  0  0  0  0
   24.5890    5.6540   53.0340 H   0  0  0  0  0  0  0  0  0  0  0  0
   24.2300    6.0830   51.3690 H   0  0  0  0  0  0  0  0  0  0  0  0
   25.6140   -0.9170   55.7960 O   0  0  0  0  0  0  0  0  0  0  0  0
   26.2550   -0.4130   56.3550 H   0  0  0  0  0  0  0  0  0  0  0  0
   27.6950    0.7360   55.0310 O   0  0  0  0  0  0  0  0  0  0  0  0
   28.7910    0.0050   54.4890 C   0  0  0  0  0  1  0  0  0  0  0  0
  1 10  1  0  0  0  0
  1 26  1  0  0  0  0
  2  1  2  0  0  0  0
  3  8  1  0  0  0  0
  3  2  1  0  0  0  0
  4  3  2  0  0  0  0
  5  4  1  0  0  0  0
  6  5  1  0  0  0  0
  6  7  2  0  0  0  0
  8  7  1  1  0  0  0
  8  9  1  0  0  0  0
  9 10  2  0  0  0  0
 10 24  1  0  0  0  0
 11  6  1  0  0  0  0
 12 11  1  0  0  0  0
 12 13  1  0  0  0  0
 13 14  1  0  0  0  0
 14 15  2  0  0  0  0
 16 15  1  0  0  0  0
 17 16  2  0  0  0  0
 18 17  1  0  0  0  0
 18 13  2  0  0  0  0
 19  5  1  0  0  0  0
 19 20  1  0  0  0  0
 21 20  1  0  0  0  0
 21 22  1  0  0  0  0
 23 21  1  0  0  0  0
 24 25  1  0  0  0  0
 27 26  1  0  0  0  0
M  END
>  <TORSDO>
F 8

$$$$
