C:\Qe-CaDD\Project\Data\Stage_6_Molecular_Dynamics\ligands_top\out_18587_EGFR_extracted.pdbqt
 OpenBabel01082506443D

 28 32  0  0  1  0  0  0  0  0999 V2000
   27.1590   -1.8330   52.7230 C   0  0  0  0  0  1  0  0  0  0  0  0
   26.7710   -0.5210   52.2600 C   0  0  2  0  0  3  0  0  0  0  0  0
   27.1400    0.6410   53.2630 C   0  0  2  0  0  0  0  0  0  0  0  0
   26.8170   -0.0040   54.4550 C   0  0  0  0  0  2  0  0  0  0  0  0
   25.3570   -0.5420   54.0660 C   0  0  0  0  0  2  0  0  0  0  0  0
   25.3880   -0.0240   52.8280 C   0  0  2  0  0  0  0  0  0  0  0  0
   24.5520    1.0010   52.2140 C   0  0  0  0  0  0  0  0  0  0  0  0
   23.2970    0.5900   52.2050 N   0  0  0  0  0  0  0  0  0  0  0  0
   22.5040    1.6350   51.7190 C   0  0  0  0  0  3  0  0  0  0  0  0
   23.0170    2.8210   51.3470 N   0  0  0  0  0  0  0  0  0  0  0  0
   24.2770    3.2220   51.3580 C   0  0  0  0  0  0  0  0  0  0  0  0
   25.1210    2.2780   51.8150 C   0  0  0  0  0  0  0  0  0  0  0  0
   26.5930    2.6630   51.9880 C   0  0  0  0  0  2  0  0  0  0  0  0
   27.4210    2.0410   52.9220 C   0  0  1  0  0  3  0  0  0  0  0  0
   24.9050    4.4150   51.0520 N   0  0  0  0  0  0  0  0  0  0  0  0
   25.4030    5.1330   51.5580 H   0  0  0  0  0  0  0  0  0  0  0  0
   24.7980    4.6650   49.6350 C   0  0  1  0  0  3  0  0  0  0  0  0
   23.8500    5.8840   49.4750 C   0  0  0  0  0  1  0  0  0  0  0  0
   26.1320    5.1340   49.1020 C   0  0  0  0  0  0  0  0  0  0  0  0
   26.2290    6.4990   48.7760 C   0  0  0  0  0  3  0  0  0  0  0  0
   27.3400    7.1580   48.2880 C   0  0  0  0  0  3  0  0  0  0  0  0
   28.4640    6.3890   48.1060 C   0  0  0  0  0  0  0  0  0  0  0  0
   29.5800    6.9760   47.6310 F   0  0  0  0  0  0  0  0  0  0  0  0
   28.4360    5.0520   48.4050 C   0  0  0  0  0  3  0  0  0  0  0  0
   27.3110    4.4640   48.8810 C   0  0  0  0  0  3  0  0  0  0  0  0
   28.4450    2.5030   53.6910 N   0  0  0  0  0  0  0  0  0  0  0  0
   29.4370    2.2490   53.6340 H   0  0  0  0  0  0  0  0  0  0  0  0
   27.9060    3.1650   54.3170 H   0  0  0  0  0  0  0  0  0  0  0  0
  2  1  1  1  0  0  0
  2  6  1  0  0  0  0
  2  3  1  0  0  0  0
  3  4  1  1  0  0  0
  5  4  1  0  0  0  0
  6  3  1  0  0  0  0
  6  5  1  1  0  0  0
  7  6  1  0  0  0  0
  8  7  1  0  0  0  0
  9  8  2  0  0  0  0
 10 11  2  0  0  0  0
 10  9  1  0  0  0  0
 11 12  1  0  0  0  0
 12 13  1  0  0  0  0
 12  7  2  0  0  0  0
 13 14  1  0  0  0  0
 14  3  1  0  0  0  0
 14 26  1  1  0  0  0
 15 11  1  0  0  0  0
 15 16  1  0  0  0  0
 17 18  1  1  0  0  0
 17 15  1  0  0  0  0
 19 17  1  0  0  0  0
 20 19  2  0  0  0  0
 21 20  1  0  0  0  0
 22 21  2  0  0  0  0
 22 24  1  0  0  0  0
 23 22  1  0  0  0  0
 24 25  2  0  0  0  0
 25 19  1  0  0  0  0
 26 28  1  0  0  0  0
 27 26  1  0  0  0  0
M  END
>  <TORSDO>
F 4

$$$$
