C:\Qe-CaDD\Project\Data\Stage_6_Molecular_Dynamics\ligands_top\out_17498_EGFR_extracted.pdbqt
 OpenBabel01082506443D

 32 36  0  0  1  0  0  0  0  0999 V2000
   25.5760    4.3040   49.4580 C   0  0  2  0  0  3  0  0  0  0  0  0
   25.8860    3.3700   50.2820 N   0  0  0  0  0  2  0  0  0  0  0  0
   24.7660    2.5850   50.6330 N   0  0  0  0  0  0  0  0  0  0  0  0
   23.7130    2.9750   49.7670 C   0  0  2  0  0  3  0  0  0  0  0  0
   24.1430    4.2780   49.1230 C   0  0  0  0  0  2  0  0  0  0  0  0
   24.8540    1.6250   51.6800 C   0  0  0  0  0  0  0  0  0  0  0  0
   26.0130    1.3060   52.0480 N   0  0  0  0  0  0  0  0  0  0  0  0
   26.2210    0.3800   53.0580 C   0  0  2  0  0  0  0  0  0  0  0  0
   27.2400    0.9360   54.0220 C   0  0  0  0  0  3  0  0  0  0  0  0
   26.9090   -0.8790   52.6670 C   0  0  0  0  0  3  0  0  0  0  0  0
   24.9970    0.0610   53.8420 C   0  0  0  0  0  2  0  0  0  0  0  0
   28.3090    0.1350   54.1520 C   0  0  0  0  0  3  0  0  0  0  0  0
   28.0770   -0.9980   53.2900 C   0  0  0  0  0  0  0  0  0  0  0  0
   29.2930   -2.2600   53.2140 Cl  0  0  0  0  0  0  0  0  0  0  0  0
   23.7270    0.6750   52.6950 S   0  0  0  0  0  0  0  0  0  0  0  0
   22.3620    3.0140   50.3210 C   0  0  0  0  0  0  0  0  0  0  0  0
   22.0170    4.0100   51.2460 C   0  0  0  0  0  3  0  0  0  0  0  0
   20.7750    4.1650   51.8430 C   0  0  0  0  0  3  0  0  0  0  0  0
   19.8050    3.2710   51.5010 C   0  0  0  0  0  0  0  0  0  0  0  0
   20.0570    2.2740   50.6120 C   0  0  0  0  0  3  0  0  0  0  0  0
   21.3120    2.1660   50.0470 C   0  0  0  0  0  0  0  0  0  0  0  0
   21.5320    1.0690   49.0980 C   0  0  0  0  0  1  0  0  0  0  0  0
   18.5690    3.4450   52.1110 O   0  0  0  0  0  0  0  0  0  0  0  0
   18.1930    4.3710   52.1500 H   0  0  0  0  0  0  0  0  0  0  0  0
   26.5760    5.2430   48.9540 C   0  0  0  0  0  0  0  0  0  0  0  0
   27.8550    4.8070   48.6660 C   0  0  0  0  0  3  0  0  0  0  0  0
   28.8660    5.6130   48.1880 C   0  0  0  0  0  3  0  0  0  0  0  0
   28.5560    6.9480   47.9910 C   0  0  0  0  0  0  0  0  0  0  0  0
   27.2690    7.3940   48.2800 C   0  0  0  0  0  3  0  0  0  0  0  0
   26.2640    6.5520   48.7640 C   0  0  0  0  0  3  0  0  0  0  0  0
   29.5310    7.8100   47.5120 O   0  0  0  0  0  0  0  0  0  0  0  0
   30.4340    8.3900   48.4120 C   0  0  0  0  0  1  0  0  0  0  0  0
  1 25  1  6  0  0  0
  1  2  1  0  0  0  0
  2  3  1  0  0  0  0
  3  6  1  0  0  0  0
  4 16  1  1  0  0  0
  4  3  1  0  0  0  0
  5  1  1  0  0  0  0
  5  4  1  0  0  0  0
  6  7  2  0  0  0  0
  6 15  1  0  0  0  0
  7  8  1  0  0  0  0
  8 10  1  6  0  0  0
  8 11  1  0  0  0  0
  8  9  1  0  0  0  0
  9 12  2  0  0  0  0
 10 13  2  0  0  0  0
 13 12  1  0  0  0  0
 14 13  1  0  0  0  0
 15 11  1  0  0  0  0
 16 17  1  0  0  0  0
 17 18  2  0  0  0  0
 19 18  1  0  0  0  0
 19 23  1  0  0  0  0
 20 19  2  0  0  0  0
 21 16  2  0  0  0  0
 21 20  1  0  0  0  0
 22 21  1  0  0  0  0
 23 24  1  0  0  0  0
 26 25  2  0  0  0  0
 27 26  1  0  0  0  0
 28 27  2  0  0  0  0
 28 29  1  0  0  0  0
 29 30  2  0  0  0  0
 30 25  1  0  0  0  0
 31 28  1  0  0  0  0
 31 32  1  0  0  0  0
M  END
>  <TORSDO>
F 5

$$$$
