C:\Qe-CaDD\Project\Data\Stage_6_Molecular_Dynamics\ligands_top\out_23022_EGFR_extracted.pdbqt
 OpenBabel01082506443D

 26 28  0  0  1  0  0  0  0  0999 V2000
   25.6110    0.8250   53.2870 C   0  0  0  0  0  0  0  0  0  0  0  0
   26.1290    1.6750   52.3750 C   0  0  0  0  0  3  0  0  0  0  0  0
   25.4290    2.3130   51.2040 C   0  0  0  0  0  0  0  0  0  0  0  0
   24.5970    2.7670   50.2200 C   0  0  0  0  0  0  0  0  0  0  0  0
   23.3710    2.9340   49.4330 C   0  0  0  0  0  3  0  0  0  0  0  0
   22.2180    2.3510   49.6760 N   0  0  0  0  0  0  0  0  0  0  0  0
   21.0880    2.6080   48.8150 C   0  0  0  0  0  2  0  0  0  0  0  0
   19.8690    1.9160   49.2370 C   0  0  0  0  0  2  0  0  0  0  0  0
   19.2410    1.0820   50.1160 C   0  0  0  0  0  0  0  0  0  0  0  0
   17.8250    0.5420   50.2440 C   0  0  0  0  0  2  0  0  0  0  0  0
   18.4180   -0.1250   51.3930 C   0  0  0  0  0  2  0  0  0  0  0  0
   19.6740    0.3520   51.2900 C   0  0  0  0  0  0  0  0  0  0  0  0
   20.8270    0.1660   52.0350 O   0  0  0  0  0  0  0  0  0  0  0  0
   20.8060   -0.0920   53.4270 C   0  0  0  0  0  2  0  0  0  0  0  0
   22.1680   -0.3270   53.8870 C   0  0  0  0  0  0  0  0  0  0  0  0
   22.4400   -1.2370   54.8740 C   0  0  0  0  0  3  0  0  0  0  0  0
   23.7170   -1.4990   55.3590 C   0  0  0  0  0  3  0  0  0  0  0  0
   24.8440   -0.8680   54.8920 C   0  0  0  0  0  3  0  0  0  0  0  0
   24.5570    0.0200   53.9240 C   0  0  0  0  0  0  0  0  0  0  0  0
   23.3060    0.2880   53.4390 C   0  0  0  0  0  3  0  0  0  0  0  0
   26.9020    0.7680   53.9270 N   0  0  0  0  0  0  0  0  0  0  0  0
   27.0540    1.0980   54.9290 H   0  0  0  0  0  0  0  0  0  0  0  0
   28.0640    0.2460   53.2230 C   0  0  1  0  0  3  0  0  0  0  0  0
   29.3740    0.6160   53.8640 C   0  0  0  0  0  1  0  0  0  0  0  0
   28.0050   -1.2350   53.1100 C   0  0  0  0  0  3  0  0  0  0  0  0
   28.6640   -2.1830   53.4730 O   0  0  0  0  0  0  0  0  0  0  0  0
  1 19  1  0  0  0  0
  1 21  1  0  0  0  0
  2  1  2  0  0  0  0
  3  2  1  0  0  0  0
  4  3  3  0  0  0  0
  5  6  2  0  0  0  0
  5  4  1  0  0  0  0
  7  8  1  0  0  0  0
  7  6  1  0  0  0  0
  8  9  1  0  0  0  0
  9 10  1  0  0  0  0
  9 12  2  0  0  0  0
 10 11  1  0  0  0  0
 12 11  1  0  0  0  0
 12 13  1  0  0  0  0
 13 14  1  0  0  0  0
 14 15  1  0  0  0  0
 15 16  1  0  0  0  0
 16 17  2  0  0  0  0
 18 17  1  0  0  0  0
 19 18  2  0  0  0  0
 20 15  2  0  0  0  0
 20 19  1  0  0  0  0
 21 22  1  0  0  0  0
 23 24  1  1  0  0  0
 23 21  1  0  0  0  0
 25 23  1  0  0  0  0
 25 26  2  0  0  0  0
M  END
>  <TORSDO>
F 3

$$$$
