C:\Qe-CaDD\Project\Data\Stage_6_Molecular_Dynamics\ligands_top\out_19925_EGFR_extracted.pdbqt
 OpenBabel01082506443D

 26 29  0  0  1  0  0  0  0  0999 V2000
   23.4170    1.7810   52.6140 N   0  0  2  0  0  0  0  0  0  0  0  0
   24.5490    1.3530   53.2760 N   0  0  0  0  0  2  0  0  0  0  0  0
   24.6190    0.0830   53.4080 C   0  0  2  0  0  3  0  0  0  0  0  0
   23.3930   -0.4980   52.7690 C   0  0  0  0  0  2  0  0  0  0  0  0
   22.4820    0.7100   52.6310 C   0  0  1  0  0  0  0  0  0  0  0  0
   21.5930    0.7220   53.8170 C   0  0  0  0  0  3  0  0  0  0  0  0
   20.3130    0.3710   53.8870 C   0  0  0  0  0  3  0  0  0  0  0  0
   19.5590   -0.1080   52.7170 C   0  0  1  0  0  3  0  0  0  0  0  0
   18.6880   -1.1480   52.9330 F   0  0  0  0  0  0  0  0  0  0  0  0
   19.7760    0.4940   51.5740 C   0  0  0  0  0  2  0  0  0  0  0  0
   21.3650    0.5770   51.1690 P   0  0  0  0  0  2  0  0  0  0  0  0
   25.6470   -0.7840   54.0460 C   0  0  1  0  0  3  0  0  0  0  0  0
   26.5060   -1.4110   52.9960 C   0  0  0  0  0  3  0  0  0  0  0  0
   27.7850   -1.3920   52.7190 C   0  0  0  0  0  3  0  0  0  0  0  0
   28.8240   -0.6690   53.4450 C   0  0  0  0  0  0  0  0  0  0  0  0
   30.1290   -0.7110   53.0790 F   0  0  0  0  0  0  0  0  0  0  0  0
   28.4570    0.0480   54.4960 C   0  0  0  0  0  3  0  0  0  0  0  0
   26.7540    0.2350   55.1530 P   0  0  0  0  0  0  0  0  0  0  0  0
   26.3380    1.6120   55.2220 H   0  0  0  0  0  0  0  0  0  0  0  0
   23.2820    3.1330   52.0200 C   0  0  2  0  0  3  0  0  0  0  0  0
   24.3930    3.3430   50.6200 S   0  0  0  0  0  0  0  0  0  0  0  0
   23.7920    5.1180   50.3340 C   0  0  0  0  0  2  0  0  0  0  0  0
   22.7950    5.2120   51.4360 C   0  0  0  0  0  0  0  0  0  0  0  0
   22.6390    4.1510   52.2010 N   0  0  0  0  0  0  0  0  0  0  0  0
   21.9400    6.2550   51.8460 O   0  0  0  0  0  0  0  0  0  0  0  0
   21.1010    6.0670   52.3700 H   0  0  0  0  0  0  0  0  0  0  0  0
  1  5  1  0  0  0  0
  1  2  1  6  0  0  0
  2  3  1  0  0  0  0
  3  4  1  1  0  0  0
  3 12  1  0  0  0  0
  5  4  1  1  0  0  0
  5  6  1  0  0  0  0
  6  7  2  0  0  0  0
  8  9  1  1  0  0  0
  8  7  1  0  0  0  0
 10  8  1  0  0  0  0
 11 10  1  0  0  0  0
 11  5  1  0  0  0  0
 12 13  1  6  0  0  0
 12 18  1  0  0  0  0
 14 13  2  0  0  0  0
 14 15  1  0  0  0  0
 15 17  2  0  0  0  0
 16 15  1  0  0  0  0
 17 18  1  0  0  0  0
 18 19  1  0  0  0  0
 20 21  1  1  0  0  0
 20 24  1  0  0  0  0
 20  1  1  0  0  0  0
 22 21  1  0  0  0  0
 22 23  1  0  0  0  0
 23 25  1  0  0  0  0
 23 24  2  0  0  0  0
 25 26  1  0  0  0  0
M  END
>  <TORSDO>
F 3

$$$$
