C:\Qe-CaDD\Project\Data\Stage_6_Molecular_Dynamics\ligands_top\out_12304_EGFR_extracted.pdbqt
 OpenBabel01082506443D

 29 30  0  0  1  0  0  0  0  0999 V2000
   20.6260    0.4790   53.3800 C   0  0  2  0  0  3  0  0  0  0  0  0
   19.7350    1.3520   52.5300 C   0  0  0  0  0  2  0  0  0  0  0  0
   20.2340    2.4830   52.6160 N   0  0  0  0  0  2  0  0  0  0  0  0
   19.8600    3.6680   52.0620 C   0  0  0  0  0  2  0  0  0  0  0  0
   20.9030    4.0970   51.4330 C   0  0  0  0  0  3  0  0  0  0  0  0
   22.2710    3.8130   51.0920 C   0  0  0  0  0  0  0  0  0  0  0  0
   22.8320    2.6920   51.4890 C   0  0  0  0  0  3  0  0  0  0  0  0
   22.1730    1.6780   52.2560 C   0  0  0  0  0  0  0  0  0  0  0  0
   22.0200    0.5430   52.9260 C   0  0  0  0  0  0  0  0  0  0  0  0
   22.9230   -0.5320   53.4820 C   0  0  0  0  0  0  0  0  0  0  0  0
   22.2680   -1.4760   53.9840 O   0  0  0  0  0  0  0  0  0  0  0  0
   24.3770   -0.6250   53.5100 C   0  0  0  0  0  3  0  0  0  0  0  0
   25.6330   -0.1500   53.3360 C   0  0  0  0  0  3  0  0  0  0  0  0
   25.8780    1.2100   52.8750 C   0  0  1  0  0  3  0  0  0  0  0  0
   26.9110    1.8000   53.9140 C   0  0  0  0  0  1  0  0  0  0  0  0
   26.4930    1.3520   51.5270 C   0  0  0  0  0  2  0  0  0  0  0  0
   26.5430    2.8600   51.2460 C   0  0  0  0  0  2  0  0  0  0  0  0
   26.6830    3.0930   49.8360 N   0  0  0  0  0  0  0  0  0  0  0  0
   26.4670    4.3880   49.2670 C   0  0  2  0  0  3  0  0  0  0  0  0
   25.3260    5.1270   49.3120 C   0  0  0  0  0  2  0  0  0  0  0  0
   24.2510    4.4120   50.0660 C   0  0  0  0  0  3  0  0  0  0  0  0
   22.9740    4.8540   50.2950 C   0  0  0  0  0  0  0  0  0  0  0  0
   22.1260    5.9500   50.0290 F   0  0  0  0  0  0  0  0  0  0  0  0
   26.9510    2.3080   49.1970 H   0  0  0  0  0  0  0  0  0  0  0  0
   27.6880    4.8080   48.6090 C   0  0  0  0  0  3  0  0  0  0  0  0
   28.4250    5.8400   48.2510 C   0  0  0  0  0  3  0  0  0  0  0  0
   29.8180    6.5720   47.5110 Cl  0  0  0  0  0  0  0  0  0  0  0  0
   20.1630   -0.8270   53.3700 O   0  0  0  0  0  0  0  0  0  0  0  0
   18.7880   -0.8290   53.1080 C   0  0  0  0  0  1  0  0  0  0  0  0
  1 28  1  6  0  0  0
  2  3  1  0  0  0  0
  2  1  1  0  0  0  0
  4  3  1  0  0  0  0
  5  4  1  0  0  0  0
  6  5  2  0  0  0  0
  6  7  1  0  0  0  0
  7  8  2  0  0  0  0
  8  9  2  0  0  0  0
  9  1  1  0  0  0  0
  9 10  1  0  0  0  0
 10 12  1  0  0  0  0
 10 11  2  0  0  0  0
 13 12  2  0  0  0  0
 14 13  1  0  0  0  0
 14 15  1  1  0  0  0
 16 14  1  0  0  0  0
 17 16  1  0  0  0  0
 18 17  1  0  0  0  0
 19 25  1  6  0  0  0
 19 20  1  0  0  0  0
 19 18  1  0  0  0  0
 20 21  1  0  0  0  0
 21 22  2  0  0  0  0
 22  6  1  0  0  0  0
 23 22  1  0  0  0  0
 24 18  1  0  0  0  0
 26 25  2  0  0  0  0
 27 26  1  0  0  0  0
 29 28  1  0  0  0  0
M  END
>  <TORSDO>
F 2

$$$$
