C:\Qe-CaDD\Project\Data\Stage_6_Molecular_Dynamics\ligands_top\out_18607_EGFR_extracted.pdbqt
 OpenBabel01082506443D

 26 29  0  0  1  0  0  0  0  0999 V2000
   25.6200    2.0860   53.0890 C   0  0  0  0  0  0  0  0  0  0  0  0
   24.2670    1.7610   53.1200 C   0  0  0  0  0  3  0  0  0  0  0  0
   23.5380    1.9230   51.9640 C   0  0  0  0  0  3  0  0  0  0  0  0
   24.1040    2.3940   50.7770 C   0  0  0  0  0  0  0  0  0  0  0  0
   23.4360    2.5690   49.6150 F   0  0  0  0  0  0  0  0  0  0  0  0
   25.4380    2.7200   50.7160 C   0  0  0  0  0  0  0  0  0  0  0  0
   26.1360    2.5380   51.9190 C   0  0  0  0  0  0  0  0  0  0  0  0
   27.4670    2.8190   52.0010 F   0  0  0  0  0  0  0  0  0  0  0  0
   26.2340    3.2200   49.6000 C   0  0  0  0  0  2  0  0  0  0  0  0
   25.9580    4.6550   49.3530 C   0  0  2  0  0  3  0  0  0  0  0  0
   25.0860    5.3230   50.2460 C   0  0  0  0  0  2  0  0  0  0  0  0
   26.0930    6.5540   50.3580 N   0  0  0  0  0  0  0  0  0  0  0  0
   26.7590    7.3230   49.3460 C   0  0  2  0  0  0  0  0  0  0  0  0
   26.2920    6.9610   51.3530 H   0  0  0  0  0  0  0  0  0  0  0  0
   27.8240    6.9480   48.3300 C   0  0  0  0  0  2  0  0  0  0  0  0
   25.6660    7.1690   48.3010 C   0  0  0  0  0  2  0  0  0  0  0  0
   27.6490    5.5900   48.4360 C   0  0  1  0  0  3  0  0  0  0  0  0
   26.1030    5.9040   48.4510 C   0  0  2  0  0  0  0  0  0  0  0  0
   28.8760    4.8840   48.4580 O   0  0  0  0  0  0  0  0  0  0  0  0
   30.0140    5.5810   48.6370 O   0  0  0  0  0  0  0  0  0  0  0  0
   31.2320    5.0100   47.5880 Cl  0  0  0  0  0  0  0  0  0  0  0  0
   26.3850    1.9160   54.2960 N   0  0  0  0  0  0  0  0  0  0  0  0
   26.6390    2.6410   54.9960 H   0  0  0  0  0  0  0  0  0  0  0  0
   26.8380    0.2250   54.4230 S   0  0  1  0  0  0  0  0  0  0  0  0
   28.5700    0.1250   54.8450 C   0  0  0  0  0  1  0  0  0  0  0  0
   26.0290   -0.4940   55.4850 O   0  0  0  0  0  0  0  0  0  0  0  0
  1  2  1  0  0  0  0
  1 22  1  0  0  0  0
  3  2  2  0  0  0  0
  4  3  1  0  0  0  0
  5  4  1  0  0  0  0
  6  4  2  0  0  0  0
  6  7  1  0  0  0  0
  7  8  1  0  0  0  0
  7  1  2  0  0  0  0
  9  6  1  0  0  0  0
 10  9  1  6  0  0  0
 10 11  1  0  0  0  0
 11 12  1  0  0  0  0
 12 14  1  0  0  0  0
 13 16  1  6  0  0  0
 13 12  1  0  0  0  0
 15 17  1  0  0  0  0
 15 13  1  0  0  0  0
 17 18  1  0  0  0  0
 17 19  1  6  0  0  0
 18 16  1  6  0  0  0
 18 13  1  0  0  0  0
 18 10  1  0  0  0  0
 19 20  1  0  0  0  0
 21 20  1  0  0  0  0
 22 24  1  0  0  0  0
 22 23  1  0  0  0  0
 24 25  1  1  0  0  0
 24 26  2  0  0  0  0
M  END
>  <TORSDO>
F 6

$$$$
