C:\Qe-CaDD\Project\Data\Stage_6_Molecular_Dynamics\ligands_top\out_16917_EGFR_extracted.pdbqt
 OpenBabel01082506443D

 25 27  0  0  1  0  0  0  0  0999 V2000
   27.0640    0.5820   53.3280 N   0  0  0  0  0  0  0  0  0  0  0  0
   26.9930   -0.3270   54.3130 C   0  0  0  0  0  3  0  0  0  0  0  0
   25.7360   -0.7150   54.4940 N   0  0  0  0  0  0  0  0  0  0  0  0
   24.9600   -0.0550   53.6170 C   0  0  2  0  0  3  0  0  0  0  0  0
   25.8010    0.7580   52.8860 C   0  0  0  0  0  0  0  0  0  0  0  0
   25.4980    1.6580   51.8240 C   0  0  0  0  0  0  0  0  0  0  0  0
   25.2090    2.6780   51.1040 C   0  0  0  0  0  0  0  0  0  0  0  0
   26.3160    3.2360   50.3360 C   0  0  0  0  0  3  0  0  0  0  0  0
   26.4130    4.2090   49.4440 C   0  0  0  0  0  0  0  0  0  0  0  0
   27.8570    4.7400   48.6110 Cl  0  0  0  0  0  0  0  0  0  0  0  0
   25.2280    4.9630   49.1130 C   0  0  0  0  0  3  0  0  0  0  0  0
   24.0190    4.8380   49.5750 C   0  0  0  0  0  3  0  0  0  0  0  0
   23.6140    3.5760   50.8260 P   0  0  0  0  0  0  0  0  0  0  0  0
   23.2250    4.2890   52.0350 H   0  0  0  0  0  0  0  0  0  0  0  0
   28.3740    1.0980   53.0710 C   0  0  0  0  0  2  0  0  0  0  0  0
   28.5720    2.4300   53.7500 C   0  0  0  0  0  2  0  0  0  0  0  0
   29.6340    2.4300   54.6550 O   0  0  0  0  0  0  0  0  0  0  0  0
   30.4610    2.4160   54.0860 H   0  0  0  0  0  0  0  0  0  0  0  0
   23.5150   -0.1890   53.4900 C   0  0  0  0  0  0  0  0  0  0  0  0
   22.6540    0.2520   52.5030 C   0  0  0  0  0  3  0  0  0  0  0  0
   21.3050   -0.0160   52.5840 C   0  0  0  0  0  3  0  0  0  0  0  0
   20.7790   -0.7260   53.6440 C   0  0  0  0  0  0  0  0  0  0  0  0
   19.4420   -0.9890   53.7110 F   0  0  0  0  0  0  0  0  0  0  0  0
   21.6260   -1.1700   54.6340 C   0  0  0  0  0  3  0  0  0  0  0  0
   22.9790   -0.9090   54.5650 C   0  0  0  0  0  3  0  0  0  0  0  0
  1  2  1  0  0  0  0
  2  3  2  0  0  0  0
  4 19  1  1  0  0  0
  4  3  1  0  0  0  0
  5  1  1  0  0  0  0
  5  4  1  0  0  0  0
  6  5  2  0  0  0  0
  7  6  2  0  0  0  0
  8  7  1  0  0  0  0
  9  8  2  0  0  0  0
 10  9  1  0  0  0  0
 11  9  1  0  0  0  0
 11 12  2  0  0  0  0
 12 13  1  0  0  0  0
 13  7  1  0  0  0  0
 13 14  1  0  0  0  0
 15  1  1  0  0  0  0
 15 16  1  0  0  0  0
 16 17  1  0  0  0  0
 18 17  1  0  0  0  0
 19 25  1  0  0  0  0
 20 21  1  0  0  0  0
 20 19  2  0  0  0  0
 21 22  2  0  0  0  0
 22 23  1  0  0  0  0
 22 24  1  0  0  0  0
 25 24  2  0  0  0  0
M  END
>  <TORSDO>
F 6

$$$$
