C:\Qe-CaDD\Project\Data\Stage_6_Molecular_Dynamics\ligands_top\out_12428_EGFR_extracted.pdbqt
 OpenBabel01082506443D

 27 29  0  0  1  0  0  0  0  0999 V2000
   29.7600    2.1220   54.9590 N   0  0  0  0  0  0  0  0  0  0  0  0
   29.0190    1.3900   54.5040 C   0  0  0  0  0  0  0  0  0  0  0  0
   28.0960    0.4510   53.9410 C   0  0  0  0  0  0  0  0  0  0  0  0
   26.7760    0.7760   54.0560 C   0  0  0  0  0  3  0  0  0  0  0  0
   25.7640   -0.0560   53.5500 C   0  0  0  0  0  0  0  0  0  0  0  0
   26.1260   -1.2460   52.9070 C   0  0  0  0  0  3  0  0  0  0  0  0
   27.4770   -1.6120   52.7720 C   0  0  0  0  0  3  0  0  0  0  0  0
   28.3770   -0.7270   53.3060 C   0  0  0  0  0  0  0  0  0  0  0  0
   29.7100   -0.9570   53.2480 F   0  0  0  0  0  0  0  0  0  0  0  0
   24.3820   -0.0540   53.5400 N   0  0  0  0  0  0  0  0  0  0  0  0
   24.4270    0.9870   53.7990 H   0  0  0  0  0  0  0  0  0  0  0  0
   22.9950   -0.0150   53.5340 C   0  0  0  0  0  0  0  0  0  0  0  0
   22.5210   -1.1850   54.0770 N   0  0  0  0  0  0  0  0  0  0  0  0
   21.1370   -1.1790   54.1490 C   0  0  0  0  0  3  0  0  0  0  0  0
   20.3620   -0.1630   53.7380 N   0  0  0  0  0  0  0  0  0  0  0  0
   20.7980    0.9600   53.2120 C   0  0  0  0  0  0  0  0  0  0  0  0
   22.2130    1.0310   53.1050 C   0  0  0  0  0  0  0  0  0  0  0  0
   20.3220    2.2410   52.7040 C   0  0  0  0  0  2  0  0  0  0  0  0
   22.8390    2.2420   52.5480 C   0  0  0  0  0  2  0  0  0  0  0  0
   22.4110    2.7660   51.4080 O   0  0  0  0  0  0  0  0  0  0  0  0
   22.4540    2.2900   50.1860 C   0  0  0  0  0  2  0  0  0  0  0  0
   21.7950    1.1020   49.6770 C   0  0  0  0  0  2  0  0  0  0  0  0
   20.4810    0.9260   49.6580 O   0  0  0  0  0  0  0  0  0  0  0  0
   19.7880    0.8770   50.7930 C   0  0  0  0  0  2  0  0  0  0  0  0
   19.8170    2.1890   51.4970 C   0  0  1  0  0  3  0  0  0  0  0  0
   19.4170    3.4550   51.1840 O   0  0  0  0  0  0  0  0  0  0  0  0
   18.6900    3.6310   50.5090 H   0  0  0  0  0  0  0  0  0  0  0  0
  2  1  3  0  0  0  0
  3  4  1  0  0  0  0
  3  2  1  0  0  0  0
  5  4  2  0  0  0  0
  6  5  1  0  0  0  0
  7  6  2  0  0  0  0
  7  8  1  0  0  0  0
  8  3  2  0  0  0  0
  9  8  1  0  0  0  0
 10  5  1  0  0  0  0
 10 11  1  0  0  0  0
 12 10  1  0  0  0  0
 12 13  1  0  0  0  0
 13 14  2  0  0  0  0
 15 14  1  0  0  0  0
 16 15  2  0  0  0  0
 17 16  1  0  0  0  0
 17 12  2  0  0  0  0
 18 16  1  0  0  0  0
 19 17  1  0  0  0  0
 20 19  1  0  0  0  0
 21 20  1  0  0  0  0
 22 21  1  0  0  0  0
 23 22  1  0  0  0  0
 23 24  1  0  0  0  0
 24 25  1  0  0  0  0
 25 26  1  1  0  0  0
 25 18  1  0  0  0  0
 27 26  1  0  0  0  0
M  END
>  <TORSDO>
F 3

$$$$
