C:\Qe-CaDD\Project\Data\Stage_6_Molecular_Dynamics\ligands_top\out_10577_EGFR_extracted.pdbqt
 OpenBabel01082506443D

 33 36  0  0  1  0  0  0  0  0999 V2000
   22.2560    1.3950   52.3040 C   0  0  2  0  0  3  0  0  0  0  0  0
   21.3850    2.4860   52.1520 C   0  0  0  0  0  2  0  0  0  0  0  0
   20.6950    3.5870   52.0330 O   0  0  0  0  0  0  0  0  0  0  0  0
   21.9080    4.8030   51.7060 P   0  0  2  0  0  0  0  0  0  0  0  0
   21.8050    4.9120   50.1080 C   0  0  0  0  0  2  0  0  0  0  0  0
   22.8440    5.1600   49.4170 N   0  0  0  0  0  2  0  0  0  0  0  0
   23.8470    5.8360   50.2130 C   0  0  0  0  0  3  0  0  0  0  0  0
   25.1240    5.8880   50.3780 N   0  0  0  0  0  0  0  0  0  0  0  0
   26.0120    5.0800   49.6070 C   0  0  0  0  0  0  0  0  0  0  0  0
   25.9520    3.7760   49.7560 C   0  0  0  0  0  3  0  0  0  0  0  0
   25.0970    3.0290   50.6160 C   0  0  0  0  0  3  0  0  0  0  0  0
   24.1510    3.1670   51.5180 C   0  0  0  0  0  0  0  0  0  0  0  0
   23.4960    4.3980   52.0990 C   0  0  0  0  0  2  0  0  0  0  0  0
   23.6600    1.8400   51.9690 N   0  0  0  0  0  0  0  0  0  0  0  0
   24.7150    0.8800   52.1150 C   0  0  0  0  0  2  0  0  0  0  0  0
   25.2210    0.5690   53.4640 C   0  0  0  0  0  2  0  0  0  0  0  0
   26.6780    0.8280   53.5840 N   0  0  0  0  0  0  0  0  0  0  0  0
   27.1050    2.2070   53.5740 C   0  0  0  0  0  2  0  0  0  0  0  0
   28.6050    2.2390   53.7680 C   0  0  0  0  0  2  0  0  0  0  0  0
   29.0460    1.2550   54.6390 O   0  0  0  0  0  0  0  0  0  0  0  0
   28.9730    0.0490   53.9440 C   0  0  0  0  0  2  0  0  0  0  0  0
   27.5340   -0.3160   53.6980 C   0  0  0  0  0  0  0  0  0  0  0  0
   27.1590   -1.4930   53.6070 O   0  0  0  0  0  0  0  0  0  0  0  0
   21.8710    0.3020   51.3990 N   0  0  0  0  0  0  0  0  0  0  0  0
   22.4770   -0.5270   51.5060 H   0  0  0  0  0  0  0  0  0  0  0  0
   20.8520    0.1020   51.4690 H   0  0  0  0  0  0  0  0  0  0  0  0
   26.8940    5.8310   48.7320 C   0  0  0  0  0  0  0  0  0  0  0  0
   28.2090    5.4830   48.5080 C   0  0  0  0  0  3  0  0  0  0  0  0
   29.0570    6.1820   47.6850 C   0  0  0  0  0  3  0  0  0  0  0  0
   28.6170    7.3020   47.0230 C   0  0  0  0  0  0  0  0  0  0  0  0
   29.4710    7.9710   46.2180 F   0  0  0  0  0  0  0  0  0  0  0  0
   27.3170    7.7000   47.2070 C   0  0  0  0  0  3  0  0  0  0  0  0
   26.5130    6.9610   48.0420 C   0  0  0  0  0  3  0  0  0  0  0  0
  1 24  1  6  0  0  0
  2  1  1  0  0  0  0
  3  2  1  0  0  0  0
  4  5  1  6  0  0  0
  4  3  1  0  0  0  0
  4 13  1  0  0  0  0
  6  5  1  0  0  0  0
  6  7  1  0  0  0  0
  7  8  2  0  0  0  0
  9 10  2  0  0  0  0
  9  8  1  0  0  0  0
 10 11  1  0  0  0  0
 11 12  2  0  0  0  0
 12 14  1  0  0  0  0
 12 13  1  0  0  0  0
 14 15  1  0  0  0  0
 14  1  1  0  0  0  0
 15 16  1  0  0  0  0
 16 17  1  0  0  0  0
 17 22  1  0  0  0  0
 18 17  1  0  0  0  0
 18 19  1  0  0  0  0
 19 20  1  0  0  0  0
 21 20  1  0  0  0  0
 22 21  1  0  0  0  0
 23 22  2  0  0  0  0
 24 26  1  0  0  0  0
 24 25  1  0  0  0  0
 27  9  1  0  0  0  0
 28 27  1  0  0  0  0
 29 28  2  0  0  0  0
 30 32  2  0  0  0  0
 30 29  1  0  0  0  0
 31 30  1  0  0  0  0
 32 33  1  0  0  0  0
 33 27  2  0  0  0  0
M  END
>  <TORSDO>
F 5

$$$$
