C:\Qe-CaDD\Project\Data\Stage_6_Molecular_Dynamics\ligands_top\out_12523_EGFR_extracted.pdbqt
 OpenBabel01082506443D

 29 33  0  0  1  0  0  0  0  0999 V2000
   26.1980   -0.7920   53.3880 C   0  0  0  0  0  3  0  0  0  0  0  0
   25.0040   -0.7410   53.5260 C   0  0  0  0  0  0  0  0  0  0  0  0
   23.5630   -0.6600   53.7080 C   0  0  0  0  0  0  0  0  0  0  0  0
   22.9150   -0.9310   54.8920 C   0  0  0  0  0  3  0  0  0  0  0  0
   21.5250   -0.8280   54.9580 C   0  0  0  0  0  3  0  0  0  0  0  0
   20.7780   -0.4590   53.8610 C   0  0  0  0  0  3  0  0  0  0  0  0
   21.4280   -0.1900   52.6850 C   0  0  0  0  0  0  0  0  0  0  0  0
   22.8210   -0.2830   52.5840 C   0  0  0  0  0  3  0  0  0  0  0  0
   20.7840    0.2170   51.4490 N   0  0  0  0  0  0  0  0  0  0  0  0
   20.2190   -0.2330   50.7050 H   0  0  0  0  0  0  0  0  0  0  0  0
   21.1450    1.5740   51.5260 C   0  0  2  0  0  3  0  0  0  0  0  0
   21.1580    2.8200   52.0960 N   0  0  0  0  0  0  0  0  0  0  0  0
   22.4940    3.3780   52.0130 C   0  0  0  0  0  0  0  0  0  0  0  0
   23.6760    2.9390   51.5450 N   0  0  0  0  0  2  0  0  0  0  0  0
   22.8940    4.7880   51.9820 C   0  0  0  0  0  2  0  0  0  0  0  0
   23.3480    2.6340   50.1230 C   0  0  1  0  0  3  0  0  0  0  0  0
   21.9580    1.9450   50.2520 C   0  0  1  0  0  3  0  0  0  0  0  0
   22.9990    3.9610   49.5610 C   0  0  1  0  0  3  0  0  0  0  0  0
   21.5630    1.6430   48.9780 C   0  0  0  0  0  2  0  0  0  0  0  0
   22.5160    2.1370   48.0050 O   0  0  0  0  0  0  0  0  0  0  0  0
   22.7630    3.5770   48.1480 C   0  0  0  0  0  2  0  0  0  0  0  0
   22.9940    5.0370   50.4260 C   0  0  1  0  0  3  0  0  0  0  0  0
   23.0900    6.0880   49.4840 O   0  0  0  0  0  0  0  0  0  0  0  0
   23.9100    7.1650   49.8870 C   0  0  0  0  0  2  0  0  0  0  0  0
   25.3460    6.7350   50.0840 C   0  0  1  0  0  3  0  0  0  0  0  0
   25.9200    6.1530   48.8120 C   0  0  0  0  0  2  0  0  0  0  0  0
   26.9800    7.1240   48.3540 C   0  0  0  0  0  2  0  0  0  0  0  0
   26.8430    8.2490   49.3520 C   0  0  0  0  0  2  0  0  0  0  0  0
   26.2000    7.7410   50.4530 O   0  0  0  0  0  0  0  0  0  0  0  0
  1  2  3  0  0  0  0
  2  3  1  0  0  0  0
  3  4  1  0  0  0  0
  4  5  2  0  0  0  0
  6  5  1  0  0  0  0
  7  6  2  0  0  0  0
  8  7  1  0  0  0  0
  8  3  2  0  0  0  0
  9  7  1  0  0  0  0
 10  9  1  0  0  0  0
 11  9  1  6  0  0  0
 11 12  1  0  0  0  0
 13 12  2  0  0  0  0
 14 13  1  0  0  0  0
 15 13  1  0  0  0  0
 16 17  1  0  0  0  0
 16 14  1  1  0  0  0
 17 19  1  1  0  0  0
 17 11  1  0  0  0  0
 18 21  1  1  0  0  0
 18 16  1  0  0  0  0
 18 22  1  0  0  0  0
 20 21  1  0  0  0  0
 20 19  1  0  0  0  0
 22 23  1  6  0  0  0
 22 15  1  0  0  0  0
 23 24  1  0  0  0  0
 25 24  1  6  0  0  0
 25 29  1  0  0  0  0
 26 25  1  0  0  0  0
 27 26  1  0  0  0  0
 27 28  1  0  0  0  0
 28 29  1  0  0  0  0
M  END
>  <TORSDO>
F 5

$$$$
