C:\Qe-CaDD\Project\Data\Stage_6_Molecular_Dynamics\ligands_top\out_20767_EGFR_extracted.pdbqt
 OpenBabel01082506443D

 23 25  0  0  0  0  0  0  0  0999 V2000
   22.9220    1.3310   52.6490 C   0  0  0  0  0  0  0  0  0  0  0  0
   24.2940    1.4620   52.6380 C   0  0  0  0  0  3  0  0  0  0  0  0
   25.0180    2.1340   51.6980 C   0  0  0  0  0  0  0  0  0  0  0  0
   26.3870    2.2690   51.6820 C   0  0  0  0  0  0  0  0  0  0  0  0
   26.8750    2.9640   50.6710 N   0  0  0  0  0  0  0  0  0  0  0  0
   26.1850    3.5380   49.6830 C   0  0  0  0  0  3  0  0  0  0  0  0
   24.8540    3.3950   49.7160 N   0  0  0  0  0  0  0  0  0  0  0  0
   24.2590    2.7070   50.7010 C   0  0  0  0  0  0  0  0  0  0  0  0
   22.8860    2.6080   50.6620 C   0  0  0  0  0  3  0  0  0  0  0  0
   22.1920    1.9170   51.6350 C   0  0  0  0  0  0  0  0  0  0  0  0
   20.7110    1.8510   51.5280 C   0  0  0  0  0  1  0  0  0  0  0  0
   27.1390    1.6690   52.7220 N   0  0  0  0  0  0  0  0  0  0  0  0
   27.4630    2.2100   53.5450 H   0  0  0  0  0  0  0  0  0  0  0  0
   27.5870    0.3310   52.8780 C   0  0  0  0  0  0  0  0  0  0  0  0
   26.8970   -0.8090   52.5240 C   0  0  0  0  0  3  0  0  0  0  0  0
   27.3740   -2.0780   52.6950 C   0  0  0  0  0  3  0  0  0  0  0  0
   28.6130   -2.2930   53.2490 C   0  0  0  0  0  0  0  0  0  0  0  0
   29.3380   -1.1930   53.6180 C   0  0  0  0  0  3  0  0  0  0  0  0
   28.8220    0.0680   53.4290 C   0  0  0  0  0  3  0  0  0  0  0  0
   28.9920   -3.6160   53.3740 O   0  0  0  0  0  0  0  0  0  0  0  0
   28.3890   -4.3900   53.5680 H   0  0  0  0  0  0  0  0  0  0  0  0
   22.2380    0.6320   53.6360 O   0  0  0  0  0  0  0  0  0  0  0  0
   22.5080   -0.6550   54.0810 C   0  0  0  0  0  1  0  0  0  0  0  0
  1 22  1  0  0  0  0
  2  1  1  0  0  0  0
  3  2  2  0  0  0  0
  4  3  1  0  0  0  0
  4 12  1  0  0  0  0
  5  4  2  0  0  0  0
  6  7  2  0  0  0  0
  6  5  1  0  0  0  0
  7  8  1  0  0  0  0
  8  3  1  0  0  0  0
  9  8  2  0  0  0  0
  9 10  1  0  0  0  0
 10  1  2  0  0  0  0
 11 10  1  0  0  0  0
 12 14  1  0  0  0  0
 12 13  1  0  0  0  0
 14 19  1  0  0  0  0
 15 16  1  0  0  0  0
 15 14  2  0  0  0  0
 16 17  2  0  0  0  0
 17 20  1  0  0  0  0
 17 18  1  0  0  0  0
 19 18  2  0  0  0  0
 20 21  1  0  0  0  0
 22 23  1  0  0  0  0
M  END
>  <TORSDO>
F 4

$$$$
