C:\Qe-CaDD\Project\Data\Stage_6_Molecular_Dynamics\ligands_top\out_22015_EGFR_extracted.pdbqt
 OpenBabel01082506443D

 22 23  0  0  1  0  0  0  0  0999 V2000
   23.1250    2.6900   52.6610 C   0  0  0  0  0  3  0  0  0  0  0  0
   23.7810    1.5450   52.7410 C   0  0  0  0  0  0  0  0  0  0  0  0
   25.2430    1.7870   52.8480 C   0  0  0  0  0  3  0  0  0  0  0  0
   26.2890    1.3220   53.5230 C   0  0  0  0  0  0  0  0  0  0  0  0
   27.5700    1.8840   53.3350 C   0  0  0  0  0  0  0  0  0  0  0  0
   28.5980    2.3520   53.1710 N   0  0  0  0  0  0  0  0  0  0  0  0
   26.4070    0.2310   54.5390 C   0  0  0  0  0  0  0  0  0  0  0  0
   27.4330   -0.0240   55.1530 O   0  0  0  0  0  0  0  0  0  0  0  0
   25.3560   -0.6980   54.9700 N   0  0  0  0  0  0  0  0  0  0  0  0
   24.0660   -0.9480   54.3340 C   0  0  1  0  0  3  0  0  0  0  0  0
   23.1320   -1.1710   55.2870 C   0  0  0  0  0  2  0  0  0  0  0  0
   21.8680   -0.4350   54.9450 C   0  0  0  0  0  3  0  0  0  0  0  0
   21.8930    0.2910   53.8010 C   0  0  0  0  0  3  0  0  0  0  0  0
   22.9210    0.3630   52.7030 C   0  0  2  0  0  3  0  0  0  0  0  0
   23.6950   -0.9380   52.8520 C   0  0  0  0  0  2  0  0  0  0  0  0
   25.4130   -1.2820   55.8060 H   0  0  0  0  0  0  0  0  0  0  0  0
   23.7030    4.0030   52.6730 C   0  0  0  0  0  3  0  0  0  0  0  0
   23.5530    4.8340   51.6780 C   0  0  0  0  0  0  0  0  0  0  0  0
   24.0620    6.2040   51.5090 C   0  0  0  0  0  2  0  0  0  0  0  0
   23.1120    7.1080   50.7620 C   0  0  0  0  0  1  0  0  0  0  0  0
   22.8410    4.5510   50.5310 O   0  0  0  0  0  0  0  0  0  0  0  0
   22.3050    5.2170   50.0070 H   0  0  0  0  0  0  0  0  0  0  0  0
  1 17  1  0  0  0  0
  1  2  2  0  0  0  0
  2  3  1  0  0  0  0
  3  4  2  0  0  0  0
  4  7  1  0  0  0  0
  5  4  1  0  0  0  0
  6  5  3  0  0  0  0
  7  9  1  0  0  0  0
  7  8  2  0  0  0  0
  9 16  1  0  0  0  0
 10 15  1  1  0  0  0
 10  9  1  0  0  0  0
 10 11  1  0  0  0  0
 12 11  1  0  0  0  0
 13 12  2  0  0  0  0
 14  2  1  0  0  0  0
 14 15  1  1  0  0  0
 14 13  1  0  0  0  0
 18 17  2  0  0  0  0
 19 18  1  0  0  0  0
 20 19  1  0  0  0  0
 21 18  1  0  0  0  0
 22 21  1  0  0  0  0
M  END
>  <TORSDO>
F 3

$$$$
