C:\Qe-CaDD\Project\Data\Stage_6_Molecular_Dynamics\ligands_top\out_18300_EGFR_extracted.pdbqt
 OpenBabel01082506443D

 24 28  0  0  1  0  0  0  0  0999 V2000
   26.2730    6.6090   49.4030 C   0  0  0  0  0  0  0  0  0  0  0  0
   25.3150    6.0510   50.0640 N   0  0  0  0  0  2  0  0  0  0  0  0
   25.2320    4.6430   50.1950 N   0  0  0  0  0  0  0  0  0  0  0  0
   24.3410    3.6950   50.8810 C   0  0  0  0  0  2  0  0  0  0  0  0
   25.6250    2.7180   51.7380 S   0  0  2  0  0  3  0  0  0  0  0  0
   26.7370    2.9360   50.6210 N   0  0  0  0  0  2  0  0  0  0  0  0
   26.1700    3.7490   49.5770 C   0  0  0  0  0  0  0  0  0  0  0  0
   27.2130    4.5160   48.8560 C   0  0  0  0  0  3  0  0  0  0  0  0
   27.2980    5.8310   48.7490 C   0  0  0  0  0  3  0  0  0  0  0  0
   25.0520    1.0320   51.7910 C   0  0  2  0  0  3  0  0  0  0  0  0
   23.5950    0.9470   52.0310 C   0  0  0  0  0  2  0  0  0  0  0  0
   23.3600    0.2450   53.1270 C   0  0  0  0  0  0  0  0  0  0  0  0
   22.2430   -0.1690   53.8460 C   0  0  0  0  0  3  0  0  0  0  0  0
   24.5550   -0.1620   53.6630 C   0  0  0  0  0  0  0  0  0  0  0  0
   22.3550   -0.9220   54.9930 C   0  0  0  0  0  3  0  0  0  0  0  0
   23.5990   -1.2940   55.4720 C   0  0  0  0  0  3  0  0  0  0  0  0
   24.7060   -0.8980   54.7820 N   0  0  0  0  0  0  0  0  0  0  0  0
   25.5810    0.2610   52.9360 C   0  0  0  0  0  2  0  0  0  0  0  0
   26.3300    8.0630   49.2870 C   0  0  0  0  0  0  0  0  0  0  0  0
   25.6260    8.8800   48.4550 C   0  0  0  0  0  3  0  0  0  0  0  0
   26.0150   10.1600   48.7050 N   0  0  0  0  0  0  0  0  0  0  0  0
   25.5750   11.3840   48.0970 C   0  0  0  0  0  1  0  0  0  0  0  0
   26.9360   10.1720   49.6620 N   0  0  0  0  0  0  0  0  0  0  0  0
   27.1450    8.9080   50.0330 C   0  0  0  0  0  3  0  0  0  0  0  0
  1  2  1  0  0  0  0
  2  3  1  0  0  0  0
  3  4  1  0  0  0  0
  5  4  1  6  0  0  0
  5 10  1  0  0  0  0
  6  5  1  0  0  0  0
  7  3  1  0  0  0  0
  7  6  1  0  0  0  0
  8  7  2  0  0  0  0
  9  8  1  0  0  0  0
  9  1  2  0  0  0  0
 10 11  1  1  0  0  0
 10 18  1  0  0  0  0
 11 12  1  0  0  0  0
 12 14  2  0  0  0  0
 12 13  1  0  0  0  0
 13 15  2  0  0  0  0
 14 17  1  0  0  0  0
 15 16  1  0  0  0  0
 17 16  2  0  0  0  0
 18 14  1  0  0  0  0
 19  1  1  0  0  0  0
 19 24  1  0  0  0  0
 20 21  1  0  0  0  0
 20 19  2  0  0  0  0
 21 23  1  0  0  0  0
 22 21  1  0  0  0  0
 23 24  2  0  0  0  0
M  END
>  <TORSDO>
F 2

$$$$
