C:\Qe-CaDD\Project\Data\Stage_6_Molecular_Dynamics\ligands_top\out_13805_EGFR_extracted.pdbqt
 OpenBabel01082506443D

 23 25  0  0  1  0  0  0  0  0999 V2000
   26.8480    1.8720   52.1410 C   0  0  0  0  0  0  0  0  0  0  0  0
   28.0270    2.4320   52.4610 N   0  0  0  0  0  0  0  0  0  0  0  0
   28.6250    2.1660   53.6600 C   0  0  0  0  0  3  0  0  0  0  0  0
   28.0070    1.3190   54.5360 N   0  0  0  0  0  0  0  0  0  0  0  0
   26.8100    0.7560   54.2000 C   0  0  0  0  0  0  0  0  0  0  0  0
   26.1870   -0.1020   55.0880 C   0  0  0  0  0  3  0  0  0  0  0  0
   24.9760   -0.6780   54.7620 C   0  0  0  0  0  3  0  0  0  0  0  0
   24.3610   -0.4080   53.5350 C   0  0  0  0  0  0  0  0  0  0  0  0
   24.9790    0.4500   52.6400 C   0  0  0  0  0  3  0  0  0  0  0  0
   26.1890    1.0110   52.9930 C   0  0  0  0  0  0  0  0  0  0  0  0
   26.3370    2.2230   50.8830 N   0  0  0  0  0  0  0  0  0  0  0  0
   25.9350    1.6530   50.1070 H   0  0  0  0  0  0  0  0  0  0  0  0
   26.3000    3.5760   50.4630 C   0  0  0  0  0  3  0  0  0  0  0  0
   26.8940    3.8880   49.3110 C   0  0  0  0  0  3  0  0  0  0  0  0
   26.9230    5.2450   48.7740 C   0  0  2  0  0  3  0  0  0  0  0  0
   25.9140    6.0990   48.6780 C   0  0  0  0  0  2  0  0  0  0  0  0
   26.2370    7.2810   48.1410 F   0  0  0  0  0  0  0  0  0  0  0  0
   28.4250    5.9230   48.1550 Cl  0  0  0  0  0  0  0  0  0  0  0  0
   23.0570   -1.0430   53.2090 C   0  0  0  0  0  2  0  0  0  0  0  0
   21.9760   -0.0530   53.2030 N   0  0  0  0  0  0  0  0  0  0  0  0
   21.1000    0.3050   54.3160 C   0  0  0  0  0  2  0  0  0  0  0  0
   20.5800    1.2100   53.2360 C   0  0  0  0  0  2  0  0  0  0  0  0
   21.3950    0.8460   52.2790 N   0  0  0  0  0  2  0  0  0  0  0  0
  1  2  2  0  0  0  0
  1 10  1  0  0  0  0
  2  3  1  0  0  0  0
  3  4  2  0  0  0  0
  5  4  1  0  0  0  0
  5  6  1  0  0  0  0
  7  6  2  0  0  0  0
  8  7  1  0  0  0  0
  9 10  1  0  0  0  0
  9  8  2  0  0  0  0
 10  5  2  0  0  0  0
 11  1  1  0  0  0  0
 12 11  1  0  0  0  0
 13 11  1  0  0  0  0
 14 13  2  0  0  0  0
 15 18  1  6  0  0  0
 15 14  1  0  0  0  0
 16 15  1  0  0  0  0
 17 16  1  0  0  0  0
 19  8  1  0  0  0  0
 20 19  1  0  0  0  0
 20 21  1  0  0  0  0
 22 21  1  0  0  0  0
 23 20  1  0  0  0  0
 23 22  1  0  0  0  0
M  END
>  <TORSDO>
F 5

$$$$
