C:\Qe-CaDD\Project\Data\Stage_6_Molecular_Dynamics\ligands_top\out_16610_EGFR_extracted.pdbqt
 OpenBabel01082506443D

 26 29  0  0  1  0  0  0  0  0999 V2000
   18.7650    0.3810   51.8080 C   0  0  0  0  0  1  0  0  0  0  0  0
   19.9410    0.3070   52.6940 N   0  0  0  0  0  0  0  0  0  0  0  0
   19.9510    0.2560   54.0150 N   0  0  0  0  0  0  0  0  0  0  0  0
   21.2560    0.2020   54.3570 C   0  0  0  0  0  3  0  0  0  0  0  0
   22.0300    0.2230   53.1890 C   0  0  0  0  0  0  0  0  0  0  0  0
   21.1250    0.2920   52.0950 C   0  0  0  0  0  0  0  0  0  0  0  0
   21.6820    0.3120   50.8880 C   0  0  0  0  0  2  0  0  0  0  0  0
   20.9020    0.3700   49.6630 C   0  0  0  0  0  2  0  0  0  0  0  0
   20.7750    1.4730   48.9330 C   0  0  0  0  0  2  0  0  0  0  0  0
   21.5300    2.4310   49.4340 C   0  0  0  0  0  2  0  0  0  0  0  0
   22.9400    2.2470   49.4820 N   0  0  0  0  0  0  0  0  0  0  0  0
   23.5670    3.4340   50.1280 C   0  0  2  0  0  3  0  0  0  0  0  0
   25.0350    3.5110   50.0000 C   0  0  0  0  0  2  0  0  0  0  0  0
   25.8090    3.4250   51.3150 C   0  0  0  0  0  2  0  0  0  0  0  0
   25.0520    2.4400   52.1090 C   0  0  0  0  0  0  0  0  0  0  0  0
   25.4870    1.2320   52.3650 C   0  0  0  0  0  0  0  0  0  0  0  0
   26.7340    0.7460   51.9340 N   0  0  0  0  0  0  0  0  0  0  0  0
   27.2350   -0.5290   52.1070 N   0  0  0  0  0  0  0  0  0  0  0  0
   26.5260   -1.4050   52.7230 C   0  0  0  0  0  3  0  0  0  0  0  0
   25.2570   -1.0220   53.1940 N   0  0  0  0  0  0  0  0  0  0  0  0
   24.7070    0.1630   53.0690 C   0  0  0  0  0  0  0  0  0  0  0  0
   23.3190    0.1800   53.6000 C   0  0  0  0  0  2  0  0  0  0  0  0
   23.8490    3.1350   52.6260 C   0  0  0  0  0  2  0  0  0  0  0  0
   23.0010    3.6150   51.5060 C   0  0  0  0  0  2  0  0  0  0  0  0
   23.6720    1.5760   49.2010 H   0  0  0  0  0  0  0  0  0  0  0  0
   27.4210    1.3180   51.4250 H   0  0  0  0  0  0  0  0  0  0  0  0
  1  2  1  0  0  0  0
  2  3  1  0  0  0  0
  3  4  2  0  0  0  0
  5 22  1  0  0  0  0
  5  4  1  0  0  0  0
  6  2  1  0  0  0  0
  6  5  2  0  0  0  0
  7  6  1  0  0  0  0
  8  7  1  0  0  0  0
  9 10  1  0  0  0  0
  9  8  1  0  0  0  0
 10 11  1  0  0  0  0
 11 12  1  0  0  0  0
 12 13  1  1  0  0  0
 12 24  1  0  0  0  0
 13 14  1  0  0  0  0
 14 15  1  0  0  0  0
 15 16  2  0  0  0  0
 15 23  1  0  0  0  0
 16 21  1  0  0  0  0
 17 18  1  0  0  0  0
 17 16  1  0  0  0  0
 18 19  2  0  0  0  0
 19 20  1  0  0  0  0
 21 20  2  0  0  0  0
 21 22  1  0  0  0  0
 24 23  1  0  0  0  0
 25 11  1  0  0  0  0
 26 17  1  0  0  0  0
M  END
>  <TORSDO>
F 0

$$$$
