C:\Qe-CaDD\Project\Data\Stage_6_Molecular_Dynamics\ligands_top\out_12307_EGFR_extracted.pdbqt
 OpenBabel01082506443D

 35 38  0  0  1  0  0  0  0  0999 V2000
   24.9330    4.2690   49.1670 C   0  0  1  0  0  3  0  0  0  0  0  0
   26.3920    4.3320   49.3490 C   0  0  0  0  0  0  0  0  0  0  0  0
   26.7680    3.4390   50.2870 C   0  0  0  0  0  3  0  0  0  0  0  0
   25.6690    2.6940   50.8340 C   0  0  0  0  0  0  0  0  0  0  0  0
   25.4720    1.7070   51.7710 C   0  0  0  0  0  0  0  0  0  0  0  0
   24.2020    1.2310   52.0290 C   0  0  0  0  0  3  0  0  0  0  0  0
   23.1240    1.7500   51.3390 C   0  0  0  0  0  3  0  0  0  0  0  0
   23.3310    2.7190   50.4210 N   0  0  0  0  0  0  0  0  0  0  0  0
   24.5730    3.1870   50.1680 C   0  0  0  0  0  0  0  0  0  0  0  0
   27.4180    5.1410   48.7210 N   0  0  0  0  0  0  0  0  0  0  0  0
   28.3300    4.7130   48.4630 H   0  0  0  0  0  0  0  0  0  0  0  0
   27.0120    6.5100   48.5370 C   0  0  1  0  0  3  0  0  0  0  0  0
   26.7450    7.1050   49.8330 N   0  0  0  0  0  0  0  0  0  0  0  0
   26.4940    6.4330   50.5640 H   0  0  0  0  0  0  0  0  0  0  0  0
   26.2070    7.9750   49.7810 H   0  0  0  0  0  0  0  0  0  0  0  0
   27.9560    7.3990   47.8250 C   0  0  0  0  0  2  0  0  0  0  0  0
   29.1300    7.9190   48.5730 C   0  0  2  0  0  3  0  0  0  0  0  0
   29.2580    9.3930   48.7090 C   0  0  0  0  0  1  0  0  0  0  0  0
   30.3190    7.4700   47.8220 N   0  0  0  0  0  0  0  0  0  0  0  0
   30.9570    8.1640   46.7410 C   0  0  0  0  0  2  0  0  0  0  0  0
   31.6790    7.1240   45.8770 C   0  0  0  0  0  2  0  0  0  0  0  0
   32.7560    6.6950   46.6560 O   0  0  0  0  0  0  0  0  0  0  0  0
   32.2500    5.8050   47.6010 C   0  0  0  0  0  2  0  0  0  0  0  0
   30.9390    6.2330   48.1600 C   0  0  0  0  0  0  0  0  0  0  0  0
   30.4140    5.4140   48.9600 O   0  0  0  0  0  0  0  0  0  0  0  0
   24.2670    5.4110   49.6030 O   0  0  0  0  0  0  0  0  0  0  0  0
   23.3990    5.8520   48.6440 C   0  0  0  0  0  1  0  0  0  0  0  0
   26.6300    1.1780   52.4780 C   0  0  0  0  0  0  0  0  0  0  0  0
   27.5940    1.8130   53.2320 C   0  0  0  0  0  3  0  0  0  0  0  0
   28.5980    1.0650   53.8050 C   0  0  0  0  0  3  0  0  0  0  0  0
   28.6940   -0.2910   53.6670 C   0  0  0  0  0  0  0  0  0  0  0  0
   29.7510   -0.8770   54.3000 F   0  0  0  0  0  0  0  0  0  0  0  0
   27.7320   -0.9360   52.9130 C   0  0  0  0  0  0  0  0  0  0  0  0
   27.8950   -2.6730   52.7640 Cl  0  0  0  0  0  0  0  0  0  0  0  0
   26.7150   -0.2100   52.3280 C   0  0  0  0  0  3  0  0  0  0  0  0
  1  2  1  0  0  0  0
  1 26  1  1  0  0  0
  1  9  1  0  0  0  0
  2  3  2  0  0  0  0
  3  4  1  0  0  0  0
  4  5  1  0  0  0  0
  5  6  2  0  0  0  0
  5 28  1  0  0  0  0
  7  6  1  0  0  0  0
  8  7  2  0  0  0  0
  9  8  1  0  0  0  0
  9  4  2  0  0  0  0
 10  2  1  0  0  0  0
 11 10  1  0  0  0  0
 12 16  1  1  0  0  0
 12 10  1  0  0  0  0
 12 13  1  0  0  0  0
 13 14  1  0  0  0  0
 15 13  1  0  0  0  0
 16 17  1  0  0  0  0
 17 18  1  6  0  0  0
 19 24  1  0  0  0  0
 19 17  1  0  0  0  0
 20 19  1  0  0  0  0
 21 22  1  0  0  0  0
 21 20  1  0  0  0  0
 22 23  1  0  0  0  0
 23 24  1  0  0  0  0
 24 25  2  0  0  0  0
 27 26  1  0  0  0  0
 28 29  1  0  0  0  0
 29 30  2  0  0  0  0
 31 30  1  0  0  0  0
 31 32  1  0  0  0  0
 33 31  2  0  0  0  0
 34 33  1  0  0  0  0
 35 28  2  0  0  0  0
 35 33  1  0  0  0  0
M  END
>  <TORSDO>
F 8

$$$$
