C:\Qe-CaDD\Project\Data\Stage_6_Molecular_Dynamics\ligands_top\out_10651_EGFR_extracted.pdbqt
 OpenBabel01082506443D

 30 33  0  0  1  0  0  0  0  0999 V2000
   24.6980    3.1970   49.3980 C   0  0  0  0  0  1  0  0  0  0  0  0
   25.0940    2.9240   50.8230 C   0  0  1  0  0  3  0  0  0  0  0  0
   26.6340    2.9540   50.8390 C   0  0  0  0  0  2  0  0  0  0  0  0
   27.2180    2.4890   51.7930 O   0  0  0  0  0  0  0  0  0  0  0  0
   27.8440    1.9980   52.7940 C   0  0  2  0  0  3  0  0  0  0  0  0
   26.9510    0.9220   53.3990 C   0  0  2  0  0  3  0  0  0  0  0  0
   26.6190   -0.3170   53.4320 N   0  0  0  0  0  2  0  0  0  0  0  0
   25.2540   -0.7170   53.0800 C   0  0  0  0  0  2  0  0  0  0  0  0
   24.4180    0.5130   53.0850 C   0  0  1  0  0  3  0  0  0  0  0  0
   24.7890    1.7380   53.4450 C   0  0  1  0  0  3  0  0  0  0  0  0
   25.9870    1.5960   54.3480 C   0  0  0  0  0  2  0  0  0  0  0  0
   24.2960    3.0690   53.1380 C   0  0  0  0  0  2  0  0  0  0  0  0
   24.3350    3.4860   51.7570 N   0  0  0  0  0  0  0  0  0  0  0  0
   23.9710    4.8490   51.7450 C   0  0  0  0  0  2  0  0  0  0  0  0
   22.6350    5.3260   52.1120 C   0  0  0  0  0  2  0  0  0  0  0  0
   21.6720    4.6220   51.2690 N   0  0  0  0  0  0  0  0  0  0  0  0
   20.6650    3.9070   51.9030 C   0  0  0  0  0  2  0  0  0  0  0  0
   19.4170    3.8670   51.0360 C   0  0  0  0  0  2  0  0  0  0  0  0
   19.2650    5.0910   50.3670 O   0  0  0  0  0  0  0  0  0  0  0  0
   20.2630    5.2760   49.4280 C   0  0  0  0  0  2  0  0  0  0  0  0
   21.6500    4.9420   49.9170 C   0  0  0  0  0  2  0  0  0  0  0  0
   23.0330    0.4180   52.6560 N   0  0  0  0  0  0  0  0  0  0  0  0
   22.6920    0.7570   51.2970 C   0  0  0  0  0  2  0  0  0  0  0  0
   21.5020    0.7090   50.7270 C   0  0  0  0  0  0  0  0  0  0  0  0
   21.1710    1.1760   48.9300 Br  0  0  0  0  0  0  0  0  0  0  0  0
   20.3950    0.2830   51.5680 C   0  0  0  0  0  3  0  0  0  0  0  0
   20.6990   -0.0090   52.8160 C   0  0  0  0  0  3  0  0  0  0  0  0
   21.9710    0.0090   53.5560 C   0  0  0  0  0  3  0  0  0  0  0  0
   28.0670    2.9370   53.8700 O   0  0  0  0  0  0  0  0  0  0  0  0
   29.0200    2.9920   54.0430 H   0  0  0  0  0  0  0  0  0  0  0  0
  2  1  1  6  0  0  0
  2  3  1  0  0  0  0
  2 13  1  0  0  0  0
  3  4  1  0  0  0  0
  4  5  1  0  0  0  0
  5  6  1  0  0  0  0
  5 29  1  1  0  0  0
  6  7  1  0  0  0  0
  6 11  1  6  0  0  0
  8  9  1  0  0  0  0
  8  7  1  0  0  0  0
  9 22  1  6  0  0  0
  9 10  1  0  0  0  0
 10 12  1  6  0  0  0
 10 11  1  0  0  0  0
 13 12  1  0  0  0  0
 14 13  1  0  0  0  0
 14 15  1  0  0  0  0
 16 17  1  0  0  0  0
 16 15  1  0  0  0  0
 18 17  1  0  0  0  0
 19 18  1  0  0  0  0
 20 21  1  0  0  0  0
 20 19  1  0  0  0  0
 21 16  1  0  0  0  0
 22 28  1  0  0  0  0
 23 22  1  0  0  0  0
 24 23  1  0  0  0  0
 24 26  2  0  0  0  0
 25 24  1  0  0  0  0
 26 27  1  0  0  0  0
 27 28  2  0  0  0  0
 29 30  1  0  0  0  0
M  END
>  <TORSDO>
F 5

$$$$
