C:\Qe-CaDD\Project\Data\Stage_6_Molecular_Dynamics\ligands_top\out_22798_EGFR_extracted.pdbqt
 OpenBabel01082506443D

 22 24  0  0  1  0  0  0  0  0999 V2000
   26.2110    4.7530   49.1340 C   0  0  0  0  0  1  0  0  0  0  0  0
   25.4330    4.1010   50.2720 C   0  0  2  0  0  3  0  0  0  0  0  0
   25.9890    2.9650   50.8540 C   0  0  0  0  0  2  0  0  0  0  0  0
   24.9550    2.7650   51.7900 N   0  0  1  0  0  0  0  0  0  0  0  0
   24.5430    3.2150   53.1110 C   0  0  0  0  0  2  0  0  0  0  0  0
   23.1740    3.4660   52.4440 C   0  0  1  0  0  3  0  0  0  0  0  0
   23.3170    4.5670   51.4270 C   0  0  0  0  0  3  0  0  0  0  0  0
   24.1840    4.9630   50.4350 C   0  0  0  0  0  3  0  0  0  0  0  0
   23.6180    2.1370   51.8160 C   0  0  1  0  0  0  0  0  0  0  0  0
   22.9780    2.1020   50.4550 C   0  0  0  0  0  3  0  0  0  0  0  0
   21.9850    1.4880   49.6210 S   0  0  0  0  0  0  0  0  0  0  0  0
   23.4520    0.6740   52.6670 S   0  0  0  0  0  0  0  0  0  0  0  0
   24.6800   -0.1150   53.5870 C   0  0  0  0  0  0  0  0  0  0  0  0
   25.3160   -0.6990   54.5460 O   0  0  0  0  0  0  0  0  0  0  0  0
   25.7910   -0.1910   52.6480 N   0  0  0  0  0  0  0  0  0  0  0  0
   26.0330    0.0840   51.6390 H   0  0  0  0  0  0  0  0  0  0  0  0
   27.0880   -0.7730   52.9210 C   0  0  0  0  0  0  0  0  0  0  0  0
   28.1020    0.0620   53.4020 C   0  0  0  0  0  3  0  0  0  0  0  0
   29.3490   -0.5210   53.6590 C   0  0  0  0  0  3  0  0  0  0  0  0
   29.6020   -1.8630   53.4580 C   0  0  0  0  0  3  0  0  0  0  0  0
   28.5780   -2.6470   52.9840 C   0  0  0  0  0  3  0  0  0  0  0  0
   27.3130   -2.1340   52.7080 C   0  0  0  0  0  3  0  0  0  0  0  0
  2  1  1  6  0  0  0
  2  8  1  0  0  0  0
  2  3  1  0  0  0  0
  4  3  1  6  0  0  0
  4  9  1  0  0  0  0
  4  5  1  0  0  0  0
  6  7  1  6  0  0  0
  6  5  1  0  0  0  0
  8  7  2  0  0  0  0
  9 10  1  6  0  0  0
  9  6  1  0  0  0  0
  9 12  1  0  0  0  0
 11 10  2  0  0  0  0
 12 13  1  0  0  0  0
 13 14  2  0  0  0  0
 15 17  1  0  0  0  0
 15 13  1  0  0  0  0
 16 15  1  0  0  0  0
 17 18  1  0  0  0  0
 18 19  2  0  0  0  0
 20 19  1  0  0  0  0
 21 20  2  0  0  0  0
 22 17  2  0  0  0  0
 22 21  1  0  0  0  0
M  END
>  <TORSDO>
F 4

$$$$
