C:\Qe-CaDD\Project\Data\Stage_6_Molecular_Dynamics\ligands_top\out_12350_EGFR_extracted.pdbqt
 OpenBabel01082506443D

 22 23  0  0  0  0  0  0  0  0999 V2000
   22.7410   -0.1510   53.1740 C   0  0  0  0  0  0  0  0  0  0  0  0
   21.7350   -0.6390   53.9710 C   0  0  0  0  0  0  0  0  0  0  0  0
   20.2850   -0.5370   53.6890 C   0  0  0  0  0  1  0  0  0  0  0  0
   22.0150   -1.2640   55.1370 N   0  0  0  0  0  0  0  0  0  0  0  0
   23.2890   -1.4160   55.5350 C   0  0  0  0  0  3  0  0  0  0  0  0
   24.2550   -0.9330   54.7460 N   0  0  0  0  0  0  0  0  0  0  0  0
   24.0660   -0.3080   53.5880 C   0  0  0  0  0  0  0  0  0  0  0  0
   25.0870    0.1890   52.7590 N   0  0  0  0  0  0  0  0  0  0  0  0
   24.8830    0.3370   51.7440 H   0  0  0  0  0  0  0  0  0  0  0  0
   26.4240    0.5450   53.0780 C   0  0  0  0  0  0  0  0  0  0  0  0
   26.8330    1.8640   53.3030 C   0  0  0  0  0  3  0  0  0  0  0  0
   28.1260    2.1900   53.6090 C   0  0  0  0  0  3  0  0  0  0  0  0
   29.1000    1.2250   53.7110 C   0  0  0  0  0  3  0  0  0  0  0  0
   28.7500   -0.0770   53.5010 C   0  0  0  0  0  0  0  0  0  0  0  0
   29.8330   -1.0770   53.6230 C   0  0  0  0  0  1  0  0  0  0  0  0
   27.4550   -0.3680   53.1980 C   0  0  0  0  0  3  0  0  0  0  0  0
   22.4070    0.4850   51.9080 C   0  0  0  0  0  3  0  0  0  0  0  0
   22.5640    1.6860   51.3710 C   0  0  0  0  0  0  0  0  0  0  0  0
   22.1020    1.9320   50.0890 O   0  0  0  0  0  0  0  0  0  0  0  0
   21.3970    1.0200   49.2820 C   0  0  0  0  0  1  0  0  0  0  0  0
   23.1730    2.6970   52.0580 O   0  0  0  0  0  0  0  0  0  0  0  0
   24.0780    3.6310   51.5360 C   0  0  0  0  0  1  0  0  0  0  0  0
  1  7  2  0  0  0  0
  1  2  1  0  0  0  0
  2  4  2  0  0  0  0
  3  2  1  0  0  0  0
  4  5  1  0  0  0  0
  6  5  2  0  0  0  0
  7  6  1  0  0  0  0
  8 10  1  0  0  0  0
  8  7  1  0  0  0  0
  9  8  1  0  0  0  0
 10 16  2  0  0  0  0
 10 11  1  0  0  0  0
 11 12  2  0  0  0  0
 12 13  1  0  0  0  0
 14 15  1  0  0  0  0
 14 13  2  0  0  0  0
 16 14  1  0  0  0  0
 17  1  1  0  0  0  0
 18 17  2  0  0  0  0
 18 21  1  0  0  0  0
 19 18  1  0  0  0  0
 20 19  1  0  0  0  0
 22 21  1  0  0  0  0
M  END
>  <TORSDO>
F 5

$$$$
