C:\Qe-CaDD\Project\Data\Stage_6_Molecular_Dynamics\ligands_top\out_10562_EGFR_extracted.pdbqt
 OpenBabel01082506443D

 29 33  0  0  1  0  0  0  0  0999 V2000
   22.0120    3.1750   51.4920 N   0  0  0  0  0  0  0  0  0  0  0  0
   20.7790    3.7820   51.1190 C   0  0  0  0  0  0  0  0  0  0  0  0
   20.6530    4.5210   50.1070 O   0  0  0  0  0  0  0  0  0  0  0  0
   19.5520    3.5670   51.9310 C   0  0  0  0  0  2  0  0  0  0  0  0
   19.5540    2.2760   52.5100 O   0  0  0  0  0  0  0  0  0  0  0  0
   20.7200    1.6670   52.8910 C   0  0  0  0  0  0  0  0  0  0  0  0
   20.6100    0.6460   53.7550 C   0  0  0  0  0  3  0  0  0  0  0  0
   21.8830    0.0290   54.1300 C   0  0  0  0  0  0  0  0  0  0  0  0
   21.9260   -0.9650   54.9560 N   0  0  0  0  0  0  0  0  0  0  0  0
   23.2030   -1.5400   55.2950 C   0  0  0  0  0  3  0  0  0  0  0  0
   24.3620   -1.1510   54.8440 N   0  0  0  0  0  0  0  0  0  0  0  0
   24.4110   -0.0660   53.9330 N   0  0  0  0  0  0  0  0  0  0  0  0
   23.1420    0.5250   53.5800 C   0  0  1  0  0  3  0  0  0  0  0  0
   23.1620    1.5100   52.7550 C   0  0  0  0  0  3  0  0  0  0  0  0
   22.0400    2.0800   52.4020 C   0  0  0  0  0  0  0  0  0  0  0  0
   23.2360    3.6770   50.9380 C   0  0  1  0  0  3  0  0  0  0  0  0
   23.3960    3.2340   49.5000 C   0  0  0  0  0  0  0  0  0  0  0  0
   22.7730    2.3050   48.7450 C   0  0  0  0  0  2  0  0  0  0  0  0
   24.4920    4.0750   48.9340 C   0  0  0  0  0  2  0  0  0  0  0  0
   24.4540    5.3280   49.7980 C   0  0  1  0  0  3  0  0  0  0  0  0
   23.2920    5.1580   50.7570 C   0  0  0  0  0  2  0  0  0  0  0  0
   25.6450    5.3550   50.5390 O   0  0  0  0  0  0  0  0  0  0  0  0
   26.0840    6.2140   50.3380 H   0  0  0  0  0  0  0  0  0  0  0  0
   25.6270    0.4440   53.3750 C   0  0  1  0  0  3  0  0  0  0  0  0
   26.4500    1.0430   54.4700 C   0  0  0  0  0  3  0  0  0  0  0  0
   27.5730    0.3600   54.5230 C   0  0  0  0  0  3  0  0  0  0  0  0
   27.5930   -0.6890   53.5250 C   0  0  0  0  0  0  0  0  0  0  0  0
   28.8050   -1.8870   53.1370 Cl  0  0  0  0  0  0  0  0  0  0  0  0
   26.4560   -0.6610   52.8350 C   0  0  0  0  0  3  0  0  0  0  0  0
  1 15  1  0  0  0  0
  2  1  1  0  0  0  0
  2  4  1  0  0  0  0
  3  2  2  0  0  0  0
  4  5  1  0  0  0  0
  5  6  1  0  0  0  0
  6  7  2  0  0  0  0
  7  8  1  0  0  0  0
  8  9  2  0  0  0  0
  9 10  1  0  0  0  0
 11 10  2  0  0  0  0
 12 11  1  0  0  0  0
 13 14  1  6  0  0  0
 13 12  1  0  0  0  0
 13  8  1  0  0  0  0
 15 14  2  0  0  0  0
 15  6  1  0  0  0  0
 16 21  1  6  0  0  0
 16  1  1  0  0  0  0
 17 16  1  0  0  0  0
 18 17  2  0  0  0  0
 19 17  1  0  0  0  0
 19 20  1  0  0  0  0
 20 22  1  1  0  0  0
 20 21  1  0  0  0  0
 23 22  1  0  0  0  0
 24 29  1  1  0  0  0
 24 12  1  0  0  0  0
 24 25  1  0  0  0  0
 25 26  2  0  0  0  0
 27 26  1  0  0  0  0
 28 27  1  0  0  0  0
 29 27  2  0  0  0  0
M  END
>  <TORSDO>
F 3

$$$$
