C:\Qe-CaDD\Project\Data\Stage_6_Molecular_Dynamics\ligands_top\out_13184_EGFR_extracted.pdbqt
 OpenBabel01082506443D

 20 22  0  0  0  0  0  0  0  0999 V2000
   26.6000    0.7140   53.9660 C   0  0  0  0  0  0  0  0  0  0  0  0
   25.7600   -0.1040   53.3070 C   0  0  0  0  0  3  0  0  0  0  0  0
   24.5540    0.4440   52.7290 C   0  0  0  0  0  0  0  0  0  0  0  0
   24.5170    1.9370   52.7280 C   0  0  0  0  0  0  0  0  0  0  0  0
   23.6560    2.6690   52.0470 N   0  0  0  0  0  0  0  0  0  0  0  0
   22.6000    2.1580   51.1840 C   0  0  0  0  0  3  0  0  0  0  0  0
   21.8650    1.0740   51.3690 N   0  0  0  0  0  0  0  0  0  0  0  0
   22.0670    0.2420   52.5410 C   0  0  0  0  0  0  0  0  0  0  0  0
   20.8570   -0.2770   53.0250 C   0  0  0  0  0  2  0  0  0  0  0  0
   20.7640   -1.0710   54.1460 C   0  0  0  0  0  3  0  0  0  0  0  0
   21.9510   -1.3410   54.7870 C   0  0  0  0  0  3  0  0  0  0  0  0
   23.1190   -0.8400   54.3190 C   0  0  0  0  0  0  0  0  0  0  0  0
   24.6890   -1.2430   55.3130 Br  0  0  0  0  0  0  0  0  0  0  0  0
   23.2690   -0.0470   53.2090 C   0  0  0  0  0  0  0  0  0  0  0  0
   25.4580    2.7570   53.4770 C   0  0  0  0  0  3  0  0  0  0  0  0
   26.4410    2.1350   54.0490 N   0  0  0  0  0  0  0  0  0  0  0  0
   28.1140    0.2200   54.7460 S   0  0  2  0  0  0  0  0  0  0  0  0
   28.9960    1.4160   55.0550 O   0  0  0  0  0  0  0  0  0  0  0  0
   28.9830   -0.9670   53.7250 C   0  0  0  0  0  2  0  0  0  0  0  0
   29.9720   -0.0710   53.5260 C   0  0  0  0  0  1  0  0  0  0  0  0
  1 16  1  0  0  0  0
  1 17  1  0  0  0  0
  2  1  2  0  0  0  0
  3 14  1  0  0  0  0
  3  2  1  0  0  0  0
  4  3  2  0  0  0  0
  4 15  1  0  0  0  0
  5  4  1  0  0  0  0
  6  7  1  0  0  0  0
  6  5  2  0  0  0  0
  7  8  2  0  0  0  0
  8  9  1  0  0  0  0
  8 14  1  0  0  0  0
  9 10  1  0  0  0  0
 10 11  2  0  0  0  0
 12 11  1  0  0  0  0
 12 13  1  0  0  0  0
 14 12  2  0  0  0  0
 15 16  2  0  0  0  0
 17 18  2  6  0  0  0
 19 17  1  0  0  0  0
 20 19  1  0  0  0  0
M  END
>  <TORSDO>
F 2

$$$$
