C:\Qe-CaDD\Project\Data\Stage_6_Molecular_Dynamics\ligands_top\out_16935_EGFR_extracted.pdbqt
 OpenBabel01082506443D

 27 29  0  0  0  0  0  0  0  0999 V2000
   24.3710    3.8810   50.8810 C   0  0  0  0  0  0  0  0  0  0  0  0
   24.6190    4.9970   50.2160 C   0  0  0  0  0  3  0  0  0  0  0  0
   25.8660    5.1200   49.4600 C   0  0  0  0  0  0  0  0  0  0  0  0
   26.0840    6.2480   48.8060 C   0  0  0  0  0  2  0  0  0  0  0  0
   26.8620    4.0370   49.4150 C   0  0  0  0  0  3  0  0  0  0  0  0
   26.4100    2.8730   50.2170 C   0  0  0  0  0  3  0  0  0  0  0  0
   25.2870    2.7470   50.9040 C   0  0  0  0  0  0  0  0  0  0  0  0
   27.1800    6.6330   48.0110 N   0  0  0  0  0  2  0  0  0  0  0  0
   27.9470    7.6480   48.2430 C   0  0  0  0  0  0  0  0  0  0  0  0
   29.0230    7.8070   47.2300 C   0  0  0  0  0  3  0  0  0  0  0  0
   27.7060    8.4950   49.4030 C   0  0  0  0  0  0  0  0  0  0  0  0
   29.8200    8.9960   47.6170 C   0  0  0  0  0  3  0  0  0  0  0  0
   29.6520    9.8070   48.6610 C   0  0  0  0  0  0  0  0  0  0  0  0
   30.7560   11.3290   49.0630 Br  0  0  0  0  0  0  0  0  0  0  0  0
   28.5390    9.5040   49.5570 C   0  0  0  0  0  3  0  0  0  0  0  0
   26.7050    8.2690   50.2630 F   0  0  0  0  0  0  0  0  0  0  0  0
   23.1920    3.7460   51.6030 O   0  0  0  0  0  0  0  0  0  0  0  0
   22.6480    4.7700   52.3980 C   0  0  0  0  0  1  0  0  0  0  0  0
   25.0020    1.5860   51.6110 O   0  0  0  0  0  0  0  0  0  0  0  0
   25.1530    1.5630   53.0190 C   0  0  0  0  0  2  0  0  0  0  0  0
   25.8780    0.2980   53.4470 C   0  0  0  0  0  3  0  0  0  0  0  0
   26.6720    0.6100   54.6770 C   0  0  0  0  0  2  0  0  0  0  0  0
   28.1560    0.4340   54.4760 C   0  0  0  0  0  2  0  0  0  0  0  0
   28.4980   -0.8540   53.9420 N   0  0  0  0  0  0  0  0  0  0  0  0
   29.9210   -0.8040   53.5740 C   0  0  0  0  0  1  0  0  0  0  0  0
   27.6940   -1.2500   52.8040 C   0  0  0  0  0  2  0  0  0  0  0  0
   26.8410   -0.0850   52.3510 C   0  0  0  0  0  2  0  0  0  0  0  0
  1  7  1  0  0  0  0
  1 17  1  0  0  0  0
  2  1  2  0  0  0  0
  3  2  1  0  0  0  0
  4  3  1  0  0  0  0
  5  3  2  0  0  0  0
  5  6  1  0  0  0  0
  6  7  2  0  0  0  0
  7 19  1  0  0  0  0
  8  9  1  0  0  0  0
  8  4  1  0  0  0  0
  9 11  1  0  0  0  0
 10 12  1  0  0  0  0
 10  9  2  0  0  0  0
 11 15  2  0  0  0  0
 11 16  1  0  0  0  0
 12 13  2  0  0  0  0
 13 14  1  0  0  0  0
 13 15  1  0  0  0  0
 17 18  1  0  0  0  0
 19 20  1  0  0  0  0
 20 21  1  0  0  0  0
 21 22  1  0  0  0  0
 23 22  1  0  0  0  0
 24 23  1  0  0  0  0
 25 24  1  0  0  0  0
 26 24  1  0  0  0  0
 27 26  1  0  0  0  0
 27 21  1  0  0  0  0
M  END
>  <TORSDO>
F 5

$$$$
