C:\Qe-CaDD\Project\Data\Stage_6_Molecular_Dynamics\ligands_top\out_16316_EGFR_extracted.pdbqt
 OpenBabel01082506443D

 24 25  0  0  1  0  0  0  0  0999 V2000
   22.1390    2.5550   51.0820 C   0  0  2  0  0  3  0  0  0  0  0  0
   23.3550    2.6230   50.1710 C   0  0  0  0  0  2  0  0  0  0  0  0
   24.5210    2.8750   51.1350 C   0  0  0  0  0  2  0  0  0  0  0  0
   24.7700    1.5240   51.7630 C   0  0  0  0  0  2  0  0  0  0  0  0
   23.6640    1.1260   52.4310 C   0  0  1  0  0  3  0  0  0  0  0  0
   22.4720    2.0370   52.4310 C   0  0  2  0  0  3  0  0  0  0  0  0
   21.2610    0.8530   53.1140 S   0  0  0  0  0  0  0  0  0  0  0  0
   22.2390   -0.6580   53.0110 C   0  0  1  0  0  3  0  0  0  0  0  0
   23.5880   -0.1080   53.1200 N   0  0  0  0  0  0  0  0  0  0  0  0
   24.4990   -0.7880   53.7920 N   0  0  0  0  0  2  0  0  0  0  0  0
   25.7130   -0.3130   54.1170 C   0  0  0  0  0  2  0  0  0  0  0  0
   27.0600   -0.7210   53.5650 C   0  0  0  0  0  2  0  0  0  0  0  0
   28.4470   -0.7280   53.4550 C   0  0  0  0  0  2  0  0  0  0  0  0
   26.9900   -1.6740   52.4780 C   0  0  0  0  0  2  0  0  0  0  0  0
   26.8220   -0.8210   53.4710 C   0  0  0  0  0  3  0  0  0  0  0  0
   28.7400    0.2850   54.5820 C   0  0  0  0  0  2  0  0  0  0  0  0
   27.4150    0.1920   54.5670 C   0  0  0  0  0  2  0  0  0  0  0  0
   21.8900   -1.6250   54.0920 C   0  0  0  0  0  3  0  0  0  0  0  0
   22.1110   -1.6160   55.3300 N   0  0  0  0  0  0  0  0  0  0  0  0
   21.8210   -2.3590   56.0080 H   0  0  0  0  0  0  0  0  0  0  0  0
   20.9450    1.9330   50.4310 C   0  0  2  0  0  3  0  0  0  0  0  0
   21.2530    0.9660   49.3440 C   0  0  0  0  0  1  0  0  0  0  0  0
   19.9950    3.0240   49.9150 C   0  0  0  0  0  2  0  0  0  0  0  0
   19.6010    3.8920   51.0930 C   0  0  0  0  0  1  0  0  0  0  0  0
  1 21  1  6  0  0  0
  1  6  1  0  0  0  0
  2  1  1  0  0  0  0
  2  3  1  0  0  0  0
  3  4  1  0  0  0  0
  5  4  1  6  0  0  0
  5  6  1  0  0  0  0
  5  9  1  0  0  0  0
  6  7  1  6  0  0  0
  8  7  1  0  0  0  0
  8  9  1  0  0  0  0
  8 18  1  1  0  0  0
  9 10  1  0  0  0  0
 10 11  1  0  0  0  0
 12 17  1  0  0  0  0
 13 12  1  0  0  0  0
 13 16  1  0  0  0  0
 14 15  2  0  0  0  0
 15 11  1  0  0  0  0
 17 16  1  0  0  0  0
 18 19  2  0  0  0  0
 19 20  1  0  0  0  0
 21 22  1  6  0  0  0
 23 21  1  0  0  0  0
 23 24  1  0  0  0  0
M  END
>  <TORSDO>
F 7

$$$$
