C:\Qe-CaDD\Project\Data\Stage_6_Molecular_Dynamics\ligands_top\out_22111_EGFR_extracted.pdbqt
 OpenBabel01082506443D

 30 31  0  0  1  0  0  0  0  0999 V2000
   23.6840    3.8540   51.1970 C   0  0  1  0  0  3  0  0  0  0  0  0
   24.9300    4.1060   50.4500 C   0  0  2  0  0  3  0  0  0  0  0  0
   24.2150    3.1610   49.1640 Cl  0  0  0  0  0  0  0  0  0  0  0  0
   26.0970    4.4090   49.9480 C   0  0  0  0  0  2  0  0  0  0  0  0
   27.2030    4.5330   48.9780 C   0  0  0  0  0  2  0  0  0  0  0  0
   27.5880    5.9400   48.8220 N   0  0  0  0  0  0  0  0  0  0  0  0
   26.6080    6.9460   48.6520 C   0  0  0  0  0  0  0  0  0  0  0  0
   25.3660    6.5630   48.2880 C   0  0  0  0  0  3  0  0  0  0  0  0
   24.1720    7.2600   48.1130 C   0  0  0  0  0  0  0  0  0  0  0  0
   24.3370    8.5700   48.3590 N   0  0  0  0  0  0  0  0  0  0  0  0
   25.5430    9.0950   48.7320 C   0  0  0  0  0  3  0  0  0  0  0  0
   26.6570    8.2980   48.8760 C   0  0  0  0  0  0  0  0  0  0  0  0
   27.9620    8.7880   49.2690 C   0  0  0  0  0  0  0  0  0  0  0  0
   29.0010    9.2000   49.5880 N   0  0  0  0  0  0  0  0  0  0  0  0
   22.8410    6.6930   47.7680 C   0  0  0  0  0  3  0  0  0  0  0  0
   22.2100    5.5940   48.3720 C   0  0  0  0  0  0  0  0  0  0  0  0
   20.8670    5.3490   47.7260 C   0  0  0  0  0  1  0  0  0  0  0  0
   22.2030    4.5100   49.3660 O   0  0  0  0  0  0  0  0  0  0  0  0
   22.5850    4.8000   50.6780 C   0  0  1  0  0  3  0  0  0  0  0  0
   21.4530    4.8630   51.6660 C   0  0  0  0  0  1  0  0  0  0  0  0
   28.5370    6.3490   48.8220 H   0  0  0  0  0  0  0  0  0  0  0  0
   23.2650    2.5530   51.1590 O   0  0  0  0  0  0  0  0  0  0  0  0
   23.4320    1.8640   52.3480 C   0  0  0  0  0  2  0  0  0  0  0  0
   24.6460    1.0470   52.3750 C   0  0  0  0  0  0  0  0  0  0  0  0
   25.6430    0.3710   52.3780 C   0  0  0  0  0  0  0  0  0  0  0  0
   26.8540   -0.4540   52.3550 C   0  0  0  0  0  2  0  0  0  0  0  0
   27.5700   -0.2900   53.6040 C   0  0  2  0  0  3  0  0  0  0  0  0
   27.1110    0.1230   54.7700 F   0  0  0  0  0  0  0  0  0  0  0  0
   28.8500   -0.5650   53.6740 C   0  0  0  0  0  2  0  0  0  0  0  0
   30.0650   -1.0920   53.7210 C   0  0  0  0  0  1  0  0  0  0  0  0
  1 22  1  6  0  0  0
  2  3  1  1  0  0  0
  2  1  1  0  0  0  0
  4  2  1  0  0  0  0
  5  4  1  0  0  0  0
  6 21  1  0  0  0  0
  6  5  1  0  0  0  0
  7  6  1  0  0  0  0
  7 12  1  0  0  0  0
  8  7  2  0  0  0  0
  9  8  1  0  0  0  0
  9 10  2  0  0  0  0
 10 11  1  0  0  0  0
 11 12  2  0  0  0  0
 12 13  1  0  0  0  0
 13 14  3  0  0  0  0
 15  9  1  0  0  0  0
 15 16  2  0  0  0  0
 16 18  1  0  0  0  0
 17 16  1  0  0  0  0
 18 19  1  0  0  0  0
 19  1  1  0  0  0  0
 19 20  1  1  0  0  0
 22 23  1  0  0  0  0
 23 24  1  0  0  0  0
 24 25  3  0  0  0  0
 26 25  1  0  0  0  0
 26 27  1  0  0  0  0
 27 29  1  0  0  0  0
 27 28  1  6  0  0  0
 29 30  1  0  0  0  0
M  END
>  <TORSDO>
F 6

$$$$
