C:\Qe-CaDD\Project\Data\Stage_6_Molecular_Dynamics\ligands_top\out_11806_EGFR_extracted.pdbqt
 OpenBabel01082506443D

 25 28  0  0  1  0  0  0  0  0999 V2000
   28.2490    2.4070   53.7150 C   0  0  0  0  0  2  0  0  0  0  0  0
   27.5430    1.3330   53.5320 C   0  0  0  0  0  0  0  0  0  0  0  0
   27.9850   -0.0480   53.2300 C   0  0  0  0  0  0  0  0  0  0  0  0
   29.3010   -0.5550   53.3310 C   0  0  0  0  0  0  0  0  0  0  0  0
   29.5880   -1.8940   53.2670 N   0  0  0  0  0  0  0  0  0  0  0  0
   28.5370   -2.7520   53.0990 C   0  0  0  0  0  3  0  0  0  0  0  0
   27.2390   -2.3100   52.9900 N   0  0  0  0  0  0  0  0  0  0  0  0
   27.0010   -0.9880   53.0520 C   0  0  0  0  0  0  0  0  0  0  0  0
   25.8030   -0.1960   52.7180 C   0  0  1  0  0  3  0  0  0  0  0  0
   24.8190    0.4900   53.3910 C   0  0  1  0  0  3  0  0  0  0  0  0
   26.1620    1.0250   53.5330 N   0  0  0  0  0  0  0  0  0  0  0  0
   23.8510    1.3680   52.6400 C   0  0  0  0  0  2  0  0  0  0  0  0
   24.1690    2.8170   52.9130 C   0  0  0  0  0  2  0  0  0  0  0  0
   24.2230    3.6550   51.7690 N   0  0  0  0  0  0  0  0  0  0  0  0
   24.4480    3.0300   50.5110 C   0  0  0  0  0  2  0  0  0  0  0  0
   24.2910    4.1250   49.4460 C   0  0  0  0  0  2  0  0  0  0  0  0
   24.7070    5.4260   49.9910 N   0  0  0  0  0  0  0  0  0  0  0  0
   25.8130    6.2890   49.7060 C   0  0  0  0  0  0  0  0  0  0  0  0
   23.7980    5.9280   51.0350 C   0  0  0  0  0  2  0  0  0  0  0  0
   26.8240    5.9410   48.6850 C   0  0  0  0  0  1  0  0  0  0  0  0
   26.1320    7.4180   50.2120 O   0  0  0  0  0  0  0  0  0  0  0  0
   23.2070    4.6850   51.7130 C   0  0  0  0  0  2  0  0  0  0  0  0
   30.4640    0.2450   53.5080 N   0  0  0  0  0  0  0  0  0  0  0  0
   31.3500   -0.2260   53.6990 H   0  0  0  0  0  0  0  0  0  0  0  0
   30.4770    1.3010   53.4560 H   0  0  0  0  0  0  0  0  0  0  0  0
  2 11  1  0  0  0  0
  2  1  2  0  0  0  0
  3  4  1  0  0  0  0
  3  2  1  0  0  0  0
  4 23  1  0  0  0  0
  5  4  2  0  0  0  0
  6  5  1  0  0  0  0
  7  8  1  0  0  0  0
  7  6  2  0  0  0  0
  8  3  2  0  0  0  0
  9  8  1  1  0  0  0
  9 10  1  0  0  0  0
  9 11  1  0  0  0  0
 10 12  1  6  0  0  0
 10 11  1  0  0  0  0
 12 13  1  0  0  0  0
 14 13  1  0  0  0  0
 15 14  1  0  0  0  0
 16 17  1  0  0  0  0
 16 15  1  0  0  0  0
 17 19  1  0  0  0  0
 18 17  1  0  0  0  0
 18 21  2  0  0  0  0
 19 22  1  0  0  0  0
 20 18  1  0  0  0  0
 22 14  1  0  0  0  0
 23 24  1  0  0  0  0
 25 23  1  0  0  0  0
M  END
>  <TORSDO>
F 4

$$$$
