C:\Qe-CaDD\Project\Data\Stage_6_Molecular_Dynamics\ligands_top\out_22359_EGFR_extracted.pdbqt
 OpenBabel01082506443D

 24 26  0  0  0  0  0  0  0  0999 V2000
   24.6280   -0.3720   53.7330 C   0  0  0  0  0  0  0  0  0  0  0  0
   25.2660    0.4870   52.8490 C   0  0  0  0  0  3  0  0  0  0  0  0
   26.4760    1.0920   53.0490 C   0  0  0  0  0  0  0  0  0  0  0  0
   27.0810    1.9310   52.1650 C   0  0  0  0  0  0  0  0  0  0  0  0
   28.2610    2.4010   52.5800 N   0  0  0  0  0  0  0  0  0  0  0  0
   28.8370    2.1070   53.7410 C   0  0  0  0  0  3  0  0  0  0  0  0
   28.2350    1.2780   54.6080 N   0  0  0  0  0  0  0  0  0  0  0  0
   27.0500    0.7710   54.2580 C   0  0  0  0  0  0  0  0  0  0  0  0
   26.4550   -0.0770   55.1670 C   0  0  0  0  0  3  0  0  0  0  0  0
   25.2430   -0.6460   54.9010 N   0  0  0  0  0  0  0  0  0  0  0  0
   26.4630    2.2280   50.9450 N   0  0  0  0  0  0  0  0  0  0  0  0
   26.1330    1.4920   50.3180 H   0  0  0  0  0  0  0  0  0  0  0  0
   26.1770    3.4860   50.3510 C   0  0  0  0  0  0  0  0  0  0  0  0
   26.9110    4.0840   49.3360 C   0  0  0  0  0  3  0  0  0  0  0  0
   26.6080    5.2960   48.7820 C   0  0  0  0  0  3  0  0  0  0  0  0
   25.5190    6.0150   49.2160 C   0  0  0  0  0  0  0  0  0  0  0  0
   25.3010    7.1980   48.6110 F   0  0  0  0  0  0  0  0  0  0  0  0
   24.7510    5.4550   50.2340 C   0  0  0  0  0  0  0  0  0  0  0  0
   23.3870    6.4130   50.7390 Cl  0  0  0  0  0  0  0  0  0  0  0  0
   25.1020    4.2290   50.7580 C   0  0  0  0  0  3  0  0  0  0  0  0
   23.3650   -0.9580   53.4430 N   0  0  0  0  0  0  0  0  0  0  0  0
   23.2180   -1.4140   52.5090 H   0  0  0  0  0  0  0  0  0  0  0  0
   22.3210   -0.9220   54.4060 C   0  0  0  0  0  3  0  0  0  0  0  0
   22.0810   -1.9810   55.0750 O   0  0  0  0  0  0  0  0  0  0  0  0
  1 10  1  0  0  0  0
  2  3  1  0  0  0  0
  2  1  2  0  0  0  0
  3  8  1  0  0  0  0
  4  5  1  0  0  0  0
  4  3  2  0  0  0  0
  5  6  2  0  0  0  0
  6  7  1  0  0  0  0
  8  7  2  0  0  0  0
  8  9  1  0  0  0  0
 10  9  2  0  0  0  0
 11  4  1  0  0  0  0
 12 11  1  0  0  0  0
 13 20  1  0  0  0  0
 13 11  1  0  0  0  0
 14 13  2  0  0  0  0
 15 16  2  0  0  0  0
 15 14  1  0  0  0  0
 16 18  1  0  0  0  0
 17 16  1  0  0  0  0
 18 19  1  0  0  0  0
 18 20  2  0  0  0  0
 21  1  1  0  0  0  0
 21 23  1  0  0  0  0
 22 21  1  0  0  0  0
 23 24  2  0  0  0  0
M  END
>  <TORSDO>
F 4

$$$$
