C:\Qe-CaDD\Project\Data\Stage_6_Molecular_Dynamics\ligands_top\out_16780_EGFR_extracted.pdbqt
 OpenBabel01082506443D

 28 30  0  0  1  0  0  0  0  0999 V2000
   26.0640    5.1440   49.3270 C   0  0  0  0  0  0  0  0  0  0  0  0
   26.8670    4.0030   49.3250 C   0  0  0  0  0  3  0  0  0  0  0  0
   26.4850    2.9810   50.1420 C   0  0  0  0  0  3  0  0  0  0  0  0
   25.3780    2.9790   50.9640 C   0  0  0  0  0  0  0  0  0  0  0  0
   24.5800    4.1260   50.9570 C   0  0  0  0  0  0  0  0  0  0  0  0
   23.1380    4.2410   51.9670 Cl  0  0  0  0  0  0  0  0  0  0  0  0
   24.9630    5.1810   50.1240 C   0  0  0  0  0  3  0  0  0  0  0  0
   26.3960    6.2550   48.5010 N   0  0  0  0  0  0  0  0  0  0  0  0
   25.9330    6.3390   47.5480 H   0  0  0  0  0  0  0  0  0  0  0  0
   27.3060    7.2980   48.8150 C   0  0  2  0  0  3  0  0  0  0  0  0
   26.7130    8.1980   49.7400 N   0  0  0  0  0  0  0  0  0  0  0  0
   27.2870    9.2450   50.2160 C   0  0  0  0  0  3  0  0  0  0  0  0
   28.6030    9.6450   49.8770 N   0  0  0  0  0  0  0  0  0  0  0  0
   29.3830    9.0250   49.0640 C   0  0  0  0  0  0  0  0  0  0  0  0
   28.8110    7.5340   48.2690 P   0  0  2  0  0  4  0  0  0  0  0  0
   28.8650    7.6780   46.4680 C   0  0  0  0  0  1  0  0  0  0  0  0
   29.5590    6.4090   48.6580 H   0  0  0  0  0  0  0  0  0  0  0  0
   30.7420    9.2060   48.5480 C   0  0  0  0  0  2  0  0  0  0  0  0
   31.7430    8.2780   49.2240 C   0  0  0  0  0  1  0  0  0  0  0  0
   25.0280    1.9090   51.7810 O   0  0  0  0  0  0  0  0  0  0  0  0
   25.6040    1.8160   53.0760 C   0  0  0  0  0  2  0  0  0  0  0  0
   26.6400    0.7640   53.1200 C   0  0  0  0  0  0  0  0  0  0  0  0
   27.9130    0.9780   53.6070 C   0  0  0  0  0  3  0  0  0  0  0  0
   28.8970    0.0160   53.6600 C   0  0  0  0  0  3  0  0  0  0  0  0
   28.5640   -1.2410   53.1890 C   0  0  0  0  0  3  0  0  0  0  0  0
   27.3110   -1.5180   52.6920 C   0  0  0  0  0  0  0  0  0  0  0  0
   27.0520   -2.7820   52.2450 F   0  0  0  0  0  0  0  0  0  0  0  0
   26.3490   -0.5140   52.6590 C   0  0  0  0  0  3  0  0  0  0  0  0
  1  7  1  0  0  0  0
  2  1  2  0  0  0  0
  2  3  1  0  0  0  0
  3  4  2  0  0  0  0
  4 20  1  0  0  0  0
  5  4  1  0  0  0  0
  5  6  1  0  0  0  0
  7  5  2  0  0  0  0
  8  1  1  0  0  0  0
  9  8  1  0  0  0  0
 10  8  1  6  0  0  0
 10 11  1  0  0  0  0
 11 12  2  0  0  0  0
 13 12  1  0  0  0  0
 14 13  2  0  0  0  0
 15 17  1  1  0  0  0
 15 10  1  0  0  0  0
 15 14  1  0  0  0  0
 16 15  1  0  0  0  0
 18 14  1  0  0  0  0
 18 19  1  0  0  0  0
 20 21  1  0  0  0  0
 21 22  1  0  0  0  0
 22 23  1  0  0  0  0
 23 24  2  0  0  0  0
 25 24  1  0  0  0  0
 26 25  2  0  0  0  0
 27 26  1  0  0  0  0
 28 26  1  0  0  0  0
 28 22  2  0  0  0  0
M  END
>  <TORSDO>
F 6

$$$$
