C:\Qe-CaDD\Project\Data\Stage_6_Molecular_Dynamics\ligands_top\out_21382_EGFR_extracted.pdbqt
 OpenBabel01082506443D

 25 26  0  0  0  0  0  0  0  0999 V2000
   24.4390    0.3040   53.5720 C   0  0  0  0  0  0  0  0  0  0  0  0
   24.4180    1.5360   52.9510 C   0  0  0  0  0  3  0  0  0  0  0  0
   23.2120    1.9760   52.3910 C   0  0  0  0  0  3  0  0  0  0  0  0
   22.0520    1.2310   52.4320 C   0  0  0  0  0  0  0  0  0  0  0  0
   22.0910    0.0000   53.0560 C   0  0  0  0  0  3  0  0  0  0  0  0
   23.2820   -0.4450   53.6170 C   0  0  0  0  0  3  0  0  0  0  0  0
   20.6210    1.9110   51.6870 S   0  0  0  0  0  0  0  0  0  0  0  0
   19.5490    0.8790   51.6420 O   0  0  0  0  0  0  0  0  0  0  0  0
   20.1010    3.0470   52.5560 O   0  0  0  0  0  0  0  0  0  0  0  0
   20.9710    2.5850   50.1160 C   0  0  0  0  0  0  0  0  0  0  0  0
   20.8080    3.9490   49.8510 C   0  0  0  0  0  3  0  0  0  0  0  0
   21.0970    4.4570   48.5850 C   0  0  0  0  0  3  0  0  0  0  0  0
   21.5340    3.5330   47.6700 C   0  0  0  0  0  0  0  0  0  0  0  0
   21.7160    2.1820   47.8680 C   0  0  0  0  0  3  0  0  0  0  0  0
   21.4160    1.7130   49.1450 C   0  0  0  0  0  3  0  0  0  0  0  0
   21.8530    4.0020   46.3290 C   0  0  0  0  0  3  0  0  0  0  0  0
   22.1450    3.4700   45.2340 O   0  0  0  0  0  0  0  0  0  0  0  0
   25.7060   -0.1300   54.1470 C   0  0  0  0  0  0  0  0  0  0  0  0
   26.8740    0.6720   54.2630 N   0  0  0  0  0  0  0  0  0  0  0  0
   26.7740    1.6560   53.8920 H   0  0  0  0  0  0  0  0  0  0  0  0
   25.7770   -1.3110   54.5760 O   0  0  0  0  0  0  0  0  0  0  0  0
   28.1090    0.2020   54.8400 C   0  0  0  0  0  2  0  0  0  0  0  0
   29.3370    0.5980   54.0490 C   0  0  0  0  0  2  0  0  0  0  0  0
   30.0610   -0.6070   53.4890 C   0  0  0  0  0  2  0  0  0  0  0  0
   29.1730   -1.8030   53.3640 C   0  0  0  0  0  1  0  0  0  0  0  0
  1  6  1  0  0  0  0
  1 18  1  0  0  0  0
  2  1  2  0  0  0  0
  3  4  2  0  0  0  0
  3  2  1  0  0  0  0
  4  5  1  0  0  0  0
  5  6  2  0  0  0  0
  7  4  1  0  0  0  0
  7  9  2  0  0  0  0
  8  7  2  0  0  0  0
 10  7  1  0  0  0  0
 11 10  1  0  0  0  0
 12 11  2  0  0  0  0
 13 14  2  0  0  0  0
 13 12  1  0  0  0  0
 14 15  1  0  0  0  0
 15 10  2  0  0  0  0
 16 13  1  0  0  0  0
 17 16  2  0  0  0  0
 18 19  1  0  0  0  0
 18 21  2  0  0  0  0
 19 22  1  0  0  0  0
 20 19  1  0  0  0  0
 23 22  1  0  0  0  0
 24 23  1  0  0  0  0
 25 24  1  0  0  0  0
M  END
>  <TORSDO>
F 7

$$$$
