C:\Qe-CaDD\Project\Data\Stage_6_Molecular_Dynamics\ligands_top\out_12396_EGFR_extracted.pdbqt
 OpenBabel01082506443D

 29 31  0  0  1  0  0  0  0  0999 V2000
   24.5060    3.0030   52.4790 C   0  0  0  0  0  0  0  0  0  0  0  0
   25.2940    2.4500   53.5670 C   0  0  0  0  0  3  0  0  0  0  0  0
   26.5040    1.8580   53.2600 N   0  0  0  0  0  0  0  0  0  0  0  0
   27.2020    1.7050   52.2980 C   0  0  0  0  0  3  0  0  0  0  0  0
   26.5200    2.3080   51.2720 N   0  0  0  0  0  0  0  0  0  0  0  0
   25.3990    2.8710   51.3030 C   0  0  0  0  0  0  0  0  0  0  0  0
   23.4040    3.4790   51.8890 C   0  0  0  0  0  0  0  0  0  0  0  0
   22.1380    2.8260   51.7010 C   0  0  0  0  0  0  0  0  0  0  0  0
   21.0450    3.3190   51.0400 O   0  0  0  0  0  0  0  0  0  0  0  0
   20.6990    4.6880   51.0620 C   0  0  0  0  0  2  0  0  0  0  0  0
   21.9000    5.3840   51.6620 C   0  0  0  0  0  2  0  0  0  0  0  0
   23.0260    4.6360   51.2430 O   0  0  0  0  0  0  0  0  0  0  0  0
   21.7820    1.6260   52.1100 C   0  0  1  0  0  3  0  0  0  0  0  0
   21.7700    0.5570   51.0890 C   0  0  0  0  0  1  0  0  0  0  0  0
   21.7110    0.7840   53.2790 C   0  0  2  0  0  3  0  0  0  0  0  0
   22.4940   -0.5310   53.0550 C   0  0  0  0  0  2  0  0  0  0  0  0
   23.6000   -0.7490   54.0100 C   0  0  0  0  0  1  0  0  0  0  0  0
   20.4590    0.4880   53.9960 C   0  0  0  0  0  2  0  0  0  0  0  0
   20.0800   -0.8270   53.6710 O   0  0  0  0  0  0  0  0  0  0  0  0
   18.7920   -1.0010   53.2940 C   0  0  0  0  0  1  0  0  0  0  0  0
   25.2870    3.3700   49.9120 N   0  0  0  0  0  0  0  0  0  0  0  0
   24.7000    2.7100   49.3200 H   0  0  0  0  0  0  0  0  0  0  0  0
   25.8300    4.5780   49.3170 C   0  0  0  0  0  0  0  0  0  0  0  0
   25.1570    5.7510   49.0390 C   0  0  0  0  0  3  0  0  0  0  0  0
   25.8660    6.7850   48.4720 C   0  0  0  0  0  3  0  0  0  0  0  0
   27.2060    6.6830   48.1800 C   0  0  0  0  0  3  0  0  0  0  0  0
   27.9160    5.5110   48.4480 C   0  0  0  0  0  0  0  0  0  0  0  0
   29.3610    5.3890   48.1390 C   0  0  0  0  0  1  0  0  0  0  0  0
   27.1830    4.4690   49.0240 C   0  0  0  0  0  3  0  0  0  0  0  0
  1  2  1  0  0  0  0
  3  2  2  0  0  0  0
  4  3  1  0  0  0  0
  5  6  1  0  0  0  0
  5  4  2  0  0  0  0
  6  1  2  0  0  0  0
  7  1  1  0  0  0  0
  8  7  2  0  0  0  0
  8 13  1  0  0  0  0
  9 10  1  0  0  0  0
  9  8  1  0  0  0  0
 10 11  1  0  0  0  0
 12 11  1  0  0  0  0
 12  7  1  0  0  0  0
 13 14  1  6  0  0  0
 13 15  1  0  0  0  0
 15 16  1  6  0  0  0
 15 18  1  0  0  0  0
 16 17  1  0  0  0  0
 19 18  1  0  0  0  0
 20 19  1  0  0  0  0
 21  6  1  0  0  0  0
 22 21  1  0  0  0  0
 23 21  1  0  0  0  0
 24 23  1  0  0  0  0
 25 24  2  0  0  0  0
 26 27  2  0  0  0  0
 26 25  1  0  0  0  0
 27 29  1  0  0  0  0
 28 27  1  0  0  0  0
 29 23  2  0  0  0  0
M  END
>  <TORSDO>
F 8

$$$$
