C:\Qe-CaDD\Project\Data\Stage_6_Molecular_Dynamics\ligands_top\out_17992_EGFR_extracted.pdbqt
 OpenBabel01082506443D

 26 28  0  0  1  0  0  0  0  0999 V2000
   27.4830    0.3580   53.2370 C   0  0  0  0  0  3  0  0  0  0  0  0
   26.3180   -0.1790   53.6150 C   0  0  0  0  0  0  0  0  0  0  0  0
   25.2280   -0.3530   52.6520 C   0  0  0  0  0  2  0  0  0  0  0  0
   23.9120   -0.4880   53.2950 C   0  0  0  0  0  0  0  0  0  0  0  0
   22.8010   -0.2700   52.5500 N   0  0  0  0  0  0  0  0  0  0  0  0
   21.5670   -0.3780   53.0820 C   0  0  0  0  0  0  0  0  0  0  0  0
   21.4500   -0.7120   54.3810 N   0  0  0  0  0  0  0  0  0  0  0  0
   22.4930   -0.9480   55.1980 C   0  0  0  0  0  3  0  0  0  0  0  0
   23.7390   -0.8280   54.6210 C   0  0  0  0  0  0  0  0  0  0  0  0
   24.9170   -1.0810   55.4940 C   0  0  0  0  0  2  0  0  0  0  0  0
   26.1350   -0.5800   54.9460 N   0  0  0  0  0  0  0  0  0  0  0  0
   26.8790   -0.5530   55.6770 H   0  0  0  0  0  0  0  0  0  0  0  0
   20.3360   -0.1550   52.3260 C   0  0  0  0  0  0  0  0  0  0  0  0
   20.3220    0.5230   51.1270 C   0  0  0  0  0  3  0  0  0  0  0  0
   19.1390    0.7280   50.4210 C   0  0  0  0  0  3  0  0  0  0  0  0
   17.9380    0.2550   50.9030 C   0  0  0  0  0  0  0  0  0  0  0  0
   17.9410   -0.4230   52.0990 C   0  0  0  0  0  3  0  0  0  0  0  0
   19.1080   -0.6100   52.7710 C   0  0  0  0  0  3  0  0  0  0  0  0
   16.6970    0.4580   50.1820 C   0  0  0  0  0  0  0  0  0  0  0  0
   15.7770    1.1750   50.6170 O   0  0  0  0  0  0  0  0  0  0  0  0
   16.4900   -0.1500   48.9610 O   0  0  0  0  0  0  0  0  0  0  0  0
   16.2870    0.3890   48.1170 H   0  0  0  0  0  0  0  0  0  0  0  0
   28.6000    0.5390   54.2140 C   0  0  2  0  0  3  0  0  0  0  0  0
   29.0980    2.2590   54.1710 Cl  0  0  0  0  0  0  0  0  0  0  0  0
   29.7780   -0.2570   53.6930 C   0  0  0  0  0  2  0  0  0  0  0  0
   29.4400   -1.6820   53.3910 C   0  0  0  0  0  1  0  0  0  0  0  0
  1  2  2  0  0  0  0
  1 23  1  0  0  0  0
  2 11  1  0  0  0  0
  3  4  1  0  0  0  0
  3  2  1  0  0  0  0
  4  9  2  0  0  0  0
  5  6  2  0  0  0  0
  5  4  1  0  0  0  0
  6  7  1  0  0  0  0
  7  8  2  0  0  0  0
  9  8  1  0  0  0  0
  9 10  1  0  0  0  0
 11 10  1  0  0  0  0
 11 12  1  0  0  0  0
 13 18  1  0  0  0  0
 13  6  1  0  0  0  0
 14 13  2  0  0  0  0
 15 16  2  0  0  0  0
 15 14  1  0  0  0  0
 16 17  1  0  0  0  0
 17 18  2  0  0  0  0
 19 20  2  0  0  0  0
 19 16  1  0  0  0  0
 21 19  1  0  0  0  0
 22 21  1  0  0  0  0
 23 24  1  6  0  0  0
 25 23  1  0  0  0  0
 26 25  1  0  0  0  0
M  END
>  <TORSDO>
F 5

$$$$
