C:\Qe-CaDD\Project\Data\Stage_6_Molecular_Dynamics\ligands_top\out_10701_EGFR_extracted.pdbqt
 OpenBabel01082506443D

 23 25  0  0  0  0  0  0  0  0999 V2000
   21.1040    0.4350   51.7600 C   0  0  0  0  0  0  0  0  0  0  0  0
   21.6350    1.2710   50.8090 C   0  0  0  0  0  3  0  0  0  0  0  0
   22.9580    1.7070   50.8410 C   0  0  0  0  0  0  0  0  0  0  0  0
   23.5060    2.5300   49.9150 N   0  0  0  0  0  0  0  0  0  0  0  0
   24.8180    2.8670   50.0860 C   0  0  0  0  0  3  0  0  0  0  0  0
   25.5940    2.4360   51.1090 N   0  0  0  0  0  0  0  0  0  0  0  0
   25.0520    1.5990   52.0580 C   0  0  0  0  0  0  0  0  0  0  0  0
   23.7030    1.2520   51.8870 C   0  0  0  0  0  0  0  0  0  0  0  0
   23.2830    0.4100   52.8990 C   0  0  0  0  0  3  0  0  0  0  0  0
   21.9440    0.0270   52.7770 C   0  0  0  0  0  0  0  0  0  0  0  0
   26.0190    1.1850   53.0110 N   0  0  0  0  0  0  0  0  0  0  0  0
   26.0410    2.2100   54.0390 C   0  0  0  0  0  1  0  0  0  0  0  0
   26.7930   -0.0050   52.9430 C   0  0  0  0  0  0  0  0  0  0  0  0
   26.2170   -1.1750   52.4350 C   0  0  0  0  0  3  0  0  0  0  0  0
   27.0470   -2.3040   52.4080 C   0  0  0  0  0  3  0  0  0  0  0  0
   28.3450   -2.2410   52.8590 C   0  0  0  0  0  3  0  0  0  0  0  0
   28.9060   -1.0880   53.3570 C   0  0  0  0  0  0  0  0  0  0  0  0
   30.3120   -1.0510   53.8370 C   0  0  0  0  0  1  0  0  0  0  0  0
   28.0850    0.0380   53.3870 C   0  0  0  0  0  3  0  0  0  0  0  0
   21.4380   -0.8230   53.7430 O   0  0  0  0  0  0  0  0  0  0  0  0
   22.2760   -1.2540   54.7850 C   0  0  0  0  0  1  0  0  0  0  0  0
   19.8080   -0.0220   51.7890 O   0  0  0  0  0  0  0  0  0  0  0  0
   18.7550    0.9180   51.6980 C   0  0  0  0  0  1  0  0  0  0  0  0
  1 22  1  0  0  0  0
  1 10  1  0  0  0  0
  2  3  1  0  0  0  0
  2  1  2  0  0  0  0
  3  8  1  0  0  0  0
  4  5  1  0  0  0  0
  4  3  2  0  0  0  0
  5  6  2  0  0  0  0
  6  7  1  0  0  0  0
  7 11  1  0  0  0  0
  8  7  2  0  0  0  0
  8  9  1  0  0  0  0
 10  9  2  0  0  0  0
 10 20  1  0  0  0  0
 11 12  1  0  0  0  0
 13 11  1  0  0  0  0
 13 19  1  0  0  0  0
 14 13  2  0  0  0  0
 15 14  1  0  0  0  0
 15 16  2  0  0  0  0
 16 17  1  0  0  0  0
 17 19  2  0  0  0  0
 17 18  1  0  0  0  0
 20 21  1  0  0  0  0
 23 22  1  0  0  0  0
M  END
>  <TORSDO>
F 4

$$$$
