C:\Qe-CaDD\Project\Data\Stage_6_Molecular_Dynamics\ligands_top\out_10602_EGFR_extracted.pdbqt
 OpenBabel01082506443D

 33 37  0  0  0  0  0  0  0  0999 V2000
   24.7090   -0.3440   53.7420 C   0  0  0  0  0  0  0  0  0  0  0  0
   25.1590   -0.8850   54.8860 N   0  0  0  0  0  0  0  0  0  0  0  0
   24.3540   -1.4370   55.8220 C   0  0  0  0  0  3  0  0  0  0  0  0
   22.9920   -1.4760   55.6480 N   0  0  0  0  0  0  0  0  0  0  0  0
   22.5180   -0.9380   54.5070 C   0  0  0  0  0  0  0  0  0  0  0  0
   21.1460   -1.0080   54.3890 C   0  0  0  0  0  3  0  0  0  0  0  0
   20.5230   -0.4970   53.2750 C   0  0  0  0  0  0  0  0  0  0  0  0
   21.3420    0.0710   52.3140 C   0  0  0  0  0  0  0  0  0  0  0  0
   22.7050    0.1630   52.3830 C   0  0  0  0  0  3  0  0  0  0  0  0
   23.3240   -0.3600   53.5210 C   0  0  0  0  0  0  0  0  0  0  0  0
   20.7590    0.6280   51.1460 N   0  0  0  0  0  0  0  0  0  0  0  0
   19.3170    0.5290   51.0950 C   0  0  0  0  0  0  0  0  0  0  0  0
   18.6930    0.5420   49.9790 O   0  0  0  0  0  0  0  0  0  0  0  0
   18.4620    0.4020   52.3050 C   0  0  0  0  0  2  0  0  0  0  0  0
   19.1380   -0.5600   53.1390 O   0  0  0  0  0  0  0  0  0  0  0  0
   25.3880    0.2360   52.6390 N   0  0  0  0  0  0  0  0  0  0  0  0
   24.9660    0.4420   51.6960 H   0  0  0  0  0  0  0  0  0  0  0  0
   26.7280    0.4930   53.0440 C   0  0  0  0  0  0  0  0  0  0  0  0
   27.1100    1.7990   53.3640 C   0  0  0  0  0  3  0  0  0  0  0  0
   28.3930    2.1360   53.7680 C   0  0  0  0  0  3  0  0  0  0  0  0
   29.3330    1.1390   53.8610 C   0  0  0  0  0  3  0  0  0  0  0  0
   28.9950   -0.1720   53.5540 C   0  0  0  0  0  0  0  0  0  0  0  0
   30.0900   -1.1550   53.7040 C   0  0  0  0  0  1  0  0  0  0  0  0
   27.7220   -0.4710   53.1570 C   0  0  0  0  0  3  0  0  0  0  0  0
   21.4100    1.3000   50.0440 C   0  0  0  0  0  2  0  0  0  0  0  0
   21.2990    2.8040   50.1610 C   0  0  0  0  0  2  0  0  0  0  0  0
   22.5010    3.4950   50.6820 C   0  0  0  0  0  2  0  0  0  0  0  0
   23.7170    3.3640   49.9770 N   0  0  0  0  0  0  0  0  0  0  0  0
   24.9150    3.2300   50.7340 C   0  0  0  0  0  2  0  0  0  0  0  0
   26.0690    3.3910   49.7450 C   0  0  0  0  0  2  0  0  0  0  0  0
   26.1480    4.6540   49.2030 O   0  0  0  0  0  0  0  0  0  0  0  0
   24.9270    5.2960   49.0340 C   0  0  0  0  0  2  0  0  0  0  0  0
   23.7750    4.3460   48.9270 C   0  0  0  0  0  2  0  0  0  0  0  0
  1  2  1  0  0  0  0
  2  3  2  0  0  0  0
  4  3  1  0  0  0  0
  5  4  2  0  0  0  0
  6  5  1  0  0  0  0
  7  6  2  0  0  0  0
  8  9  2  0  0  0  0
  8  7  1  0  0  0  0
  9 10  1  0  0  0  0
 10  1  2  0  0  0  0
 10  5  1  0  0  0  0
 11  8  1  0  0  0  0
 12 11  1  0  0  0  0
 12 14  1  0  0  0  0
 13 12  2  0  0  0  0
 14 15  1  0  0  0  0
 15  7  1  0  0  0  0
 16 18  1  0  0  0  0
 16  1  1  0  0  0  0
 17 16  1  0  0  0  0
 18 24  2  0  0  0  0
 18 19  1  0  0  0  0
 19 20  2  0  0  0  0
 20 21  1  0  0  0  0
 22 23  1  0  0  0  0
 22 21  2  0  0  0  0
 24 22  1  0  0  0  0
 25 26  1  0  0  0  0
 25 11  1  0  0  0  0
 26 27  1  0  0  0  0
 28 27  1  0  0  0  0
 28 29  1  0  0  0  0
 30 29  1  0  0  0  0
 31 30  1  0  0  0  0
 32 31  1  0  0  0  0
 33 32  1  0  0  0  0
 33 28  1  0  0  0  0
M  END
>  <TORSDO>
F 6

$$$$
