C:\Qe-CaDD\Project\Data\Stage_6_Molecular_Dynamics\ligands_top\out_18698_EGFR_extracted.pdbqt
 OpenBabel01082506443D

 28 31  0  0  1  0  0  0  0  0999 V2000
   20.7620    0.6900   51.6110 C   0  0  0  0  0  0  0  0  0  0  0  0
   19.4240    0.4610   51.5650 N   0  0  0  0  0  0  0  0  0  0  0  0
   18.7550   -0.2830   52.4430 C   0  0  0  0  0  3  0  0  0  0  0  0
   19.4040   -0.8660   53.4590 N   0  0  0  0  0  0  0  0  0  0  0  0
   20.7250   -0.7180   53.6130 C   0  0  0  0  0  0  0  0  0  0  0  0
   21.4730   -1.2850   54.6100 C   0  0  0  0  0  3  0  0  0  0  0  0
   22.8460   -1.1200   54.7290 C   0  0  0  0  0  3  0  0  0  0  0  0
   23.4800   -0.3260   53.7650 C   0  0  0  0  0  0  0  0  0  0  0  0
   22.7090    0.2340   52.7740 C   0  0  0  0  0  3  0  0  0  0  0  0
   21.3510    0.0580   52.6750 C   0  0  0  0  0  0  0  0  0  0  0  0
   24.8940   -0.1480   53.8770 N   0  0  0  0  0  0  0  0  0  0  0  0
   25.2300    0.6360   54.4780 H   0  0  0  0  0  0  0  0  0  0  0  0
   25.7530   -1.0470   53.1660 C   0  0  0  0  0  2  0  0  0  0  0  0
   26.8290   -0.2440   52.4850 C   0  0  2  0  0  3  0  0  0  0  0  0
   28.1310   -0.6590   53.1160 C   0  0  0  0  0  3  0  0  0  0  0  0
   28.6860    0.3820   53.7240 C   0  0  0  0  0  3  0  0  0  0  0  0
   27.8330    1.5750   53.5690 C   0  0  0  0  0  0  0  0  0  0  0  0
   26.7910    1.1910   52.8650 C   0  0  0  0  0  3  0  0  0  0  0  0
   28.0600    2.8560   54.0550 O   0  0  0  0  0  0  0  0  0  0  0  0
   28.7930    3.0900   54.7150 H   0  0  0  0  0  0  0  0  0  0  0  0
   21.2750    1.5680   50.6170 N   0  0  0  0  0  0  0  0  0  0  0  0
   20.8180    2.9740   50.7200 C   0  0  0  0  0  2  0  0  0  0  0  0
   21.8830    3.6350   51.5270 C   0  0  0  0  0  2  0  0  0  0  0  0
   23.0060    3.4400   50.8800 C   0  0  2  0  0  3  0  0  0  0  0  0
   24.2250    4.0300   51.5260 C   0  0  0  0  0  1  0  0  0  0  0  0
   23.1500    2.7030   49.5970 C   0  0  0  0  0  2  0  0  0  0  0  0
   22.1940    1.5190   49.4950 C   0  0  2  0  0  3  0  0  0  0  0  0
   21.3780    1.7110   48.2350 C   0  0  0  0  0  1  0  0  0  0  0  0
  1 10  1  0  0  0  0
  2  1  2  0  0  0  0
  2  3  1  0  0  0  0
  3  4  2  0  0  0  0
  4  5  1  0  0  0  0
  5  6  1  0  0  0  0
  6  7  2  0  0  0  0
  8 11  1  0  0  0  0
  8  7  1  0  0  0  0
  9  8  2  0  0  0  0
 10  9  1  0  0  0  0
 10  5  2  0  0  0  0
 11 12  1  0  0  0  0
 13 11  1  0  0  0  0
 14 18  1  0  0  0  0
 14 15  1  0  0  0  0
 14 13  1  1  0  0  0
 15 16  2  0  0  0  0
 17 16  1  0  0  0  0
 17 19  1  0  0  0  0
 18 17  2  0  0  0  0
 19 20  1  0  0  0  0
 21 22  1  0  0  0  0
 21  1  1  0  0  0  0
 22 23  1  0  0  0  0
 24 25  1  6  0  0  0
 24 23  1  0  0  0  0
 26 24  1  0  0  0  0
 27 28  1  6  0  0  0
 27 26  1  0  0  0  0
 27 21  1  0  0  0  0
M  END
>  <TORSDO>
F 5

$$$$
