C:\Qe-CaDD\Project\Data\Stage_6_Molecular_Dynamics\ligands_top\out_10747_EGFR_extracted.pdbqt
 OpenBabel01082506443D

 21 23  0  0  1  0  0  0  0  0999 V2000
   25.1360    2.7190   51.8890 C   0  0  1  0  0  3  0  0  0  0  0  0
   26.3140    2.5550   50.9780 C   0  0  0  0  0  2  0  0  0  0  0  0
   26.0540    3.1860   49.6580 C   0  0  0  0  0  2  0  0  0  0  0  0
   25.9760    4.6030   49.5860 N   0  0  0  0  0  0  0  0  0  0  0  0
   24.8590    5.1550   50.2740 C   0  0  0  0  0  2  0  0  0  0  0  0
   23.5460    4.7830   49.7190 C   0  0  0  0  0  3  0  0  0  0  0  0
   22.7320    4.1920   50.5650 N   0  0  0  0  0  0  0  0  0  0  0  0
   23.1880    3.9670   51.9180 C   0  0  0  0  0  2  0  0  0  0  0  0
   24.1380    3.3930   52.6250 N   0  0  1  0  0  0  0  0  0  0  0  0
   24.4560    1.6710   52.4250 C   0  0  1  0  0  3  0  0  0  0  0  0
   23.5060    0.7680   53.0500 C   0  0  2  0  0  3  0  0  0  0  0  0
   22.2150    0.3940   53.1370 C   0  0  0  0  0  2  0  0  0  0  0  0
   22.0000   -1.1730   54.5070 I   0  0  0  0  0  0  0  0  0  0  0  0
   24.5530    0.1890   53.7700 O   0  0  0  0  0  0  0  0  0  0  0  0
   25.5330   -0.5530   53.0780 C   0  0  0  0  0  1  0  0  0  0  0  0
   26.9480    5.3830   48.8900 C   0  0  0  0  0  0  0  0  0  0  0  0
   26.6750    6.6420   48.4030 C   0  0  0  0  0  3  0  0  0  0  0  0
   27.5630    7.4620   47.7170 C   0  0  0  0  0  3  0  0  0  0  0  0
   28.8580    6.9760   47.4930 C   0  0  0  0  0  3  0  0  0  0  0  0
   29.1730    5.7360   47.9590 C   0  0  0  0  0  3  0  0  0  0  0  0
   28.2350    5.0090   48.6180 C   0  0  0  0  0  3  0  0  0  0  0  0
  1  2  1  6  0  0  0
  1 10  1  0  0  0  0
  1  9  1  0  0  0  0
  3  2  1  0  0  0  0
  4  3  1  0  0  0  0
  4  5  1  0  0  0  0
  6  5  1  0  0  0  0
  6  7  2  0  0  0  0
  7  8  1  0  0  0  0
  9  8  1  6  0  0  0
 10  9  1  0  0  0  0
 10 11  1  6  0  0  0
 11 12  1  1  0  0  0
 11 14  1  0  0  0  0
 12 13  1  0  0  0  0
 15 14  1  0  0  0  0
 16  4  1  0  0  0  0
 17 16  2  0  0  0  0
 18 17  1  0  0  0  0
 19 18  2  0  0  0  0
 19 20  1  0  0  0  0
 20 21  2  0  0  0  0
 21 16  1  0  0  0  0
M  END
>  <TORSDO>
F 4

$$$$
