C:\Qe-CaDD\Project\Data\Stage_6_Molecular_Dynamics\ligands_top\out_22418_EGFR_extracted.pdbqt
 OpenBabel01082506443D

 25 27  0  0  0  0  0  0  0  0999 V2000
   24.5260   -0.2510   53.4600 C   0  0  0  0  0  0  0  0  0  0  0  0
   25.2020    0.5960   52.6090 C   0  0  0  0  0  3  0  0  0  0  0  0
   26.4150    1.1870   52.8840 C   0  0  0  0  0  0  0  0  0  0  0  0
   27.0680    2.0310   52.0130 C   0  0  0  0  0  0  0  0  0  0  0  0
   28.2220    2.4710   52.5150 N   0  0  0  0  0  0  0  0  0  0  0  0
   28.7590    2.1940   53.6850 C   0  0  0  0  0  3  0  0  0  0  0  0
   28.0850    1.3540   54.5230 N   0  0  0  0  0  0  0  0  0  0  0  0
   26.8970    0.8400   54.1260 C   0  0  0  0  0  0  0  0  0  0  0  0
   26.2410   -0.0020   54.9940 C   0  0  0  0  0  3  0  0  0  0  0  0
   25.0610   -0.5390   54.6500 N   0  0  0  0  0  0  0  0  0  0  0  0
   26.5080    2.3350   50.7520 N   0  0  0  0  0  0  0  0  0  0  0  0
   26.2280    1.5780   50.1020 H   0  0  0  0  0  0  0  0  0  0  0  0
   26.2580    3.6000   50.2140 C   0  0  0  0  0  0  0  0  0  0  0  0
   27.0240    4.1600   49.2440 C   0  0  0  0  0  3  0  0  0  0  0  0
   26.7870    5.4100   48.6980 C   0  0  0  0  0  3  0  0  0  0  0  0
   25.7280    6.1790   49.1230 C   0  0  0  0  0  0  0  0  0  0  0  0
   25.4170    7.4020   48.6560 F   0  0  0  0  0  0  0  0  0  0  0  0
   24.9290    5.6510   50.1030 C   0  0  0  0  0  0  0  0  0  0  0  0
   23.5600    6.5580   50.7050 Cl  0  0  0  0  0  0  0  0  0  0  0  0
   25.2090    4.4040   50.6110 C   0  0  0  0  0  3  0  0  0  0  0  0
   23.2740   -0.8270   53.1090 N   0  0  0  0  0  0  0  0  0  0  0  0
   23.2750   -1.6990   52.5020 H   0  0  0  0  0  0  0  0  0  0  0  0
   22.0360   -0.2570   53.5510 C   0  0  0  0  0  2  0  0  0  0  0  0
   21.4060   -1.1650   54.5740 C   0  0  0  0  0  3  0  0  0  0  0  0
   21.8730   -2.0680   55.2050 O   0  0  0  0  0  0  0  0  0  0  0  0
  1 10  1  0  0  0  0
  2  3  1  0  0  0  0
  2  1  2  0  0  0  0
  3  8  1  0  0  0  0
  4  5  1  0  0  0  0
  4  3  2  0  0  0  0
  5  6  2  0  0  0  0
  6  7  1  0  0  0  0
  8  7  2  0  0  0  0
  8  9  1  0  0  0  0
 10  9  2  0  0  0  0
 11  4  1  0  0  0  0
 12 11  1  0  0  0  0
 13 20  1  0  0  0  0
 13 11  1  0  0  0  0
 14 13  2  0  0  0  0
 15 16  2  0  0  0  0
 15 14  1  0  0  0  0
 16 18  1  0  0  0  0
 17 16  1  0  0  0  0
 18 20  2  0  0  0  0
 18 19  1  0  0  0  0
 21  1  1  0  0  0  0
 21 23  1  0  0  0  0
 22 21  1  0  0  0  0
 23 24  1  0  0  0  0
 24 25  2  0  0  0  0
M  END
>  <TORSDO>
F 5

$$$$
