C:\Qe-CaDD\Project\Data\Stage_6_Molecular_Dynamics\ligands_top\out_11966_EGFR_extracted.pdbqt
 OpenBabel01082506443D

 32 35  0  0  1  0  0  0  0  0999 V2000
   26.0780    3.6570   50.4750 C   0  0  0  0  0  0  0  0  0  0  0  0
   26.3540    2.4640   50.9500 C   0  0  0  0  0  2  0  0  0  0  0  0
   25.3960    2.2190   52.0230 C   0  0  0  0  0  0  0  0  0  0  0  0
   25.2370    0.8300   52.4840 C   0  0  0  0  0  3  0  0  0  0  0  0
   24.1240    0.2630   52.7360 N   0  0  0  0  0  2  0  0  0  0  0  0
   22.8840    0.8960   52.5970 N   0  0  0  0  0  0  0  0  0  0  0  0
   22.9060    2.2430   52.1440 C   0  0  0  0  0  3  0  0  0  0  0  0
   24.0810    2.8470   51.8760 C   0  0  0  0  0  0  0  0  0  0  0  0
   23.9410    4.1660   51.3260 C   0  0  0  0  0  2  0  0  0  0  0  0
   24.9780    4.6020   50.5760 C   0  0  0  0  0  0  0  0  0  0  0  0
   24.9320    5.8520   49.9840 O   0  0  0  0  0  0  0  0  0  0  0  0
   24.2360    6.9670   50.4340 C   0  0  0  0  0  2  0  0  0  0  0  0
   24.7770    8.1840   49.6940 C   0  0  0  0  0  2  0  0  0  0  0  0
   26.2870    8.1720   49.9120 C   0  0  1  0  0  3  0  0  0  0  0  0
   26.9400    7.7550   48.6930 N   0  0  0  0  0  0  0  0  0  0  0  0
   28.2120    8.4440   48.5910 C   0  0  0  0  0  2  0  0  0  0  0  0
   26.3400    7.9030   47.8490 H   0  0  0  0  0  0  0  0  0  0  0  0
   27.8750    9.9090   48.3610 C   0  0  0  0  0  2  0  0  0  0  0  0
   26.9720   10.4090   49.2840 O   0  0  0  0  0  0  0  0  0  0  0  0
   26.7000    9.5580   50.3400 C   0  0  2  0  0  3  0  0  0  0  0  0
   27.7630    9.5390   51.2570 O   0  0  0  0  0  0  0  0  0  0  0  0
   28.3420    8.7900   51.0000 H   0  0  0  0  0  0  0  0  0  0  0  0
   26.9950    4.0680   49.3820 C   0  0  0  0  0  3  0  0  0  0  0  0
   27.9670    4.8500   49.0680 N   0  0  0  0  0  0  0  0  0  0  0  0
   28.3250    5.4940   49.8210 H   0  0  0  0  0  0  0  0  0  0  0  0
   21.7100    0.1680   52.9120 C   0  0  0  0  0  0  0  0  0  0  0  0
   20.5570    0.4530   52.2160 C   0  0  0  0  0  3  0  0  0  0  0  0
   19.3630   -0.1970   52.4450 C   0  0  0  0  0  3  0  0  0  0  0  0
   19.3220   -1.1780   53.4170 C   0  0  0  0  0  0  0  0  0  0  0  0
   17.8180   -2.0100   53.7210 Cl  0  0  0  0  0  0  0  0  0  0  0  0
   20.4570   -1.4830   54.1280 C   0  0  0  0  0  3  0  0  0  0  0  0
   21.6300   -0.8050   53.8620 C   0  0  0  0  0  3  0  0  0  0  0  0
  1 10  2  0  0  0  0
  1  2  1  0  0  0  0
  2  3  1  0  0  0  0
  3  4  2  0  0  0  0
  4  5  1  0  0  0  0
  6  5  1  0  0  0  0
  6 26  1  0  0  0  0
  7  6  1  0  0  0  0
  8  3  1  0  0  0  0
  8  7  2  0  0  0  0
  9  8  1  0  0  0  0
 10  9  1  0  0  0  0
 11 12  1  0  0  0  0
 11 10  1  0  0  0  0
 13 12  1  0  0  0  0
 14 13  1  6  0  0  0
 14 20  1  0  0  0  0
 15 14  1  0  0  0  0
 16 15  1  0  0  0  0
 17 15  1  0  0  0  0
 18 16  1  0  0  0  0
 18 19  1  0  0  0  0
 19 20  1  0  0  0  0
 20 21  1  1  0  0  0
 22 21  1  0  0  0  0
 23  1  1  0  0  0  0
 24 23  2  0  0  0  0
 24 25  1  0  0  0  0
 26 32  1  0  0  0  0
 27 28  1  0  0  0  0
 27 26  2  0  0  0  0
 28 29  2  0  0  0  0
 29 30  1  0  0  0  0
 29 31  1  0  0  0  0
 32 31  2  0  0  0  0
M  END
>  <TORSDO>
F 7

$$$$
