C:\Qe-CaDD\Project\Data\Stage_6_Molecular_Dynamics\ligands_top\out_22002_EGFR_extracted.pdbqt
 OpenBabel01082506443D

 24 25  0  0  1  0  0  0  0  0999 V2000
   21.6290    2.6420   51.6590 C   0  0  2  0  0  3  0  0  0  0  0  0
   22.8140    1.9620   51.0930 C   0  0  0  0  0  3  0  0  0  0  0  0
   24.0860    1.7220   51.5010 C   0  0  0  0  0  3  0  0  0  0  0  0
   24.8300    2.0580   52.7240 C   0  0  0  0  0  0  0  0  0  0  0  0
   25.7620    1.0620   53.1830 C   0  0  0  0  0  0  0  0  0  0  0  0
   25.8080   -0.1400   52.5180 C   0  0  0  0  0  3  0  0  0  0  0  0
   26.6850   -1.1310   52.8920 C   0  0  0  0  0  3  0  0  0  0  0  0
   27.5430   -0.9860   53.9210 N   0  0  0  0  0  0  0  0  0  0  0  0
   27.5380    0.1740   54.6060 C   0  0  0  0  0  3  0  0  0  0  0  0
   26.6490    1.1420   54.2050 C   0  0  0  0  0  3  0  0  0  0  0  0
   24.6960    3.2180   53.3910 C   0  0  0  0  0  3  0  0  0  0  0  0
   23.9200    4.4370   53.2600 N   0  0  0  0  0  0  0  0  0  0  0  0
   23.0740    4.7130   52.1030 C   0  0  0  0  0  2  0  0  0  0  0  0
   21.7690    4.0420   52.0850 C   0  0  0  0  0  2  0  0  0  0  0  0
   24.0760    5.0460   54.1010 H   0  0  0  0  0  0  0  0  0  0  0  0
   20.9610    1.9090   52.7050 N   0  0  0  0  0  0  0  0  0  0  0  0
   21.6950    1.5240   53.3610 H   0  0  0  0  0  0  0  0  0  0  0  0
   20.0240    0.9250   52.3380 C   0  0  0  0  0  2  0  0  0  0  0  0
   19.8480   -0.1790   53.3010 C   0  0  0  0  0  3  0  0  0  0  0  0
   20.7810   -1.0020   53.8360 C   0  0  0  0  0  0  0  0  0  0  0  0
   20.5170   -2.0130   54.7370 F   0  0  0  0  0  0  0  0  0  0  0  0
   22.2560   -1.1590   53.7110 C   0  0  0  0  0  3  0  0  0  0  0  0
   22.9040   -0.1010   54.3220 F   0  0  0  0  0  0  0  0  0  0  0  0
   22.6590   -1.1440   52.3790 F   0  0  0  0  0  0  0  0  0  0  0  0
  1 14  1  0  0  0  0
  1 16  1  1  0  0  0
  2  3  2  0  0  0  0
  2  1  1  0  0  0  0
  3  4  1  0  0  0  0
  4  5  1  0  0  0  0
  4 11  2  0  0  0  0
  5 10  1  0  0  0  0
  6  7  1  0  0  0  0
  6  5  2  0  0  0  0
  7  8  2  0  0  0  0
  8  9  1  0  0  0  0
 10  9  2  0  0  0  0
 12 11  1  0  0  0  0
 12 15  1  0  0  0  0
 13 12  1  0  0  0  0
 14 13  1  0  0  0  0
 16 17  1  0  0  0  0
 18 16  1  0  0  0  0
 18 19  1  0  0  0  0
 19 20  2  0  0  0  0
 20 21  1  0  0  0  0
 22 20  1  0  0  0  0
 22 23  1  0  0  0  0
 24 22  1  0  0  0  0
M  END
>  <TORSDO>
F 4

$$$$
