C:\Qe-CaDD\Project\Data\Stage_6_Molecular_Dynamics\ligands_top\out_21995_EGFR_extracted.pdbqt
 OpenBabel01082506443D

 29 30  0  0  0  0  0  0  0  0999 V2000
   27.5420    4.3390   49.1270 O   0  0  0  0  0  0  0  0  0  0  0  0
   26.3960    4.2580   49.6670 C   0  0  0  0  0  0  0  0  0  0  0  0
   26.3160    3.5520   50.8990 N   0  0  0  0  0  0  0  0  0  0  0  0
   25.5620    3.3090   51.5780 H   0  0  0  0  0  0  0  0  0  0  0  0
   25.0150    4.7450   49.3220 C   0  0  0  0  0  2  0  0  0  0  0  0
   24.2170    3.5380   49.0090 C   0  0  0  0  0  3  0  0  0  0  0  0
   23.1220    3.0870   49.5830 C   0  0  0  0  0  3  0  0  0  0  0  0
   22.4970    3.7780   50.6990 C   0  0  0  0  0  3  0  0  0  0  0  0
   22.4860    3.2070   51.8910 C   0  0  0  0  0  3  0  0  0  0  0  0
   23.0490    1.9360   52.1930 N   0  0  0  0  0  0  0  0  0  0  0  0
   23.9710    1.6720   52.5610 H   0  0  0  0  0  0  0  0  0  0  0  0
   22.0350    0.9480   51.8760 C   0  0  0  0  0  2  0  0  0  0  0  0
   21.9470   -0.0050   53.0140 C   0  0  0  0  0  0  0  0  0  0  0  0
   23.0540   -0.2330   53.7870 C   0  0  0  0  0  3  0  0  0  0  0  0
   23.1020   -1.0900   54.8640 C   0  0  0  0  0  3  0  0  0  0  0  0
   21.9520   -1.7330   55.1460 N   0  0  0  0  0  0  0  0  0  0  0  0
   20.8290   -1.5540   54.4250 C   0  0  0  0  0  3  0  0  0  0  0  0
   20.7880   -0.6850   53.3370 C   0  0  0  0  0  3  0  0  0  0  0  0
   27.2200    2.9030   51.6880 O   0  0  0  0  0  0  0  0  0  0  0  0
   27.1170    1.5580   52.0150 C   0  0  0  0  0  0  0  0  0  0  0  0
   26.1170    0.6680   51.6760 C   0  0  0  0  0  3  0  0  0  0  0  0
   26.2000   -0.6430   52.1040 C   0  0  0  0  0  3  0  0  0  0  0  0
   27.2620   -1.0950   52.8680 C   0  0  0  0  0  3  0  0  0  0  0  0
   28.2710   -0.1880   53.2070 C   0  0  0  0  0  0  0  0  0  0  0  0
   28.1940    1.1270   52.7810 C   0  0  0  0  0  3  0  0  0  0  0  0
   29.4220   -0.6750   54.0340 C   0  0  0  0  0  0  0  0  0  0  0  0
   29.5910   -2.0310   53.8460 F   0  0  0  0  0  0  0  0  0  0  0  0
   29.2350   -0.3780   55.3540 F   0  0  0  0  0  0  0  0  0  0  0  0
   30.6020   -0.0800   53.5770 F   0  0  0  0  0  0  0  0  0  0  0  0
  1  2  2  0  0  0  0
  2  3  1  0  0  0  0
  3  4  1  0  0  0  0
  3 19  1  0  0  0  0
  5  2  1  0  0  0  0
  6  5  1  0  0  0  0
  6  7  2  0  0  0  0
  7  8  1  0  0  0  0
  8  9  2  0  0  0  0
  9 10  1  0  0  0  0
 10 11  1  0  0  0  0
 12 10  1  0  0  0  0
 12 13  1  0  0  0  0
 13 18  2  0  0  0  0
 13 14  1  0  0  0  0
 14 15  2  0  0  0  0
 15 16  1  0  0  0  0
 17 16  2  0  0  0  0
 18 17  1  0  0  0  0
 19 20  1  0  0  0  0
 20 25  1  0  0  0  0
 21 20  2  0  0  0  0
 21 22  1  0  0  0  0
 22 23  2  0  0  0  0
 23 24  1  0  0  0  0
 24 26  1  0  0  0  0
 25 24  2  0  0  0  0
 26 28  1  0  0  0  0
 27 26  1  0  0  0  0
 29 26  1  0  0  0  0
M  END
>  <TORSDO>
F 9

$$$$
