C:\Qe-CaDD\Project\Data\Stage_6_Molecular_Dynamics\ligands_top\out_22281_EGFR_extracted.pdbqt
 OpenBabel01082506443D

 27 29  0  0  0  0  0  0  0  0999 V2000
   22.0260    1.3270   50.6890 C   0  0  0  0  0  0  0  0  0  0  0  0
   20.8060    0.7190   50.9170 C   0  0  0  0  0  3  0  0  0  0  0  0
   20.5600   -0.0940   52.0060 C   0  0  0  0  0  3  0  0  0  0  0  0
   21.5720   -0.3310   52.9400 C   0  0  0  0  0  0  0  0  0  0  0  0
   21.4400   -1.0960   54.0380 N   0  0  0  0  0  0  0  0  0  0  0  0
   22.4970   -1.2460   54.8770 C   0  0  0  0  0  3  0  0  0  0  0  0
   23.6920   -0.6360   54.6310 N   0  0  0  0  0  0  0  0  0  0  0  0
   23.8640    0.1500   53.5240 C   0  0  0  0  0  0  0  0  0  0  0  0
   22.7810    0.2840   52.6950 C   0  0  0  0  0  0  0  0  0  0  0  0
   23.0090    1.0910   51.6040 C   0  0  0  0  0  3  0  0  0  0  0  0
   22.3110    2.3700   49.2770 S   0  0  0  0  0  0  0  0  0  0  0  0
   23.6120    3.5250   49.5640 C   0  0  0  0  0  0  0  0  0  0  0  0
   24.4950    4.3200   49.7800 C   0  0  0  0  0  0  0  0  0  0  0  0
   25.5760    5.2810   50.0670 C   0  0  0  0  0  2  0  0  0  0  0  0
   26.3450    5.6070   48.8960 N   0  0  0  0  0  0  0  0  0  0  0  0
   26.7630    6.9800   48.8740 C   0  0  0  0  0  2  0  0  0  0  0  0
   26.1390    7.6960   50.0610 C   0  0  0  0  0  1  0  0  0  0  0  0
   27.4900    4.7570   48.7130 C   0  0  0  0  0  2  0  0  0  0  0  0
   28.7260    5.5210   48.3020 C   0  0  0  0  0  1  0  0  0  0  0  0
   25.1700    0.6470   53.4550 N   0  0  0  0  0  0  0  0  0  0  0  0
   26.0710   -0.4750   53.3190 C   0  0  0  0  0  2  0  0  0  0  0  0
   27.4100   -0.3750   53.2380 C   0  0  0  0  0  0  0  0  0  0  0  0
   28.5630   -1.6850   53.0740 Cl  0  0  0  0  0  0  0  0  0  0  0  0
   28.0220    0.9480   53.2820 C   0  0  0  0  0  0  0  0  0  0  0  0
   29.3520    1.2250   53.2140 F   0  0  0  0  0  0  0  0  0  0  0  0
   27.1990    1.9660   53.4010 C   0  0  0  0  0  3  0  0  0  0  0  0
   25.7170    1.9870   53.4990 C   0  0  0  0  0  3  0  0  0  0  0  0
  1  2  2  0  0  0  0
  1 10  1  0  0  0  0
  2  3  1  0  0  0  0
  3  4  2  0  0  0  0
  4  5  1  0  0  0  0
  5  6  2  0  0  0  0
  7  6  1  0  0  0  0
  8  7  2  0  0  0  0
  9  4  1  0  0  0  0
  9  8  1  0  0  0  0
 10  9  2  0  0  0  0
 11 12  1  0  0  0  0
 11  1  1  0  0  0  0
 12 13  3  0  0  0  0
 13 14  1  0  0  0  0
 15 14  1  0  0  0  0
 16 15  1  0  0  0  0
 16 17  1  0  0  0  0
 18 15  1  0  0  0  0
 19 18  1  0  0  0  0
 20 27  1  0  0  0  0
 20  8  1  0  0  0  0
 21 20  1  0  0  0  0
 22 24  2  0  0  0  0
 22 21  1  0  0  0  0
 23 22  1  0  0  0  0
 24 26  1  0  0  0  0
 25 24  1  0  0  0  0
 26 27  2  0  0  0  0
M  END
>  <TORSDO>
F 7

$$$$
