C:\Qe-CaDD\Project\Data\Stage_6_Molecular_Dynamics\ligands_top\out_13937_EGFR_extracted.pdbqt
 OpenBabel01082506443D

 25 26  0  0  0  0  0  0  0  0999 V2000
   24.1520    2.3320   52.9490 C   0  0  0  0  0  0  0  0  0  0  0  0
   22.9320    1.7780   52.9700 N   0  0  0  0  0  0  0  0  0  0  0  0
   22.6850    0.4790   53.1710 C   0  0  0  0  0  3  0  0  0  0  0  0
   23.6870   -0.3960   53.3740 N   0  0  0  0  0  0  0  0  0  0  0  0
   24.9310    0.0870   53.3670 C   0  0  0  0  0  0  0  0  0  0  0  0
   25.9390   -0.8260   53.5770 C   0  0  0  0  0  3  0  0  0  0  0  0
   27.2540   -0.4380   53.5890 C   0  0  0  0  0  0  0  0  0  0  0  0
   27.5340    0.8970   53.3840 C   0  0  0  0  0  0  0  0  0  0  0  0
   26.4910    1.7820   53.1770 C   0  0  0  0  0  3  0  0  0  0  0  0
   25.1700    1.4290   53.1580 C   0  0  0  0  0  0  0  0  0  0  0  0
   24.4140    3.6940   52.7260 N   0  0  0  0  0  0  0  0  0  0  0  0
   25.2750    4.1430   53.0970 H   0  0  0  0  0  0  0  0  0  0  0  0
   23.6080    4.6520   52.0040 C   0  0  0  0  0  2  0  0  0  0  0  0
   23.3720    4.3050   50.5830 C   0  0  0  0  0  0  0  0  0  0  0  0
   24.1600    4.1130   49.5110 C   0  0  0  0  0  3  0  0  0  0  0  0
   25.6030    4.1760   49.3400 C   0  0  0  0  0  0  0  0  0  0  0  0
   26.1360    5.2810   48.8370 C   0  0  0  0  0  3  0  0  0  0  0  0
   27.6040    5.3670   48.6580 C   0  0  0  0  0  1  0  0  0  0  0  0
   26.5490    3.1000   49.6860 C   0  0  0  0  0  1  0  0  0  0  0  0
   21.9840    4.1620   50.3900 O   0  0  0  0  0  0  0  0  0  0  0  0
   21.0540    4.5720   51.3740 C   0  0  0  0  0  1  0  0  0  0  0  0
   28.8450    1.2790   53.3980 O   0  0  0  0  0  0  0  0  0  0  0  0
   29.4710    1.9220   54.4940 C   0  0  0  0  0  1  0  0  0  0  0  0
   28.2890   -1.3360   53.7990 O   0  0  0  0  0  0  0  0  0  0  0  0
   28.5740   -2.4110   52.9500 C   0  0  0  0  0  1  0  0  0  0  0  0
  1  2  2  0  0  0  0
  1 10  1  0  0  0  0
  2  3  1  0  0  0  0
  3  4  2  0  0  0  0
  5  4  1  0  0  0  0
  5  6  1  0  0  0  0
  6  7  2  0  0  0  0
  7 24  1  0  0  0  0
  8 22  1  0  0  0  0
  8  7  1  0  0  0  0
  9  8  2  0  0  0  0
 10  9  1  0  0  0  0
 10  5  2  0  0  0  0
 11  1  1  0  0  0  0
 11 12  1  0  0  0  0
 13 11  1  0  0  0  0
 14 13  1  0  0  0  0
 15 14  2  0  0  0  0
 16 15  1  0  0  0  0
 16 19  1  0  0  0  0
 17 16  2  0  0  0  0
 18 17  1  0  0  0  0
 20 14  1  0  0  0  0
 20 21  1  0  0  0  0
 22 23  1  0  0  0  0
 25 24  1  0  0  0  0
M  END
>  <TORSDO>
F 7

$$$$
