C:\Qe-CaDD\Project\Data\Stage_6_Molecular_Dynamics\ligands_top\out_13827_EGFR_extracted.pdbqt
 OpenBabel01082506443D

 27 30  0  0  1  0  0  0  0  0999 V2000
   19.3200   -0.5000   53.0810 C   0  0  0  0  0  3  0  0  0  0  0  0
   20.4570   -0.5410   53.4420 C   0  0  0  0  0  0  0  0  0  0  0  0
   21.8180   -0.6040   53.8550 C   0  0  0  0  0  0  0  0  0  0  0  0
   22.1650   -1.3020   54.9870 C   0  0  0  0  0  3  0  0  0  0  0  0
   23.4820   -1.3610   55.3830 C   0  0  0  0  0  3  0  0  0  0  0  0
   24.4300   -0.7090   54.6210 C   0  0  0  0  0  3  0  0  0  0  0  0
   24.1590    0.0080   53.4760 C   0  0  0  0  0  0  0  0  0  0  0  0
   22.8220    0.0250   53.1420 C   0  0  0  0  0  3  0  0  0  0  0  0
   25.1530    0.6720   52.7080 N   0  0  0  0  0  0  0  0  0  0  0  0
   25.5400    0.1290   51.8870 H   0  0  0  0  0  0  0  0  0  0  0  0
   25.6220    1.9880   52.9950 C   0  0  2  0  0  0  0  0  0  0  0  0
   24.5540    2.9900   53.2430 C   0  0  0  0  0  2  0  0  0  0  0  0
   23.9870    3.4040   52.1060 C   0  0  2  0  0  3  0  0  0  0  0  0
   24.4880    2.8310   50.8330 C   0  0  0  0  0  2  0  0  0  0  0  0
   25.9820    2.8650   50.7740 C   0  0  0  0  0  2  0  0  0  0  0  0
   26.5480    2.4240   51.9060 C   0  0  1  0  0  3  0  0  0  0  0  0
   27.8990    2.2670   52.3350 N   0  0  0  0  0  2  0  0  0  0  0  0
   27.9220    2.0040   53.6030 C   0  0  0  0  0  2  0  0  0  0  0  0
   26.5790    1.9690   54.1120 N   0  0  0  0  0  0  0  0  0  0  0  0
   26.6000    1.9360   55.1710 H   0  0  0  0  0  0  0  0  0  0  0  0
   22.8730    4.4230   52.0850 C   0  0  0  0  0  2  0  0  0  0  0  0
   21.6020    3.7940   51.6330 C   0  0  2  0  0  3  0  0  0  0  0  0
   21.1160    3.8590   50.4370 N   0  0  0  0  0  2  0  0  0  0  0  0
   19.9200    3.1680   50.3450 N   0  0  0  0  0  0  0  0  0  0  0  0
   19.4440    2.7510   49.0220 C   0  0  0  0  0  1  0  0  0  0  0  0
   19.4100    3.0280   51.6960 C   0  0  0  0  0  2  0  0  0  0  0  0
   20.6960    2.9930   52.4960 C   0  0  0  0  0  2  0  0  0  0  0  0
  1  2  3  0  0  0  0
  2  3  1  0  0  0  0
  3  4  1  0  0  0  0
  4  5  2  0  0  0  0
  6  5  1  0  0  0  0
  7  6  2  0  0  0  0
  8  7  1  0  0  0  0
  8  3  2  0  0  0  0
  9  7  1  0  0  0  0
 10  9  1  0  0  0  0
 11  9  1  6  0  0  0
 11 12  1  0  0  0  0
 11 19  1  0  0  0  0
 13 21  1  6  0  0  0
 13 12  1  0  0  0  0
 14 13  1  0  0  0  0
 15 14  1  0  0  0  0
 16 15  1  1  0  0  0
 16 17  1  0  0  0  0
 16 11  1  0  0  0  0
 17 18  1  0  0  0  0
 18 19  1  0  0  0  0
 19 20  1  0  0  0  0
 22 21  1  1  0  0  0
 22 27  1  0  0  0  0
 23 22  1  0  0  0  0
 24 23  1  0  0  0  0
 24 26  1  0  0  0  0
 25 24  1  0  0  0  0
 26 27  1  0  0  0  0
M  END
>  <TORSDO>
F 4

$$$$
