C:\Qe-CaDD\Project\Data\Stage_6_Molecular_Dynamics\ligands_top\out_16471_EGFR_extracted.pdbqt
 OpenBabel01082506443D

 26 31  0  0  1  0  0  0  0  0999 V2000
   20.5480    0.2330   54.0710 C   0  0  0  0  0  1  0  0  0  0  0  0
   21.3220    0.3130   52.9520 N   0  0  0  0  0  0  0  0  0  0  0  0
   21.0760    1.1190   51.8610 C   0  0  0  0  0  2  0  0  0  0  0  0
   21.3420    2.5720   52.1600 C   0  0  0  0  0  2  0  0  0  0  0  0
   21.5860    3.2390   50.8340 C   0  0  2  0  0  3  0  0  0  0  0  0
   22.6770    2.5670   50.0270 C   0  0  0  0  0  2  0  0  0  0  0  0
   23.9990    2.4830   50.6310 C   0  0  0  0  0  0  0  0  0  0  0  0
   24.8270    3.3130   49.9770 C   0  0  0  0  0  3  0  0  0  0  0  0
   26.1720    3.5000   50.2700 N   0  0  0  0  0  0  0  0  0  0  0  0
   26.8380    2.8570   51.2730 N   0  0  0  0  0  0  0  0  0  0  0  0
   26.1230    2.0220   51.9750 C   0  0  0  0  0  0  0  0  0  0  0  0
   24.5850    1.7290   51.7320 C   0  0  1  0  0  0  0  0  0  0  0  0
   23.3920    1.0400   52.1520 C   0  0  1  0  0  3  0  0  0  0  0  0
   24.3940    0.7260   52.8750 C   0  0  1  0  0  0  0  0  0  0  0  0
   25.2570    0.4730   53.4750 C   0  0  0  0  0  3  0  0  0  0  0  0
   26.2940    0.1910   54.1710 C   0  0  0  0  0  0  0  0  0  0  0  0
   27.2570   -0.1420   54.8970 C   0  0  0  0  0  3  0  0  0  0  0  0
   28.6720    0.2830   54.9580 C   0  0  0  0  0  3  0  0  0  0  0  0
   28.9950    1.2720   53.9210 C   0  0  0  0  0  3  0  0  0  0  0  0
   28.2140    1.8280   52.9850 C   0  0  0  0  0  3  0  0  0  0  0  0
   26.8230    1.2700   53.1210 N   0  0  0  0  0  0  0  0  0  0  0  0
   22.7980    0.1930   53.1800 C   0  0  1  0  0  3  0  0  0  0  0  0
   26.8890    4.0980   49.8440 H   0  0  0  0  0  0  0  0  0  0  0  0
   21.8310    4.6370   51.0280 N   0  0  0  0  0  0  0  0  0  0  0  0
   22.7960    4.8070   51.4130 H   0  0  0  0  0  0  0  0  0  0  0  0
   21.1000    5.1360   51.5780 H   0  0  0  0  0  0  0  0  0  0  0  0
  2 22  1  0  0  0  0
  2  1  1  0  0  0  0
  3  4  1  0  0  0  0
  3  2  1  0  0  0  0
  5 24  1  1  0  0  0
  5  4  1  0  0  0  0
  6  7  1  0  0  0  0
  6  5  1  0  0  0  0
  8  9  1  0  0  0  0
  8  7  2  0  0  0  0
  9 10  1  0  0  0  0
 10 11  2  0  0  0  0
 11 21  1  0  0  0  0
 12  7  1  6  0  0  0
 12 11  1  0  0  0  0
 12 13  1  0  0  0  0
 12 14  1  0  0  0  0
 13 14  1  0  0  0  0
 13 22  1  0  0  0  0
 14 22  1  0  0  0  0
 14 15  1  0  0  0  0
 15 16  2  0  0  0  0
 16 17  1  0  0  0  0
 17 18  2  0  0  0  0
 19 18  1  0  0  0  0
 20 21  1  0  0  0  0
 20 19  2  0  0  0  0
 21 16  1  0  0  0  0
 23  9  1  0  0  0  0
 24 25  1  0  0  0  0
 24 26  1  0  0  0  0
M  END
>  <TORSDO>
F 1

$$$$
