C:\Qe-CaDD\Project\Data\Stage_6_Molecular_Dynamics\ligands_top\out_14243_EGFR_extracted.pdbqt
 OpenBabel01082506443D

 32 35  0  0  1  0  0  0  0  0999 V2000
   21.3500    0.6070   51.5780 C   0  0  0  0  0  2  0  0  0  0  0  0
   22.5770    1.0480   51.7020 C   0  0  0  0  0  0  0  0  0  0  0  0
   23.6680    0.4110   52.4280 C   0  0  0  0  0  2  0  0  0  0  0  0
   23.7000   -0.2260   53.5510 C   0  0  0  0  0  0  0  0  0  0  0  0
   22.5350   -0.4640   54.4030 C   0  0  0  0  0  3  0  0  0  0  0  0
   25.0490   -0.6890   53.9410 C   0  0  0  0  0  0  0  0  0  0  0  0
   22.9060   -1.1410   55.5990 N   0  0  0  0  0  0  0  0  0  0  0  0
   24.0910   -1.5090   55.8830 C   0  0  0  0  0  3  0  0  0  0  0  0
   25.2240   -1.3000   55.0580 N   0  0  0  0  0  0  0  0  0  0  0  0
   26.2310   -0.5020   53.1510 N   0  0  0  0  0  0  0  0  0  0  0  0
   26.3160   -1.1130   52.2930 H   0  0  0  0  0  0  0  0  0  0  0  0
   27.2480    0.4630   53.4930 C   0  0  0  0  0  0  0  0  0  0  0  0
   27.2400    1.7180   53.0990 C   0  0  0  0  0  3  0  0  0  0  0  0
   28.4150    2.3960   53.6320 C   0  0  0  0  0  3  0  0  0  0  0  0
   29.1180    1.5150   54.3520 C   0  0  0  0  0  3  0  0  0  0  0  0
   28.4180    0.1830   54.3220 C   0  0  2  0  0  3  0  0  0  0  0  0
   29.6320   -1.0880   53.5410 Br  0  0  0  0  0  0  0  0  0  0  0  0
   22.4750    2.2380   50.9410 N   0  0  0  0  0  4  0  0  0  0  0  0
   22.6980    3.5550   51.4020 C   0  0  2  0  0  3  0  0  0  0  0  0
   22.9920    4.3700   52.2980 O   0  0  0  0  0  0  0  0  0  0  0  0
   22.2340    2.3530   49.9310 H   0  0  0  0  0  0  0  0  0  0  0  0
   22.6160    4.8450   50.6850 C   0  0  1  0  0  3  0  0  0  0  0  0
   23.1630    4.7350   49.4050 O   0  0  0  0  0  0  0  0  0  0  0  0
   24.5410    4.6930   49.2570 C   0  0  0  0  0  0  0  0  0  0  0  0
   25.4310    3.6700   49.4930 C   0  0  0  0  0  3  0  0  0  0  0  0
   26.7790    3.8460   49.2760 C   0  0  0  0  0  3  0  0  0  0  0  0
   27.2680    5.0720   48.8110 C   0  0  0  0  0  0  0  0  0  0  0  0
   28.6070    5.1560   48.6260 F   0  0  0  0  0  0  0  0  0  0  0  0
   26.3830    6.1010   48.5730 C   0  0  0  0  0  3  0  0  0  0  0  0
   25.0120    5.9270   48.7910 C   0  0  0  0  0  3  0  0  0  0  0  0
   19.9820    0.7050   51.0870 C   0  0  0  0  0  2  0  0  0  0  0  0
   18.9560   -0.0750   51.8980 C   0  0  0  0  0  1  0  0  0  0  0  0
  1  2  1  0  0  0  0
  2  3  1  0  0  0  0
  3  4  1  0  0  0  0
  4  6  2  0  0  0  0
  4  5  1  0  0  0  0
  5  7  2  0  0  0  0
  6  9  1  0  0  0  0
  7  8  1  0  0  0  0
  9  8  2  0  0  0  0
 10 12  1  0  0  0  0
 10  6  1  0  0  0  0
 11 10  1  0  0  0  0
 12 16  1  0  0  0  0
 13 12  2  0  0  0  0
 13 14  1  0  0  0  0
 14 15  2  0  0  0  0
 16 17  1  6  0  0  0
 16 15  1  0  0  0  0
 18  2  2  0  0  0  0
 19 18  1  1  0  0  0
 19 20  1  0  0  0  0
 21 18  1  0  0  0  0
 22 23  1  6  0  0  0
 22 19  1  0  0  0  0
 22 20  1  0  0  0  0
 24 23  1  0  0  0  0
 24 25  1  0  0  0  0
 26 25  2  0  0  0  0
 27 26  1  0  0  0  0
 28 27  1  0  0  0  0
 29 30  1  0  0  0  0
 29 27  2  0  0  0  0
 30 24  2  0  0  0  0
 31  1  1  0  0  0  0
 31 32  1  0  0  0  0
M  END
>  <TORSDO>
F 8

$$$$
