C:\Qe-CaDD\Project\Data\Stage_6_Molecular_Dynamics\ligands_top\out_20871_EGFR_extracted.pdbqt
 OpenBabel01082506443D

 25 26  0  0  0  0  0  0  0  0999 V2000
   23.4770    0.7470   52.1890 N   0  0  0  0  0  0  0  0  0  0  0  0
   24.0430    0.3640   51.4200 H   0  0  0  0  0  0  0  0  0  0  0  0
   23.5450    2.1820   52.4220 C   0  0  0  0  0  2  0  0  0  0  0  0
   24.9490    2.6430   52.5580 C   0  0  0  0  0  2  0  0  0  0  0  0
   25.6860    2.1910   53.5870 C   0  0  0  0  0  2  0  0  0  0  0  0
   26.5500    1.7180   54.5950 O   0  0  0  0  0  0  0  0  0  0  0  0
   27.0170    0.4110   54.4540 C   0  0  0  0  0  0  0  0  0  0  0  0
   28.3410    0.5290   54.5220 C   0  0  0  0  0  0  0  0  0  0  0  0
   29.3060    1.6450   54.6970 C   0  0  0  0  0  1  0  0  0  0  0  0
   26.2190   -0.7710   54.2770 N   0  0  0  0  0  0  0  0  0  0  0  0
   26.2730   -1.3120   52.9240 C   0  0  0  0  0  1  0  0  0  0  0  0
   25.6550   -1.1960   55.0500 H   0  0  0  0  0  0  0  0  0  0  0  0
   28.9460   -0.7130   54.3940 O   0  0  0  0  0  0  0  0  0  0  0  0
   29.9220   -1.0010   53.4160 C   0  0  0  0  0  1  0  0  0  0  0  0
   22.6290   -0.0130   53.0450 C   0  0  0  0  0  0  0  0  0  0  0  0
   23.1030   -0.6120   54.1500 N   0  0  0  0  0  0  0  0  0  0  0  0
   22.3410   -1.3390   54.9870 C   0  0  0  0  0  3  0  0  0  0  0  0
   21.0260   -1.5150   54.7640 N   0  0  0  0  0  0  0  0  0  0  0  0
   20.4720   -0.9450   53.6740 C   0  0  0  0  0  0  0  0  0  0  0  0
   19.1240   -1.1160   53.4300 C   0  0  0  0  0  3  0  0  0  0  0  0
   21.2810   -0.2090   52.8400 C   0  0  0  0  0  0  0  0  0  0  0  0
   18.5390   -0.5400   52.3180 C   0  0  0  0  0  3  0  0  0  0  0  0
   19.3400    0.2050   51.4670 C   0  0  0  0  0  0  0  0  0  0  0  0
   18.5200    0.9030   50.0770 Cl  0  0  0  0  0  0  0  0  0  0  0  0
   20.6820    0.3460   51.7550 C   0  0  0  0  0  3  0  0  0  0  0  0
  1  3  1  0  0  0  0
  1 15  1  0  0  0  0
  2  1  1  0  0  0  0
  3  4  1  0  0  0  0
  4  5  1  0  0  0  0
  5  6  1  0  0  0  0
  7  8  2  0  0  0  0
  7  6  1  0  0  0  0
  8  9  1  0  0  0  0
 10  7  1  0  0  0  0
 10 12  1  0  0  0  0
 11 10  1  0  0  0  0
 13  8  1  0  0  0  0
 14 13  1  0  0  0  0
 15 16  1  0  0  0  0
 16 17  2  0  0  0  0
 18 17  1  0  0  0  0
 19 18  2  0  0  0  0
 20 19  1  0  0  0  0
 21 15  2  0  0  0  0
 21 19  1  0  0  0  0
 22 20  2  0  0  0  0
 23 25  2  0  0  0  0
 23 22  1  0  0  0  0
 24 23  1  0  0  0  0
 25 21  1  0  0  0  0
M  END
>  <TORSDO>
F 8

$$$$
