C:\Qe-CaDD\Project\Data\Stage_6_Molecular_Dynamics\ligands_top\out_22840_EGFR_extracted.pdbqt
 OpenBabel01082506443D

 23 23  0  0  0  0  0  0  0  0999 V2000
   21.7970   -0.9500   54.5670 N   0  0  0  0  0  0  0  0  0  0  0  0
   22.1320   -0.0720   53.8760 C   0  0  0  0  0  0  0  0  0  0  0  0
   22.5720    1.0440   53.0050 C   0  0  0  0  0  2  0  0  0  0  0  0
   24.0170    0.8750   52.6830 C   0  0  0  0  0  0  0  0  0  0  0  0
   24.7170   -0.2590   53.0660 C   0  0  0  0  0  3  0  0  0  0  0  0
   26.0730   -0.4040   52.7560 C   0  0  0  0  0  3  0  0  0  0  0  0
   26.7150    0.6060   52.0570 C   0  0  0  0  0  3  0  0  0  0  0  0
   26.0370    1.7390   51.6690 C   0  0  0  0  0  0  0  0  0  0  0  0
   24.7070    1.8440   51.9910 C   0  0  0  0  0  3  0  0  0  0  0  0
   26.6950    2.8120   50.9320 C   0  0  0  0  0  3  0  0  0  0  0  0
   26.2740    3.2110   49.7550 C   0  0  0  0  0  3  0  0  0  0  0  0
   26.8730    4.2350   49.0120 N   0  0  0  0  0  0  0  0  0  0  0  0
   26.4530    5.4730   49.0610 C   0  0  0  0  0  3  0  0  0  0  0  0
   27.0800    6.5130   48.2890 N   0  0  0  0  0  0  0  0  0  0  0  0
   26.6030    7.0910   47.5550 H   0  0  0  0  0  0  0  0  0  0  0  0
   28.4570    6.7590   48.5610 C   0  0  0  0  0  0  0  0  0  0  0  0
   29.2330    5.7920   48.8430 N   0  0  0  0  0  0  0  0  0  0  0  0
   28.9260    4.8110   48.8940 H   0  0  0  0  0  0  0  0  0  0  0  0
   29.0020    8.1590   48.5300 C   0  0  0  0  0  3  0  0  0  0  0  0
   28.1960    9.0020   49.4120 C   0  0  0  0  0  0  0  0  0  0  0  0
   27.5450    9.6800   50.1050 N   0  0  0  0  0  0  0  0  0  0  0  0
   30.4050    8.1900   48.9870 C   0  0  0  0  0  0  0  0  0  0  0  0
   31.5110    8.2220   49.3400 N   0  0  0  0  0  0  0  0  0  0  0  0
  2  1  3  0  0  0  0
  3  2  1  0  0  0  0
  4  3  1  0  0  0  0
  4  5  1  0  0  0  0
  6  5  2  0  0  0  0
  7  6  1  0  0  0  0
  8  9  1  0  0  0  0
  8  7  2  0  0  0  0
  9  4  2  0  0  0  0
 10  8  1  0  0  0  0
 11 10  2  0  0  0  0
 12 13  2  0  0  0  0
 12 11  1  0  0  0  0
 14 16  1  0  0  0  0
 14 13  1  0  0  0  0
 15 14  1  0  0  0  0
 16 17  2  0  0  0  0
 17 18  1  0  0  0  0
 19 16  1  0  0  0  0
 19 22  1  0  0  0  0
 19 20  1  0  0  0  0
 20 21  3  0  0  0  0
 22 23  3  0  0  0  0
M  END
>  <TORSDO>
F 6

$$$$
