C:\Qe-CaDD\Project\Data\Stage_6_Molecular_Dynamics\ligands_top\out_20667_EGFR_extracted.pdbqt
 OpenBabel01082506443D

 30 34  0  0  1  0  0  0  0  0999 V2000
   23.0300    0.5130   52.6070 C   0  0  1  0  0  3  0  0  0  0  0  0
   23.7590    1.1380   51.6880 C   0  0  0  0  0  3  0  0  0  0  0  0
   23.9570    2.2380   50.7340 C   0  0  0  0  0  3  0  0  0  0  0  0
   23.2120    3.2220   50.4510 N   0  0  0  0  0  4  0  0  0  0  0  0
   23.5570    4.2480   49.4610 C   0  0  1  0  0  3  0  0  0  0  0  0
   22.6930    3.4970   48.6710 N   0  0  0  0  0  2  0  0  0  0  0  0
   21.4680    3.4020   49.4530 C   0  0  0  0  0  2  0  0  0  0  0  0
   21.5710    4.0900   50.7320 C   0  0  2  0  0  0  0  0  0  0  0  0
   22.5860    4.8520   51.4490 C   0  0  1  0  0  3  0  0  0  0  0  0
   23.8080    4.9380   50.6510 N   0  0  1  0  0  0  0  0  0  0  0  0
   20.2960    4.0370   51.5280 C   0  0  0  0  0  2  0  0  0  0  0  0
   20.1710    2.9310   52.4440 C   0  0  0  0  0  3  0  0  0  0  0  0
   20.7690    1.8720   52.9060 C   0  0  0  0  0  0  0  0  0  0  0  0
   21.6980    0.7970   53.1920 C   0  0  0  0  0  0  0  0  0  0  0  0
   21.3100   -0.1140   54.1140 C   0  0  0  0  0  2  0  0  0  0  0  0
   23.7190   -0.7270   53.1250 C   0  0  0  0  0  2  0  0  0  0  0  0
   25.1650   -0.5970   53.2680 C   0  0  0  0  0  0  0  0  0  0  0  0
   25.3870    0.0350   54.5030 C   0  0  0  0  0  3  0  0  0  0  0  0
   26.6820    0.3370   54.9520 C   0  0  0  0  0  3  0  0  0  0  0  0
   27.7920    0.0080   54.1670 C   0  0  0  0  0  0  0  0  0  0  0  0
   27.5760   -0.6080   52.9650 C   0  0  0  0  0  3  0  0  0  0  0  0
   26.2980   -0.8940   52.5450 C   0  0  0  0  0  3  0  0  0  0  0  0
   29.0970    0.2760   54.5490 O   0  0  0  0  0  0  0  0  0  0  0  0
   29.5700    1.5830   54.7310 C   0  0  0  0  0  2  0  0  0  0  0  0
   28.9480    2.4880   53.6850 C   0  0  0  0  0  1  0  0  0  0  0  0
   20.0850    0.0310   54.7440 O   0  0  0  0  0  0  0  0  0  0  0  0
   19.4450    0.8160   54.6400 H   0  0  0  0  0  0  0  0  0  0  0  0
   22.3420    5.3920   52.7210 N   0  0  0  0  0  0  0  0  0  0  0  0
   22.2530    6.4280   52.8820 H   0  0  0  0  0  0  0  0  0  0  0  0
   22.2990    4.5060   53.3030 H   0  0  0  0  0  0  0  0  0  0  0  0
  1 16  1  6  0  0  0
  1 14  1  0  0  0  0
  2  1  1  0  0  0  0
  3  2  2  0  0  0  0
  4  8  1  0  0  0  0
  4  3  1  0  0  0  0
  5  6  1  1  0  0  0
  5  4  1  0  0  0  0
  5 10  1  0  0  0  0
  6  7  1  0  0  0  0
  8  7  1  6  0  0  0
  8  9  1  0  0  0  0
  8 11  1  0  0  0  0
  9 28  1  6  0  0  0
 10  4  1  1  0  0  0
 10  9  1  0  0  0  0
 11 12  1  0  0  0  0
 12 13  2  0  0  0  0
 13 14  2  0  0  0  0
 14 15  1  0  0  0  0
 15 26  1  0  0  0  0
 16 17  1  0  0  0  0
 17 18  1  0  0  0  0
 18 19  2  0  0  0  0
 20 23  1  0  0  0  0
 20 19  1  0  0  0  0
 21 20  2  0  0  0  0
 22 21  1  0  0  0  0
 22 17  2  0  0  0  0
 23 24  1  0  0  0  0
 25 24  1  0  0  0  0
 27 26  1  0  0  0  0
 28 29  1  0  0  0  0
 28 30  1  0  0  0  0
M  END
>  <TORSDO>
F 6

$$$$
