C:\Qe-CaDD\Project\Data\Stage_6_Molecular_Dynamics\ligands_top\out_22333_EGFR_extracted.pdbqt
 OpenBabel01082506443D

 32 34  0  0  1  0  0  0  0  0999 V2000
   22.3840    0.3760   53.2020 C   0  0  0  0  0  0  0  0  0  0  0  0
   23.6240    0.7860   53.3750 C   0  0  0  0  0  3  0  0  0  0  0  0
   24.8760    1.3560   52.8580 C   0  0  0  0  0  3  0  0  0  0  0  0
   25.1240    1.7040   51.6810 N   0  0  0  0  0  0  0  0  0  0  0  0
   26.2810    2.2540   51.1050 C   0  0  0  0  0  2  0  0  0  0  0  0
   26.0710    3.3300   50.4840 N   0  0  0  0  0  2  0  0  0  0  0  0
   24.8740    4.0650   50.2700 C   0  0  2  0  0  0  0  0  0  0  0  0
   24.2210    4.6090   51.4950 C   0  0  2  0  0  3  0  0  0  0  0  0
   22.9870    3.9560   51.9650 C   0  0  0  0  0  2  0  0  0  0  0  0
   21.9230    4.8530   51.7080 N   0  0  2  0  0  0  0  0  0  0  0  0
   20.8290    4.3720   50.9450 C   0  0  0  0  0  2  0  0  0  0  0  0
   20.6500    2.8870   51.0220 C   0  0  0  0  0  2  0  0  0  0  0  0
   20.3550    2.3360   52.3800 C   0  0  0  0  0  2  0  0  0  0  0  0
   20.2410    0.9760   52.3240 O   0  0  0  0  0  0  0  0  0  0  0  0
   21.3740    0.2750   52.0770 C   0  0  0  0  0  2  0  0  0  0  0  0
   22.5320    6.0430   51.2130 C   0  0  0  0  0  2  0  0  0  0  0  0
   23.8870    5.9440   51.3580 O   0  0  0  0  0  0  0  0  0  0  0  0
   23.9380    3.1810   49.4320 C   0  0  0  0  0  2  0  0  0  0  0  0
   23.3580    4.0460   48.4870 O   0  0  0  0  0  0  0  0  0  0  0  0
   23.2390    4.9090   48.9570 H   0  0  0  0  0  0  0  0  0  0  0  0
   25.1030    5.2220   49.3840 N   0  0  0  0  0  0  0  0  0  0  0  0
   24.2980    5.7820   48.9660 H   0  0  0  0  0  0  0  0  0  0  0  0
   26.3770    5.6950   49.0090 C   0  0  0  0  0  0  0  0  0  0  0  0
   27.4400    4.9070   48.6280 C   0  0  0  0  0  3  0  0  0  0  0  0
   28.6920    5.3490   48.2680 C   0  0  0  0  0  3  0  0  0  0  0  0
   28.9400    6.6910   48.2780 C   0  0  0  0  0  0  0  0  0  0  0  0
   30.1580    7.1720   47.9320 F   0  0  0  0  0  0  0  0  0  0  0  0
   27.9220    7.5400   48.6510 C   0  0  0  0  0  0  0  0  0  0  0  0
   28.1800    9.2700   48.6830 Cl  0  0  0  0  0  0  0  0  0  0  0  0
   26.6880    7.0380   49.0010 C   0  0  0  0  0  3  0  0  0  0  0  0
   21.5620   -0.1760   54.3370 C   0  0  0  0  0  2  0  0  0  0  0  0
   21.7900   -1.6650   54.5450 C   0  0  0  0  0  1  0  0  0  0  0  0
  1  2  2  0  0  0  0
  1 31  1  0  0  0  0
  3  2  1  0  0  0  0
  4  3  2  0  0  0  0
  5  4  1  0  0  0  0
  6  5  1  0  0  0  0
  7 18  1  6  0  0  0
  7  6  1  0  0  0  0
  7  8  1  0  0  0  0
  8  9  1  6  0  0  0
 10 11  1  6  0  0  0
 10  9  1  0  0  0  0
 11 12  1  0  0  0  0
 12 13  1  0  0  0  0
 14 13  1  0  0  0  0
 15 14  1  0  0  0  0
 15  1  1  0  0  0  0
 16 17  1  0  0  0  0
 16 10  1  0  0  0  0
 17  8  1  0  0  0  0
 19 20  1  0  0  0  0
 19 18  1  0  0  0  0
 21  7  1  0  0  0  0
 22 21  1  0  0  0  0
 23 21  1  0  0  0  0
 24 23  2  0  0  0  0
 25 26  2  0  0  0  0
 25 24  1  0  0  0  0
 26 28  1  0  0  0  0
 27 26  1  0  0  0  0
 28 29  1  0  0  0  0
 28 30  2  0  0  0  0
 30 23  1  0  0  0  0
 31 32  1  0  0  0  0
M  END
>  <TORSDO>
F 5

$$$$
