C:\Qe-CaDD\Project\Data\Stage_6_Molecular_Dynamics\ligands_top\out_14256_EGFR_extracted.pdbqt
 OpenBabel01082506443D

 30 32  0  0  0  0  0  0  0  0999 V2000
   26.5450    6.3230   49.0040 C   0  0  0  0  0  0  0  0  0  0  0  0
   27.6890    5.9220   48.1500 C   0  0  0  0  0  3  0  0  0  0  0  0
   28.8030    6.4810   47.7730 C   0  0  0  0  0  3  0  0  0  0  0  0
   29.1260    7.8890   48.2660 C   0  0  0  0  0  0  0  0  0  0  0  0
   30.3690    7.8430   48.9720 N   0  0  0  0  0  2  0  0  0  0  0  0
   31.1560    8.6740   49.4390 C   0  0  0  0  0  2  0  0  0  0  0  0
   30.7390    9.9740   49.2600 C   0  0  0  0  0  0  0  0  0  0  0  0
   30.5190   11.2290   49.1740 C   0  0  0  0  0  0  0  0  0  0  0  0
   29.8520   12.4380   48.8770 C   0  0  0  0  0  3  0  0  0  0  0  0
   28.6970   12.7450   48.3690 C   0  0  0  0  0  3  0  0  0  0  0  0
   27.7440   11.7610   47.9310 N   0  0  0  0  0  0  0  0  0  0  0  0
   27.6420   10.7360   48.9880 C   0  0  0  0  0  2  0  0  0  0  0  0
   27.6490    9.6260   49.6720 N   0  0  0  0  0  2  0  0  0  0  0  0
   28.0040    8.3970   49.0400 C   0  0  0  0  0  0  0  0  0  0  0  0
   26.8560    7.7510   49.3790 C   0  0  0  0  0  3  0  0  0  0  0  0
   27.0650   11.0590   47.6230 H   0  0  0  0  0  0  0  0  0  0  0  0
   26.3560    5.4740   50.1290 N   0  0  0  0  0  0  0  0  0  0  0  0
   25.3790    4.4600   50.1250 C   0  0  0  0  0  0  0  0  0  0  0  0
   24.7470    4.4200   49.0270 O   0  0  0  0  0  0  0  0  0  0  0  0
   26.8980    5.4980   51.0100 H   0  0  0  0  0  0  0  0  0  0  0  0
   24.8420    3.4140   50.9950 C   0  0  0  0  0  2  0  0  0  0  0  0
   25.6660    2.8640   51.9300 O   0  0  0  0  0  0  0  0  0  0  0  0
   26.7850    2.2270   51.4610 C   0  0  0  0  0  2  0  0  0  0  0  0
   27.3910    1.5410   52.6240 N   0  0  0  0  0  0  0  0  0  0  0  0
   27.0490    0.2400   53.0760 C   0  0  0  0  0  0  0  0  0  0  0  0
   26.4970   -0.5440   52.1370 C   0  0  0  0  0  2  0  0  0  0  0  0
   27.3730    0.0600   54.5110 C   0  0  0  0  0  2  0  0  0  0  0  0
   28.8370    0.4070   54.6630 C   0  0  0  0  0  2  0  0  0  0  0  0
   29.1210    1.8360   54.3670 C   0  0  0  0  0  2  0  0  0  0  0  0
   28.3770    2.4200   53.2060 C   0  0  0  0  0  2  0  0  0  0  0  0
  1 15  1  0  0  0  0
  1 17  1  0  0  0  0
  2  1  2  0  0  0  0
  3  2  1  0  0  0  0
  3  4  2  0  0  0  0
  4  5  1  0  0  0  0
  4 14  1  0  0  0  0
  5  6  1  0  0  0  0
  7  6  1  0  0  0  0
  8  7  3  0  0  0  0
  9  8  1  0  0  0  0
 10  9  2  0  0  0  0
 11 10  1  0  0  0  0
 11 12  1  0  0  0  0
 12 13  1  0  0  0  0
 14 15  2  0  0  0  0
 14 13  1  0  0  0  0
 16 11  1  0  0  0  0
 17 20  1  0  0  0  0
 18 17  1  0  0  0  0
 18 21  1  0  0  0  0
 19 18  2  0  0  0  0
 21 22  1  0  0  0  0
 23 22  1  0  0  0  0
 23 24  1  0  0  0  0
 24 25  1  0  0  0  0
 24 30  1  0  0  0  0
 25 27  1  0  0  0  0
 26 25  2  0  0  0  0
 27 28  1  0  0  0  0
 29 28  1  0  0  0  0
 30 29  1  0  0  0  0
M  END
>  <TORSDO>
F 5

$$$$
