C:\Qe-CaDD\Project\Data\Stage_6_Molecular_Dynamics\ligands_top\out_19976_EGFR_extracted.pdbqt
 OpenBabel01082506443D

 27 33  0  0  1  0  0  0  0  0999 V2000
   23.1270    0.3570   52.5820 C   0  0  1  0  0  0  0  0  0  0  0  0
   24.5200    0.0740   52.4150 C   0  0  1  0  0  3  0  0  0  0  0  0
   25.4640   -0.4750   53.4150 N   0  0  0  0  0  0  0  0  0  0  0  0
   24.8240   -0.9940   54.6510 N   0  0  2  0  0  4  0  0  0  0  0  0
   23.3990   -1.2490   55.3170 C   0  0  2  0  0  3  0  0  0  0  0  0
   22.2270   -1.2390   55.4640 N   0  0  0  0  0  0  0  0  0  0  0  0
   21.4270   -0.6250   54.5160 C   0  0  0  0  0  3  0  0  0  0  0  0
   21.9970   -0.0080   53.3690 C   0  0  2  0  0  3  0  0  0  0  0  0
   23.4300   -0.4160   53.8750 S   0  0  0  0  0  5  0  0  0  0  0  0
   25.2520   -1.4130   55.5700 H   0  0  0  0  0  0  0  0  0  0  0  0
   26.9200   -0.6660   53.5430 C   0  0  0  0  0  0  0  0  0  0  0  0
   27.4560   -1.7310   52.8570 C   0  0  0  0  0  3  0  0  0  0  0  0
   28.8150   -1.8560   53.0290 C   0  0  0  0  0  3  0  0  0  0  0  0
   29.4860   -0.9550   53.8300 C   0  0  0  0  0  0  0  0  0  0  0  0
   30.8440   -1.0550   54.0230 F   0  0  0  0  0  0  0  0  0  0  0  0
   28.8890    0.0890   54.4900 C   0  0  0  0  0  3  0  0  0  0  0  0
   27.5330    0.2520   54.3450 C   0  0  0  0  0  0  0  0  0  0  0  0
   26.8490    1.2800   54.9760 O   0  0  0  0  0  0  0  0  0  0  0  0
   25.9320    1.4920   54.5640 H   0  0  0  0  0  0  0  0  0  0  0  0
   22.9500    1.9030   52.4660 C   0  0  0  0  0  0  0  0  0  0  0  0
   23.8430    2.9110   52.7500 C   0  0  0  0  0  3  0  0  0  0  0  0
   23.4250    4.2000   52.5600 C   0  0  0  0  0  3  0  0  0  0  0  0
   22.1760    4.5260   52.1060 C   0  0  0  0  0  0  0  0  0  0  0  0
   21.3040    3.4960   51.8300 C   0  0  0  0  0  3  0  0  0  0  0  0
   21.6720    2.1770   52.0030 C   0  0  0  0  0  3  0  0  0  0  0  0
   21.9710    5.8820   51.9900 O   0  0  0  0  0  0  0  0  0  0  0  0
   21.5950    6.4280   50.7520 C   0  0  0  0  0  1  0  0  0  0  0  0
  1 20  1  1  0  0  0
  1  8  1  0  0  0  0
  1  9  1  0  0  0  0
  2  1  1  0  0  0  0
  2  3  1  1  0  0  0
  2  9  1  0  0  0  0
  3 11  1  0  0  0  0
  3  4  1  0  0  0  0
  4  5  1  0  0  0  0
  4 10  1  1  0  0  0
  5  6  1  6  0  0  0
  7  6  2  0  0  0  0
  8  9  1  0  0  0  0
  8  7  1  1  0  0  0
  9  4  1  0  0  0  0
  9  5  1  0  0  0  0
 11 17  1  0  0  0  0
 12 13  1  0  0  0  0
 12 11  2  0  0  0  0
 13 14  2  0  0  0  0
 14 15  1  0  0  0  0
 14 16  1  0  0  0  0
 17 16  2  0  0  0  0
 17 18  1  0  0  0  0
 19 18  1  0  0  0  0
 20 21  1  0  0  0  0
 22 21  2  0  0  0  0
 23 22  1  0  0  0  0
 24 25  1  0  0  0  0
 24 23  2  0  0  0  0
 25 20  2  0  0  0  0
 26 23  1  0  0  0  0
 27 26  1  0  0  0  0
M  END
>  <TORSDO>
F 4

$$$$
