C:\Qe-CaDD\Project\Data\Stage_6_Molecular_Dynamics\ligands_top\out_14067_EGFR_extracted.pdbqt
 OpenBabel01082506443D

 24 26  0  0  1  0  0  0  0  0999 V2000
   29.6340    0.1660   53.7890 C   0  0  0  0  0  3  0  0  0  0  0  0
   28.4970    0.7370   54.1570 C   0  0  0  0  0  0  0  0  0  0  0  0
   27.3870   -0.0050   54.7610 C   0  0  0  0  0  2  0  0  0  0  0  0
   26.0780    0.3980   54.1310 C   0  0  0  0  0  0  0  0  0  0  0  0
   24.9050   -0.1630   54.0430 C   0  0  0  0  0  2  0  0  0  0  0  0
   23.9890    0.7090   53.2950 C   0  0  0  0  0  0  0  0  0  0  0  0
   24.6010    1.8290   52.9120 C   0  0  0  0  0  3  0  0  0  0  0  0
   25.9500    1.6650   53.4330 C   0  0  0  0  0  0  0  0  0  0  0  0
   27.0150    2.4490   53.3710 C   0  0  0  0  0  2  0  0  0  0  0  0
   28.3660    2.2000   53.9360 C   0  0  2  0  0  3  0  0  0  0  0  0
   22.5880    0.4080   52.9990 C   0  0  0  0  0  0  0  0  0  0  0  0
   21.7850   -0.0770   54.0120 C   0  0  0  0  0  3  0  0  0  0  0  0
   20.4650   -0.3550   53.7130 C   0  0  0  0  0  3  0  0  0  0  0  0
   19.9360   -0.1630   52.4380 C   0  0  0  0  0  0  0  0  0  0  0  0
   20.7540    0.3260   51.4250 C   0  0  0  0  0  3  0  0  0  0  0  0
   22.0900    0.6090   51.7270 C   0  0  0  0  0  3  0  0  0  0  0  0
   18.2490   -0.5120   52.0300 S   0  0  2  0  0  0  0  0  0  0  0  0
   17.5130    0.7850   51.7340 O   0  0  0  0  0  0  0  0  0  0  0  0
   17.4690   -1.2800   53.4580 C   0  0  0  0  0  2  0  0  0  0  0  0
   17.7650   -2.7550   53.4570 C   0  0  0  0  0  1  0  0  0  0  0  0
   29.3530    2.6830   53.0830 O   0  0  0  0  0  0  0  0  0  0  0  0
   30.1120    2.0280   53.0750 H   0  0  0  0  0  0  0  0  0  0  0  0
   30.0130   -1.2680   53.9000 C   0  0  0  0  0  2  0  0  0  0  0  0
   29.0130   -2.0150   53.0120 C   0  0  0  0  0  1  0  0  0  0  0  0
  1 23  1  0  0  0  0
  1  2  2  0  0  0  0
  2  3  1  0  0  0  0
  4  3  1  0  0  0  0
  5  4  1  0  0  0  0
  6  5  1  0  0  0  0
  7  6  2  0  0  0  0
  7  8  1  0  0  0  0
  8  4  2  0  0  0  0
  9  8  1  0  0  0  0
  9 10  1  0  0  0  0
 10 21  1  6  0  0  0
 10  2  1  0  0  0  0
 11  6  1  0  0  0  0
 11 12  1  0  0  0  0
 13 12  2  0  0  0  0
 14 13  1  0  0  0  0
 15 16  1  0  0  0  0
 15 14  2  0  0  0  0
 16 11  2  0  0  0  0
 17 18  2  1  0  0  0
 17 14  1  0  0  0  0
 17 19  1  0  0  0  0
 20 19  1  0  0  0  0
 22 21  1  0  0  0  0
 24 23  1  0  0  0  0
M  END
>  <TORSDO>
F 5

$$$$
