C:\Qe-CaDD\Project\Data\Stage_6_Molecular_Dynamics\ligands_top\out_22864_EGFR_extracted.pdbqt
 OpenBabel01082506443D

 30 32  0  0  1  0  0  0  0  0999 V2000
   26.8710    7.0300   48.2110 C   0  0  0  0  0  0  0  0  0  0  0  0
   27.9770    6.2510   48.1190 C   0  0  0  0  0  3  0  0  0  0  0  0
   27.9330    4.9680   48.5970 C   0  0  0  0  0  3  0  0  0  0  0  0
   26.8100    4.4430   49.1670 C   0  0  0  0  0  0  0  0  0  0  0  0
   25.6080    5.1820   49.3070 C   0  0  0  0  0  0  0  0  0  0  0  0
   25.7250    6.4880   48.7950 C   0  0  0  0  0  3  0  0  0  0  0  0
   24.2100    5.0180   49.8210 C   0  0  1  0  0  3  0  0  0  0  0  0
   24.1570    3.8310   50.7820 C   0  0  0  0  0  2  0  0  0  0  0  0
   22.7770    3.5430   51.3110 C   0  0  1  0  0  3  0  0  0  0  0  0
   21.0390    3.5040   51.1810 Cl  0  0  0  0  0  0  0  0  0  0  0  0
   23.0100    2.9800   52.5030 C   0  0  0  0  0  2  0  0  0  0  0  0
   23.8030    1.9060   52.4400 C   0  0  0  0  0  2  0  0  0  0  0  0
   25.2050    2.0070   52.1520 N   0  0  0  0  0  0  0  0  0  0  0  0
   26.6110    2.0880   51.8190 N   0  0  0  0  0  0  0  0  0  0  0  0
   26.7860    3.2410   51.0110 N   0  0  0  0  0  2  0  0  0  0  0  0
   26.5800    3.1200   49.7110 C   0  0  0  0  0  2  0  0  0  0  0  0
   25.4330    2.4890   53.0840 H   0  0  0  0  0  0  0  0  0  0  0  0
   27.3660    1.0430   52.3550 C   0  0  0  0  0  0  0  0  0  0  0  0
   27.1160   -0.3220   52.3550 C   0  0  0  0  0  3  0  0  0  0  0  0
   27.9610   -1.2160   52.9470 C   0  0  0  0  0  3  0  0  0  0  0  0
   29.1050   -0.7670   53.5710 C   0  0  0  0  0  0  0  0  0  0  0  0
   30.1560   -1.9660   54.3180 Cl  0  0  0  0  0  0  0  0  0  0  0  0
   29.3950    0.5900   53.5940 C   0  0  0  0  0  3  0  0  0  0  0  0
   28.5200    1.4840   52.9840 C   0  0  0  0  0  0  0  0  0  0  0  0
   28.9120    2.8040   53.0740 O   0  0  0  0  0  0  0  0  0  0  0  0
   28.4950    3.5100   52.4770 H   0  0  0  0  0  0  0  0  0  0  0  0
   23.7750    6.2400   50.5490 C   0  0  0  0  0  3  0  0  0  0  0  0
   22.8450    7.0130   50.7880 O   0  0  0  0  0  0  0  0  0  0  0  0
   26.9530    8.3100   47.7190 O   0  0  0  0  0  0  0  0  0  0  0  0
   28.0640    9.1270   47.9600 C   0  0  0  0  0  1  0  0  0  0  0  0
  1  6  1  0  0  0  0
  2  1  2  0  0  0  0
  2  3  1  0  0  0  0
  3  4  2  0  0  0  0
  4  5  1  0  0  0  0
  4 16  1  0  0  0  0
  5  7  1  0  0  0  0
  6  5  2  0  0  0  0
  7 27  1  1  0  0  0
  7  8  1  0  0  0  0
  8  9  1  0  0  0  0
  9 10  1  6  0  0  0
  9 11  1  0  0  0  0
 12 11  1  0  0  0  0
 13 12  1  0  0  0  0
 13 17  1  0  0  0  0
 14 13  1  0  0  0  0
 14 18  1  0  0  0  0
 15 14  1  0  0  0  0
 16 15  1  0  0  0  0
 18 19  2  0  0  0  0
 18 24  1  0  0  0  0
 19 20  1  0  0  0  0
 20 21  2  0  0  0  0
 21 23  1  0  0  0  0
 21 22  1  0  0  0  0
 24 25  1  0  0  0  0
 24 23  2  0  0  0  0
 26 25  1  0  0  0  0
 27 28  2  0  0  0  0
 29 30  1  0  0  0  0
 29  1  1  0  0  0  0
M  END
>  <TORSDO>
F 4

$$$$
