C:\Qe-CaDD\Project\Data\Stage_6_Molecular_Dynamics\ligands_top\out_11936_EGFR_extracted.pdbqt
 OpenBabel01082506443D

 30 32  0  0  1  0  0  0  0  0999 V2000
   24.9440    3.4800   50.3960 C   0  0  1  0  0  3  0  0  0  0  0  0
   24.3020    3.1040   49.2630 O   0  0  0  0  0  0  0  0  0  0  0  0
   23.2530    3.7200   48.7310 C   0  0  0  0  0  2  0  0  0  0  0  0
   21.9500    3.7060   49.4670 C   0  0  0  0  0  3  0  0  0  0  0  0
   21.8130    4.3360   50.7720 C   0  0  0  0  0  3  0  0  0  0  0  0
   20.5320    4.1760   51.4480 N   0  0  0  0  0  0  0  0  0  0  0  0
   19.4360    3.7990   50.6080 C   0  0  0  0  0  2  0  0  0  0  0  0
   18.4660    2.8620   51.3600 C   0  0  0  0  0  2  0  0  0  0  0  0
   19.1430    1.7090   51.8490 O   0  0  0  0  0  0  0  0  0  0  0  0
   20.5350    1.8800   51.9830 C   0  0  0  0  0  0  0  0  0  0  0  0
   21.4360    1.0210   51.6580 N   0  0  0  0  0  0  0  0  0  0  0  0
   22.8290    1.1840   51.7860 C   0  0  0  0  0  2  0  0  0  0  0  0
   23.9100    1.6190   51.5940 N   0  0  0  0  0  2  0  0  0  0  0  0
   25.0730    2.2120   51.2690 C   0  0  2  0  0  3  0  0  0  0  0  0
   20.6870    3.2500   52.5710 C   0  0  0  0  0  2  0  0  0  0  0  0
   25.9470    2.5170   52.4160 N   0  0  0  0  0  0  0  0  0  0  0  0
   25.9930    3.3550   53.0490 H   0  0  0  0  0  0  0  0  0  0  0  0
   26.9220    1.5400   52.7950 C   0  0  0  0  0  0  0  0  0  0  0  0
   28.1150    1.8630   53.4090 C   0  0  0  0  0  3  0  0  0  0  0  0
   29.0730    0.9420   53.7760 C   0  0  0  0  0  3  0  0  0  0  0  0
   28.8530   -0.3970   53.5280 C   0  0  0  0  0  0  0  0  0  0  0  0
   29.7790   -1.3160   53.8810 F   0  0  0  0  0  0  0  0  0  0  0  0
   27.6820   -0.7830   52.9170 C   0  0  0  0  0  0  0  0  0  0  0  0
   27.3910   -2.4710   52.5970 Cl  0  0  0  0  0  0  0  0  0  0  0  0
   26.7870    0.1830   52.5840 C   0  0  0  0  0  3  0  0  0  0  0  0
   26.4410    3.7730   50.0570 C   0  0  0  0  0  2  0  0  0  0  0  0
   26.6030    5.1630   49.6580 N   0  0  0  0  0  0  0  0  0  0  0  0
   26.2210    6.0610   50.0350 H   0  0  0  0  0  0  0  0  0  0  0  0
   27.4570    5.3290   48.5230 C   0  0  0  0  0  3  0  0  0  0  0  0
   28.6170    4.8530   48.4470 O   0  0  0  0  0  0  0  0  0  0  0  0
  1 26  1  6  0  0  0
  1 14  1  0  0  0  0
  2  1  1  0  0  0  0
  3  2  1  0  0  0  0
  3  4  1  0  0  0  0
  4  5  2  0  0  0  0
  5  6  1  0  0  0  0
  6 15  1  0  0  0  0
  7  8  1  0  0  0  0
  7  6  1  0  0  0  0
  8  9  1  0  0  0  0
  9 10  1  0  0  0  0
 10 15  1  0  0  0  0
 11 12  1  0  0  0  0
 11 10  2  0  0  0  0
 13 12  1  0  0  0  0
 14 13  1  0  0  0  0
 14 16  1  1  0  0  0
 16 18  1  0  0  0  0
 16 17  1  0  0  0  0
 18 19  1  0  0  0  0
 19 20  2  0  0  0  0
 21 20  1  0  0  0  0
 21 22  1  0  0  0  0
 23 21  2  0  0  0  0
 24 23  1  0  0  0  0
 25 18  2  0  0  0  0
 25 23  1  0  0  0  0
 27 28  1  0  0  0  0
 27 26  1  0  0  0  0
 29 27  1  0  0  0  0
 30 29  2  0  0  0  0
M  END
>  <TORSDO>
F 5

$$$$
