C:\Qe-CaDD\Project\Data\Stage_6_Molecular_Dynamics\ligands_top\out_20810_EGFR_extracted.pdbqt
 OpenBabel01082506443D

 28 30  0  0  0  0  0  0  0  0999 V2000
   24.9200    5.0610   50.0280 C   0  0  0  0  0  0  0  0  0  0  0  0
   23.9270    5.4990   50.8200 N   0  0  0  0  0  0  0  0  0  0  0  0
   23.8160    6.7740   51.2160 C   0  0  0  0  0  3  0  0  0  0  0  0
   24.7220    7.7140   50.8270 N   0  0  0  0  0  0  0  0  0  0  0  0
   25.7410    7.3470   50.0330 C   0  0  0  0  0  0  0  0  0  0  0  0
   26.6450    8.3150   49.6530 C   0  0  0  0  0  3  0  0  0  0  0  0
   27.6810    7.9090   48.8380 C   0  0  0  0  0  0  0  0  0  0  0  0
   27.8200    6.6030   48.4160 C   0  0  0  0  0  0  0  0  0  0  0  0
   26.8710    5.6920   48.8410 C   0  0  0  0  0  3  0  0  0  0  0  0
   25.8260    6.0260   49.6440 C   0  0  0  0  0  0  0  0  0  0  0  0
   24.9890    3.7100   49.6430 N   0  0  0  0  0  0  0  0  0  0  0  0
   24.8630    3.3140   48.7090 H   0  0  0  0  0  0  0  0  0  0  0  0
   25.2690    2.7520   50.6690 C   0  0  0  0  0  0  0  0  0  0  0  0
   24.0240    1.7370   51.3770 P   0  0  0  0  0  0  0  0  0  0  0  0
   24.6710    0.6730   52.6000 C   0  0  0  0  0  0  0  0  0  0  0  0
   26.0250    0.7680   52.8380 C   0  0  0  0  0  0  0  0  0  0  0  0
   26.8510    1.6390   52.1690 C   0  0  0  0  0  0  0  0  0  0  0  0
   26.5250    2.5290   51.1990 C   0  0  0  0  0  3  0  0  0  0  0  0
   23.6900   -0.1260   53.1570 O   0  0  0  0  0  0  0  0  0  0  0  0
   22.3800    0.2080   53.4600 C   0  0  0  0  0  1  0  0  0  0  0  0
   26.4690   -0.1130   53.8280 O   0  0  0  0  0  0  0  0  0  0  0  0
   26.3820    0.1960   55.2040 C   0  0  0  0  0  1  0  0  0  0  0  0
   28.1710    1.5410   52.5910 O   0  0  0  0  0  0  0  0  0  0  0  0
   28.6460    2.5340   53.4750 C   0  0  0  0  0  1  0  0  0  0  0  0
   28.8690    6.2330   47.6020 O   0  0  0  0  0  0  0  0  0  0  0  0
   29.9960    5.5780   48.1390 C   0  0  0  0  0  1  0  0  0  0  0  0
   28.6300    8.8580   48.4220 O   0  0  0  0  0  0  0  0  0  0  0  0
   29.6510    9.2640   49.3140 C   0  0  0  0  0  1  0  0  0  0  0  0
  1  2  1  0  0  0  0
  2  3  2  0  0  0  0
  4  3  1  0  0  0  0
  5  4  2  0  0  0  0
  6  5  1  0  0  0  0
  7  6  2  0  0  0  0
  8  7  1  0  0  0  0
  8  9  2  0  0  0  0
  9 10  1  0  0  0  0
 10  1  2  0  0  0  0
 10  5  1  0  0  0  0
 11  1  1  0  0  0  0
 11 13  1  0  0  0  0
 12 11  1  0  0  0  0
 13 18  2  0  0  0  0
 13 14  1  0  0  0  0
 14 15  2  0  0  0  0
 15 16  1  0  0  0  0
 15 19  1  0  0  0  0
 16 21  1  0  0  0  0
 17 23  1  0  0  0  0
 17 16  2  0  0  0  0
 18 17  1  0  0  0  0
 19 20  1  0  0  0  0
 21 22  1  0  0  0  0
 23 24  1  0  0  0  0
 25 26  1  0  0  0  0
 25  8  1  0  0  0  0
 27  7  1  0  0  0  0
 27 28  1  0  0  0  0
M  END
>  <TORSDO>
F 7

$$$$
