C:\Qe-CaDD\Project\Data\Stage_6_Molecular_Dynamics\ligands_top\out_11924_EGFR_extracted.pdbqt
 OpenBabel01082506443D

 28 31  0  0  1  0  0  0  0  0999 V2000
   21.6270    1.0040   52.3650 C   0  0  1  0  0  3  0  0  0  0  0  0
   21.3510    2.4940   52.3330 C   0  0  0  0  0  2  0  0  0  0  0  0
   22.4340    3.2390   52.0850 O   0  0  0  0  0  0  0  0  0  0  0  0
   23.0840    3.2160   50.8940 C   0  0  1  0  0  0  0  0  0  0  0  0
   23.2020    4.5800   50.5260 O   0  0  0  0  0  0  0  0  0  0  0  0
   24.3750    5.1510   50.1760 C   0  0  0  0  0  3  0  0  0  0  0  0
   25.5590    4.5660   50.1780 C   0  0  0  0  0  3  0  0  0  0  0  0
   25.5220    3.1490   50.6090 C   0  0  0  0  0  3  0  0  0  0  0  0
   24.3780    2.5010   50.9580 C   0  0  0  0  0  0  0  0  0  0  0  0
   25.0340    1.2510   51.3020 N   0  0  0  0  0  0  0  0  0  0  0  0
   25.5110    0.9930   52.6180 C   0  0  0  0  0  0  0  0  0  0  0  0
   26.5800    1.7930   52.5360 N   0  0  0  0  0  0  0  0  0  0  0  0
   27.5500    1.9990   53.4440 C   0  0  0  0  0  3  0  0  0  0  0  0
   27.4840    1.3310   54.6120 N   0  0  0  0  0  0  0  0  0  0  0  0
   26.4190    0.5160   54.7320 C   0  0  0  0  0  3  0  0  0  0  0  0
   25.4200    0.2850   53.8400 C   0  0  0  0  0  0  0  0  0  0  0  0
   24.4040   -0.6710   54.2660 C   0  0  0  0  0  3  0  0  0  0  0  0
   23.0890   -0.4640   54.0770 C   0  0  0  0  0  0  0  0  0  0  0  0
   22.1750   -1.4970   54.5500 C   0  0  0  0  0  1  0  0  0  0  0  0
   22.4930    0.6450   53.4620 N   0  0  0  0  0  0  0  0  0  0  0  0
   25.1390    0.6240   50.4930 H   0  0  0  0  0  0  0  0  0  0  0  0
   22.9460    1.3050   54.1500 H   0  0  0  0  0  0  0  0  0  0  0  0
   20.5360    0.2310   52.2450 O   0  0  0  0  0  0  0  0  0  0  0  0
   19.6020    0.5550   51.3060 C   0  0  0  0  0  2  0  0  0  0  0  0
   18.3390   -0.2130   51.5380 C   0  0  0  0  0  1  0  0  0  0  0  0
   22.2930    2.6120   49.7260 C   0  0  0  0  0  3  0  0  0  0  0  0
   21.6670    3.4740   48.7090 C   0  0  0  0  0  2  0  0  0  0  0  0
   22.9440    2.8310   48.3190 C   0  0  0  0  0  2  0  0  0  0  0  0
  1 23  1  1  0  0  0
  1 20  1  0  0  0  0
  2  1  1  0  0  0  0
  3  2  1  0  0  0  0
  4 26  1  6  0  0  0
  4  9  1  0  0  0  0
  4  3  1  0  0  0  0
  5  4  1  0  0  0  0
  6  7  2  0  0  0  0
  6  5  1  0  0  0  0
  7  8  1  0  0  0  0
  8  9  2  0  0  0  0
  9 10  1  0  0  0  0
 10 11  1  0  0  0  0
 11 16  1  0  0  0  0
 12 11  2  0  0  0  0
 12 13  1  0  0  0  0
 13 14  2  0  0  0  0
 14 15  1  0  0  0  0
 16 17  1  0  0  0  0
 16 15  2  0  0  0  0
 18 17  2  0  0  0  0
 18 19  1  0  0  0  0
 20 18  1  0  0  0  0
 20 22  1  0  0  0  0
 21 10  1  0  0  0  0
 24 25  1  0  0  0  0
 24 23  1  0  0  0  0
 27 26  1  0  0  0  0
 28 27  1  0  0  0  0
 28 26  1  0  0  0  0
M  END
>  <TORSDO>
F 3

$$$$
