C:\Qe-CaDD\Project\Data\Stage_6_Molecular_Dynamics\ligands_top\out_12161_EGFR_extracted.pdbqt
 OpenBabel01082506443D

 22 21  0  0  1  0  0  0  0  0999 V2000
   24.9900   -0.4910   53.8700 C   0  0  0  0  0  3  0  0  0  0  0  0
   24.3360   -0.9280   54.9160 C   0  0  0  0  0  3  0  0  0  0  0  0
   24.9180   -1.1430   56.1880 N   0  0  0  0  0 15  0  0  0  0  0  0
   25.4100   -1.2670   57.4230 F   0  0  0  0  0  0  0  0  0  0  0  0
   24.9300   -0.7820   57.1900 H   0  0  0  0  0  0  0  0  0  0  0  0
   22.9200   -1.2010   54.7410 C   0  0  0  0  0  0  0  0  0  0  0  0
   22.6670   -2.0170   55.6880 O   0  0  0  0  0  0  0  0  0  0  0  0
   21.9220   -0.7570   53.8050 C   0  0  0  0  0  0  0  0  0  0  0  0
   22.0720   -0.1550   52.5810 C   0  0  0  0  0  3  0  0  0  0  0  0
   21.0480    0.2320   51.7620 C   0  0  0  0  0  3  0  0  0  0  0  0
   19.7800   -0.0180   52.2320 C   0  0  0  0  0  3  0  0  0  0  0  0
   19.5540   -0.6120   53.4390 C   0  0  0  0  0  3  0  0  0  0  0  0
   20.6190   -0.9740   54.2080 C   0  0  0  0  0  3  0  0  0  0  0  0
   26.3860   -0.1290   53.7200 C   0  0  0  0  0  0  0  0  0  0  0  0
   27.0690    1.1830   53.9130 C   0  0  1  0  0  3  0  0  0  0  0  0
   28.0160    0.9810   54.9450 O   0  0  0  0  0  0  0  0  0  0  0  0
   29.3090    0.8970   54.4250 C   0  0  0  0  0  2  0  0  0  0  0  0
   29.4910   -0.3080   53.5860 C   0  0  0  0  0  3  0  0  0  0  0  0
   28.6470   -1.2250   53.0830 C   0  0  0  0  0  3  0  0  0  0  0  0
   27.2150   -1.1310   53.3440 C   0  0  0  0  0  3  0  0  0  0  0  0
   27.8190    1.5260   52.7790 O   0  0  0  0  0  0  0  0  0  0  0  0
   27.0450    2.1930   51.8370 C   0  0  0  0  0  1  0  0  0  0  0  0
  1  2  2  0  0  0  0
  5  4  1  0  0  0  0
  6  2  1  0  0  0  0
  6  7  2  0  0  0  0
  8 13  1  0  0  0  0
  8  6  1  0  0  0  0
  9  8  2  0  0  0  0
 10 11  2  0  0  0  0
 10  9  1  0  0  0  0
 11 12  1  0  0  0  0
 12 13  2  0  0  0  0
 14  1  1  0  0  0  0
 14 15  1  0  0  0  0
 15 21  1  6  0  0  0
 15 16  1  0  0  0  0
 17 16  1  0  0  0  0
 18 17  1  0  0  0  0
 19 20  1  0  0  0  0
 19 18  2  0  0  0  0
 20 14  2  0  0  0  0
 22 21  1  0  0  0  0
M  END
>  <TORSDO>
F 5

$$$$
