C:\Qe-CaDD\Project\Data\Stage_6_Molecular_Dynamics\ligands_top\out_20231_EGFR_extracted.pdbqt
 OpenBabel01082506443D

 28 29  0  0  1  0  0  0  0  0999 V2000
   22.6560    2.6910   48.8230 C   0  0  1  0  0  3  0  0  0  0  0  0
   22.7150    3.7930   48.0940 C   0  0  0  0  0  2  0  0  0  0  0  0
   23.5120    4.8090   48.8750 C   0  0  0  0  0  2  0  0  0  0  0  0
   24.5210    3.9400   49.4830 C   0  0  1  0  0  3  0  0  0  0  0  0
   25.8090    3.7740   49.6330 C   0  0  0  0  0  0  0  0  0  0  0  0
   23.4320    3.0810   50.0430 C   0  0  1  0  0  3  0  0  0  0  0  0
   26.6980    4.7880   48.9850 C   0  0  0  0  0  2  0  0  0  0  0  0
   26.7130    6.0470   49.7030 N   0  0  0  0  0  0  0  0  0  0  0  0
   25.7800    6.2000   50.1600 H   0  0  0  0  0  0  0  0  0  0  0  0
   26.8200    6.8700   49.0520 H   0  0  0  0  0  0  0  0  0  0  0  0
   26.6370    2.8600   50.2600 N   0  0  0  0  0  4  0  0  0  0  0  0
   27.1290    2.4720   49.4280 H   0  0  0  0  0  0  0  0  0  0  0  0
   26.8650    2.4590   51.6130 C   0  0  0  0  0  2  0  0  0  0  0  0
   26.5130    1.0190   51.8310 C   0  0  0  0  0  3  0  0  0  0  0  0
   27.1730    0.1490   52.5780 C   0  0  0  0  0  0  0  0  0  0  0  0
   28.3930    0.3710   53.3640 C   0  0  0  0  0  1  0  0  0  0  0  0
   26.5710   -1.2340   52.6000 C   0  0  0  0  0  2  0  0  0  0  0  0
   25.8660   -1.3780   53.7650 F   0  0  0  0  0  0  0  0  0  0  0  0
   22.7100    3.8690   50.8930 O   0  0  0  0  0  0  0  0  0  0  0  0
   22.1670    3.2980   52.0030 C   0  0  0  0  0  2  0  0  0  0  0  0
   22.9420    2.1960   52.6380 C   0  0  0  0  0  2  0  0  0  0  0  0
   22.1840    0.9760   52.6040 N   0  0  0  0  0  0  0  0  0  0  0  0
   22.8660   -0.1830   53.0500 C   0  0  0  0  0  2  0  0  0  0  0  0
   22.2670   -0.5670   54.3550 C   0  0  0  0  0  2  0  0  0  0  0  0
   20.9640    0.1340   54.4390 C   0  0  0  0  0  2  0  0  0  0  0  0
   20.9330    1.0650   53.2690 C   0  0  0  0  0  2  0  0  0  0  0  0
   21.9860    1.5210   48.4090 O   0  0  0  0  0  0  0  0  0  0  0  0
   20.9790    0.9420   49.1970 C   0  0  0  0  0  1  0  0  0  0  0  0
  1 27  1  1  0  0  0
  1  6  1  0  0  0  0
  2  1  1  0  0  0  0
  2  3  1  0  0  0  0
  3  4  1  0  0  0  0
  4  5  1  1  0  0  0
  4  6  1  0  0  0  0
  5 11  2  0  0  0  0
  6 19  1  1  0  0  0
  7  5  1  0  0  0  0
  7  8  1  0  0  0  0
  8  9  1  0  0  0  0
 10  8  1  0  0  0  0
 11 13  1  0  0  0  0
 12 11  1  0  0  0  0
 13 14  1  0  0  0  0
 14 15  2  0  0  0  0
 15 17  1  0  0  0  0
 15 16  1  0  0  0  0
 17 18  1  0  0  0  0
 19 20  1  0  0  0  0
 20 21  1  0  0  0  0
 22 21  1  0  0  0  0
 22 23  1  0  0  0  0
 22 26  1  0  0  0  0
 23 24  1  0  0  0  0
 24 25  1  0  0  0  0
 26 25  1  0  0  0  0
 27 28  1  0  0  0  0
M  END
>  <TORSDO>
F 11

$$$$
