C:\Qe-CaDD\Project\Data\Stage_6_Molecular_Dynamics\ligands_top\out_14276_EGFR_extracted.pdbqt
 OpenBabel01082506443D

 27 30  0  0  0  0  0  0  0  0999 V2000
   17.4400   -1.4620   53.3290 O   0  0  0  0  0  0  0  0  0  0  0  0
   18.2830   -0.6540   52.8430 C   0  0  0  0  0  0  0  0  0  0  0  0
   17.9110    0.2820   51.8280 C   0  0  0  0  0  3  0  0  0  0  0  0
   18.7950    1.1210   51.3250 C   0  0  0  0  0  3  0  0  0  0  0  0
   20.3150    0.6980   52.2320 S   0  0  2  0  0  3  0  0  0  0  0  0
   21.9100    0.9120   51.8720 C   0  0  0  0  0  0  0  0  0  0  0  0
   23.2700    0.7460   52.1560 C   0  0  0  0  0  0  0  0  0  0  0  0
   24.3280    0.3500   52.8240 C   0  0  0  0  0  0  0  0  0  0  0  0
   25.1470    0.8970   51.9120 N   0  0  0  0  0  2  0  0  0  0  0  0
   26.5020    0.8080   51.9910 C   0  0  0  0  0  3  0  0  0  0  0  0
   27.0350    0.1510   53.0150 N   0  0  0  0  0  0  0  0  0  0  0  0
   26.2270   -0.3920   53.9230 C   0  0  0  0  0  2  0  0  0  0  0  0
   24.8630   -0.3300   53.8910 C   0  0  0  0  0  0  0  0  0  0  0  0
   24.2570   -0.8900   54.8940 C   0  0  0  0  0  3  0  0  0  0  0  0
   22.9490   -1.1470   55.4900 C   0  0  0  0  0  2  0  0  0  0  0  0
   22.2880   -2.2610   54.8560 N   0  0  0  0  0  0  0  0  0  0  0  0
   21.6600   -1.7250   53.7540 O   0  0  0  0  0  0  0  0  0  0  0  0
   20.4230   -1.3100   54.2450 C   0  0  0  0  0  2  0  0  0  0  0  0
   19.6430   -0.6080   53.2530 N   0  0  0  0  0  0  0  0  0  0  0  0
   21.5940   -2.7190   55.4550 H   0  0  0  0  0  0  0  0  0  0  0  0
   22.2120    1.5730   50.5810 C   0  0  0  0  0  0  0  0  0  0  0  0
   21.7560    1.0380   49.3830 C   0  0  0  0  0  3  0  0  0  0  0  0
   21.9490    1.5570   48.1030 C   0  0  0  0  0  3  0  0  0  0  0  0
   22.6780    2.7280   48.0860 C   0  0  0  0  0  3  0  0  0  0  0  0
   23.1780    3.3480   49.2050 C   0  0  0  0  0  0  0  0  0  0  0  0
   24.1790    4.9660   49.1380 Br  0  0  0  0  0  0  0  0  0  0  0  0
   22.9280    2.7430   50.4420 C   0  0  0  0  0  3  0  0  0  0  0  0
  2 19  1  0  0  0  0
  2  1  2  0  0  0  0
  3  2  1  0  0  0  0
  4  3  2  0  0  0  0
  5  4  1  6  0  0  0
  5 19  1  0  0  0  0
  6  7  2  0  0  0  0
  6  5  1  0  0  0  0
  7  8  2  0  0  0  0
  8 13  1  0  0  0  0
  9 10  1  0  0  0  0
  9  8  1  0  0  0  0
 10 11  2  0  0  0  0
 11 12  1  0  0  0  0
 13 12  1  0  0  0  0
 13 14  2  0  0  0  0
 14 15  1  0  0  0  0
 16 20  1  0  0  0  0
 16 15  1  0  0  0  0
 17 18  1  0  0  0  0
 17 16  1  0  0  0  0
 19 18  1  0  0  0  0
 21  6  1  0  0  0  0
 22 21  2  0  0  0  0
 23 22  1  0  0  0  0
 24 23  2  0  0  0  0
 24 25  1  0  0  0  0
 25 27  2  0  0  0  0
 26 25  1  0  0  0  0
 27 21  1  0  0  0  0
M  END
>  <TORSDO>
F 1

$$$$
