C:\Qe-CaDD\Project\Data\Stage_6_Molecular_Dynamics\ligands_top\out_18299_EGFR_extracted.pdbqt
 OpenBabel01082506443D

 26 30  0  0  1  0  0  0  0  0999 V2000
   24.2230    0.1130   53.5220 C   0  0  0  0  0  0  0  0  0  0  0  0
   25.3430   -0.2780   54.2280 C   0  0  0  0  0  3  0  0  0  0  0  0
   26.5280    0.3070   53.8620 C   0  0  0  0  0  3  0  0  0  0  0  0
   26.6570    1.2510   52.8420 C   0  0  0  0  0  0  0  0  0  0  0  0
   27.6310    1.9650   52.2810 N   0  0  0  0  0  0  0  0  0  0  0  0
   27.1310    2.7170   51.3230 N   0  0  0  0  0  0  0  0  0  0  0  0
   25.8090    2.4790   51.2690 C   0  0  0  0  0  0  0  0  0  0  0  0
   25.4960    1.5720   52.2050 N   0  0  0  0  0  0  0  0  0  0  0  0
   24.3330    1.0290   52.5280 N   0  0  0  0  0  0  0  0  0  0  0  0
   24.7110    3.2800   50.1130 S   0  0  1  0  0  3  0  0  0  0  0  0
   23.3230    3.0550   49.3210 C   0  0  0  0  0  2  0  0  0  0  0  0
   23.4040    4.3570   48.6730 C   0  0  0  0  0  2  0  0  0  0  0  0
   24.5390    4.8010   49.1810 C   0  0  2  0  0  3  0  0  0  0  0  0
   25.3630    5.9950   49.0800 C   0  0  0  0  0  2  0  0  0  0  0  0
   26.6450    6.1750   48.8140 C   0  0  0  0  0  0  0  0  0  0  0  0
   27.5990    5.1350   48.5390 C   0  0  0  0  0  3  0  0  0  0  0  0
   27.2020    7.5320   48.7820 C   0  0  0  0  0  3  0  0  0  0  0  0
   28.8740    5.2870   48.2720 C   0  0  0  0  0  3  0  0  0  0  0  0
   29.3930    6.6310   48.2480 C   0  0  0  0  0  3  0  0  0  0  0  0
   28.5880    7.5890   48.4860 N   0  0  0  0  0  0  0  0  0  0  0  0
   22.9300   -0.4720   53.8630 C   0  0  0  0  0  0  0  0  0  0  0  0
   21.6950   -0.3370   53.2550 C   0  0  0  0  0  3  0  0  0  0  0  0
   20.7640   -1.0620   53.9060 N   0  0  0  0  0  0  0  0  0  0  0  0
   19.3650   -1.1200   53.5020 C   0  0  0  0  0  1  0  0  0  0  0  0
   21.3730   -1.6630   54.9250 N   0  0  0  0  0  0  0  0  0  0  0  0
   22.6850   -1.3250   54.9240 C   0  0  0  0  0  3  0  0  0  0  0  0
  1 21  1  0  0  0  0
  1  2  1  0  0  0  0
  3  2  2  0  0  0  0
  4  3  1  0  0  0  0
  5  4  2  0  0  0  0
  6  5  1  0  0  0  0
  7  6  2  0  0  0  0
  7  8  1  0  0  0  0
  8  9  1  0  0  0  0
  8  4  1  0  0  0  0
  9  1  2  0  0  0  0
 10  7  1  1  0  0  0
 11 10  1  0  0  0  0
 12 13  1  0  0  0  0
 12 11  1  0  0  0  0
 13 14  1  6  0  0  0
 13 10  1  0  0  0  0
 15 14  1  0  0  0  0
 16 15  2  0  0  0  0
 17 15  1  0  0  0  0
 18 16  1  0  0  0  0
 19 18  2  0  0  0  0
 19 20  1  0  0  0  0
 20 17  2  0  0  0  0
 21 26  1  0  0  0  0
 22 21  2  0  0  0  0
 22 23  1  0  0  0  0
 23 25  1  0  0  0  0
 24 23  1  0  0  0  0
 26 25  2  0  0  0  0
M  END
>  <TORSDO>
F 3

$$$$
