C:\Qe-CaDD\Project\Data\Stage_6_Molecular_Dynamics\ligands_top\out_12339_EGFR_extracted.pdbqt
 OpenBabel01082506443D

 21 22  0  0  0  0  0  0  0  0999 V2000
   25.5380    2.6790   51.1330 C   0  0  0  0  0  0  0  0  0  0  0  0
   24.2270    2.2590   50.8150 N   0  0  0  0  0  0  0  0  0  0  0  0
   23.3940    1.7170   51.6310 C   0  0  0  0  0  1  0  0  0  0  0  0
   26.2580    3.2100   50.1580 C   0  0  0  0  0  0  0  0  0  0  0  0
   26.8380    4.0760   49.3840 C   0  0  0  0  0  0  0  0  0  0  0  0
   27.5380    5.0070   48.7910 C   0  0  0  0  0  0  0  0  0  0  0  0
   28.9290    5.0560   48.4320 N   0  0  0  0  0  2  0  0  0  0  0  0
   29.1810    6.1910   47.8550 C   0  0  0  0  0  3  0  0  0  0  0  0
   27.9500    6.9910   47.7870 C   0  0  0  0  0  3  0  0  0  0  0  0
   26.9840    6.2800   48.3450 C   0  0  0  0  0  0  0  0  0  0  0  0
   25.5560    6.7060   48.4950 C   0  0  0  0  0  1  0  0  0  0  0  0
   26.0930    2.5500   52.4400 N   0  0  0  0  0  0  0  0  0  0  0  0
   25.7220    3.2740   53.0950 H   0  0  0  0  0  0  0  0  0  0  0  0
   27.0400    1.5560   52.8090 C   0  0  0  0  0  0  0  0  0  0  0  0
   28.2070    1.9830   53.4080 C   0  0  0  0  0  3  0  0  0  0  0  0
   29.1080    0.9790   53.7550 C   0  0  0  0  0  3  0  0  0  0  0  0
   28.7950   -0.3580   53.4870 C   0  0  0  0  0  0  0  0  0  0  0  0
   29.6640   -1.3630   53.8170 F   0  0  0  0  0  0  0  0  0  0  0  0
   27.6060   -0.7290   52.8820 C   0  0  0  0  0  0  0  0  0  0  0  0
   27.2430   -2.4040   52.5610 Cl  0  0  0  0  0  0  0  0  0  0  0  0
   26.7080    0.2520   52.5360 C   0  0  0  0  0  3  0  0  0  0  0  0
  1 12  1  0  0  0  0
  2  1  2  0  0  0  0
  2  3  1  0  0  0  0
  4  1  1  0  0  0  0
  5  4  3  0  0  0  0
  6  5  1  0  0  0  0
  7  6  1  0  0  0  0
  8  7  1  0  0  0  0
  9  8  2  0  0  0  0
  9 10  1  0  0  0  0
 10 11  1  0  0  0  0
 10  6  2  0  0  0  0
 12 14  1  0  0  0  0
 12 13  1  0  0  0  0
 14 15  1  0  0  0  0
 15 16  2  0  0  0  0
 17 16  1  0  0  0  0
 17 18  1  0  0  0  0
 19 17  2  0  0  0  0
 20 19  1  0  0  0  0
 21 14  2  0  0  0  0
 21 19  1  0  0  0  0
M  END
>  <TORSDO>
F 6

$$$$
