C:\Qe-CaDD\Project\Data\Stage_6_Molecular_Dynamics\ligands_top\out_12569_EGFR_extracted.pdbqt
 OpenBabel01082506443D

 30 33  0  0  1  0  0  0  0  0999 V2000
   25.6770   -0.4720   53.0040 C   0  0  0  0  0  0  0  0  0  0  0  0
   25.2090    0.5000   52.2520 C   0  0  0  0  0  0  0  0  0  0  0  0
   24.6320    1.6230   51.4740 C   0  0  0  0  0  0  0  0  0  0  0  0
   23.4070    1.4420   50.9940 N   0  0  0  0  0  0  0  0  0  0  0  0
   22.7680    2.4490   50.3000 C   0  0  0  0  0  2  0  0  0  0  0  0
   23.8230    2.8650   50.6050 N   0  0  2  0  0  4  0  0  0  0  0  0
   24.6440    3.8600   50.5720 C   0  0  1  0  0  3  0  0  0  0  0  0
   25.3040    2.9340   51.2450 C   0  0  1  0  0  0  0  0  0  0  0  0
   26.2960    2.4380   51.8710 C   0  0  0  0  0  0  0  0  0  0  0  0
   27.2120    1.9530   52.4570 P   0  0  0  0  0  4  0  0  0  0  0  0
   29.0770    0.9070   53.6770 C   0  0  0  0  0  1  0  0  0  0  0  0
   28.1480   -0.1840   53.4530 C   0  0  0  0  0  2  0  0  0  0  0  0
   27.8180   -1.4260   53.6900 O   0  0  0  0  0  0  0  0  0  0  0  0
   26.6680   -1.5710   52.7590 C   0  0  0  0  0  2  0  0  0  0  0  0
   27.5790    1.7690   52.6900 H   0  0  0  0  0  0  0  0  0  0  0  0
   25.7090    4.8220   50.6580 N   0  0  0  0  0  0  0  0  0  0  0  0
   26.5030    5.0440   51.2850 H   0  0  0  0  0  0  0  0  0  0  0  0
   25.6910    5.7760   49.5780 C   0  0  0  0  0  0  0  0  0  0  0  0
   24.4220    6.2340   49.2090 C   0  0  0  0  0  3  0  0  0  0  0  0
   24.4830    7.1370   48.1400 C   0  0  0  0  0  3  0  0  0  0  0  0
   25.5550    7.5960   47.4570 C   0  0  0  0  0  3  0  0  0  0  0  0
   26.7590    7.1140   47.8590 C   0  0  0  0  0  0  0  0  0  0  0  0
   26.8570    6.2020   48.9200 C   0  0  0  0  0  3  0  0  0  0  0  0
   27.9840    7.4310   47.3160 O   0  0  0  0  0  0  0  0  0  0  0  0
   29.1400    6.7390   47.6590 C   0  0  0  0  0  1  0  0  0  0  0  0
   24.9510   -0.1500   54.1160 O   0  0  0  0  0  0  0  0  0  0  0  0
   23.5990   -0.6070   54.1900 C   0  0  0  0  0  2  0  0  0  0  0  0
   23.3390   -1.3670   55.4520 C   0  0  0  0  0  2  0  0  0  0  0  0
   22.1350   -2.0300   55.3590 O   0  0  0  0  0  0  0  0  0  0  0  0
   21.2730   -1.4930   54.4390 C   0  0  0  0  0  1  0  0  0  0  0  0
  1 26  1  0  0  0  0
  2  1  2  0  0  0  0
  3  2  2  0  0  0  0
  4  3  1  0  0  0  0
  5  4  1  0  0  0  0
  6  5  1  1  0  0  0
  6  4  1  0  0  0  0
  6  8  1  0  0  0  0
  7  6  1  0  0  0  0
  7 16  1  6  0  0  0
  7  8  1  0  0  0  0
  8  3  1  0  0  0  0
  8  9  1  6  0  0  0
  9 10  3  0  0  0  0
 10 15  1  0  0  0  0
 12 11  1  0  0  0  0
 12 13  1  0  0  0  0
 14  1  1  0  0  0  0
 14 13  1  0  0  0  0
 16 17  1  0  0  0  0
 18 16  1  0  0  0  0
 19 18  1  0  0  0  0
 20 19  2  0  0  0  0
 21 22  2  0  0  0  0
 21 20  1  0  0  0  0
 22 23  1  0  0  0  0
 23 18  2  0  0  0  0
 24 25  1  0  0  0  0
 24 22  1  0  0  0  0
 26 27  1  0  0  0  0
 27 28  1  0  0  0  0
 29 28  1  0  0  0  0
 30 29  1  0  0  0  0
M  END
>  <TORSDO>
F 7

$$$$
