C:\Qe-CaDD\Project\Data\Stage_6_Molecular_Dynamics\ligands_top\out_16616_EGFR_extracted.pdbqt
 OpenBabel01082506443D

 26 29  0  0  1  0  0  0  0  0999 V2000
   24.0010    1.1380   52.6300 C   0  0  0  0  0  3  0  0  0  0  0  0
   23.3130    0.3290   53.3850 C   0  0  0  0  0  0  0  0  0  0  0  0
   23.9150   -0.5570   54.3220 N   0  0  0  0  0  0  0  0  0  0  0  0
   23.2390   -1.4800   55.1910 C   0  0  0  0  0  2  0  0  0  0  0  0
   21.8010   -1.4210   55.0150 N   0  0  0  0  0  0  0  0  0  0  0  0
   21.2260   -0.6280   54.1740 C   0  0  0  0  0  3  0  0  0  0  0  0
   21.9110    0.2810   53.3190 N   0  0  0  0  0  0  0  0  0  0  0  0
   24.9510   -0.5900   54.4390 H   0  0  0  0  0  0  0  0  0  0  0  0
   21.2290    1.1380   52.4060 C   0  0  0  0  0  0  0  0  0  0  0  0
   20.4270    2.1660   52.8550 C   0  0  0  0  0  3  0  0  0  0  0  0
   19.7820    2.9760   51.9650 C   0  0  0  0  0  3  0  0  0  0  0  0
   19.9100    2.7950   50.6130 C   0  0  0  0  0  0  0  0  0  0  0  0
   20.6820    1.8030   50.1490 C   0  0  0  0  0  0  0  0  0  0  0  0
   19.2580    3.6120   49.7200 N   0  0  0  0  0  0  0  0  0  0  0  0
   20.7790    1.6600   48.7310 C   0  0  0  0  0  3  0  0  0  0  0  0
   21.3280    0.9930   51.0520 C   0  0  0  0  0  3  0  0  0  0  0  0
   19.7850    2.9170   48.0520 P   0  0  0  0  0  0  0  0  0  0  0  0
   18.3770    4.7300   49.8790 C   0  0  0  0  0  1  0  0  0  0  0  0
   25.4210    1.2130   52.6720 N   0  0  0  0  0  0  0  0  0  0  0  0
   26.3430    0.6130   51.7130 C   0  0  0  0  0  2  0  0  0  0  0  0
   27.1600   -0.4050   52.5050 C   0  0  0  0  0  2  0  0  0  0  0  0
   28.0160    0.4000   53.4660 C   0  0  1  0  0  3  0  0  0  0  0  0
   27.0760    1.0520   54.4590 C   0  0  0  0  0  2  0  0  0  0  0  0
   26.0720    1.9500   53.7600 C   0  0  0  0  0  2  0  0  0  0  0  0
   28.9450   -0.4580   54.2350 C   0  0  0  0  0  3  0  0  0  0  0  0
   29.8080   -1.2810   53.6440 C   0  0  0  0  0  2  0  0  0  0  0  0
  1 19  1  0  0  0  0
  1  2  2  0  0  0  0
  2  3  1  0  0  0  0
  3  8  1  0  0  0  0
  3  4  1  0  0  0  0
  5  4  1  0  0  0  0
  6  5  2  0  0  0  0
  7  2  1  0  0  0  0
  7  6  1  0  0  0  0
  9 10  1  0  0  0  0
  9  7  1  0  0  0  0
 11 10  2  0  0  0  0
 12 11  1  0  0  0  0
 13 12  2  0  0  0  0
 13 16  1  0  0  0  0
 14 18  1  0  0  0  0
 14 12  1  0  0  0  0
 15 13  1  0  0  0  0
 16  9  2  0  0  0  0
 17 15  2  0  0  0  0
 17 14  1  0  0  0  0
 19 24  1  0  0  0  0
 20 21  1  0  0  0  0
 20 19  1  0  0  0  0
 21 22  1  0  0  0  0
 22 25  1  1  0  0  0
 22 23  1  0  0  0  0
 24 23  1  0  0  0  0
 26 25  2  0  0  0  0
M  END
>  <TORSDO>
F 3

$$$$
