C:\Qe-CaDD\Project\Data\Stage_6_Molecular_Dynamics\ligands_top\out_10583_EGFR_extracted.pdbqt
 OpenBabel01082506443D

 31 35  0  0  1  0  0  0  0  0999 V2000
   24.2630    4.3540   50.4920 N   0  0  0  0  0  0  0  0  0  0  0  0
   25.1060    3.7420   49.4470 C   0  0  0  0  0  2  0  0  0  0  0  0
   26.4740    4.4250   49.5850 C   0  0  0  0  0  2  0  0  0  0  0  0
   26.6000    5.6760   48.7920 C   0  0  0  0  0  2  0  0  0  0  0  0
   26.0060    6.8280   49.4690 N   0  0  1  0  0  0  0  0  0  0  0  0
   26.8680    8.0120   49.6100 C   0  0  0  0  0  2  0  0  0  0  0  0
   25.9900    9.1450   50.0660 C   0  0  0  0  0  2  0  0  0  0  0  0
   24.8040    9.0830   49.3410 O   0  0  0  0  0  0  0  0  0  0  0  0
   23.9730    8.1730   50.0360 C   0  0  0  0  0  2  0  0  0  0  0  0
   24.6750    6.8380   49.9710 C   0  0  1  0  0  3  0  0  0  0  0  0
   23.9970    5.7740   50.3800 C   0  0  0  0  0  0  0  0  0  0  0  0
   22.6490    6.2420   50.7850 C   0  0  0  0  0  0  0  0  0  0  0  0
   21.5850    6.8310   51.0690 O   0  0  0  0  0  0  0  0  0  0  0  0
   23.6100    3.7940   51.6120 C   0  0  2  0  0  0  0  0  0  0  0  0
   23.3890    4.6710   52.8000 C   0  0  0  0  0  1  0  0  0  0  0  0
   24.4500    2.6310   52.1180 C   0  0  0  0  0  2  0  0  0  0  0  0
   24.1130    1.5110   51.4140 C   0  0  0  0  0  2  0  0  0  0  0  0
   23.0610    1.9230   50.4440 C   0  0  0  0  0  0  0  0  0  0  0  0
   22.4210    1.8870   49.3370 N   0  0  0  0  0  0  0  0  0  0  0  0
   22.3760    2.9850   51.2910 C   0  0  2  0  0  0  0  0  0  0  0  0
   21.3680    2.8620   49.3590 C   0  0  0  0  0  3  0  0  0  0  0  0
   21.3670    3.4870   50.4970 N   0  0  0  0  0  0  0  0  0  0  0  0
   21.9580    2.3370   52.5180 N   0  0  0  0  0  0  0  0  0  0  0  0
   22.2810    2.8300   53.4020 H   0  0  0  0  0  0  0  0  0  0  0  0
   21.2230    1.1890   52.8990 C   0  0  0  0  0  0  0  0  0  0  0  0
   19.9680    0.8510   52.3760 C   0  0  0  0  0  3  0  0  0  0  0  0
   19.2850   -0.2680   52.7690 C   0  0  0  0  0  3  0  0  0  0  0  0
   19.8110   -1.1140   53.7060 C   0  0  0  0  0  0  0  0  0  0  0  0
   19.0460   -2.1790   54.0090 F   0  0  0  0  0  0  0  0  0  0  0  0
   21.0390   -0.8480   54.2640 C   0  0  0  0  0  3  0  0  0  0  0  0
   21.6850    0.2910   53.8350 C   0  0  0  0  0  3  0  0  0  0  0  0
  1 14  1  0  0  0  0
  2  3  1  0  0  0  0
  2  1  1  0  0  0  0
  4  3  1  0  0  0  0
  5  4  1  6  0  0  0
  5  6  1  0  0  0  0
  5 10  1  0  0  0  0
  6  7  1  0  0  0  0
  8  9  1  0  0  0  0
  8  7  1  0  0  0  0
 10  9  1  6  0  0  0
 10 11  1  0  0  0  0
 11  1  1  0  0  0  0
 11 12  2  0  0  0  0
 12 13  2  0  0  0  0
 14 16  1  0  0  0  0
 14 15  1  1  0  0  0
 17 16  1  0  0  0  0
 18 20  1  0  0  0  0
 18 17  1  0  0  0  0
 19 21  1  0  0  0  0
 19 18  2  0  0  0  0
 20 14  1  0  0  0  0
 20 23  1  1  0  0  0
 21 22  2  0  0  0  0
 22 20  1  0  0  0  0
 23 25  1  0  0  0  0
 23 24  1  0  0  0  0
 25 31  1  0  0  0  0
 26 27  1  0  0  0  0
 26 25  2  0  0  0  0
 27 28  2  0  0  0  0
 28 29  1  0  0  0  0
 28 30  1  0  0  0  0
 31 30  2  0  0  0  0
M  END
>  <TORSDO>
F 3

$$$$
