C:\Qe-CaDD\Project\Data\Stage_6_Molecular_Dynamics\ligands_top\out_21669_EGFR_extracted.pdbqt
 OpenBabel01082506443D

 21 22  0  0  1  0  0  0  0  0999 V2000
   26.7350    2.4630   52.1110 C   0  0  0  0  0  0  0  0  0  0  0  0
   26.4960    2.7420   50.8250 C   0  0  0  0  0  3  0  0  0  0  0  0
   25.1920    2.8760   50.1740 C   0  0  0  0  0  3  0  0  0  0  0  0
   24.0200    3.0380   50.7670 C   0  0  0  0  0  3  0  0  0  0  0  0
   23.5580    3.1430   52.1720 C   0  0  2  0  0  3  0  0  0  0  0  0
   24.4360    2.5200   53.1430 C   0  0  0  0  0  3  0  0  0  0  0  0
   25.7340    2.2310   53.1440 C   0  0  0  0  0  3  0  0  0  0  0  0
   22.1490    2.6200   52.1840 C   0  0  0  0  0  2  0  0  0  0  0  0
   21.8170    1.6610   51.0980 C   0  0  0  0  0  2  0  0  0  0  0  0
   21.3010    0.4530   51.7310 N   0  0  0  0  0  0  0  0  0  0  0  0
   22.1770   -0.2060   52.4980 C   0  0  0  0  0  2  0  0  0  0  0  0
   23.0220   -0.8820   53.3700 C   0  0  0  0  0  2  0  0  0  0  0  0
   22.2510   -0.9770   54.7270 C   0  0  0  0  0  2  0  0  0  0  0  0
   21.0810    0.0240   54.7080 C   0  0  0  0  0  2  0  0  0  0  0  0
   20.0980    0.0330   53.6560 C   0  0  0  0  0  2  0  0  0  0  0  0
   20.1760    0.7730   52.4880 O   0  0  0  0  0  0  0  0  0  0  0  0
   28.0940    2.4100   52.3940 O   0  0  0  0  0  0  0  0  0  0  0  0
   28.4890    1.9180   53.6570 C   0  0  0  0  0  2  0  0  0  0  0  0
   29.1580    0.5530   53.4820 C   0  0  0  0  0  2  0  0  0  0  0  0
   28.1680   -0.5530   53.5330 C   0  0  0  0  0  3  0  0  0  0  0  0
   27.2490   -1.2140   52.8610 C   0  0  0  0  0  2  0  0  0  0  0  0
  1 17  1  0  0  0  0
  1  7  1  0  0  0  0
  2  1  2  0  0  0  0
  3  4  2  0  0  0  0
  3  2  1  0  0  0  0
  4  5  1  0  0  0  0
  5  8  1  6  0  0  0
  5  6  1  0  0  0  0
  6  7  2  0  0  0  0
  9 10  1  0  0  0  0
  9  8  1  0  0  0  0
 10 16  1  0  0  0  0
 10 11  1  0  0  0  0
 11 12  1  0  0  0  0
 12 13  1  0  0  0  0
 14 13  1  0  0  0  0
 15 14  1  0  0  0  0
 16 15  1  0  0  0  0
 17 18  1  0  0  0  0
 19 20  1  0  0  0  0
 19 18  1  0  0  0  0
 21 20  2  0  0  0  0
M  END
>  <TORSDO>
F 7

$$$$
