C:\Qe-CaDD\Project\Data\Stage_6_Molecular_Dynamics\ligands_top\out_22412_EGFR_extracted.pdbqt
 OpenBabel01082506443D

 24 26  0  0  1  0  0  0  0  0999 V2000
   23.0120    3.0700   51.4920 C   0  0  1  0  0  3  0  0  0  0  0  0
   24.3380    2.7590   51.9240 N   0  0  0  0  0  0  0  0  0  0  0  0
   25.3480    2.7680   51.1630 C   0  0  0  0  0  3  0  0  0  0  0  0
   26.7820    2.4760   51.4320 C   0  0  0  0  0  2  0  0  0  0  0  0
   26.9690    2.1660   52.6610 N   0  0  2  0  0  0  0  0  0  0  0  0
   28.2470    1.8480   53.1510 C   0  0  0  0  0  2  0  0  0  0  0  0
   27.3100    1.1940   53.7040 N   0  0  2  0  0  0  0  0  0  0  0  0
   27.6110    0.2240   54.7370 C   0  0  0  0  0  2  0  0  0  0  0  0
   26.3360   -0.2370   55.3210 N   0  0  0  0  0  0  0  0  0  0  0  0
   25.5520   -0.8680   54.2370 C   0  0  0  0  0  2  0  0  0  0  0  0
   24.1860   -1.0510   54.7410 C   0  0  0  0  0  3  0  0  0  0  0  0
   23.0960   -0.5190   54.2540 C   0  0  0  0  0  0  0  0  0  0  0  0
   21.4150   -0.6250   54.7180 Cl  0  0  0  0  0  0  0  0  0  0  0  0
   22.5690    0.3370   53.2170 C   0  0  0  0  0  0  0  0  0  0  0  0
   23.8060    0.4300   52.7070 F   0  0  0  0  0  0  0  0  0  0  0  0
   21.8250    1.0520   52.4140 C   0  0  0  0  0  0  0  0  0  0  0  0
   20.7570    1.7980   51.6400 C   0  0  0  0  0  2  0  0  0  0  0  0
   22.1480    1.8810   51.2860 C   0  0  1  0  0  3  0  0  0  0  0  0
   26.5370   -0.9190   56.0910 H   0  0  0  0  0  0  0  0  0  0  0  0
   22.4520    4.1380   52.2740 N   0  0  0  0  0  0  0  0  0  0  0  0
   21.8090    3.8280   53.0290 H   0  0  0  0  0  0  0  0  0  0  0  0
   21.9530    5.2540   51.5030 C   0  0  0  0  0  2  0  0  0  0  0  0
   23.1020    5.7860   50.7260 C   0  0  0  0  0  2  0  0  0  0  0  0
   23.8190    6.3480   51.5710 O   0  0  0  0  0  1  0  0  0  0  0  0
  1  2  1  0  0  0  0
  1 20  1  1  0  0  0
  3  4  1  0  0  0  0
  3  2  2  0  0  0  0
  5  4  1  6  0  0  0
  5  6  1  0  0  0  0
  5  7  1  0  0  0  0
  7  6  1  6  0  0  0
  7  8  1  0  0  0  0
  8  9  1  0  0  0  0
  9 19  1  0  0  0  0
 10 11  1  0  0  0  0
 10  9  1  0  0  0  0
 12 13  1  0  0  0  0
 12 11  2  0  0  0  0
 14 12  1  0  0  0  0
 15 14  1  0  0  0  0
 16 14  2  0  0  0  0
 17 16  1  0  0  0  0
 18  1  1  0  0  0  0
 18 17  1  1  0  0  0
 18 16  1  0  0  0  0
 20 21  1  0  0  0  0
 22 20  1  0  0  0  0
 23 22  1  0  0  0  0
 23 24  1  0  0  0  0
M  END
>  <TORSDO>
F 3

$$$$
