C:\Qe-CaDD\Project\Data\Stage_6_Molecular_Dynamics\ligands_top\out_23001_EGFR_extracted.pdbqt
 OpenBabel01082506443D

 32 36  0  0  1  0  0  0  0  0999 V2000
   22.4810    3.0800   50.3370 C   0  0  1  0  0  3  0  0  0  0  0  0
   22.3880    1.6300   50.7470 C   0  0  2  0  0  3  0  0  0  0  0  0
   23.5660    1.2870   51.4010 C   0  0  0  0  0  2  0  0  0  0  0  0
   23.6780    0.4500   52.6380 C   0  0  0  0  0  0  0  0  0  0  0  0
   25.0100    0.3780   53.0720 C   0  0  0  0  0  3  0  0  0  0  0  0
   25.2750   -0.3510   54.2030 C   0  0  0  0  0  3  0  0  0  0  0  0
   24.2620   -0.9900   54.8870 C   0  0  0  0  0  3  0  0  0  0  0  0
   22.9470   -0.9560   54.5130 C   0  0  0  0  0  0  0  0  0  0  0  0
   21.9850   -1.5880   55.1940 F   0  0  0  0  0  0  0  0  0  0  0  0
   22.7000   -0.2280   53.3880 C   0  0  0  0  0  0  0  0  0  0  0  0
   21.1930   -0.3080   53.1290 C   0  0  2  0  0  3  0  0  0  0  0  0
   20.9150    0.4240   51.9200 C   0  0  2  0  0  3  0  0  0  0  0  0
   21.4200    0.4720   50.6480 C   0  0  0  0  0  2  0  0  0  0  0  0
   19.8570    1.3500   52.2460 C   0  0  1  0  0  0  0  0  0  0  0  0
   20.8150    2.2340   52.4060 C   0  0  0  0  0  2  0  0  0  0  0  0
   19.7850    3.0830   52.0740 C   0  0  2  0  0  0  0  0  0  0  0  0
   18.4470    3.0740   51.7570 N   0  0  0  0  0  0  0  0  0  0  0  0
   17.8160    1.8450   51.7170 C   0  0  0  0  0  3  0  0  0  0  0  0
   18.7050    0.7800   52.0170 N   0  0  0  0  0  2  0  0  0  0  0  0
   20.4730    4.3770   51.7310 C   0  0  0  0  0  2  0  0  0  0  0  0
   21.5810    4.0340   50.9880 C   0  0  2  0  0  3  0  0  0  0  0  0
   23.8880    3.4960   50.5290 N   0  0  0  0  0  0  0  0  0  0  0  0
   24.5900    4.2170   49.4870 C   0  0  0  0  0  0  0  0  0  0  0  0
   23.8970    4.4400   48.4460 O   0  0  0  0  0  0  0  0  0  0  0  0
   24.2250    3.1920   51.4690 H   0  0  0  0  0  0  0  0  0  0  0  0
   25.9660    4.5610   49.8150 C   0  0  0  0  0  3  0  0  0  0  0  0
   27.0430    4.4600   49.0550 C   0  0  0  0  0  2  0  0  0  0  0  0
   21.8800    5.3640   50.8760 O   0  0  0  0  0  0  0  0  0  0  0  0
   21.3110    6.3900   50.1680 C   0  0  0  0  0  1  0  0  0  0  0  0
   20.5070    0.0990   54.2990 N   0  0  0  0  0  0  0  0  0  0  0  0
   20.6540    1.0810   54.5980 H   0  0  0  0  0  0  0  0  0  0  0  0
   19.4810   -0.0670   54.2380 H   0  0  0  0  0  0  0  0  0  0  0  0
  1 22  1  1  0  0  0
  1  2  1  0  0  0  0
  1 21  1  0  0  0  0
  2 13  1  6  0  0  0
  2  3  1  0  0  0  0
  3  4  1  0  0  0  0
  4  5  2  0  0  0  0
  4 10  1  0  0  0  0
  5  6  1  0  0  0  0
  6  7  2  0  0  0  0
  8  7  1  0  0  0  0
  8  9  1  0  0  0  0
 10  8  2  0  0  0  0
 11 10  1  0  0  0  0
 11 30  1  1  0  0  0
 12 13  1  1  0  0  0
 12 14  1  0  0  0  0
 12 11  1  0  0  0  0
 14 15  1  1  0  0  0
 16 20  1  6  0  0  0
 16 14  1  0  0  0  0
 16 15  1  0  0  0  0
 17 16  1  0  0  0  0
 18 17  2  0  0  0  0
 18 19  1  0  0  0  0
 19 14  1  0  0  0  0
 21 28  1  6  0  0  0
 21 20  1  0  0  0  0
 22 25  1  0  0  0  0
 23 26  1  0  0  0  0
 23 22  1  0  0  0  0
 24 23  2  0  0  0  0
 27 26  2  0  0  0  0
 29 28  1  0  0  0  0
 30 31  1  0  0  0  0
 32 30  1  0  0  0  0
M  END
>  <TORSDO>
F 4

$$$$
