C:\Qe-CaDD\Project\Data\Stage_6_Molecular_Dynamics\ligands_top\out_16445_EGFR_extracted.pdbqt
 OpenBabel01082506443D

 24 27  0  0  1  0  0  0  0  0999 V2000
   26.8490    0.1030   53.5190 N   0  0  0  0  0  0  0  0  0  0  0  0
   27.0750    0.1940   52.1060 C   0  0  0  0  0  2  0  0  0  0  0  0
   26.6910    1.5020   51.5550 C   0  0  0  0  0  2  0  0  0  0  0  0
   26.4900    2.6060   50.8770 C   0  0  2  0  0  3  0  0  0  0  0  0
   25.2660    3.3910   51.1050 C   0  0  1  0  0  0  0  0  0  0  0  0
   24.1790    4.1520   51.2640 C   0  0  1  0  0  3  0  0  0  0  0  0
   22.8350    4.7450   51.6980 C   0  0  0  0  0  2  0  0  0  0  0  0
   22.2590    3.8050   52.6130 O   0  0  0  0  0  0  0  0  0  0  0  0
   21.7410    2.8070   51.8210 C   0  0  0  0  0  2  0  0  0  0  0  0
   21.4430    1.4930   52.4440 C   0  0  0  0  0  2  0  0  0  0  0  0
   22.6360    0.9960   52.8530 O   0  0  0  0  0  0  0  0  0  0  0  0
   22.8950   -0.3010   53.0080 C   0  0  0  0  0  2  0  0  0  0  0  0
   24.4190   -0.4630   53.2400 C   0  0  0  0  0  3  0  0  0  0  0  0
   25.4440    0.4440   53.3500 C   0  0  0  0  0  0  0  0  0  0  0  0
   25.7760    1.9370   53.5460 C   0  0  0  0  0  2  0  0  0  0  0  0
   24.5450    2.7440   53.7280 C   0  0  0  0  0  2  0  0  0  0  0  0
   24.7180    3.1820   52.4710 C   0  0  2  0  0  3  0  0  0  0  0  0
   26.6500    3.4650   49.8010 C   0  0  1  0  0  3  0  0  0  0  0  0
   26.7680    4.3180   48.9130 C   0  0  0  0  0  2  0  0  0  0  0  0
   27.7850    5.3200   48.5440 C   0  0  0  0  0  2  0  0  0  0  0  0
   28.9350    4.6480   48.1330 F   0  0  0  0  0  0  0  0  0  0  0  0
   26.7460   -0.0250   54.9740 N   0  0  0  0  0  0  0  0  0  0  0  0
   27.4190    0.5800   55.4220 H   0  0  0  0  0  0  0  0  0  0  0  0
   27.1690   -0.9760   55.1110 H   0  0  0  0  0  0  0  0  0  0  0  0
  1 22  1  0  0  0  0
  2  1  1  0  0  0  0
  3  2  1  0  0  0  0
  4  5  1  0  0  0  0
  4  3  1  6  0  0  0
  5  6  1  0  0  0  0
  5 17  1  0  0  0  0
  6  7  1  0  0  0  0
  6 17  1  0  0  0  0
  7  8  1  0  0  0  0
  9 10  1  0  0  0  0
  9  8  1  0  0  0  0
 10 11  1  0  0  0  0
 11 12  1  0  0  0  0
 12 13  1  0  0  0  0
 13 14  2  0  0  0  0
 14  1  1  0  0  0  0
 14 15  1  0  0  0  0
 15 16  1  0  0  0  0
 17 16  1  0  0  0  0
 18  4  1  0  0  0  0
 18  5  1  0  0  0  0
 19 18  1  0  0  0  0
 20 19  1  0  0  0  0
 21 20  1  0  0  0  0
 22 24  1  0  0  0  0
 22 23  1  0  0  0  0
M  END
>  <TORSDO>
F 4

$$$$
