C:\Qe-CaDD\Project\Data\Stage_6_Molecular_Dynamics\ligands_top\out_22107_EGFR_extracted.pdbqt
 OpenBabel01082506443D

 31 33  0  0  1  0  0  0  0  0999 V2000
   25.2230    1.0840   52.0400 C   0  0  1  0  0  3  0  0  0  0  0  0
   26.4090    1.7410   52.6660 C   0  0  0  0  0  3  0  0  0  0  0  0
   27.2580    0.9910   53.3590 C   0  0  0  0  0  0  0  0  0  0  0  0
   28.3400    1.8150   53.8840 C   0  0  0  0  0  0  0  0  0  0  0  0
   29.2000    2.4620   54.3200 N   0  0  0  0  0  0  0  0  0  0  0  0
   27.3290   -0.4520   53.6930 C   0  0  0  0  0  2  0  0  0  0  0  0
   26.0650   -1.0520   53.9140 O   0  0  0  0  0  0  0  0  0  0  0  0
   24.7990   -0.4250   53.9310 C   0  0  0  0  0  0  0  0  0  0  0  0
   24.3780    0.5380   53.1100 C   0  0  0  0  0  0  0  0  0  0  0  0
   23.1590    1.2870   53.0090 C   0  0  0  0  0  3  0  0  0  0  0  0
   21.9000    1.0580   53.3430 C   0  0  0  0  0  3  0  0  0  0  0  0
   21.2070   -0.0880   53.9740 C   0  0  0  0  0  3  0  0  0  0  0  0
   21.6440   -1.0700   54.7760 C   0  0  0  0  0  3  0  0  0  0  0  0
   22.9490   -1.3950   55.3400 C   0  0  0  0  0  3  0  0  0  0  0  0
   24.2340   -1.1760   55.0600 C   0  0  0  0  0  3  0  0  0  0  0  0
   24.5660    1.8980   51.0660 N   0  0  0  0  0  0  0  0  0  0  0  0
   23.5710    1.9240   50.7550 H   0  0  0  0  0  0  0  0  0  0  0  0
   25.3530    2.8810   50.3570 C   0  0  0  0  0  3  0  0  0  0  0  0
   25.5800    4.0870   49.9130 C   0  0  0  0  0  0  0  0  0  0  0  0
   25.6790    5.3790   49.3140 C   0  0  0  0  0  0  0  0  0  0  0  0
   26.8180    5.6920   48.7150 C   0  0  2  0  0  3  0  0  0  0  0  0
   27.1470    6.9150   48.0070 N   0  0  0  0  0  0  0  0  0  0  0  0
   26.3910    7.7700   47.3530 C   0  0  0  0  0  3  0  0  0  0  0  0
   24.9690    7.9300   47.0270 C   0  0  0  0  0  3  0  0  0  0  0  0
   23.8560    7.6190   47.6250 N   0  0  0  0  0  0  0  0  0  0  0  0
   23.6600    6.9660   48.9010 C   0  0  0  0  0  3  0  0  0  0  0  0
   24.4150    6.0610   49.5640 C   0  0  0  0  0  0  0  0  0  0  0  0
   23.8110    5.7420   50.8260 C   0  0  0  0  0  0  0  0  0  0  0  0
   23.3200    5.5030   51.8500 N   0  0  0  0  0  0  0  0  0  0  0  0
   28.0470    4.8950   48.5670 C   0  0  0  0  0  2  0  0  0  0  0  0
   29.1820    5.8550   48.2000 C   0  0  0  0  0  1  0  0  0  0  0  0
  1 16  1  1  0  0  0
  1  2  1  0  0  0  0
  1  9  1  0  0  0  0
  2  3  2  0  0  0  0
  3  6  1  0  0  0  0
  3  4  1  0  0  0  0
  4  5  3  0  0  0  0
  6  7  1  0  0  0  0
  7  8  1  0  0  0  0
  8 15  1  0  0  0  0
  9  8  2  0  0  0  0
 10  9  1  0  0  0  0
 10 11  2  0  0  0  0
 11 12  1  0  0  0  0
 12 13  2  0  0  0  0
 13 14  1  0  0  0  0
 15 14  2  0  0  0  0
 17 16  1  0  0  0  0
 18 16  1  0  0  0  0
 19 18  2  0  0  0  0
 20 27  1  0  0  0  0
 20 19  2  0  0  0  0
 21 30  1  6  0  0  0
 21 20  1  0  0  0  0
 22 21  1  0  0  0  0
 23 22  2  0  0  0  0
 24 23  1  0  0  0  0
 24 25  2  0  0  0  0
 25 26  1  0  0  0  0
 26 27  2  0  0  0  0
 27 28  1  0  0  0  0
 28 29  3  0  0  0  0
 31 30  1  0  0  0  0
M  END
>  <TORSDO>
F 5

$$$$
