C:\Qe-CaDD\Project\Data\Stage_6_Molecular_Dynamics\ligands_top\out_12412_EGFR_extracted.pdbqt
 OpenBabel01082506443D

 30 33  0  0  1  0  0  0  0  0999 V2000
   19.4080   -0.4590   52.5020 C   0  0  2  0  0  3  0  0  0  0  0  0
   20.3430   -0.5640   53.3480 O   0  0  0  0  0  0  0  0  0  0  0  0
   21.2690   -0.7100   54.1650 C   0  0  0  0  0  2  0  0  0  0  0  0
   22.7310   -0.8800   53.8210 C   0  0  0  0  0  2  0  0  0  0  0  0
   23.4090    0.1500   53.2060 O   0  0  0  0  0  0  0  0  0  0  0  0
   23.1360    0.8230   52.0650 C   0  0  0  0  0  0  0  0  0  0  0  0
   22.0150    0.6110   51.3240 C   0  0  0  0  0  3  0  0  0  0  0  0
   21.4480    1.1170   50.1830 C   0  0  0  0  0  0  0  0  0  0  0  0
   22.3050    2.0770   49.7240 C   0  0  0  0  0  3  0  0  0  0  0  0
   23.4740    2.3970   50.3560 C   0  0  0  0  0  0  0  0  0  0  0  0
   24.1480    3.3920   49.7010 N   0  0  0  0  0  0  0  0  0  0  0  0
   25.3260    3.7530   50.3040 C   0  0  0  0  0  3  0  0  0  0  0  0
   25.7570    3.1690   51.4350 N   0  0  0  0  0  0  0  0  0  0  0  0
   25.0950    2.2040   52.0640 C   0  0  0  0  0  0  0  0  0  0  0  0
   23.9150    1.8000   51.5130 C   0  0  0  0  0  0  0  0  0  0  0  0
   20.4220    0.2320   50.4040 O   0  0  0  0  0  0  0  0  0  0  0  0
   19.3900    0.4710   51.3410 C   0  0  1  0  0  3  0  0  0  0  0  0
   18.0300    0.6230   50.7130 C   0  0  0  0  0  1  0  0  0  0  0  0
   25.5680    1.6130   53.2580 N   0  0  0  0  0  0  0  0  0  0  0  0
   25.2090    1.5230   54.2150 H   0  0  0  0  0  0  0  0  0  0  0  0
   26.8120    0.9330   53.3730 C   0  0  0  0  0  0  0  0  0  0  0  0
   27.9290    1.6590   53.7260 C   0  0  0  0  0  3  0  0  0  0  0  0
   29.1890    1.0710   53.8420 C   0  0  0  0  0  3  0  0  0  0  0  0
   29.3910   -0.2650   53.6110 C   0  0  0  0  0  0  0  0  0  0  0  0
   30.5690   -0.9030   53.7010 F   0  0  0  0  0  0  0  0  0  0  0  0
   28.3000   -1.0280   53.2540 C   0  0  0  0  0  0  0  0  0  0  0  0
   28.4470   -2.7270   52.9430 Cl  0  0  0  0  0  0  0  0  0  0  0  0
   27.0840   -0.3970   53.1550 C   0  0  0  0  0  3  0  0  0  0  0  0
   18.1350   -0.2510   53.2100 O   0  0  0  0  0  0  0  0  0  0  0  0
   17.6730   -1.5480   53.4800 C   0  0  0  0  0  1  0  0  0  0  0  0
  1 29  1  1  0  0  0
  1  2  1  0  0  0  0
  2  3  1  0  0  0  0
  4  3  1  0  0  0  0
  5  4  1  0  0  0  0
  6  5  1  0  0  0  0
  7  6  2  0  0  0  0
  8 16  1  0  0  0  0
  8  7  1  0  0  0  0
  9  8  2  0  0  0  0
  9 10  1  0  0  0  0
 10 15  1  0  0  0  0
 11 12  1  0  0  0  0
 11 10  2  0  0  0  0
 12 13  2  0  0  0  0
 13 14  1  0  0  0  0
 14 19  1  0  0  0  0
 15 14  2  0  0  0  0
 15  6  1  0  0  0  0
 16 17  1  0  0  0  0
 17 18  1  6  0  0  0
 17  1  1  0  0  0  0
 19 21  1  0  0  0  0
 19 20  1  0  0  0  0
 21 22  1  0  0  0  0
 22 23  2  0  0  0  0
 24 25  1  0  0  0  0
 24 23  1  0  0  0  0
 26 24  2  0  0  0  0
 27 26  1  0  0  0  0
 28 26  1  0  0  0  0
 28 21  2  0  0  0  0
 29 30  1  0  0  0  0
M  END
>  <TORSDO>
F 3

$$$$
