C:\Qe-CaDD\Project\Data\Stage_6_Molecular_Dynamics\ligands_top\out_22642_EGFR_extracted.pdbqt
 OpenBabel01082506443D

 32 35  0  0  1  0  0  0  0  0999 V2000
   26.6180    2.0640   51.3340 C   0  0  0  0  0  0  0  0  0  0  0  0
   25.7630    1.1420   51.9070 C   0  0  0  0  0  3  0  0  0  0  0  0
   25.8900    0.6270   53.1790 C   0  0  0  0  0  0  0  0  0  0  0  0
   25.0340   -0.2840   53.7290 C   0  0  0  0  0  0  0  0  0  0  0  0
   25.3770   -0.6160   54.9650 N   0  0  0  0  0  0  0  0  0  0  0  0
   26.4180   -0.1710   55.6740 C   0  0  0  0  0  3  0  0  0  0  0  0
   27.2450    0.7250   55.1090 N   0  0  0  0  0  0  0  0  0  0  0  0
   26.9820    1.1300   53.8490 C   0  0  0  0  0  0  0  0  0  0  0  0
   27.8660    2.0450   53.3360 C   0  0  0  0  0  3  0  0  0  0  0  0
   27.6490    2.4820   52.0860 N   0  0  0  0  0  0  0  0  0  0  0  0
   26.4080    2.5490   50.0090 N   0  0  0  0  0  0  0  0  0  0  0  0
   26.4820    1.8590   49.2230 H   0  0  0  0  0  0  0  0  0  0  0  0
   26.0990    3.9740   49.7820 C   0  0  1  0  0  3  0  0  0  0  0  0
   27.1670    4.6200   48.9580 C   0  0  0  0  0  1  0  0  0  0  0  0
   24.7390    4.0590   49.2540 C   0  0  0  0  0  2  0  0  0  0  0  0
   23.5550    4.0180   50.1440 C   0  0  0  0  0  2  0  0  0  0  0  0
   23.6930    4.4230   51.4930 N   0  0  0  0  0  0  0  0  0  0  0  0
   23.5300    5.9080   51.5830 C   0  0  0  0  0  2  0  0  0  0  0  0
   22.3090    6.3430   50.8690 C   0  0  0  0  0  2  0  0  0  0  0  0
   21.2280    5.5160   50.9190 O   0  0  0  0  0  0  0  0  0  0  0  0
   21.2510    4.4510   51.7480 C   0  0  0  0  0  2  0  0  0  0  0  0
   22.5370    4.0110   52.3380 C   0  0  0  0  0  2  0  0  0  0  0  0
   23.9450   -0.7610   52.9940 N   0  0  0  0  0  0  0  0  0  0  0  0
   23.9850   -1.6370   52.4720 H   0  0  0  0  0  0  0  0  0  0  0  0
   22.6680   -0.1700   52.8360 C   0  0  0  0  0  0  0  0  0  0  0  0
   21.8130    0.0460   53.8900 C   0  0  0  0  0  3  0  0  0  0  0  0
   20.5650    0.6070   53.7970 C   0  0  0  0  0  3  0  0  0  0  0  0
   20.0870    1.0020   52.5650 C   0  0  0  0  0  0  0  0  0  0  0  0
   18.8850    1.5640   52.3330 F   0  0  0  0  0  0  0  0  0  0  0  0
   20.8970    0.8120   51.4680 C   0  0  0  0  0  0  0  0  0  0  0  0
   20.3240    1.3240   49.7260 Br  0  0  0  0  0  0  0  0  0  0  0  0
   22.1370    0.2430   51.6360 C   0  0  0  0  0  3  0  0  0  0  0  0
  1  2  2  0  0  0  0
  1 10  1  0  0  0  0
  2  3  1  0  0  0  0
  3  4  2  0  0  0  0
  3  8  1  0  0  0  0
  4  5  1  0  0  0  0
  5  6  2  0  0  0  0
  7  6  1  0  0  0  0
  8  7  2  0  0  0  0
  9  8  1  0  0  0  0
 10  9  2  0  0  0  0
 11  1  1  0  0  0  0
 12 11  1  0  0  0  0
 13 14  1  6  0  0  0
 13 11  1  0  0  0  0
 15 13  1  0  0  0  0
 15 16  1  0  0  0  0
 16 17  1  0  0  0  0
 17 18  1  0  0  0  0
 17 22  1  0  0  0  0
 19 20  1  0  0  0  0
 19 18  1  0  0  0  0
 20 21  1  0  0  0  0
 21 22  1  0  0  0  0
 23  4  1  0  0  0  0
 24 23  1  0  0  0  0
 25 23  1  0  0  0  0
 25 26  1  0  0  0  0
 27 26  2  0  0  0  0
 28 27  1  0  0  0  0
 29 28  1  0  0  0  0
 30 32  1  0  0  0  0
 30 28  2  0  0  0  0
 31 30  1  0  0  0  0
 32 25  2  0  0  0  0
M  END
>  <TORSDO>
F 7

$$$$
