C:\Qe-CaDD\Project\Data\Stage_6_Molecular_Dynamics\ligands_top\out_14110_EGFR_extracted.pdbqt
 OpenBabel01082506443D

 28 30  0  0  1  0  0  0  0  0999 V2000
   21.7360    0.3620   51.8420 C   0  0  0  0  0  0  0  0  0  0  0  0
   22.6400   -0.0590   52.7480 C   0  0  1  0  0  3  0  0  0  0  0  0
   23.8720    0.5600   53.2320 C   0  0  0  0  0  0  0  0  0  0  0  0
   24.2400    1.7440   52.8030 C   0  0  0  0  0  3  0  0  0  0  0  0
   24.0220    2.3200   51.4330 C   0  0  0  0  0  0  0  0  0  0  0  0
   25.0740    2.7930   50.8020 C   0  0  1  0  0  3  0  0  0  0  0  0
   26.3100    2.4950   51.4830 C   0  0  0  0  0  0  0  0  0  0  0  0
   27.4840    2.6820   51.4490 O   0  0  0  0  0  0  0  0  0  0  0  0
   26.8370    1.7790   52.5980 N   0  0  0  0  0  0  0  0  0  0  0  0
   26.7660    0.8850   53.7250 C   0  0  0  0  0  0  0  0  0  0  0  0
   27.8670    1.3910   53.5210 O   0  0  0  0  0  0  0  0  0  0  0  0
   25.9270   -0.0190   54.5540 C   0  0  0  0  0  2  0  0  0  0  0  0
   24.6120   -0.1280   54.1310 O   0  0  0  0  0  0  0  0  0  0  0  0
   22.8050    2.3830   50.6520 C   0  0  0  0  0  3  0  0  0  0  0  0
   21.8560    1.4800   50.8740 C   0  0  0  0  0  3  0  0  0  0  0  0
   27.8630    1.9780   52.6580 H   0  0  0  0  0  0  0  0  0  0  0  0
   25.1470    3.4000   49.5130 C   0  0  0  0  0  2  0  0  0  0  0  0
   25.6170    4.8300   49.5340 C   0  0  0  0  0  0  0  0  0  0  0  0
   24.8590    5.6230   50.3940 C   0  0  0  0  0  3  0  0  0  0  0  0
   25.2060    6.9550   50.4870 C   0  0  0  0  0  3  0  0  0  0  0  0
   26.2440    7.5350   49.7890 C   0  0  0  0  0  3  0  0  0  0  0  0
   26.9750    6.6990   48.9380 C   0  0  0  0  0  0  0  0  0  0  0  0
   28.5980    7.3700   47.7740 I   0  0  0  0  0  0  0  0  0  0  0  0
   26.6450    5.3650   48.8290 C   0  0  0  0  0  3  0  0  0  0  0  0
   22.3660   -1.2900   53.3310 O   0  0  0  0  0  0  0  0  0  0  0  0
   21.6730   -1.5010   54.5200 C   0  0  0  0  0  1  0  0  0  0  0  0
   20.5320   -0.3140   51.7790 O   0  0  0  0  0  0  0  0  0  0  0  0
   19.3020    0.3560   52.0900 C   0  0  0  0  0  1  0  0  0  0  0  0
  1  2  1  0  0  0  0
  2  3  1  0  0  0  0
  2 25  1  1  0  0  0
  3 13  1  0  0  0  0
  4  3  2  0  0  0  0
  5  4  1  0  0  0  0
  6 17  1  6  0  0  0
  6  5  1  0  0  0  0
  6  7  1  0  0  0  0
  7  9  1  0  0  0  0
  8  7  2  0  0  0  0
  9 10  2  0  0  0  0
 10 12  1  0  0  0  0
 11 10  1  0  0  0  0
 13 12  1  0  0  0  0
 14 15  1  0  0  0  0
 14  5  2  0  0  0  0
 15  1  2  0  0  0  0
 16 11  1  0  0  0  0
 17 18  1  0  0  0  0
 18 19  1  0  0  0  0
 19 20  2  0  0  0  0
 21 20  1  0  0  0  0
 22 21  2  0  0  0  0
 23 22  1  0  0  0  0
 24 22  1  0  0  0  0
 24 18  2  0  0  0  0
 25 26  1  0  0  0  0
 27  1  1  0  0  0  0
 27 28  1  0  0  0  0
M  END
>  <TORSDO>
F 4

$$$$
