C:\Qe-CaDD\Project\Data\Stage_6_Molecular_Dynamics\ligands_top\out_21763_EGFR_extracted.pdbqt
 OpenBabel01082506443D

 32 34  0  0  1  0  0  0  0  0999 V2000
   23.4500    3.5570   49.7900 C   0  0  1  0  0  3  0  0  0  0  0  0
   22.2690    3.2460   49.0630 C   0  0  0  0  0  3  0  0  0  0  0  0
   21.0970    2.7910   49.2820 C   0  0  0  0  0  3  0  0  0  0  0  0
   19.8150    2.4720   48.4380 C   0  0  0  0  0  2  0  0  0  0  0  0
   18.8620    1.9820   49.3930 N   0  0  0  0  0  2  0  0  0  0  0  0
   19.5260    2.0030   50.6880 C   0  0  0  0  0  2  0  0  0  0  0  0
   20.2650    2.3220   51.7220 C   0  0  1  0  0  3  0  0  0  0  0  0
   21.2270    3.4190   52.1550 C   0  0  0  0  0  2  0  0  0  0  0  0
   22.5460    2.7820   52.0170 N   0  0  0  0  0  0  0  0  0  0  0  0
   23.0860    1.5960   52.7030 C   0  0  0  0  0  3  0  0  0  0  0  0
   22.8270    0.4680   53.2940 C   0  0  0  0  0  3  0  0  0  0  0  0
   23.3350   -0.6520   53.9590 C   0  0  0  0  0  2  0  0  0  0  0  0
   22.0940   -1.1040   54.0800 C   0  0  0  0  0  2  0  0  0  0  0  0
   20.7000   -0.8670   53.8150 C   0  0  0  0  0  0  0  0  0  0  0  0
   19.9270   -1.9090   54.2660 F   0  0  0  0  0  0  0  0  0  0  0  0
   19.8500   -0.0040   53.2860 C   0  0  0  0  0  3  0  0  0  0  0  0
   19.8730    1.2710   52.6410 N   0  0  0  0  0  0  0  0  0  0  0  0
   23.6060    3.3030   51.2410 C   0  0  0  0  0  2  0  0  0  0  0  0
   19.1670    1.9780   53.0320 H   0  0  0  0  0  0  0  0  0  0  0  0
   24.7160    3.5670   49.1490 N   0  0  0  0  0  0  0  0  0  0  0  0
   24.8410    2.6780   48.5920 H   0  0  0  0  0  0  0  0  0  0  0  0
   25.8760    3.7970   49.9790 C   0  0  2  0  0  3  0  0  0  0  0  0
   26.8350    4.6470   49.1980 C   0  0  0  0  0  1  0  0  0  0  0  0
   26.4960    2.5420   50.4500 C   0  0  0  0  0  2  0  0  0  0  0  0
   26.9570    2.4460   51.8230 C   0  0  0  0  0  2  0  0  0  0  0  0
   27.1490    1.2350   52.5420 N   0  0  0  0  0  0  0  0  0  0  0  0
   28.1800    1.3140   53.5790 C   0  0  0  0  0  0  0  0  0  0  0  0
   28.8360    2.4830   53.7290 C   0  0  0  0  0  2  0  0  0  0  0  0
   28.7590    0.3840   54.6160 C   0  0  0  0  0  2  0  0  0  0  0  0
   28.2920   -0.8790   54.3410 O   0  0  0  0  0  0  0  0  0  0  0  0
   27.9900   -0.9840   52.9790 C   0  0  0  0  0  2  0  0  0  0  0  0
   26.7500   -0.1720   52.7090 C   0  0  0  0  0  2  0  0  0  0  0  0
  1 20  1  6  0  0  0
  1 18  1  0  0  0  0
  2  3  2  0  0  0  0
  2  1  1  0  0  0  0
  4  3  1  0  0  0  0
  4  5  1  0  0  0  0
  5  6  1  0  0  0  0
  7  6  1  1  0  0  0
  7  8  1  0  0  0  0
  7 17  1  0  0  0  0
  9  8  1  0  0  0  0
  9 10  1  0  0  0  0
 10 11  2  0  0  0  0
 11 12  1  0  0  0  0
 12 13  1  0  0  0  0
 14 13  1  0  0  0  0
 14 15  1  0  0  0  0
 16 14  2  0  0  0  0
 17 19  1  0  0  0  0
 17 16  1  0  0  0  0
 18  9  1  0  0  0  0
 20 22  1  0  0  0  0
 21 20  1  0  0  0  0
 22 23  1  6  0  0  0
 22 24  1  0  0  0  0
 24 25  1  0  0  0  0
 25 26  1  0  0  0  0
 26 32  1  0  0  0  0
 26 27  1  0  0  0  0
 27 28  2  0  0  0  0
 27 29  1  0  0  0  0
 30 29  1  0  0  0  0
 31 30  1  0  0  0  0
 32 31  1  0  0  0  0
M  END
>  <TORSDO>
F 5

$$$$
