C:\Qe-CaDD\Project\Data\Stage_6_Molecular_Dynamics\ligands_top\out_16996_EGFR_extracted.pdbqt
 OpenBabel01082506443D

 24 26  0  0  0  0  0  0  0  0999 V2000
   19.9300   -0.3710   52.7880 C   0  0  0  0  0  0  0  0  0  0  0  0
   20.4010   -1.0090   53.9170 C   0  0  0  0  0  3  0  0  0  0  0  0
   21.7390   -0.9690   54.2400 C   0  0  0  0  0  0  0  0  0  0  0  0
   22.2380   -1.5630   55.3110 N   0  0  0  0  0  0  0  0  0  0  0  0
   23.5420   -1.5180   55.6170 C   0  0  0  0  0  3  0  0  0  0  0  0
   24.3900   -0.8570   54.8300 N   0  0  0  0  0  0  0  0  0  0  0  0
   24.0100   -0.2120   53.7130 C   0  0  0  0  0  0  0  0  0  0  0  0
   22.6630   -0.3030   53.4680 C   0  0  0  0  0  0  0  0  0  0  0  0
   22.1830    0.3280   52.3460 C   0  0  0  0  0  3  0  0  0  0  0  0
   20.8470    0.2930   52.0180 C   0  0  0  0  0  0  0  0  0  0  0  0
   24.9730    0.4660   52.9260 N   0  0  0  0  0  0  0  0  0  0  0  0
   25.1140    1.8390   51.6430 Br  0  0  0  0  0  0  0  0  0  0  0  0
   26.3480    0.0620   53.1090 C   0  0  0  0  0  0  0  0  0  0  0  0
   26.9510   -1.1220   52.7950 C   0  0  0  0  0  3  0  0  0  0  0  0
   28.2920   -1.3250   53.0300 C   0  0  0  0  0  3  0  0  0  0  0  0
   29.0970   -0.3590   53.5860 C   0  0  0  0  0  0  0  0  0  0  0  0
   30.4010   -0.6460   53.7800 F   0  0  0  0  0  0  0  0  0  0  0  0
   28.4990    0.8550   53.9110 C   0  0  0  0  0  0  0  0  0  0  0  0
   29.6200    2.0100   54.6130 Cl  0  0  0  0  0  0  0  0  0  0  0  0
   27.1600    1.0450   53.6730 C   0  0  0  0  0  3  0  0  0  0  0  0
   20.3510    0.9310   50.8800 O   0  0  0  0  0  0  0  0  0  0  0  0
   21.1160    0.9920   49.7020 C   0  0  0  0  0  1  0  0  0  0  0  0
   18.5910   -0.3970   52.4440 O   0  0  0  0  0  0  0  0  0  0  0  0
   17.6700   -1.3020   53.0350 C   0  0  0  0  0  1  0  0  0  0  0  0
  1  2  1  0  0  0  0
  2  3  2  0  0  0  0
  3  4  1  0  0  0  0
  4  5  2  0  0  0  0
  6  5  1  0  0  0  0
  7  6  2  0  0  0  0
  8  7  1  0  0  0  0
  8  3  1  0  0  0  0
  9  8  2  0  0  0  0
 10  9  1  0  0  0  0
 10  1  2  0  0  0  0
 11 13  1  0  0  0  0
 11  7  1  0  0  0  0
 12 11  1  0  0  0  0
 13 20  1  0  0  0  0
 14 15  1  0  0  0  0
 14 13  2  0  0  0  0
 15 16  2  0  0  0  0
 16 17  1  0  0  0  0
 16 18  1  0  0  0  0
 18 19  1  0  0  0  0
 20 18  2  0  0  0  0
 21 10  1  0  0  0  0
 22 21  1  0  0  0  0
 23  1  1  0  0  0  0
 23 24  1  0  0  0  0
M  END
>  <TORSDO>
F 4

$$$$
