C:\Qe-CaDD\Project\Data\Stage_6_Molecular_Dynamics\ligands_top\out_11036_EGFR_extracted.pdbqt
 OpenBabel01082506443D

 28 29  0  0  0  0  0  0  0  0999 V2000
   22.4910    0.4940   53.0550 C   0  0  0  0  0  0  0  0  0  0  0  0
   21.6470   -0.0120   54.0220 C   0  0  0  0  0  3  0  0  0  0  0  0
   22.0370   -0.8470   55.0480 C   0  0  0  0  0  3  0  0  0  0  0  0
   23.3660   -1.2110   55.1250 C   0  0  0  0  0  3  0  0  0  0  0  0
   24.2690   -0.7460   54.1930 C   0  0  0  0  0  0  0  0  0  0  0  0
   23.8030    0.0910   53.1890 C   0  0  0  0  0  3  0  0  0  0  0  0
   22.0600    1.3520   52.0090 N   0  0  0  0  0  0  0  0  0  0  0  0
   21.5330    0.9150   51.2230 H   0  0  0  0  0  0  0  0  0  0  0  0
   22.3380    2.7520   52.0360 C   0  0  0  0  0  2  0  0  0  0  0  0
   23.5030    3.1190   51.2910 N   0  0  0  0  0  0  0  0  0  0  0  0
   23.8480    4.3090   51.0200 C   0  0  0  0  0  0  0  0  0  0  0  0
   25.0570    4.5840   50.2540 C   0  0  0  0  0  3  0  0  0  0  0  0
   25.9390    3.6200   50.0480 C   0  0  0  0  0  3  0  0  0  0  0  0
   27.1350    3.8140   49.3120 N   0  0  0  0  0  0  0  0  0  0  0  0
   27.4140    4.8820   48.6760 C   0  0  0  0  0  2  0  0  0  0  0  0
   23.0650    5.4560   51.4570 C   0  0  0  0  0  3  0  0  0  0  0  0
   22.7970    6.4660   50.6480 C   0  0  0  0  0  3  0  0  0  0  0  0
   22.0640    7.6360   50.9020 N   0  0  0  0  0  0  0  0  0  0  0  0
   21.2730    8.3940   49.9290 C   0  0  0  0  0  1  0  0  0  0  0  0
   21.9950    8.1130   51.8290 H   0  0  0  0  0  0  0  0  0  0  0  0
   25.6270   -1.0800   54.2160 O   0  0  0  0  0  0  0  0  0  0  0  0
   26.2870   -1.0380   52.9570 C   0  0  0  0  0  2  0  0  0  0  0  0
   27.7930   -0.9990   53.1260 C   0  0  0  0  0  2  0  0  0  0  0  0
   28.2560    0.2980   53.5590 N   0  0  0  0  0  0  0  0  0  0  0  0
   28.0620    1.4990   52.9980 C   0  0  0  0  0  3  0  0  0  0  0  0
   28.6530    2.5240   53.6890 C   0  0  0  0  0  3  0  0  0  0  0  0
   29.2330    1.8920   54.7240 N   0  0  0  0  0  0  0  0  0  0  0  0
   28.9960    0.5610   54.6480 C   0  0  0  0  0  3  0  0  0  0  0  0
  1  6  2  0  0  0  0
  1  2  1  0  0  0  0
  2  3  2  0  0  0  0
  3  4  1  0  0  0  0
  5 21  1  0  0  0  0
  5  4  2  0  0  0  0
  6  5  1  0  0  0  0
  7  9  1  0  0  0  0
  7  1  1  0  0  0  0
  8  7  1  0  0  0  0
 10  9  1  0  0  0  0
 11 10  2  0  0  0  0
 11 16  1  0  0  0  0
 12 11  1  0  0  0  0
 13 12  2  0  0  0  0
 14 13  1  0  0  0  0
 15 14  2  0  0  0  0
 17 18  1  0  0  0  0
 17 16  2  0  0  0  0
 18 20  1  0  0  0  0
 19 18  1  0  0  0  0
 22 23  1  0  0  0  0
 22 21  1  0  0  0  0
 23 24  1  0  0  0  0
 24 28  1  0  0  0  0
 25 24  1  0  0  0  0
 25 26  2  0  0  0  0
 26 27  1  0  0  0  0
 28 27  2  0  0  0  0
M  END
>  <TORSDO>
F 11

$$$$
