C:\Qe-CaDD\Project\Data\Stage_6_Molecular_Dynamics\ligands_top\out_2022_EGFR_extracted.pdbqt
 OpenBabel01082506443D

 30 34  0  0  1  0  0  0  0  0999 V2000
   27.1550    1.4690   53.8310 C   0  0  2  0  0  3  0  0  0  0  0  0
   25.7500    0.9860   54.5530 C   0  0  0  0  0  2  0  0  0  0  0  0
   25.9610    0.1430   53.4850 C   0  0  2  0  0  0  0  0  0  0  0  0
   26.4610   -0.3420   52.1190 C   0  0  0  0  0  2  0  0  0  0  0  0
   26.5840    0.8500   52.6060 C   0  0  2  0  0  0  0  0  0  0  0  0
   25.6590    1.8700   51.7640 C   0  0  0  0  0  2  0  0  0  0  0  0
   24.2670    1.6370   51.4760 C   0  0  1  0  0  3  0  0  0  0  0  0
   23.5080    0.6090   52.3400 C   0  0  0  0  0  0  0  0  0  0  0  0
   24.3160   -0.1480   53.4500 C   0  0  0  0  0  0  0  0  0  0  0  0
   23.3680   -0.8480   54.0790 O   0  0  0  0  0  0  0  0  0  0  0  0
   22.2340   -0.5830   53.4830 C   0  0  0  0  0  0  0  0  0  0  0  0
   22.2260    0.2950   52.4100 C   0  0  0  0  0  0  0  0  0  0  0  0
   21.1560    0.7390   51.6110 C   0  0  0  0  0  0  0  0  0  0  0  0
   21.2640    1.5290   50.6720 O   0  0  0  0  0  0  0  0  0  0  0  0
   19.8610    0.1750   51.9860 C   0  0  0  0  0  0  0  0  0  0  0  0
   18.7230    0.5310   51.2790 C   0  0  0  0  0  3  0  0  0  0  0  0
   17.4960    0.0060   51.6240 C   0  0  0  0  0  3  0  0  0  0  0  0
   17.4770   -0.8700   52.6890 C   0  0  0  0  0  3  0  0  0  0  0  0
   18.5760   -1.2580   53.4260 C   0  0  0  0  0  3  0  0  0  0  0  0
   19.7930   -0.7230   53.0640 C   0  0  0  0  0  0  0  0  0  0  0  0
   20.9600   -1.1540   53.8720 C   0  0  0  0  0  0  0  0  0  0  0  0
   20.8720   -1.9450   54.8150 O   0  0  0  0  0  0  0  0  0  0  0  0
   28.1670    0.8860   54.4080 O   0  0  0  0  0  0  0  0  0  0  0  0
   29.4580    1.2180   54.2050 C   0  0  0  0  0  2  0  0  0  0  0  0
   30.1380    0.1120   53.4190 C   0  0  0  0  0  2  0  0  0  0  0  0
   29.5340   -1.2280   53.7720 C   0  0  0  0  0  1  0  0  0  0  0  0
   23.4890    2.2470   50.5240 C   0  0  0  0  0  3  0  0  0  0  0  0
   23.9730    3.2200   49.8980 O   0  0  0  0  0  0  0  0  0  0  0  0
   23.2750    4.0120   48.8250 C   0  0  0  0  0  1  0  0  0  0  0  0
   24.0210    3.3170   49.8350 O   0  0  0  0  0  1  0  0  0  0  0  0
  1 23  1  1  0  0  0
  1  2  1  0  0  0  0
  3  4  1  1  0  0  0
  3  2  1  0  0  0  0
  4  5  1  0  0  0  0
  5  6  1  6  0  0  0
  5  3  1  0  0  0  0
  5  1  1  0  0  0  0
  7 27  1  1  0  0  0
  7  6  1  0  0  0  0
  7  8  1  0  0  0  0
  8 12  1  0  0  0  0
  8  9  2  0  0  0  0
  9  3  1  0  0  0  0
  9 10  1  0  0  0  0
 11 21  1  0  0  0  0
 11 10  1  0  0  0  0
 12 11  2  0  0  0  0
 13 15  1  0  0  0  0
 13 12  1  0  0  0  0
 14 13  2  0  0  0  0
 15 20  1  0  0  0  0
 16 17  1  0  0  0  0
 16 15  2  0  0  0  0
 17 18  2  0  0  0  0
 18 19  1  0  0  0  0
 20 19  2  0  0  0  0
 20 21  1  0  0  0  0
 21 22  2  0  0  0  0
 24 23  1  0  0  0  0
 25 26  1  0  0  0  0
 25 24  1  0  0  0  0
 28 27  2  0  0  0  0
 29 30  1  0  0  0  0
M  END
>  <TORSDO>
F 4

$$$$
