C:\Qe-CaDD\Project\Data\Stage_6_Molecular_Dynamics\ligands_top\out_11793_EGFR_extracted.pdbqt
 OpenBabel01082506443D

 27 28  0  0  0  0  0  0  0  0999 V2000
   25.1870    5.4720   49.3860 C   0  0  0  0  0  0  0  0  0  0  0  0
   26.3970    4.9110   49.0540 C   0  0  0  0  0  3  0  0  0  0  0  0
   26.9220    3.7470   49.5670 C   0  0  0  0  0  3  0  0  0  0  0  0
   26.1820    3.0590   50.5070 C   0  0  0  0  0  0  0  0  0  0  0  0
   24.9580    3.5740   50.8810 C   0  0  0  0  0  0  0  0  0  0  0  0
   24.4950    4.7430   50.3280 C   0  0  0  0  0  3  0  0  0  0  0  0
   26.6100    1.8540   51.1090 N   0  0  0  0  0  0  0  0  0  0  0  0
   26.3180    1.0970   50.4420 H   0  0  0  0  0  0  0  0  0  0  0  0
   27.2870    1.5980   52.3300 C   0  0  0  0  0  0  0  0  0  0  0  0
   28.2140    2.5200   52.7150 N   0  0  0  0  0  0  0  0  0  0  0  0
   28.9110    2.3750   53.8530 C   0  0  0  0  0  3  0  0  0  0  0  0
   28.7290    1.3200   54.6610 N   0  0  0  0  0  0  0  0  0  0  0  0
   27.8370    0.3890   54.3360 C   0  0  0  0  0  3  0  0  0  0  0  0
   27.1040    0.5180   53.1630 C   0  0  0  0  0  0  0  0  0  0  0  0
   26.1070   -0.4770   52.7520 C   0  0  0  0  0  0  0  0  0  0  0  0
   25.9320   -1.3730   53.8140 F   0  0  0  0  0  0  0  0  0  0  0  0
   26.5780   -1.1920   51.6770 F   0  0  0  0  0  0  0  0  0  0  0  0
   24.8620    0.0750   52.5310 F   0  0  0  0  0  0  0  0  0  0  0  0
   24.2000    2.8970   51.8260 O   0  0  0  0  0  0  0  0  0  0  0  0
   24.1160    3.3960   53.1470 C   0  0  0  0  0  1  0  0  0  0  0  0
   24.6630    6.6660   48.8350 N   0  0  0  0  0  0  0  0  0  0  0  0
   23.6610    6.5820   48.4800 H   0  0  0  0  0  0  0  0  0  0  0  0
   25.3370    7.9370   48.7130 C   0  0  0  0  0  2  0  0  0  0  0  0
   25.4640    8.6840   50.0010 C   0  0  0  0  0  2  0  0  0  0  0  0
   26.8020    8.4120   50.5430 N   0  0  0  0  0  0  0  0  0  0  0  0
   27.7600    8.7570   49.4970 C   0  0  0  0  0  1  0  0  0  0  0  0
   26.9030    7.4230   50.8440 H   0  0  0  0  0  0  0  0  0  0  0  0
  1  6  1  0  0  0  0
  2  1  2  0  0  0  0
  2  3  1  0  0  0  0
  3  4  2  0  0  0  0
  4  5  1  0  0  0  0
  4  7  1  0  0  0  0
  5 19  1  0  0  0  0
  6  5  2  0  0  0  0
  7  9  1  0  0  0  0
  8  7  1  0  0  0  0
  9 10  2  0  0  0  0
  9 14  1  0  0  0  0
 10 11  1  0  0  0  0
 11 12  2  0  0  0  0
 13 12  1  0  0  0  0
 14 13  2  0  0  0  0
 15 14  1  0  0  0  0
 15 16  1  0  0  0  0
 17 15  1  0  0  0  0
 18 15  1  0  0  0  0
 19 20  1  0  0  0  0
 21  1  1  0  0  0  0
 22 21  1  0  0  0  0
 23 21  1  0  0  0  0
 23 24  1  0  0  0  0
 24 25  1  0  0  0  0
 25 27  1  0  0  0  0
 26 25  1  0  0  0  0
M  END
>  <TORSDO>
F 8

$$$$
