C:\Qe-CaDD\Project\Data\Stage_6_Molecular_Dynamics\ligands_top\out_21674_EGFR_extracted.pdbqt
 OpenBabel01082506443D

 24 25  0  0  1  0  0  0  0  0999 V2000
   24.8980   -0.6790   53.9500 C   0  0  0  0  0  0  0  0  0  0  0  0
   24.7400    0.2760   53.0350 C   0  0  0  0  0  0  0  0  0  0  0  0
   24.0570    1.3060   52.2510 C   0  0  0  0  0  0  0  0  0  0  0  0
   23.0160    2.0430   51.9240 C   0  0  0  0  0  0  0  0  0  0  0  0
   21.6840    2.5750   51.9330 C   0  0  0  0  0  0  0  0  0  0  0  0
   21.6280    3.4500   51.0000 O   0  0  0  0  0  1  0  0  0  0  0  0
   20.4470    2.3680   52.7100 C   0  0  0  0  0  2  0  0  0  0  0  0
   19.6590    1.1610   52.2410 C   0  0  0  0  0  2  0  0  0  0  0  0
   20.5410   -0.0690   52.3340 C   0  0  0  0  0  2  0  0  0  0  0  0
   20.9710   -0.1960   53.7610 C   0  0  0  0  0  2  0  0  0  0  0  0
   22.1060   -1.1930   53.8310 C   0  0  0  0  0  2  0  0  0  0  0  0
   22.7700   -0.9630   55.1980 C   0  0  0  0  0  2  0  0  0  0  0  0
   24.1720   -1.4520   55.0280 C   0  0  2  0  0  3  0  0  0  0  0  0
   26.1910   -1.1730   53.9400 O   0  0  0  0  0  0  0  0  0  0  0  0
   27.3460   -0.4280   53.6940 C   0  0  2  0  0  3  0  0  0  0  0  0
   28.4220   -1.3730   53.2750 C   0  0  0  0  0  0  0  0  0  0  0  0
   28.2160   -2.8280   52.9610 C   0  0  0  0  0  1  0  0  0  0  0  0
   29.6370   -0.8070   53.1980 C   0  0  0  0  0  3  0  0  0  0  0  0
   29.8070    0.6600   53.5220 C   0  0  0  0  0  2  0  0  0  0  0  0
   29.0680    0.8290   54.8230 C   0  0  0  0  0  3  0  0  0  0  0  0
   27.8550    0.2860   54.8890 C   0  0  0  0  0  3  0  0  0  0  0  0
   24.9100   -1.3520   56.2540 N   0  0  0  0  0  0  0  0  0  0  0  0
   25.9030   -1.5220   56.0290 H   0  0  0  0  0  0  0  0  0  0  0  0
   24.6470   -2.0700   56.9670 H   0  0  0  0  0  0  0  0  0  0  0  0
  1 13  1  0  0  0  0
  2  1  2  0  0  0  0
  3  2  2  0  0  0  0
  4  5  2  0  0  0  0
  4  3  2  0  0  0  0
  5  7  1  0  0  0  0
  6  5  1  0  0  0  0
  8  9  1  0  0  0  0
  8  7  1  0  0  0  0
  9 10  1  0  0  0  0
 10 11  1  0  0  0  0
 11 12  1  0  0  0  0
 13 12  1  0  0  0  0
 13 22  1  1  0  0  0
 14  1  1  0  0  0  0
 15 14  1  1  0  0  0
 15 21  1  0  0  0  0
 16 15  1  0  0  0  0
 17 16  1  0  0  0  0
 18 16  2  0  0  0  0
 18 19  1  0  0  0  0
 19 20  1  0  0  0  0
 20 21  2  0  0  0  0
 22 24  1  0  0  0  0
 23 22  1  0  0  0  0
M  END
>  <TORSDO>
F 3

$$$$
