C:\Qe-CaDD\Project\Data\Stage_6_Molecular_Dynamics\ligands_top\out_16911_EGFR_extracted.pdbqt
 OpenBabel01082506443D

 26 29  0  0  1  0  0  0  0  0999 V2000
   21.8890    0.1550   54.0300 N   0  0  0  0  0  0  0  0  0  0  0  0
   22.1540   -0.9490   54.7990 C   0  0  0  0  0  3  0  0  0  0  0  0
   23.4710   -1.1360   54.6970 N   0  0  0  0  0  0  0  0  0  0  0  0
   24.0150   -0.2150   53.9150 C   0  0  0  0  0  0  0  0  0  0  0  0
   23.0230    0.6060   53.4890 C   0  0  0  0  0  0  0  0  0  0  0  0
   23.2310    1.6540   52.5420 C   0  0  0  0  0  0  0  0  0  0  0  0
   23.5210    2.9620   52.7390 C   0  0  0  0  0  3  0  0  0  0  0  0
   23.7930    4.2670   52.1220 C   0  0  0  0  0  3  0  0  0  0  0  0
   22.8540    4.6910   51.0740 N   0  0  0  0  0  0  0  0  0  0  0  0
   22.1790    5.8030   50.5640 N   0  0  0  0  0  2  0  0  0  0  0  0
   22.2360    3.8790   50.0360 C   0  0  2  0  0  3  0  0  0  0  0  0
   21.5850    5.1370   49.6010 C   0  0  0  0  0  2  0  0  0  0  0  0
   22.4900    2.2350   49.8540 S   0  0  0  0  0  0  0  0  0  0  0  0
   23.2150    1.3380   51.0790 C   0  0  0  0  0  3  0  0  0  0  0  0
   20.5250    0.5520   53.9500 C   0  0  0  0  0  2  0  0  0  0  0  0
   19.7940   -0.2060   52.8840 C   0  0  0  0  0  2  0  0  0  0  0  0
   19.5760    0.5900   51.6880 N   0  0  0  0  0  0  0  0  0  0  0  0
   18.3470    0.1230   51.0820 C   0  0  0  0  0  1  0  0  0  0  0  0
   19.4370    1.9920   51.9940 C   0  0  0  0  0  1  0  0  0  0  0  0
   25.4370   -0.4230   53.7200 C   0  0  0  0  0  0  0  0  0  0  0  0
   26.2700    0.2100   54.6760 C   0  0  0  0  0  3  0  0  0  0  0  0
   27.6650    0.2440   54.7490 C   0  0  0  0  0  3  0  0  0  0  0  0
   28.2870   -0.4450   53.7350 C   0  0  0  0  0  0  0  0  0  0  0  0
   29.6370   -0.4790   53.7110 F   0  0  0  0  0  0  0  0  0  0  0  0
   27.6050   -1.1030   52.7420 C   0  0  0  0  0  3  0  0  0  0  0  0
   26.2430   -1.0500   52.7980 C   0  0  0  0  0  3  0  0  0  0  0  0
  1  2  1  0  0  0  0
  3  2  2  0  0  0  0
  4  3  1  0  0  0  0
  5  4  2  0  0  0  0
  5  1  1  0  0  0  0
  6  7  1  0  0  0  0
  6  5  1  0  0  0  0
  8  7  2  0  0  0  0
  9  8  1  0  0  0  0
 10  9  1  0  0  0  0
 11 12  1  1  0  0  0
 11  9  1  0  0  0  0
 12 10  1  0  0  0  0
 13 11  1  0  0  0  0
 13 14  1  0  0  0  0
 14  6  2  0  0  0  0
 15  1  1  0  0  0  0
 16 15  1  0  0  0  0
 17 19  1  0  0  0  0
 17 16  1  0  0  0  0
 18 17  1  0  0  0  0
 20  4  1  0  0  0  0
 20 21  1  0  0  0  0
 21 22  2  0  0  0  0
 23 22  1  0  0  0  0
 24 23  1  0  0  0  0
 25 26  1  0  0  0  0
 25 23  2  0  0  0  0
 26 20  2  0  0  0  0
M  END
>  <TORSDO>
F 5

$$$$
