C:\Qe-CaDD\Project\Data\Stage_6_Molecular_Dynamics\ligands_top\out_16988_EGFR_extracted.pdbqt
 OpenBabel01082506443D

 25 26  0  0  0  0  0  0  0  0999 V2000
   26.0650    1.1420   53.6590 N   0  0  0  0  0  2  0  0  0  0  0  0
   24.9000    0.8160   53.2150 C   0  0  0  0  0  0  0  0  0  0  0  0
   24.0650   -0.3040   53.6290 C   0  0  0  0  0  3  0  0  0  0  0  0
   22.8820   -0.5040   53.0700 C   0  0  0  0  0  0  0  0  0  0  0  0
   22.3310    0.3540   52.0270 C   0  0  0  0  0  0  0  0  0  0  0  0
   23.0200    1.3970   51.5890 C   0  0  0  0  0  3  0  0  0  0  0  0
   24.3460    1.6840   52.1640 C   0  0  0  0  0  0  0  0  0  0  0  0
   25.0210    2.7180   51.7230 C   0  0  0  0  0  2  0  0  0  0  0  0
   24.7290    3.6990   50.7370 N   0  0  0  0  0  0  0  0  0  0  0  0
   23.6980    3.8590   50.5660 H   0  0  0  0  0  0  0  0  0  0  0  0
   25.6550    4.4570   49.9860 C   0  0  0  0  0  0  0  0  0  0  0  0
   26.7660    3.9040   49.3790 C   0  0  0  0  0  3  0  0  0  0  0  0
   27.6240    4.6840   48.6690 C   0  0  0  0  0  3  0  0  0  0  0  0
   27.3770    6.0370   48.5560 C   0  0  0  0  0  0  0  0  0  0  0  0
   28.2410    6.8060   47.8430 F   0  0  0  0  0  0  0  0  0  0  0  0
   26.2700    6.5880   49.1600 C   0  0  0  0  0  0  0  0  0  0  0  0
   25.9740    8.3250   49.0020 Cl  0  0  0  0  0  0  0  0  0  0  0  0
   25.3910    5.8090   49.8850 C   0  0  0  0  0  3  0  0  0  0  0  0
   26.7200    0.4020   54.6670 C   0  0  0  0  0  3  0  0  0  0  0  0
   27.8530   -0.1250   54.9900 N   0  0  0  0  0  0  0  0  0  0  0  0
   28.9880   -0.0110   54.1020 C   0  0  0  0  0  1  0  0  0  0  0  0
   21.1090    0.1690   51.4340 O   0  0  0  0  0  0  0  0  0  0  0  0
   19.9000    0.7670   51.7940 C   0  0  0  0  0  1  0  0  0  0  0  0
   22.1060   -1.5790   53.4830 O   0  0  0  0  0  0  0  0  0  0  0  0
   21.2500   -1.3420   54.6080 C   0  0  0  0  0  1  0  0  0  0  0  0
  1 19  1  0  0  0  0
  2  3  1  0  0  0  0
  2  1  1  0  0  0  0
  4 24  1  0  0  0  0
  4  3  2  0  0  0  0
  5  4  1  0  0  0  0
  6  5  2  0  0  0  0
  6  7  1  0  0  0  0
  7  2  2  0  0  0  0
  8  7  1  0  0  0  0
  9  8  1  0  0  0  0
 10  9  1  0  0  0  0
 11  9  1  0  0  0  0
 12 11  2  0  0  0  0
 13 12  1  0  0  0  0
 14 13  2  0  0  0  0
 14 16  1  0  0  0  0
 15 14  1  0  0  0  0
 16 18  2  0  0  0  0
 17 16  1  0  0  0  0
 18 11  1  0  0  0  0
 19 20  2  0  0  0  0
 21 20  1  0  0  0  0
 22 23  1  0  0  0  0
 22  5  1  0  0  0  0
 24 25  1  0  0  0  0
M  END
>  <TORSDO>
F 5

$$$$
