C:\Qe-CaDD\Project\Data\Stage_6_Molecular_Dynamics\ligands_top\out_12154_EGFR_extracted.pdbqt
 OpenBabel01082506443D

 24 26  0  0  1  0  0  0  0  0999 V2000
   26.2730    1.1040   54.1260 C   0  0  2  0  0  3  0  0  0  0  0  0
   25.9820    0.0310   53.4140 C   0  0  0  0  0  2  0  0  0  0  0  0
   25.3360    0.6260   52.2140 C   0  0  1  0  0  3  0  0  0  0  0  0
   24.0610    0.2020   52.1070 C   0  0  0  0  0  2  0  0  0  0  0  0
   22.7290    0.7340   51.7000 C   0  0  2  0  0  3  0  0  0  0  0  0
   22.9170    1.8480   50.6980 C   0  0  0  0  0  2  0  0  0  0  0  0
   23.7050    2.9390   50.4090 C   0  0  1  0  0  3  0  0  0  0  0  0
   24.6580    3.6510   51.4470 C   0  0  2  0  0  3  0  0  0  0  0  0
   25.9310    2.9380   51.2600 C   0  0  0  0  0  2  0  0  0  0  0  0
   26.0840    1.5870   51.3400 C   0  0  0  0  0  2  0  0  0  0  0  0
   23.8850    3.2370   52.7310 C   0  0  2  0  0  3  0  0  0  0  0  0
   25.0480    2.9410   53.0320 C   0  0  0  0  0  2  0  0  0  0  0  0
   26.0540    2.4640   53.8270 N   0  0  0  0  0  0  0  0  0  0  0  0
   22.4730    3.3870   52.4860 C   0  0  0  0  0  2  0  0  0  0  0  0
   21.6850    4.2700   51.9740 C   0  0  0  0  0  2  0  0  0  0  0  0
   20.3580    3.6660   52.0700 C   0  0  0  0  0  2  0  0  0  0  0  0
   20.4420    2.4120   52.5740 C   0  0  0  0  0  2  0  0  0  0  0  0
   21.7560    1.3020   53.1330 S   0  0  0  0  0  0  0  0  0  0  0  0
   26.7860    3.0030   54.3220 H   0  0  0  0  0  0  0  0  0  0  0  0
   26.8660    0.3220   55.1970 C   0  0  0  0  0  2  0  0  0  0  0  0
   28.3030    0.4390   55.1860 N   0  0  0  0  0  0  0  0  0  0  0  0
   28.8700    1.4510   54.8710 O   0  0  0  0  0  0  0  0  0  0  0  0
   23.5470    3.3220   49.0870 O   0  0  0  0  0  0  0  0  0  0  0  0
   24.3610    3.5020   48.4950 H   0  0  0  0  0  0  0  0  0  0  0  0
  1 20  1  6  0  0  0
  2  1  1  0  0  0  0
  3 10  1  1  0  0  0
  3  2  1  0  0  0  0
  4  3  1  0  0  0  0
  5  6  1  6  0  0  0
  5  4  1  0  0  0  0
  5 18  1  0  0  0  0
  7 23  1  6  0  0  0
  7  6  1  0  0  0  0
  7  8  1  0  0  0  0
  8  9  1  1  0  0  0
  8 11  1  0  0  0  0
  9 10  1  0  0  0  0
 11 14  1  6  0  0  0
 11 12  1  0  0  0  0
 12 13  1  0  0  0  0
 13  1  1  0  0  0  0
 13 19  1  0  0  0  0
 15 16  1  0  0  0  0
 15 14  1  0  0  0  0
 16 17  1  0  0  0  0
 17 18  1  0  0  0  0
 21 20  1  0  0  0  0
 22 21  2  0  0  0  0
 24 23  1  0  0  0  0
M  END
>  <TORSDO>
F 3

$$$$
