C:\Qe-CaDD\Project\Data\Stage_6_Molecular_Dynamics\ligands_top\out_13327_EGFR_extracted.pdbqt
 OpenBabel01082506443D

 23 25  0  0  1  0  0  0  0  0999 V2000
   25.2040    0.0470   53.4890 C   0  0  1  0  0  3  0  0  0  0  0  0
   25.6400    0.3440   54.9390 C   0  0  0  0  0  2  0  0  0  0  0  0
   26.7860    0.9320   54.8460 N   0  0  0  0  0  2  0  0  0  0  0  0
   27.6940    0.6830   53.8200 N   0  0  2  0  0  0  0  0  0  0  0  0
   27.6020   -0.1990   52.7280 C   0  0  0  0  0  2  0  0  0  0  0  0
   26.4350   -0.6780   53.0330 C   0  0  1  0  0  3  0  0  0  0  0  0
   26.6850   -2.0730   52.8990 N   0  0  0  0  0  0  0  0  0  0  0  0
   27.9620   -2.7200   52.9130 C   0  0  0  0  0  3  0  0  0  0  0  0
   29.2090   -2.2740   53.1520 C   0  0  0  0  0  3  0  0  0  0  0  0
   30.0270   -1.1200   53.4930 C   0  0  0  0  0  3  0  0  0  0  0  0
   29.9660    0.1870   53.7770 C   0  0  0  0  0  3  0  0  0  0  0  0
   29.0020    1.3520   53.9450 C   0  0  0  0  0  2  0  0  0  0  0  0
   25.7900   -2.5800   52.7910 H   0  0  0  0  0  0  0  0  0  0  0  0
   24.0480   -0.7670   53.4560 N   0  0  0  0  0  0  0  0  0  0  0  0
   24.2350   -1.7130   53.8340 H   0  0  0  0  0  0  0  0  0  0  0  0
   22.9810   -0.1770   54.2200 C   0  0  0  0  0  3  0  0  0  0  0  0
   22.0420    0.6260   53.3170 C   0  0  0  0  0  2  0  0  0  0  0  0
   20.7140    0.7270   54.0260 C   0  0  0  0  0  2  0  0  0  0  0  0
   19.9840   -0.5270   53.9950 N   0  0  0  0  0  0  0  0  0  0  0  0
   20.9460   -1.6150   53.9620 C   0  0  0  0  0  2  0  0  0  0  0  0
   22.1060   -1.2210   54.8800 C   0  0  0  0  0  2  0  0  0  0  0  0
   19.1770   -0.6350   52.7850 C   0  0  0  0  0  2  0  0  0  0  0  0
   17.8900   -1.3380   53.1360 C   0  0  0  0  0  1  0  0  0  0  0  0
  1 14  1  1  0  0  0
  1  2  1  0  0  0  0
  3  2  1  0  0  0  0
  4  5  1  1  0  0  0
  4 12  1  0  0  0  0
  4  3  1  0  0  0  0
  6  5  1  1  0  0  0
  6  1  1  0  0  0  0
  7  8  1  0  0  0  0
  7  6  1  0  0  0  0
  8  9  2  0  0  0  0
  9 10  1  0  0  0  0
 10 11  2  0  0  0  0
 11 12  1  0  0  0  0
 13  7  1  0  0  0  0
 14 15  1  0  0  0  0
 14 16  1  0  0  0  0
 16 21  1  0  0  0  0
 17 18  1  0  0  0  0
 17 16  1  0  0  0  0
 19 18  1  0  0  0  0
 20 19  1  0  0  0  0
 20 21  1  0  0  0  0
 22 23  1  0  0  0  0
 22 19  1  0  0  0  0
M  END
>  <TORSDO>
F 3

$$$$
