C:\Qe-CaDD\Project\Data\Stage_6_Molecular_Dynamics\ligands_top\out_11565_EGFR_extracted.pdbqt
 OpenBabel01082506443D

 24 26  0  0  0  0  0  0  0  0999 V2000
   19.7470   -0.1020   52.3520 C   0  0  0  0  0  0  0  0  0  0  0  0
   19.9580   -0.6010   53.5630 C   0  0  0  0  0  3  0  0  0  0  0  0
   21.3800   -0.6070   53.8850 C   0  0  0  0  0  0  0  0  0  0  0  0
   21.7150   -1.2750   54.9600 N   0  0  0  0  0  0  0  0  0  0  0  0
   23.0520   -1.4200   55.4090 C   0  0  0  0  0  3  0  0  0  0  0  0
   24.0160   -0.9030   54.7250 N   0  0  0  0  0  0  0  0  0  0  0  0
   23.7500   -0.2030   53.5170 C   0  0  0  0  0  0  0  0  0  0  0  0
   22.4080    0.1670   53.1890 C   0  0  0  0  0  0  0  0  0  0  0  0
   22.0320    0.5850   51.8510 C   0  0  0  0  0  3  0  0  0  0  0  0
   20.7540    0.4700   51.4670 C   0  0  0  0  0  0  0  0  0  0  0  0
   24.7970    0.0600   52.7680 C   0  0  0  0  0  2  0  0  0  0  0  0
   25.8680    0.8910   53.2320 N   0  0  0  0  0  2  0  0  0  0  0  0
   27.0870    0.4620   53.3640 C   0  0  0  0  0  0  0  0  0  0  0  0
   28.1500    1.3660   53.8480 C   0  0  0  0  0  3  0  0  0  0  0  0
   27.4960   -0.9060   53.0550 C   0  0  0  0  0  0  0  0  0  0  0  0
   29.3970    0.9260   53.9830 C   0  0  0  0  0  3  0  0  0  0  0  0
   29.7990   -0.4400   53.6720 C   0  0  0  0  0  3  0  0  0  0  0  0
   28.9040   -1.3060   53.2350 C   0  0  0  0  0  3  0  0  0  0  0  0
   26.5740   -1.6990   52.6320 N   0  0  0  0  0  2  0  0  0  0  0  0
   26.8310   -2.6760   52.4050 H   0  0  0  0  0  0  0  0  0  0  0  0
   20.5250    0.9410   50.1810 O   0  0  0  0  0  0  0  0  0  0  0  0
   21.5330    1.0070   49.2180 C   0  0  0  0  0  1  0  0  0  0  0  0
   18.4790   -0.0200   51.7810 O   0  0  0  0  0  0  0  0  0  0  0  0
   17.4750   -0.8330   52.3850 C   0  0  0  0  0  1  0  0  0  0  0  0
  1  2  1  0  0  0  0
  2  3  2  0  0  0  0
  3  4  1  0  0  0  0
  4  5  2  0  0  0  0
  6  5  1  0  0  0  0
  7  6  2  0  0  0  0
  8  7  1  0  0  0  0
  8  3  1  0  0  0  0
  9  8  2  0  0  0  0
 10  9  1  0  0  0  0
 10  1  2  0  0  0  0
 11 12  1  0  0  0  0
 11  7  1  0  0  0  0
 12 13  1  0  0  0  0
 13 14  1  0  0  0  0
 14 16  2  0  0  0  0
 15 18  1  0  0  0  0
 15 13  2  0  0  0  0
 17 16  1  0  0  0  0
 18 17  2  0  0  0  0
 19 15  1  0  0  0  0
 20 19  1  0  0  0  0
 21 10  1  0  0  0  0
 22 21  1  0  0  0  0
 23  1  1  0  0  0  0
 23 24  1  0  0  0  0
M  END
>  <TORSDO>
F 4

$$$$
