C:\Qe-CaDD\Project\Data\Stage_6_Molecular_Dynamics\ligands_top\out_14943_EGFR_extracted.pdbqt
 OpenBabel01082506443D

 26 28  0  0  0  0  0  0  0  0999 V2000
   22.1510    2.3180   51.9240 C   0  0  0  0  0  0  0  0  0  0  0  0
   23.4690    2.3640   52.1290 C   0  0  0  0  0  3  0  0  0  0  0  0
   24.5160    2.8420   51.2370 C   0  0  0  0  0  0  0  0  0  0  0  0
   24.2840    3.5360   50.0700 C   0  0  0  0  0  0  0  0  0  0  0  0
   25.3810    3.8980   49.3720 N   0  0  0  0  0  0  0  0  0  0  0  0
   26.6040    3.5800   49.8230 C   0  0  0  0  0  3  0  0  0  0  0  0
   26.7580    2.9030   50.9650 N   0  0  0  0  0  0  0  0  0  0  0  0
   25.7500    2.4970   51.7310 C   0  0  0  0  0  0  0  0  0  0  0  0
   22.9710    3.9520   49.4570 C   0  0  0  0  0  2  0  0  0  0  0  0
   22.1670    2.7960   49.5640 O   0  0  0  0  0  0  0  0  0  0  0  0
   21.4200    2.7550   50.7120 C   0  0  0  0  0  2  0  0  0  0  0  0
   25.9950    1.7990   52.9370 N   0  0  0  0  0  0  0  0  0  0  0  0
   25.7800    1.9520   53.9360 H   0  0  0  0  0  0  0  0  0  0  0  0
   26.6880    0.5610   52.9700 C   0  0  0  0  0  0  0  0  0  0  0  0
   26.0310   -0.5880   52.5660 C   0  0  0  0  0  3  0  0  0  0  0  0
   26.6430   -1.8210   52.5470 C   0  0  0  0  0  3  0  0  0  0  0  0
   27.9580   -1.9680   52.9350 C   0  0  0  0  0  0  0  0  0  0  0  0
   28.6180   -3.1490   52.9400 F   0  0  0  0  0  0  0  0  0  0  0  0
   28.6550   -0.8670   53.3440 C   0  0  0  0  0  0  0  0  0  0  0  0
   30.3280   -0.9610   53.8540 Cl  0  0  0  0  0  0  0  0  0  0  0  0
   28.0020    0.3400   53.3450 C   0  0  0  0  0  3  0  0  0  0  0  0
   21.3440    1.8210   52.9220 O   0  0  0  0  0  0  0  0  0  0  0  0
   20.8150    0.5350   53.0120 C   0  0  0  0  0  2  0  0  0  0  0  0
   21.5270   -0.1370   54.1460 C   0  0  0  0  0  2  0  0  0  0  0  0
   22.6680   -0.8190   54.0740 C   0  0  0  0  0  2  0  0  0  0  0  0
   23.1460   -1.3800   55.3640 C   0  0  0  0  0  1  0  0  0  0  0  0
  1  2  2  0  0  0  0
  1 22  1  0  0  0  0
  3  8  1  0  0  0  0
  3  2  1  0  0  0  0
  4  3  2  0  0  0  0
  5  6  2  0  0  0  0
  5  4  1  0  0  0  0
  6  7  1  0  0  0  0
  7  8  2  0  0  0  0
  8 12  1  0  0  0  0
  9 10  1  0  0  0  0
  9  4  1  0  0  0  0
 10 11  1  0  0  0  0
 11  1  1  0  0  0  0
 12 14  1  0  0  0  0
 12 13  1  0  0  0  0
 14 21  1  0  0  0  0
 15 14  2  0  0  0  0
 16 15  1  0  0  0  0
 16 17  2  0  0  0  0
 17 18  1  0  0  0  0
 17 19  1  0  0  0  0
 19 21  2  0  0  0  0
 19 20  1  0  0  0  0
 22 23  1  0  0  0  0
 23 24  1  0  0  0  0
 25 24  1  0  0  0  0
 25 26  1  0  0  0  0
M  END
>  <TORSDO>
F 5

$$$$
