C:\Qe-CaDD\Project\Data\Stage_6_Molecular_Dynamics\ligands_top\out_10655_EGFR_extracted.pdbqt
 OpenBabel01082506443D

 24 25  0  0  1  0  0  0  0  0999 V2000
   21.3540    0.2840   51.6140 C   0  0  0  0  0  2  0  0  0  0  0  0
   22.0630   -0.1470   52.6420 C   0  0  0  0  0  0  0  0  0  0  0  0
   23.4480    0.3560   52.6340 C   0  0  0  0  0  3  0  0  0  0  0  0
   24.6130    0.0880   53.2240 C   0  0  0  0  0  0  0  0  0  0  0  0
   25.0970   -0.8750   54.2070 C   0  0  2  0  0  3  0  0  0  0  0  0
   24.0710   -1.1740   55.2340 C   0  0  0  0  0  3  0  0  0  0  0  0
   22.8280   -1.4170   55.4700 N   0  0  0  0  0  0  0  0  0  0  0  0
   21.6250   -1.5310   54.6820 C   0  0  0  0  0  3  0  0  0  0  0  0
   21.3650   -0.9930   53.5380 N   0  0  0  0  0  0  0  0  0  0  0  0
   26.2790   -0.5210   54.8290 O   0  0  0  0  0  0  0  0  0  0  0  0
   26.5420    0.8370   54.7950 C   0  0  0  0  0  2  0  0  0  0  0  0
   26.6650    1.2790   53.3590 C   0  0  0  0  0  0  0  0  0  0  0  0
   27.7470    1.7650   52.7840 C   0  0  0  0  0  2  0  0  0  0  0  0
   25.4390    1.1090   52.5990 N   0  0  0  0  0  0  0  0  0  0  0  0
   25.1730    1.8820   51.4390 C   0  0  0  0  0  2  0  0  0  0  0  0
   24.8350    3.3140   51.5890 C   0  0  0  0  0  2  0  0  0  0  0  0
   25.7150    4.2690   50.9540 N   0  0  0  0  0  0  0  0  0  0  0  0
   25.1970    5.1400   50.6690 H   0  0  0  0  0  0  0  0  0  0  0  0
   26.1840    3.7420   49.6550 C   0  0  0  0  0  2  0  0  0  0  0  0
   26.8770    4.8570   48.9380 C   0  0  0  0  0  2  0  0  0  0  0  0
   28.2210    4.5910   48.7390 O   0  0  0  0  0  0  0  0  0  0  0  0
   28.9040    5.6290   48.1260 C   0  0  0  0  0  2  0  0  0  0  0  0
   28.0710    6.8930   48.0040 C   0  0  0  0  0  2  0  0  0  0  0  0
   29.1660    8.3630   47.3700 Br  0  0  0  0  0  0  0  0  0  0  0  0
  1  2  2  0  0  0  0
  2  9  1  0  0  0  0
  3  2  1  0  0  0  0
  3  4  2  0  0  0  0
  4  5  1  0  0  0  0
  5 10  1  0  0  0  0
  5  6  1  1  0  0  0
  6  7  2  0  0  0  0
  8  7  1  0  0  0  0
  9  8  2  0  0  0  0
 11 10  1  0  0  0  0
 12 11  1  0  0  0  0
 13 12  2  0  0  0  0
 14  4  1  0  0  0  0
 14 12  1  0  0  0  0
 15 16  1  0  0  0  0
 15 14  1  0  0  0  0
 17 16  1  0  0  0  0
 18 17  1  0  0  0  0
 19 17  1  0  0  0  0
 20 19  1  0  0  0  0
 21 20  1  0  0  0  0
 22 21  1  0  0  0  0
 23 22  1  0  0  0  0
 24 23  1  0  0  0  0
M  END
>  <TORSDO>
F 8

$$$$
