C:\Qe-CaDD\Project\Data\Stage_6_Molecular_Dynamics\ligands_top\out_16636_EGFR_extracted.pdbqt
 OpenBabel01082506443D

 29 33  0  0  1  0  0  0  0  0999 V2000
   23.9850   -0.3200   53.8580 C   0  0  0  0  0  0  0  0  0  0  0  0
   24.1200   -1.0960   54.9760 N   0  0  0  0  0  0  0  0  0  0  0  0
   22.9960   -1.6310   55.5340 C   0  0  0  0  0  3  0  0  0  0  0  0
   21.7680   -1.4170   55.0190 N   0  0  0  0  0  0  0  0  0  0  0  0
   21.6430   -0.6660   53.9410 N   0  0  0  0  0  0  0  0  0  0  0  0
   20.6370   -0.2320   53.1660 C   0  0  0  0  0  3  0  0  0  0  0  0
   21.1140    0.5590   52.1430 C   0  0  0  0  0  3  0  0  0  0  0  0
   22.5120    0.6430   52.2650 C   0  0  0  0  0  0  0  0  0  0  0  0
   22.7240   -0.1250   53.3700 C   0  0  0  0  0  0  0  0  0  0  0  0
   25.3160    0.0250   53.5040 N   0  0  0  0  0  0  0  0  0  0  0  0
   25.9470    1.0340   54.3500 C   0  0  1  0  0  3  0  0  0  0  0  0
   26.9230    0.4110   55.3030 N   0  0  0  0  0  0  0  0  0  0  0  0
   26.6680    2.0360   53.5040 C   0  0  0  0  0  2  0  0  0  0  0  0
   28.1790   -0.0830   54.8180 N   0  0  0  0  0  2  0  0  0  0  0  0
   26.7440    0.3090   56.3530 H   0  0  0  0  0  0  0  0  0  0  0  0
   28.6230   -0.1570   53.5670 C   0  0  0  0  0  2  0  0  0  0  0  0
   27.4720    0.3290   52.7230 C   0  0  2  0  0  3  0  0  0  0  0  0
   27.3990    1.5710   52.2970 C   0  0  0  0  0  2  0  0  0  0  0  0
   26.2270   -0.4930   52.4340 C   0  0  0  0  0  2  0  0  0  0  0  0
   23.3300    1.4490   51.3520 C   0  0  0  0  0  2  0  0  0  0  0  0
   23.6210    2.6960   51.8960 O   0  0  0  0  0  0  0  0  0  0  0  0
   23.7240    3.6210   50.8800 C   0  0  0  0  0  2  0  0  0  0  0  0
   25.0800    4.1820   50.6300 C   0  0  1  0  0  3  0  0  0  0  0  0
   25.7260    3.5750   49.4010 C   0  0  0  0  0  2  0  0  0  0  0  0
   27.0570    4.2670   49.2280 C   0  0  0  0  0  2  0  0  0  0  0  0
   26.9220    5.5370   48.5500 N   0  0  0  0  0  0  0  0  0  0  0  0
   26.2570    6.5490   49.3130 C   0  0  0  0  0  2  0  0  0  0  0  0
   26.4380    5.4460   47.6270 H   0  0  0  0  0  0  0  0  0  0  0  0
   24.8250    5.9570   50.2190 S   0  0  0  0  0  0  0  0  0  0  0  0
  1  2  2  0  0  0  0
  2  3  1  0  0  0  0
  4  3  2  0  0  0  0
  5  4  1  0  0  0  0
  6  5  1  0  0  0  0
  7  8  1  0  0  0  0
  7  6  2  0  0  0  0
  8  9  2  0  0  0  0
  9  1  1  0  0  0  0
  9  5  1  0  0  0  0
 10  1  1  0  0  0  0
 10 11  1  0  0  0  0
 11 13  1  6  0  0  0
 11 12  1  0  0  0  0
 12 15  1  0  0  0  0
 14 12  1  0  0  0  0
 16 14  1  0  0  0  0
 17 18  1  1  0  0  0
 17 16  1  0  0  0  0
 18 13  1  0  0  0  0
 19 17  1  0  0  0  0
 19 10  1  0  0  0  0
 20 21  1  0  0  0  0
 20  8  1  0  0  0  0
 22 21  1  0  0  0  0
 23 22  1  6  0  0  0
 24 23  1  0  0  0  0
 25 24  1  0  0  0  0
 26 25  1  0  0  0  0
 26 27  1  0  0  0  0
 27 29  1  0  0  0  0
 28 26  1  0  0  0  0
 29 23  1  0  0  0  0
M  END
>  <TORSDO>
F 5

$$$$
