C:\Qe-CaDD\Project\Data\Stage_6_Molecular_Dynamics\ligands_top\out_14954_EGFR_extracted.pdbqt
 OpenBabel01082506443D

 23 24  0  0  0  0  0  0  0  0999 V2000
   28.2440    0.5670   53.1480 C   0  0  0  0  0  2  0  0  0  0  0  0
   26.9880    0.2050   53.0560 C   0  0  0  0  0  0  0  0  0  0  0  0
   26.1430   -0.1840   54.1670 C   0  0  0  0  0  0  0  0  0  0  0  0
   25.2400   -0.5610   55.0230 C   0  0  0  0  0  3  0  0  0  0  0  0
   23.9180   -0.9480   54.8800 C   0  0  0  0  0  0  0  0  0  0  0  0
   22.8240   -1.2910   54.7590 C   0  0  0  0  0  0  0  0  0  0  0  0
   21.4990   -1.7320   54.6120 C   0  0  0  0  0  2  0  0  0  0  0  0
   20.6630   -1.1660   53.7190 O   0  0  0  0  0  0  0  0  0  0  0  0
   20.2980    0.1020   53.8450 C   0  0  0  0  0  2  0  0  0  0  0  0
   21.3010    1.1730   53.6420 C   0  0  0  0  0  3  0  0  0  0  0  0
   21.9080    1.2310   52.2960 C   0  0  0  0  0  0  0  0  0  0  0  0
   22.7800    1.3660   51.3160 C   0  0  0  0  0  3  0  0  0  0  0  0
   24.1990    1.6830   51.2200 C   0  0  0  0  0  0  0  0  0  0  0  0
   24.1770    3.0180   50.7390 C   0  0  0  0  0  3  0  0  0  0  0  0
   25.1940    3.8970   50.4360 N   0  0  0  0  0  0  0  0  0  0  0  0
   26.4410    3.3760   50.6380 C   0  0  0  0  0  3  0  0  0  0  0  0
   26.5310    2.0960   51.1000 N   0  0  0  0  0  0  0  0  0  0  0  0
   25.5000    1.2970   51.3750 C   0  0  0  0  0  0  0  0  0  0  0  0
   26.3420    0.1960   51.7900 N   0  0  0  0  0  0  0  0  0  0  0  0
   26.6120   -0.6640   51.3030 H   0  0  0  0  0  0  0  0  0  0  0  0
   29.0130    0.6420   54.3810 C   0  0  0  0  0  2  0  0  0  0  0  0
   29.4800    1.7790   54.8080 C   0  0  0  0  0  2  0  0  0  0  0  0
   29.1480    2.7990   53.9670 F   0  0  0  0  0  0  0  0  0  0  0  0
  1 21  1  0  0  0  0
  2  1  1  0  0  0  0
  2  3  2  0  0  0  0
  3  4  2  0  0  0  0
  5  4  1  0  0  0  0
  6  5  3  0  0  0  0
  7  6  1  0  0  0  0
  8  9  1  0  0  0  0
  8  7  1  0  0  0  0
 10  9  1  0  0  0  0
 11 10  2  0  0  0  0
 12 11  2  0  0  0  0
 13 12  1  0  0  0  0
 13 18  1  0  0  0  0
 14 13  2  0  0  0  0
 15 16  2  0  0  0  0
 15 14  1  0  0  0  0
 16 17  1  0  0  0  0
 17 18  2  0  0  0  0
 18 19  1  0  0  0  0
 19  2  1  0  0  0  0
 20 19  1  0  0  0  0
 21 22  1  0  0  0  0
 23 22  1  0  0  0  0
M  END
>  <TORSDO>
F 1

$$$$
