C:\Qe-CaDD\Project\Data\Stage_6_Molecular_Dynamics\ligands_top\out_22906_EGFR_extracted.pdbqt
 OpenBabel01082506443D

 28 32  0  0  1  0  0  0  0  0999 V2000
   24.9200    5.6600   50.4750 C   0  0  1  0  0  3  0  0  0  0  0  0
   23.4480    6.0140   50.5690 C   0  0  0  0  0  2  0  0  0  0  0  0
   22.6020    5.5200   51.4640 C   0  0  0  0  0  2  0  0  0  0  0  0
   23.3550    4.5580   52.3560 C   0  0  0  0  0  2  0  0  0  0  0  0
   24.1490    3.6710   51.6150 N   0  0  2  0  0  0  0  0  0  0  0  0
   24.9970    4.1740   50.6040 C   0  0  2  0  0  3  0  0  0  0  0  0
   23.7920    2.3060   51.5350 C   0  0  2  0  0  0  0  0  0  0  0  0
   22.8630    1.8840   50.4910 C   0  0  0  0  0  2  0  0  0  0  0  0
   22.0500    1.4250   51.3290 N   0  0  0  0  0  2  0  0  0  0  0  0
   22.7950    1.7550   52.4430 C   0  0  1  0  0  3  0  0  0  0  0  0
   23.9280    0.9940   52.9590 C   0  0  2  0  0  3  0  0  0  0  0  0
   24.7280    1.3860   51.9190 O   0  0  0  0  0  0  0  0  0  0  0  0
   23.7980   -0.4880   53.1950 C   0  0  0  0  0  3  0  0  0  0  0  0
   22.5990   -0.8800   53.9770 C   0  0  0  0  0  2  0  0  0  0  0  0
   23.0660   -1.2370   55.3550 C   0  0  0  0  0  2  0  0  0  0  0  0
   24.5410   -1.0420   55.4230 C   0  0  0  0  0  2  0  0  0  0  0  0
   25.0040   -0.9200   54.0100 C   0  0  0  0  0  2  0  0  0  0  0  0
   26.3760    3.8050   50.8530 N   0  0  0  0  0  0  0  0  0  0  0  0
   26.5990    2.8150   50.7260 H   0  0  0  0  0  0  0  0  0  0  0  0
   26.7450    4.1170   51.7720 H   0  0  0  0  0  0  0  0  0  0  0  0
   25.4640    6.1660   49.2880 O   0  0  0  0  0  0  0  0  0  0  0  0
   26.0670    7.4080   49.2790 C   0  0  0  0  0  0  0  0  0  0  0  0
   27.2910    7.3280   48.7720 C   0  0  0  0  0  0  0  0  0  0  0  0
   27.7580    5.9750   48.3320 C   0  0  0  0  0  1  0  0  0  0  0  0
   28.1730    8.5310   48.6420 C   0  0  0  0  0  2  0  0  0  0  0  0
   27.9760    9.3550   49.8650 C   0  0  0  0  0  3  0  0  0  0  0  0
   26.7920    9.4300   50.3060 N   0  0  0  0  0  0  0  0  0  0  0  0
   25.6710    8.7770   49.6950 C   0  0  0  0  0  2  0  0  0  0  0  0
  1 21  1  6  0  0  0
  1  2  1  0  0  0  0
  1  6  1  0  0  0  0
  2  3  1  0  0  0  0
  3  4  1  0  0  0  0
  5  4  1  6  0  0  0
  6 18  1  1  0  0  0
  6  5  1  0  0  0  0
  7  8  1  6  0  0  0
  7  5  1  0  0  0  0
  7 12  1  0  0  0  0
  7 10  1  0  0  0  0
  8  9  1  0  0  0  0
 10  9  1  6  0  0  0
 10 11  1  0  0  0  0
 11 13  1  6  0  0  0
 12 11  1  0  0  0  0
 13 14  1  0  0  0  0
 13 17  1  0  0  0  0
 14 15  1  0  0  0  0
 15 16  1  0  0  0  0
 17 16  1  0  0  0  0
 18 20  1  0  0  0  0
 19 18  1  0  0  0  0
 22 21  1  0  0  0  0
 22 28  1  0  0  0  0
 23 22  2  0  0  0  0
 24 23  1  0  0  0  0
 25 23  1  0  0  0  0
 25 26  1  0  0  0  0
 26 27  2  0  0  0  0
 28 27  1  0  0  0  0
M  END
>  <TORSDO>
F 5

$$$$
