C:\Qe-CaDD\Project\Data\Stage_6_Molecular_Dynamics\ligands_top\out_14075_EGFR_extracted.pdbqt
 OpenBabel01082506443D

 34 37  0  0  1  0  0  0  0  0999 V2000
   25.9210    4.3970   49.4420 N   0  0  0  0  0  0  0  0  0  0  0  0
   25.4820    5.7290   49.6910 C   0  0  0  0  0  0  0  0  0  0  0  0
   24.9820    5.9060   50.8470 O   0  0  0  0  0  0  0  0  0  0  0  0
   26.3610    3.9210   48.6300 H   0  0  0  0  0  0  0  0  0  0  0  0
   25.8030    3.3450   50.4210 C   0  0  0  0  0  0  0  0  0  0  0  0
   26.9740    2.9780   50.9740 N   0  0  0  0  0  0  0  0  0  0  0  0
   26.9900    1.9940   51.9130 C   0  0  0  0  0  2  0  0  0  0  0  0
   25.7870    1.3810   52.2850 C   0  0  0  0  0  0  0  0  0  0  0  0
   25.9830    0.3360   53.3130 C   0  0  0  0  0  3  0  0  0  0  0  0
   24.6330    1.8110   51.6740 C   0  0  0  0  0  0  0  0  0  0  0  0
   24.7160   -0.3290   53.7220 C   0  0  0  0  0  3  0  0  0  0  0  0
   23.5030    0.1780   53.0290 C   0  0  0  0  0  0  0  0  0  0  0  0
   22.2250   -0.2800   53.2390 C   0  0  0  0  0  0  0  0  0  0  0  0
   23.3980    1.1600   52.0760 C   0  0  0  0  0  0  0  0  0  0  0  0
   21.4160    0.4190   52.4330 N   0  0  0  0  0  0  0  0  0  0  0  0
   22.1080    1.2990   51.7190 N   0  0  0  0  0  0  0  0  0  0  0  0
   21.6170    2.2310   50.7470 C   0  0  0  0  0  1  0  0  0  0  0  0
   24.6490    2.7860   50.7500 N   0  0  0  0  0  2  0  0  0  0  0  0
   21.7250   -1.3420   54.1610 C   0  0  0  0  0  2  0  0  0  0  0  0
   20.2580   -1.5820   54.0180 C   0  0  0  0  0  1  0  0  0  0  0  0
   25.7170    6.6090   48.5200 C   0  0  0  0  0  2  0  0  0  0  0  0
   26.5510    7.8020   48.8480 C   0  0  0  0  0  2  0  0  0  0  0  0
   27.9460    7.4560   49.0450 N   0  0  0  0  0  0  0  0  0  0  0  0
   28.9910    8.4080   48.8800 C   0  0  0  0  0  0  0  0  0  0  0  0
   28.7880    9.6070   48.5540 O   0  0  0  0  0  0  0  0  0  0  0  0
   28.2710    6.5130   49.3140 H   0  0  0  0  0  0  0  0  0  0  0  0
   30.4380    8.1870   49.0490 C   0  0  2  0  0  3  0  0  0  0  0  0
   31.3360    9.3260   48.5660 C   0  0  0  0  0  2  0  0  0  0  0  0
   32.2920    8.1540   48.3230 C   0  0  0  0  0  2  0  0  0  0  0  0
   31.0800    7.3810   48.0090 N   0  0  0  0  0  0  0  0  0  0  0  0
   31.2240    5.7120   48.4280 S   0  0  0  0  0  0  0  0  0  0  0  0
   32.4420    4.8860   47.4580 C   0  0  0  0  0  1  0  0  0  0  0  0
   31.5550    5.5110   49.8780 O   0  0  0  0  0  0  0  0  0  0  0  0
   29.8500    5.1040   48.2040 O   0  0  0  0  0  0  0  0  0  0  0  0
  1  2  1  0  0  0  0
  1  5  1  0  0  0  0
  2  3  2  0  0  0  0
  4  1  1  0  0  0  0
  5 18  1  0  0  0  0
  5  6  2  0  0  0  0
  6  7  1  0  0  0  0
  7  8  1  0  0  0  0
  8  9  1  0  0  0  0
  9 11  2  0  0  0  0
 10 14  1  0  0  0  0
 10  8  2  0  0  0  0
 12 13  1  0  0  0  0
 12 11  1  0  0  0  0
 13 19  1  0  0  0  0
 14 12  2  0  0  0  0
 15 13  2  0  0  0  0
 16 14  1  0  0  0  0
 16 15  1  0  0  0  0
 17 16  1  0  0  0  0
 18 10  1  0  0  0  0
 20 19  1  0  0  0  0
 21 22  1  0  0  0  0
 21  2  1  0  0  0  0
 22 23  1  0  0  0  0
 23 26  1  0  0  0  0
 24 23  1  0  0  0  0
 25 24  2  0  0  0  0
 27 24  1  6  0  0  0
 28 27  1  0  0  0  0
 29 28  1  0  0  0  0
 30 29  1  0  0  0  0
 30 31  1  0  0  0  0
 30 27  1  0  0  0  0
 31 33  2  0  0  0  0
 32 31  1  0  0  0  0
 34 31  2  0  0  0  0
M  END
>  <TORSDO>
F 7

$$$$
