C:\Qe-CaDD\Project\Data\Stage_6_Molecular_Dynamics\ligands_top\out_16561_EGFR_extracted.pdbqt
 OpenBabel01082506443D

 23 26  0  0  1  0  0  0  0  0999 V2000
   27.7370    0.2610   53.1500 C   0  0  0  0  0  1  0  0  0  0  0  0
   26.8880    0.7080   52.0010 C   0  0  2  0  0  3  0  0  0  0  0  0
   26.7350    2.2250   52.1440 C   0  0  0  0  0  2  0  0  0  0  0  0
   26.0040    2.8570   51.0190 C   0  0  0  0  0  2  0  0  0  0  0  0
   25.2930    4.0750   51.2940 N   0  0  0  0  0  0  0  0  0  0  0  0
   24.0220    3.8030   51.9730 C   0  0  2  0  0  3  0  0  0  0  0  0
   24.2460    3.3480   53.3320 C   0  0  0  0  0  2  0  0  0  0  0  0
   24.2640    2.1290   52.8760 C   0  0  2  0  0  3  0  0  0  0  0  0
   24.6600    0.7320   53.1220 C   0  0  1  0  0  3  0  0  0  0  0  0
   23.6580   -0.0230   53.8910 C   0  0  0  0  0  2  0  0  0  0  0  0
   22.3010    0.1570   53.5140 C   0  0  0  0  0  0  0  0  0  0  0  0
   21.1950    0.3150   53.2250 C   0  0  0  0  0  0  0  0  0  0  0  0
   19.8390    0.5220   52.8920 C   0  0  0  0  0  2  0  0  0  0  0  0
   19.6550    1.5160   51.8690 N   0  0  1  0  0  4  0  0  0  0  0  0
   20.1490    2.7740   52.3770 C   0  0  0  0  0  2  0  0  0  0  0  0
   21.1710    2.7700   51.5310 N   0  0  0  0  0  2  0  0  0  0  0  0
   21.1050    1.5920   50.7170 N   0  0  1  0  0  0  0  0  0  0  0  0
   22.2150    1.3170   50.1150 C   0  0  0  0  0  2  0  0  0  0  0  0
   23.1870    1.3190   50.9250 N   0  0  0  0  0  2  0  0  0  0  0  0
   23.6520    2.4050   51.6150 N   0  0  2  0  0  0  0  0  0  0  0  0
   25.4800    0.0850   52.0740 C   0  0  0  0  0  2  0  0  0  0  0  0
   25.2230    4.7340   50.5160 H   0  0  0  0  0  0  0  0  0  0  0  0
   19.2230    1.4140   50.9330 H   0  0  0  0  0  0  0  0  0  0  0  0
  2 21  1  0  0  0  0
  2  3  1  0  0  0  0
  2  1  1  1  0  0  0
  4  5  1  0  0  0  0
  4  3  1  0  0  0  0
  5  6  1  0  0  0  0
  6  7  1  1  0  0  0
  8  9  1  0  0  0  0
  8  7  1  6  0  0  0
  9 21  1  6  0  0  0
  9 10  1  0  0  0  0
 11 10  1  0  0  0  0
 12 11  3  0  0  0  0
 13 12  1  0  0  0  0
 14 23  1  6  0  0  0
 14 15  1  0  0  0  0
 14 13  1  0  0  0  0
 16 15  1  0  0  0  0
 17 18  1  1  0  0  0
 17 16  1  0  0  0  0
 17 14  1  0  0  0  0
 18 19  1  0  0  0  0
 20 19  1  6  0  0  0
 20  6  1  0  0  0  0
 20  8  1  0  0  0  0
 22  5  1  0  0  0  0
M  END
>  <TORSDO>
F 0

$$$$
