C:\Qe-CaDD\Project\Data\Stage_6_Molecular_Dynamics\ligands_top\out_11449_EGFR_extracted.pdbqt
 OpenBabel01082506443D

 26 28  0  0  1  0  0  0  0  0999 V2000
   26.2470    1.5040   53.1910 C   0  0  2  0  0  3  0  0  0  0  0  0
   25.3550    2.3060   53.8900 N   0  0  0  0  0  0  0  0  0  0  0  0
   24.5060    3.2610   53.3360 C   0  0  0  0  0  3  0  0  0  0  0  0
   23.4030    2.7700   52.4950 C   0  0  0  0  0  0  0  0  0  0  0  0
   22.4610    2.1070   51.7790 C   0  0  0  0  0  2  0  0  0  0  0  0
   22.6310    0.6070   51.9240 C   0  0  0  0  0  2  0  0  0  0  0  0
   23.3350    0.3550   53.1850 C   0  0  0  0  0  3  0  0  0  0  0  0
   24.3910   -0.0800   53.7900 C   0  0  0  0  0  3  0  0  0  0  0  0
   25.7200   -0.6750   53.3980 C   0  0  0  0  0  2  0  0  0  0  0  0
   26.6510    0.3130   53.9230 O   0  0  0  0  0  0  0  0  0  0  0  0
   25.4430    2.2650   54.9260 H   0  0  0  0  0  0  0  0  0  0  0  0
   22.8420    4.0640   52.0830 N   0  0  0  0  0  0  0  0  0  0  0  0
   21.8670    4.4770   51.9670 H   0  0  0  0  0  0  0  0  0  0  0  0
   23.6980    5.1720   51.7020 C   0  0  2  0  0  3  0  0  0  0  0  0
   23.0270    6.3340   50.9920 C   0  0  0  0  0  2  0  0  0  0  0  0
   24.0010    5.4680   50.2800 C   0  0  2  0  0  0  0  0  0  0  0  0
   23.5150    4.5710   49.1640 C   0  0  0  0  0  2  0  0  0  0  0  0
   25.3550    6.0070   49.8800 C   0  0  2  0  0  3  0  0  0  0  0  0
   24.3760    3.3520   49.1650 C   0  0  0  0  0  3  0  0  0  0  0  0
   25.6670    3.5730   49.3930 C   0  0  0  0  0  3  0  0  0  0  0  0
   26.3130    4.8870   49.6400 C   0  0  0  0  0  2  0  0  0  0  0  0
   25.8640    6.9760   50.8320 N   0  0  0  0  0  0  0  0  0  0  0  0
   25.5440    6.8080   51.8110 H   0  0  0  0  0  0  0  0  0  0  0  0
   25.7150    7.9420   50.5000 H   0  0  0  0  0  0  0  0  0  0  0  0
   27.3670    2.0850   52.4710 C   0  0  0  0  0  2  0  0  0  0  0  0
   28.5260    2.4490   53.3570 C   0  0  0  0  0  1  0  0  0  0  0  0
  1 25  1  1  0  0  0
  1  2  1  0  0  0  0
  1 10  1  0  0  0  0
  2 11  1  0  0  0  0
  3  2  1  0  0  0  0
  4  3  2  0  0  0  0
  5  6  1  0  0  0  0
  5  4  1  0  0  0  0
  6  7  1  0  0  0  0
  7  8  2  0  0  0  0
  9  8  1  0  0  0  0
  9 10  1  0  0  0  0
 12  4  1  0  0  0  0
 13 12  1  0  0  0  0
 14 12  1  6  0  0  0
 15 14  1  0  0  0  0
 16 17  1  6  0  0  0
 16 15  1  0  0  0  0
 16 14  1  0  0  0  0
 17 19  1  0  0  0  0
 18 16  1  0  0  0  0
 18 22  1  1  0  0  0
 19 20  2  0  0  0  0
 20 21  1  0  0  0  0
 21 18  1  0  0  0  0
 22 23  1  0  0  0  0
 24 22  1  0  0  0  0
 25 26  1  0  0  0  0
M  END
>  <TORSDO>
F 4

$$$$
