C:\Qe-CaDD\Project\Data\Stage_6_Molecular_Dynamics\ligands_top\out_11495_EGFR_extracted.pdbqt
 OpenBabel01082506443D

 24 25  0  0  1  0  0  0  0  0999 V2000
   22.5800    2.6870   51.2900 C   0  0  1  0  0  3  0  0  0  0  0  0
   22.9960    3.5070   52.3630 N   0  0  0  0  0  0  0  0  0  0  0  0
   23.5520    4.6550   52.4870 C   0  0  0  0  0  3  0  0  0  0  0  0
   24.0560    5.7340   51.6980 N   0  0  0  0  0  0  0  0  0  0  0  0
   24.6350    5.7390   50.5230 C   0  0  0  0  0  3  0  0  0  0  0  0
   25.0270    4.7460   49.5150 C   0  0  2  0  0  3  0  0  0  0  0  0
   24.1540    3.5860   49.4060 C   0  0  0  0  0  3  0  0  0  0  0  0
   23.2650    2.8160   50.0110 C   0  0  0  0  0  0  0  0  0  0  0  0
   26.3800    4.2940   49.7780 N   0  0  0  0  0  0  0  0  0  0  0  0
   27.0420    4.5280   49.0180 H   0  0  0  0  0  0  0  0  0  0  0  0
   26.4680    2.9290   50.2160 C   0  0  0  0  0  2  0  0  0  0  0  0
   27.0570    2.8300   51.5360 N   0  0  0  0  0  2  0  0  0  0  0  0
   26.9930    1.6840   52.1240 C   0  0  0  0  0  0  0  0  0  0  0  0
   26.4060    0.4290   51.6650 C   0  0  0  0  0  3  0  0  0  0  0  0
   27.6290    1.7260   53.4570 C   0  0  0  0  0  0  0  0  0  0  0  0
   26.4590   -0.6330   52.4520 C   0  0  0  0  0  3  0  0  0  0  0  0
   27.0850   -0.6070   53.7710 C   0  0  0  0  0  3  0  0  0  0  0  0
   27.6410    0.4890   54.2650 C   0  0  0  0  0  3  0  0  0  0  0  0
   28.1890    2.7610   53.9980 N   0  0  0  0  0  2  0  0  0  0  0  0
   28.2570    3.6910   53.5520 H   0  0  0  0  0  0  0  0  0  0  0  0
   22.7160    1.7390   49.3360 O   0  0  0  0  0  0  0  0  0  0  0  0
   22.2250    1.9280   48.0340 C   0  0  0  0  0  1  0  0  0  0  0  0
   22.7760    1.2640   51.7680 C   0  0  0  0  0  2  0  0  0  0  0  0
   23.0470    1.1930   53.0670 C   0  0  0  0  0  1  0  0  0  0  0  0
  1 23  1  1  0  0  0
  1  2  1  0  0  0  0
  2  3  2  0  0  0  0
  4  3  1  0  0  0  0
  5  4  2  0  0  0  0
  6  9  1  1  0  0  0
  6  5  1  0  0  0  0
  7  6  1  0  0  0  0
  7  8  2  0  0  0  0
  8  1  1  0  0  0  0
  9 11  1  0  0  0  0
 10  9  1  0  0  0  0
 11 12  1  0  0  0  0
 12 13  1  0  0  0  0
 13 15  1  0  0  0  0
 14 13  2  0  0  0  0
 14 16  1  0  0  0  0
 15 19  1  0  0  0  0
 15 18  2  0  0  0  0
 16 17  2  0  0  0  0
 17 18  1  0  0  0  0
 20 19  1  0  0  0  0
 21  8  1  0  0  0  0
 22 21  1  0  0  0  0
 23 24  1  0  0  0  0
M  END
>  <TORSDO>
F 5

$$$$
