C:\Qe-CaDD\Project\Data\Stage_6_Molecular_Dynamics\ligands_top\out_21810_EGFR_extracted.pdbqt
 OpenBabel01082506443D

 27 29  0  0  0  0  0  0  0  0999 V2000
   25.0900   -0.7270   54.3050 C   0  0  0  0  0  0  0  0  0  0  0  0
   24.4420   -1.3410   55.3570 C   0  0  0  0  0  3  0  0  0  0  0  0
   23.0650   -1.2890   55.3970 C   0  0  0  0  0  3  0  0  0  0  0  0
   22.3550   -0.6380   54.4080 C   0  0  0  0  0  0  0  0  0  0  0  0
   21.0290   -0.6450   54.5360 N   0  0  0  0  0  0  0  0  0  0  0  0
   20.2790   -0.0350   53.6170 C   0  0  0  0  0  3  0  0  0  0  0  0
   20.9020    0.5480   52.6170 N   0  0  0  0  0  0  0  0  0  0  0  0
   22.2140    0.6200   52.3840 C   0  0  0  0  0  0  0  0  0  0  0  0
   22.9580   -0.0110   53.3390 C   0  0  0  0  0  0  0  0  0  0  0  0
   24.3240   -0.0940   53.3490 C   0  0  0  0  0  3  0  0  0  0  0  0
   22.8640    1.2530   51.3010 N   0  0  0  0  0  0  0  0  0  0  0  0
   23.0850    0.7460   50.4250 H   0  0  0  0  0  0  0  0  0  0  0  0
   23.3100    2.5960   51.1900 C   0  0  0  0  0  0  0  0  0  0  0  0
   22.7090    3.6870   51.7990 C   0  0  0  0  0  3  0  0  0  0  0  0
   23.1590    4.9770   51.6760 C   0  0  0  0  0  3  0  0  0  0  0  0
   24.2580    5.2620   50.9230 C   0  0  0  0  0  3  0  0  0  0  0  0
   24.8880    4.2050   50.2990 C   0  0  0  0  0  0  0  0  0  0  0  0
   24.4000    2.9260   50.4500 C   0  0  0  0  0  3  0  0  0  0  0  0
   26.3630    4.6360   49.2960 P   0  0  0  0  0  0  0  0  0  0  0  0
   26.7650    6.0050   49.4990 H   0  0  0  0  0  0  0  0  0  0  0  0
   27.4410    3.6840   49.4660 H   0  0  0  0  0  0  0  0  0  0  0  0
   26.5150   -0.7640   54.2360 N   0  0  0  0  0  0  0  0  0  0  0  0
   27.4360    0.2530   54.6090 C   0  0  0  0  0  0  0  0  0  0  0  0
   26.8150    1.2570   55.0330 O   0  0  0  0  0  0  0  0  0  0  0  0
   26.7430   -1.7090   53.8500 H   0  0  0  0  0  0  0  0  0  0  0  0
   28.8490   -0.0320   54.4430 C   0  0  0  0  0  3  0  0  0  0  0  0
   29.4390   -0.9200   53.6680 C   0  0  0  0  0  2  0  0  0  0  0  0
  1  2  1  0  0  0  0
  2  3  2  0  0  0  0
  4  5  1  0  0  0  0
  4  3  1  0  0  0  0
  6  5  2  0  0  0  0
  7  6  1  0  0  0  0
  8  7  2  0  0  0  0
  8  9  1  0  0  0  0
  9 10  1  0  0  0  0
  9  4  2  0  0  0  0
 10  1  2  0  0  0  0
 11  8  1  0  0  0  0
 12 11  1  0  0  0  0
 13 11  1  0  0  0  0
 13 14  1  0  0  0  0
 15 14  2  0  0  0  0
 16 15  1  0  0  0  0
 17 18  1  0  0  0  0
 17 16  2  0  0  0  0
 18 13  2  0  0  0  0
 19 21  1  0  0  0  0
 19 20  1  0  0  0  0
 19 17  1  0  0  0  0
 22  1  1  0  0  0  0
 22 23  1  0  0  0  0
 23 24  2  0  0  0  0
 25 22  1  0  0  0  0
 26 23  1  0  0  0  0
 27 26  2  0  0  0  0
M  END
>  <TORSDO>
F 5

$$$$
