C:\Qe-CaDD\Project\Data\Stage_6_Molecular_Dynamics\ligands_top\out_22402_EGFR_extracted.pdbqt
 OpenBabel01082506443D

 23 23  0  0  1  0  0  0  0  0999 V2000
   26.5670    0.6760   54.1520 C   0  0  1  0  0  3  0  0  0  0  0  0
   25.5850   -0.1290   54.7010 C   0  0  0  0  0  0  0  0  0  0  0  0
   24.7760   -0.7770   55.1290 C   0  0  0  0  0  0  0  0  0  0  0  0
   23.7590   -1.5670   55.6410 C   0  0  2  0  0  3  0  0  0  0  0  0
   22.6100   -1.9650   55.5990 O   0  0  0  0  0  0  0  0  0  0  0  0
   22.8350   -1.0830   54.6030 N   0  0  0  0  0  0  0  0  0  0  0  0
   21.7880   -0.6630   53.5920 C   0  0  0  0  0  2  0  0  0  0  0  0
   20.5330   -0.8630   53.9500 C   0  0  0  0  0  3  0  0  0  0  0  0
   19.2720   -0.6060   53.3160 C   0  0  0  0  0  3  0  0  0  0  0  0
   19.0880   -0.0340   52.1410 C   0  0  0  0  0  3  0  0  0  0  0  0
   19.5350    0.5750   50.9520 N   0  0  0  0  0  2  0  0  0  0  0  0
   20.6060    1.2600   50.9150 C   0  0  0  0  0  2  0  0  0  0  0  0
   21.7560    1.8400   51.4380 N   0  0  0  0  0  0  0  0  0  0  0  0
   22.6790    1.1310   52.0830 C   0  0  0  0  0  0  0  0  0  0  0  0
   23.9930    1.2960   52.7720 C   0  0  0  0  0  3  0  0  0  0  0  0
   24.8770    2.2580   53.1120 C   0  0  0  0  0  3  0  0  0  0  0  0
   26.1370    2.1090   53.8120 C   0  0  0  0  0  2  0  0  0  0  0  0
   22.1470   -0.2140   52.1580 C   0  0  0  0  0  1  0  0  0  0  0  0
   22.8230   -0.2710   53.9960 H   0  0  0  0  0  0  0  0  0  0  0  0
   27.7040    0.7780   54.9520 O   0  0  0  0  0  0  0  0  0  0  0  0
   28.4500   -0.3450   54.9320 N   0  0  0  0  0  0  0  0  0  0  0  0
   28.7000   -0.6200   53.9720 H   0  0  0  0  0  0  0  0  0  0  0  0
   29.2890   -0.1970   55.5200 H   0  0  0  0  0  0  0  0  0  0  0  0
  1 17  1  1  0  0  0
  1  2  1  0  0  0  0
  1 20  1  0  0  0  0
  2  3  3  0  0  0  0
  4  3  1  6  0  0  0
  5  4  1  0  0  0  0
  6  5  1  0  0  0  0
  6  4  1  0  0  0  0
  7  8  2  0  0  0  0
  9  8  1  0  0  0  0
 10  9  2  0  0  0  0
 11 10  1  0  0  0  0
 12 11  1  0  0  0  0
 12 13  1  0  0  0  0
 13 14  2  0  0  0  0
 14 18  1  0  0  0  0
 14 15  1  0  0  0  0
 15 16  2  0  0  0  0
 16 17  1  0  0  0  0
 19  6  1  0  0  0  0
 21 20  1  0  0  0  0
 21 23  1  0  0  0  0
 22 21  1  0  0  0  0
M  END
>  <TORSDO>
F 2

$$$$
