C:\Qe-CaDD\Project\Data\Stage_6_Molecular_Dynamics\ligands_top\out_13307_EGFR_extracted.pdbqt
 OpenBabel01082506443D

 23 25  0  0  1  0  0  0  0  0999 V2000
   22.2890    2.0060   48.9920 C   0  0  0  0  0  1  0  0  0  0  0  0
   23.2640    2.4280   49.9750 N   0  0  0  0  0  0  0  0  0  0  0  0
   23.9840    3.6420   49.6630 C   0  0  0  0  0  3  0  0  0  0  0  0
   25.2340    3.9020   50.0930 C   0  0  0  0  0  3  0  0  0  0  0  0
   26.2280    3.2340   50.8980 C   0  0  0  0  0  3  0  0  0  0  0  0
   25.9230    1.9440   51.4990 C   0  0  0  0  0  0  0  0  0  0  0  0
   24.7680    1.2590   51.5980 C   0  0  0  0  0  3  0  0  0  0  0  0
   23.4280    1.6040   51.1180 C   0  0  0  0  0  0  0  0  0  0  0  0
   22.3780    1.2190   51.7970 C   0  0  1  0  0  3  0  0  0  0  0  0
   20.9300    1.3890   51.7600 C   0  0  0  0  0  0  0  0  0  0  0  0
   20.3500    2.1740   50.9160 O   0  0  0  0  0  0  0  0  0  0  0  0
   20.2000    0.6020   52.7540 N   0  0  0  0  0  0  0  0  0  0  0  0
   21.2720    0.6890   53.7200 C   0  0  1  0  0  3  0  0  0  0  0  0
   21.2430   -0.2100   54.8540 C   0  0  0  0  0  3  0  0  0  0  0  0
   22.2710   -1.0220   54.7170 C   0  0  0  0  0  3  0  0  0  0  0  0
   23.0700   -0.7810   53.5280 C   0  0  0  0  0  3  0  0  0  0  0  0
   22.4720    0.2500   52.9080 C   0  0  0  0  0  0  0  0  0  0  0  0
   19.2260    0.2310   52.5440 H   0  0  0  0  0  0  0  0  0  0  0  0
   27.1130    1.2870   52.0980 C   0  0  0  0  0  2  0  0  0  0  0  0
   27.7320    2.0990   53.1620 C   0  0  0  0  0  0  0  0  0  0  0  0
   27.0980    2.3560   54.2440 O   0  0  0  0  0  0  0  0  0  0  0  0
   29.0110    2.6400   53.0920 O   0  0  0  0  0  0  0  0  0  0  0  0
   29.3160    3.4430   53.6480 H   0  0  0  0  0  0  0  0  0  0  0  0
  1  2  1  0  0  0  0
  2  8  1  0  0  0  0
  3  2  1  0  0  0  0
  3  4  2  0  0  0  0
  4  5  1  0  0  0  0
  5  6  2  0  0  0  0
  6  7  1  0  0  0  0
  6 19  1  0  0  0  0
  8  7  2  0  0  0  0
  9  8  1  6  0  0  0
  9 17  1  0  0  0  0
 10  9  1  0  0  0  0
 10 12  1  0  0  0  0
 11 10  2  0  0  0  0
 12 13  1  0  0  0  0
 13 14  1  1  0  0  0
 15 14  2  0  0  0  0
 16 15  1  0  0  0  0
 17 16  2  0  0  0  0
 17 13  1  0  0  0  0
 18 12  1  0  0  0  0
 19 20  1  0  0  0  0
 20 21  2  0  0  0  0
 22 20  1  0  0  0  0
 22 23  1  0  0  0  0
M  END
>  <TORSDO>
F 3

$$$$
