C:\Qe-CaDD\Project\Data\Stage_6_Molecular_Dynamics\ligands_top\out_13818_EGFR_extracted.pdbqt
 OpenBabel01082506443D

 31 32  0  0  1  0  0  0  0  0999 V2000
   23.3300    3.5640   52.1840 C   0  0  0  0  0  0  0  0  0  0  0  0
   22.0640    3.9860   52.1150 N   0  0  0  0  0  0  0  0  0  0  0  0
   21.0040    3.1960   52.3570 C   0  0  0  0  0  3  0  0  0  0  0  0
   21.1510    1.8810   52.6960 N   0  0  0  0  0  0  0  0  0  0  0  0
   22.4060    1.3780   52.7850 C   0  0  0  0  0  0  0  0  0  0  0  0
   22.5450    0.0600   53.1290 C   0  0  0  0  0  3  0  0  0  0  0  0
   23.8260   -0.4470   53.2220 C   0  0  0  0  0  3  0  0  0  0  0  0
   24.9390    0.3640   52.9730 C   0  0  0  0  0  0  0  0  0  0  0  0
   24.7100    1.6790   52.6330 C   0  0  0  0  0  3  0  0  0  0  0  0
   23.4540    2.2350   52.5270 C   0  0  0  0  0  0  0  0  0  0  0  0
   24.4350    4.4160   51.9180 N   0  0  0  0  0  0  0  0  0  0  0  0
   25.1170    4.7620   52.5890 H   0  0  0  0  0  0  0  0  0  0  0  0
   24.6000    4.8410   50.5080 C   0  0  1  0  0  3  0  0  0  0  0  0
   24.8420    6.3010   50.4640 C   0  0  0  0  0  0  0  0  0  0  0  0
   23.6940    6.9180   51.2150 C   0  0  0  0  0  1  0  0  0  0  0  0
   25.5900    7.3510   50.0760 C   0  0  0  0  0  3  0  0  0  0  0  0
   26.8030    7.7050   49.3540 C   0  0  0  0  0  3  0  0  0  0  0  0
   27.8330    7.2240   48.6890 C   0  0  0  0  0  3  0  0  0  0  0  0
   28.3610    5.9540   48.2780 C   0  0  0  0  0  3  0  0  0  0  0  0
   27.8480    4.7640   48.5120 C   0  0  0  0  0  3  0  0  0  0  0  0
   26.5990    4.4970   49.2600 C   0  0  0  0  0  2  0  0  0  0  0  0
   25.5900    4.0870   49.8530 N   0  0  0  0  0  2  0  0  0  0  0  0
   24.8830    8.5070   50.5940 N   0  0  0  0  0  1  0  0  0  0  0  0
   24.3980    9.3570   50.8960 H   0  0  0  0  0  0  0  0  0  0  0  0
   24.3940    9.3940   50.8680 H   0  0  0  0  0 15  0  0  0  0  0  0
   26.2640   -0.2350   53.0940 C   0  0  0  0  0  0  0  0  0  0  0  0
   26.5680   -1.5710   52.8450 C   0  0  0  0  0  3  0  0  0  0  0  0
   27.9000   -1.6780   53.0790 N   0  0  0  0  0  0  0  0  0  0  0  0
   28.3720   -0.4910   53.4440 N   0  0  0  0  0  0  0  0  0  0  0  0
   29.7520   -0.1810   53.7810 C   0  0  0  0  0  1  0  0  0  0  0  0
   27.4180    0.4570   53.4770 C   0  0  0  0  0  3  0  0  0  0  0  0
  1 10  1  0  0  0  0
  2  1  2  0  0  0  0
  2  3  1  0  0  0  0
  3  4  2  0  0  0  0
  4  5  1  0  0  0  0
  5  6  1  0  0  0  0
  6  7  2  0  0  0  0
  8 26  1  0  0  0  0
  8  7  1  0  0  0  0
  9  8  2  0  0  0  0
 10  9  1  0  0  0  0
 10  5  2  0  0  0  0
 11  1  1  0  0  0  0
 11 12  1  0  0  0  0
 13 11  1  1  0  0  0
 14 13  1  0  0  0  0
 14 15  1  0  0  0  0
 16 14  2  0  0  0  0
 17 16  1  0  0  0  0
 18 17  2  0  0  0  0
 19 20  2  0  0  0  0
 19 18  1  0  0  0  0
 20 21  1  0  0  0  0
 21 22  1  0  0  0  0
 22 13  1  0  0  0  0
 23 24  1  0  0  0  0
 26 31  2  0  0  0  0
 27 28  2  0  0  0  0
 27 26  1  0  0  0  0
 28 29  1  0  0  0  0
 29 31  1  0  0  0  0
 29 30  1  0  0  0  0
M  END
>  <TORSDO>
F 4

$$$$
