C:\Qe-CaDD\Project\Data\Stage_6_Molecular_Dynamics\ligands_top\out_21447_EGFR_extracted.pdbqt
 OpenBabel01082506443D

 36 41  0  0  1  0  0  0  0  0999 V2000
   17.8780    4.1480   43.3420 C   0  0  0  0  0  3  0  0  0  0  0  0
   18.9530    4.0730   43.8660 C   0  0  0  0  0  0  0  0  0  0  0  0
   20.3640    3.9300   44.4520 C   0  0  0  0  0  0  0  0  0  0  0  0
   21.5280    3.5910   44.3010 O   0  0  0  0  0  0  0  0  0  0  0  0
   20.5590    4.3290   45.8230 N   0  0  0  0  0  0  0  0  0  0  0  0
   19.6010    4.6600   46.1820 H   0  0  0  0  0  0  0  0  0  0  0  0
   20.9290    4.6720   47.1570 C   0  0  0  0  0  2  0  0  0  0  0  0
   22.0500    4.2190   47.8280 C   0  0  2  0  0  3  0  0  0  0  0  0
   22.1050    2.7540   48.3600 C   0  0  0  0  0  0  0  0  0  0  0  0
   21.5030    1.5980   48.2060 C   0  0  0  0  0  2  0  0  0  0  0  0
   23.1860    2.3930   49.3840 C   0  0  0  0  0  2  0  0  0  0  0  0
   24.2400    3.1160   49.8620 C   0  0  2  0  0  3  0  0  0  0  0  0
   24.3890    3.1440   51.3530 C   0  0  0  0  0  2  0  0  0  0  0  0
   25.3070    3.9980   49.4190 C   0  0  0  0  0  0  0  0  0  0  0  0
   24.2130    4.1790   52.1770 N   0  0  0  0  0  0  0  0  0  0  0  0
   23.8150    5.4890   51.5990 C   0  0  0  0  0  0  0  0  0  0  0  0
   23.7880    6.6210   51.0470 N   0  0  0  0  0  0  0  0  0  0  0  0
   22.6190    4.9710   52.0230 N   0  0  0  0  0  4  0  0  0  0  0  0
   22.6350    7.3920   50.8610 N   0  0  0  0  0  0  0  0  0  0  0  0
   23.3570    8.1230   49.8290 C   0  0  0  0  0  2  0  0  0  0  0  0
   21.8700    7.0790   51.5240 H   0  0  0  0  0  0  0  0  0  0  0  0
   23.7250    7.3360   48.6330 C   0  0  1  0  0  3  0  0  0  0  0  0
   25.1180    7.4760   48.2770 N   0  0  0  0  0  2  0  0  0  0  0  0
   23.6860    5.8890   48.9050 C   0  0  2  0  0  3  0  0  0  0  0  0
   25.7400    6.3700   48.6010 C   0  0  0  0  0  0  0  0  0  0  0  0
   27.0780    6.0370   48.5710 C   0  0  0  0  0  3  0  0  0  0  0  0
   24.9230    5.3240   49.0190 C   0  0  0  0  0  0  0  0  0  0  0  0
   27.5170    4.7530   48.9400 C   0  0  0  0  0  3  0  0  0  0  0  0
   26.6240    3.8380   49.3300 C   0  0  0  0  0  3  0  0  0  0  0  0
   22.5970    4.9580   48.9960 C   0  0  0  0  0  0  0  0  0  0  0  0
   21.7800    4.4680   49.9160 C   0  0  0  0  0  0  0  0  0  0  0  0
   21.0320    4.0790   51.0980 C   0  0  0  0  0  0  0  0  0  0  0  0
   21.4120    4.3630   52.3900 C   0  0  0  0  0  2  0  0  0  0  0  0
   22.2980    5.6710   52.8040 H   0  0  0  0  0  0  0  0  0  0  0  0
   19.8230    3.3800   51.3010 O   0  0  0  0  0  0  0  0  0  0  0  0
   19.9230    1.9840   51.6380 C   0  0  0  0  0  1  0  0  0  0  0  0
  1  2  3  0  0  0  0
  2  3  1  0  0  0  0
  3  5  1  0  0  0  0
  4  3  2  0  0  0  0
  5  6  1  0  0  0  0
  5  7  1  0  0  0  0
  8  7  1  1  0  0  0
  8  9  1  0  0  0  0
  8 30  1  0  0  0  0
  9 11  1  0  0  0  0
 10  9  2  0  0  0  0
 12 11  1  1  0  0  0
 12 13  1  0  0  0  0
 13 15  1  0  0  0  0
 14 12  1  0  0  0  0
 16 18  1  0  0  0  0
 16 15  1  0  0  0  0
 17 16  2  0  0  0  0
 18 15  1  0  0  0  0
 18 33  1  0  0  0  0
 18 34  1  0  0  0  0
 19 17  1  0  0  0  0
 19 21  1  0  0  0  0
 20 19  1  0  0  0  0
 22 24  1  0  0  0  0
 22 20  1  1  0  0  0
 23 25  1  0  0  0  0
 23 22  1  0  0  0  0
 24 30  1  6  0  0  0
 24 27  1  0  0  0  0
 25 27  1  0  0  0  0
 26 25  2  0  0  0  0
 26 28  1  0  0  0  0
 27 14  2  0  0  0  0
 28 29  2  0  0  0  0
 29 14  1  0  0  0  0
 30 31  2  0  0  0  0
 31 32  2  0  0  0  0
 32 35  1  0  0  0  0
 32 33  1  0  0  0  0
 35 36  1  0  0  0  0
M  END
>  <TORSDO>
F 3

$$$$
