C:\Qe-CaDD\Project\Data\Stage_6_Molecular_Dynamics\ligands_top\out_12013_EGFR_extracted.pdbqt
 OpenBabel01082506443D

 27 29  0  0  1  0  0  0  0  0999 V2000
   31.1760    8.5410   48.3390 C   0  0  0  0  0  1  0  0  0  0  0  0
   29.7370    8.1500   48.5440 C   0  0  0  0  0  0  0  0  0  0  0  0
   29.3440    9.0600   49.4540 C   0  0  0  0  0  0  0  0  0  0  0  0
   28.0010    9.1380   49.9860 C   0  0  0  0  0  0  0  0  0  0  0  0
   26.8740    8.5350   49.8080 C   0  0  0  0  0  0  0  0  0  0  0  0
   25.4870    8.4090   50.1830 C   0  0  0  0  0  2  0  0  0  0  0  0
   24.6430    7.4700   49.8460 C   0  0  0  0  0  2  0  0  0  0  0  0
   24.5360    6.5000   48.7560 C   0  0  0  0  0  2  0  0  0  0  0  0
   25.7280    5.6500   48.5070 C   0  0  0  0  0  2  0  0  0  0  0  0
   26.9850    6.0280   48.4580 C   0  0  2  0  0  3  0  0  0  0  0  0
   28.1630    5.1410   48.6530 C   0  0  0  0  0  2  0  0  0  0  0  0
   29.2430    5.7390   48.2720 C   0  0  2  0  0  3  0  0  0  0  0  0
   29.4350    7.0290   47.7320 O   0  0  0  0  0  0  0  0  0  0  0  0
   27.4230    7.7150   48.2540 S   0  0  0  0  0  0  0  0  0  0  0  0
   30.4670    5.0350   48.3910 N   0  0  0  0  0  0  0  0  0  0  0  0
   31.1990    4.7870   47.3620 C   0  0  0  0  0  3  0  0  0  0  0  0
   32.4250    4.0630   47.6380 C   0  0  0  0  0  3  0  0  0  0  0  0
   33.5390    4.2630   46.9690 C   0  0  0  0  0  0  0  0  0  0  0  0
   33.8440    5.2060   45.8300 C   0  0  0  0  0  2  0  0  0  0  0  0
   34.8970    3.6700   47.0340 C   0  0  0  0  0  2  0  0  0  0  0  0
   34.6430    4.3810   44.8460 C   0  0  0  0  0  2  0  0  0  0  0  0
   35.2050    3.2950   45.6460 N   0  0  0  0  0  0  0  0  0  0  0  0
   34.6920    2.4080   45.4580 H   0  0  0  0  0  0  0  0  0  0  0  0
   30.1090   10.0380   50.0030 O   0  0  0  0  0  0  0  0  0  0  0  0
   29.7420   10.7660   50.5920 H   0  0  0  0  0  0  0  0  0  0  0  0
   27.4690    9.9740   50.9460 O   0  0  0  0  0  0  0  0  0  0  0  0
   27.1820   10.9280   50.7660 H   0  0  0  0  0  0  0  0  0  0  0  0
  1  2  1  0  0  0  0
  2  3  2  0  0  0  0
  3  4  1  0  0  0  0
  3 24  1  0  0  0  0
  4 26  1  0  0  0  0
  5  4  2  0  0  0  0
  5  6  1  0  0  0  0
  7  6  1  0  0  0  0
  8  7  1  0  0  0  0
  9  8  1  0  0  0  0
 10  9  1  1  0  0  0
 10 11  1  0  0  0  0
 12 15  1  6  0  0  0
 12 11  1  0  0  0  0
 13 12  1  0  0  0  0
 13  2  1  0  0  0  0
 14 10  1  0  0  0  0
 14  5  1  0  0  0  0
 16 17  1  0  0  0  0
 16 15  2  0  0  0  0
 18 20  1  0  0  0  0
 18 17  2  0  0  0  0
 19 18  1  0  0  0  0
 21 22  1  0  0  0  0
 21 19  1  0  0  0  0
 22 20  1  0  0  0  0
 23 22  1  0  0  0  0
 24 25  1  0  0  0  0
 27 26  1  0  0  0  0
M  END
>  <TORSDO>
F 4

$$$$
