C:\Qe-CaDD\Project\Data\Stage_6_Molecular_Dynamics\ligands_top\out_12378_EGFR_extracted.pdbqt
 OpenBabel01082506443D

 22 25  0  0  1  0  0  0  0  0999 V2000
   22.2950    1.9940   48.9840 C   0  0  0  0  0  2  0  0  0  0  0  0
   22.9890    2.8810   49.7200 C   0  0  2  0  0  3  0  0  0  0  0  0
   24.3370    3.4390   50.0050 C   0  0  0  0  0  2  0  0  0  0  0  0
   24.8480    2.6280   51.2600 C   0  0  0  0  0  0  0  0  0  0  0  0
   26.1200    2.1820   51.0850 C   0  0  0  0  0  3  0  0  0  0  0  0
   27.1340    1.3730   51.8720 C   0  0  0  0  0  2  0  0  0  0  0  0
   26.5360    1.0310   53.0440 O   0  0  0  0  0  0  0  0  0  0  0  0
   27.2020    0.2620   53.9390 C   0  0  0  0  0  2  0  0  0  0  0  0
   26.3430   -0.0260   55.1530 C   0  0  0  0  0  2  0  0  0  0  0  0
   25.0700   -0.7570   54.8510 C   0  0  0  0  0  2  0  0  0  0  0  0
   24.2690   -0.0500   54.0120 O   0  0  0  0  0  0  0  0  0  0  0  0
   23.0530   -0.6580   53.7000 C   0  0  1  0  0  3  0  0  0  0  0  0
   22.2900   -0.9580   54.7880 O   0  0  0  0  0  0  0  0  0  0  0  0
   21.1260   -1.6140   54.3150 C   0  0  0  0  0  2  0  0  0  0  0  0
   20.2890   -0.6250   53.5180 C   0  0  0  0  0  2  0  0  0  0  0  0
   21.0610    0.4770   53.1550 O   0  0  0  0  0  0  0  0  0  0  0  0
   22.2980    0.1220   52.6770 C   0  0  1  0  0  3  0  0  0  0  0  0
   22.9580    1.3540   52.2980 N   0  0  1  0  0  0  0  0  0  0  0  0
   24.0520    2.3440   52.5010 C   0  0  0  0  0  2  0  0  0  0  0  0
   22.1620    1.7450   51.1510 C   0  0  2  0  0  3  0  0  0  0  0  0
   21.6330    1.0850   50.0610 C   0  0  0  0  0  2  0  0  0  0  0  0
   21.8260    3.2120   50.6920 C   0  0  0  0  0  2  0  0  0  0  0  0
  1 21  1  0  0  0  0
  2  1  1  1  0  0  0
  2  3  1  0  0  0  0
  2 22  1  0  0  0  0
  3  4  1  0  0  0  0
  4 19  1  0  0  0  0
  5  4  2  0  0  0  0
  5  6  1  0  0  0  0
  6  7  1  0  0  0  0
  7  8  1  0  0  0  0
  8  9  1  0  0  0  0
 10  9  1  0  0  0  0
 11 10  1  0  0  0  0
 12 11  1  1  0  0  0
 12 13  1  0  0  0  0
 14 13  1  0  0  0  0
 15 14  1  0  0  0  0
 16 15  1  0  0  0  0
 17 16  1  1  0  0  0
 17 12  1  0  0  0  0
 18 19  1  6  0  0  0
 18 17  1  0  0  0  0
 20 21  1  6  0  0  0
 20 18  1  0  0  0  0
 22 20  1  0  0  0  0
M  END
>  <TORSDO>
F 0

$$$$
