C:\Qe-CaDD\Project\Data\Stage_6_Molecular_Dynamics\ligands_top\out_13098_EGFR_extracted.pdbqt
 OpenBabel01082506443D

 26 27  0  0  0  0  0  0  0  0999 V2000
   27.1680    1.6600   53.1820 C   0  0  0  0  0  0  0  0  0  0  0  0
   28.3570    2.1630   53.6450 C   0  0  0  0  0  3  0  0  0  0  0  0
   29.0490    1.4540   54.5200 N   0  0  0  0  0  0  0  0  0  0  0  0
   28.6300    0.2590   54.9700 C   0  0  0  0  0  3  0  0  0  0  0  0
   27.4710   -0.2470   54.5270 N   0  0  0  0  0  0  0  0  0  0  0  0
   26.7370    0.4420   53.6380 C   0  0  0  0  0  0  0  0  0  0  0  0
   26.4590    2.3310   52.3210 C   0  0  0  0  0  2  0  0  0  0  0  0
   26.5600    2.4400   50.8510 C   0  0  0  0  0  2  0  0  0  0  0  0
   26.9580    3.7960   50.4410 N   0  0  0  0  0  0  0  0  0  0  0  0
   27.7650    3.7810   49.8090 H   0  0  0  0  0  0  0  0  0  0  0  0
   25.5610    4.4980   49.5760 P   0  0  0  0  0  0  0  0  0  0  0  0
   24.8340    3.5110   48.7990 H   0  0  0  0  0  0  0  0  0  0  0  0
   24.4070    5.2000   50.8090 C   0  0  0  0  0  3  0  0  0  0  0  0
   23.3610    4.6550   51.4150 C   0  0  0  0  0  3  0  0  0  0  0  0
   22.9560    3.2720   51.1400 C   0  0  0  0  0  2  0  0  0  0  0  0
   22.0760    3.1380   50.0740 O   0  0  0  0  0  0  0  0  0  0  0  0
   22.3860    1.9750   49.3870 C   0  0  0  0  0  2  0  0  0  0  0  0
   22.5240    2.3240   47.8990 C   0  0  0  0  0  1  0  0  0  0  0  0
   25.6250   -0.1680   53.2880 C   0  0  0  0  0  2  0  0  0  0  0  0
   24.2490   -0.4060   53.6720 C   0  0  0  0  0  0  0  0  0  0  0  0
   23.9330   -1.0790   54.8360 C   0  0  0  0  0  3  0  0  0  0  0  0
   22.6370   -1.3610   55.2830 C   0  0  0  0  0  3  0  0  0  0  0  0
   21.6740   -0.8880   54.4220 C   0  0  0  0  0  3  0  0  0  0  0  0
   21.8420   -0.2080   53.2400 C   0  0  0  0  0  0  0  0  0  0  0  0
   20.3870    0.3770   52.1640 Br  0  0  0  0  0  0  0  0  0  0  0  0
   23.1730    0.0220   52.8860 C   0  0  0  0  0  3  0  0  0  0  0  0
  1  6  2  0  0  0  0
  1  2  1  0  0  0  0
  2  3  2  0  0  0  0
  3  4  1  0  0  0  0
  5  4  2  0  0  0  0
  6  5  1  0  0  0  0
  7  1  1  0  0  0  0
  8  7  1  0  0  0  0
  9  8  1  0  0  0  0
 10  9  1  0  0  0  0
 11  9  1  0  0  0  0
 11 13  1  0  0  0  0
 12 11  1  0  0  0  0
 13 14  2  0  0  0  0
 15 14  1  0  0  0  0
 16 15  1  0  0  0  0
 17 16  1  0  0  0  0
 18 17  1  0  0  0  0
 19  6  1  0  0  0  0
 19 20  1  0  0  0  0
 20 21  1  0  0  0  0
 21 22  2  0  0  0  0
 23 22  1  0  0  0  0
 24 23  2  0  0  0  0
 25 24  1  0  0  0  0
 26 24  1  0  0  0  0
 26 20  2  0  0  0  0
M  END
>  <TORSDO>
F 10

$$$$
