C:\Qe-CaDD\Project\Data\Stage_6_Molecular_Dynamics\ligands_top\out_16960_EGFR_extracted.pdbqt
 OpenBabel01082506443D

 22 23  0  0  0  0  0  0  0  0999 V2000
   17.2970   -0.4160   52.1290 C   0  0  0  0  0  0  0  0  0  0  0  0
   18.2550   -0.0130   51.3210 C   0  0  0  0  0  3  0  0  0  0  0  0
   19.6190   -0.1990   51.4830 O   0  0  0  0  0  0  0  0  0  0  0  0
   20.3290    0.6710   52.3770 C   0  0  0  0  0  2  0  0  0  0  0  0
   21.4150   -0.0930   53.0690 C   0  0  0  0  0  0  0  0  0  0  0  0
   22.5520    0.4250   52.7980 C   0  0  0  0  0  0  0  0  0  0  0  0
   23.4410   -0.4820   53.5770 C   0  0  0  0  0  3  0  0  0  0  0  0
   24.7080   -0.7270   53.9140 C   0  0  0  0  0  3  0  0  0  0  0  0
   26.0630   -0.2650   53.7430 N   0  0  0  0  0  0  0  0  0  0  0  0
   26.6470    0.4250   54.9110 C   0  0  0  0  0  1  0  0  0  0  0  0
   26.8440   -0.4590   52.5590 C   0  0  0  0  0  2  0  0  0  0  0  0
   26.5630    0.5170   51.7180 C   0  0  0  0  0  2  0  0  0  0  0  0
   26.2290    1.6360   52.3070 C   0  0  0  0  0  2  0  0  0  0  0  0
   24.8450    1.4630   52.2590 C   0  0  0  0  0  0  0  0  0  0  0  0
   24.8020    2.8650   50.9060 Br  0  0  0  0  0  0  0  0  0  0  0  0
   23.5930    1.2180   52.2890 C   0  0  0  0  0  3  0  0  0  0  0  0
   21.0000   -1.1720   53.8660 N   0  0  0  0  0  0  0  0  0  0  0  0
   19.8130   -1.5930   53.8700 C   0  0  0  0  0  3  0  0  0  0  0  0
   18.7330   -1.0800   53.1080 N   0  0  0  0  0  2  0  0  0  0  0  0
   17.5090   -1.1500   53.3780 C   0  0  0  0  0  2  0  0  0  0  0  0
   15.9900   -0.1180   51.7640 O   0  0  0  0  0  0  0  0  0  0  0  0
   15.1650    0.7030   52.5960 C   0  0  0  0  0  1  0  0  0  0  0  0
  1 20  1  0  0  0  0
  2  3  1  0  0  0  0
  2  1  2  0  0  0  0
  3  4  1  0  0  0  0
  4  5  1  0  0  0  0
  5 17  1  0  0  0  0
  6  5  2  0  0  0  0
  6  7  1  0  0  0  0
  7  8  2  0  0  0  0
  9  8  1  0  0  0  0
  9 10  1  0  0  0  0
 11  9  1  0  0  0  0
 12 13  1  0  0  0  0
 12 11  1  0  0  0  0
 14 16  2  0  0  0  0
 14 13  1  0  0  0  0
 15 14  1  0  0  0  0
 16  6  1  0  0  0  0
 17 18  2  0  0  0  0
 19 20  1  0  0  0  0
 19 18  1  0  0  0  0
 21  1  1  0  0  0  0
 21 22  1  0  0  0  0
M  END
>  <TORSDO>
F 1

$$$$
