C:\Qe-CaDD\Project\Data\Stage_6_Molecular_Dynamics\ligands_top\out_12166_EGFR_extracted.pdbqt
 OpenBabel01082506443D

 28 31  0  0  1  0  0  0  0  0999 V2000
   27.1440    0.7270   53.7790 C   0  0  2  0  0  3  0  0  0  0  0  0
   26.3910    1.8850   54.1760 O   0  0  0  0  0  0  0  0  0  0  0  0
   25.2090    2.0990   53.4800 C   0  0  0  0  0  0  0  0  0  0  0  0
   24.6770    3.3260   53.4230 C   0  0  0  0  0  2  0  0  0  0  0  0
   23.4660    3.3950   52.6170 C   0  0  0  0  0  0  0  0  0  0  0  0
   22.8640    4.3940   51.9940 C   0  0  0  0  0  0  0  0  0  0  0  0
   21.7570    3.9280   51.2330 N   0  0  0  0  0  0  0  0  0  0  0  0
   21.6310    2.6310   51.3730 C   0  0  0  0  0  3  0  0  0  0  0  0
   22.6690    2.2290   52.2710 C   0  0  1  0  0  3  0  0  0  0  0  0
   23.3740    0.9550   52.1820 C   0  0  0  0  0  2  0  0  0  0  0  0
   24.5760    0.9720   52.8060 C   0  0  0  0  0  0  0  0  0  0  0  0
   25.2280   -0.2780   52.8420 O   0  0  0  0  0  0  0  0  0  0  0  0
   26.2110   -0.4450   53.8490 C   0  0  2  0  0  3  0  0  0  0  0  0
   23.3140    5.7580   51.9900 N   0  0  0  0  0  0  0  0  0  0  0  0
   22.9700    6.3470   52.8040 H   0  0  0  0  0  0  0  0  0  0  0  0
   24.1510    6.4040   51.0420 C   0  0  0  0  0  0  0  0  0  0  0  0
   24.0360    7.7580   50.7510 C   0  0  0  0  0  3  0  0  0  0  0  0
   24.8890    8.2800   49.8250 C   0  0  0  0  0  3  0  0  0  0  0  0
   25.8660    7.5690   49.1460 C   0  0  0  0  0  3  0  0  0  0  0  0
   25.9750    6.2240   49.4400 C   0  0  0  0  0  0  0  0  0  0  0  0
   27.2040    5.3370   48.5850 Cl  0  0  0  0  0  0  0  0  0  0  0  0
   25.1090    5.6700   50.3880 C   0  0  0  0  0  3  0  0  0  0  0  0
   28.3620    0.5590   54.6540 C   0  0  0  0  0  2  0  0  0  0  0  0
   28.8330   -0.7540   54.4170 O   0  0  0  0  0  0  0  0  0  0  0  0
   29.9350   -0.5950   53.5580 C   0  0  0  0  0  1  0  0  0  0  0  0
   25.5160   -0.4740   55.2160 C   0  0  0  0  0  2  0  0  0  0  0  0
   24.7440   -1.5900   55.4090 O   0  0  0  0  0  0  0  0  0  0  0  0
   23.3950   -1.3610   55.5700 C   0  0  0  0  0  1  0  0  0  0  0  0
  1 13  1  0  0  0  0
  1  2  1  0  0  0  0
  1 23  1  1  0  0  0
  3  2  1  0  0  0  0
  4  3  1  0  0  0  0
  5  4  1  0  0  0  0
  6  5  2  0  0  0  0
  7  8  2  0  0  0  0
  7  6  1  0  0  0  0
  9  8  1  6  0  0  0
  9  5  1  0  0  0  0
 10  9  1  0  0  0  0
 10 11  1  0  0  0  0
 11 12  1  0  0  0  0
 11  3  2  0  0  0  0
 12 13  1  0  0  0  0
 13 26  1  1  0  0  0
 14  6  1  0  0  0  0
 14 15  1  0  0  0  0
 16 14  1  0  0  0  0
 17 16  1  0  0  0  0
 18 17  2  0  0  0  0
 19 20  2  0  0  0  0
 19 18  1  0  0  0  0
 20 22  1  0  0  0  0
 21 20  1  0  0  0  0
 22 16  2  0  0  0  0
 24 23  1  0  0  0  0
 25 24  1  0  0  0  0
 26 27  1  0  0  0  0
 27 28  1  0  0  0  0
M  END
>  <TORSDO>
F 6

$$$$
