C:\Qe-CaDD\Project\Data\Stage_6_Molecular_Dynamics\ligands_top\out_12493_EGFR_extracted.pdbqt
 OpenBabel01082506443D

 27 29  0  0  1  0  0  0  0  0999 V2000
   26.3360   -0.3730   52.7770 C   0  0  0  0  0  0  0  0  0  0  0  0
   25.3690   -0.9820   53.5560 C   0  0  0  0  0  3  0  0  0  0  0  0
   24.0610   -0.5330   53.5960 C   0  0  0  0  0  0  0  0  0  0  0  0
   23.6860    0.5750   52.8270 C   0  0  0  0  0  0  0  0  0  0  0  0
   24.6520    1.1910   52.0420 C   0  0  0  0  0  0  0  0  0  0  0  0
   25.9570    0.7330   52.0110 C   0  0  0  0  0  0  0  0  0  0  0  0
   26.7950    1.4600   51.1760 O   0  0  0  0  0  0  0  0  0  0  0  0
   26.6800    2.8740   51.0400 C   0  0  0  0  0  2  0  0  0  0  0  0
   25.2640    3.3330   50.9650 C   0  0  0  0  0  2  0  0  0  0  0  0
   24.3320    2.3050   51.2510 O   0  0  0  0  0  0  0  0  0  0  0  0
   22.2330    0.8460   53.0530 C   0  0  2  0  0  3  0  0  0  0  0  0
   21.8950   -0.2350   54.0180 C   0  0  0  0  0  0  0  0  0  0  0  0
   22.9060   -0.9950   54.3180 N   0  0  0  0  0  0  0  0  0  0  0  0
   21.4210    0.6040   51.8180 C   0  0  0  0  0  3  0  0  0  0  0  0
   20.8310    1.6430   51.2360 C   0  0  0  0  0  3  0  0  0  0  0  0
   19.7960    1.6290   49.7380 P   0  0  0  0  0  0  0  0  0  0  0  0
   18.6160    2.4590   49.9880 H   0  0  0  0  0  0  0  0  0  0  0  0
   20.7180    2.2580   48.2770 C   0  0  0  0  0  0  0  0  0  0  0  0
   21.8490    1.5490   48.2870 C   0  0  0  0  0  2  0  0  0  0  0  0
   20.5830    3.2410   47.1810 C   0  0  0  0  0  1  0  0  0  0  0  0
   20.5830   -0.4110   54.5580 N   0  0  0  0  0  0  0  0  0  0  0  0
   19.6720   -1.3990   53.9840 C   0  0  0  0  0  1  0  0  0  0  0  0
   20.2190    0.1330   55.3570 H   0  0  0  0  0  0  0  0  0  0  0  0
   27.6530   -0.7670   52.6910 O   0  0  0  0  0  0  0  0  0  0  0  0
   28.5810   -0.4010   53.6610 C   0  0  0  0  0  0  0  0  0  0  0  0
   29.8340   -0.8010   53.5650 C   0  0  0  0  0  2  0  0  0  0  0  0
   28.3950    0.4260   54.8810 C   0  0  0  0  0  1  0  0  0  0  0  0
  1  2  1  0  0  0  0
  2  3  2  0  0  0  0
  3 13  1  0  0  0  0
  4 11  1  0  0  0  0
  4  3  1  0  0  0  0
  5  4  2  0  0  0  0
  6  5  1  0  0  0  0
  6  1  2  0  0  0  0
  7  6  1  0  0  0  0
  8  7  1  0  0  0  0
  9  8  1  0  0  0  0
  9 10  1  0  0  0  0
 10  5  1  0  0  0  0
 11 14  1  6  0  0  0
 11 12  1  0  0  0  0
 12 13  2  0  0  0  0
 12 21  1  0  0  0  0
 15 14  2  0  0  0  0
 16 17  1  0  0  0  0
 16 15  1  0  0  0  0
 18 19  2  0  0  0  0
 18 16  1  0  0  0  0
 20 18  1  0  0  0  0
 21 23  1  0  0  0  0
 22 21  1  0  0  0  0
 24  1  1  0  0  0  0
 24 25  1  0  0  0  0
 25 27  1  0  0  0  0
 26 25  2  0  0  0  0
M  END
>  <TORSDO>
F 6

$$$$
