C:\Qe-CaDD\Project\Data\Stage_6_Molecular_Dynamics\ligands_top\out_13094_EGFR_extracted.pdbqt
 OpenBabel01082506443D

 30 32  0  0  1  0  0  0  0  0999 V2000
   22.5870    1.4460   50.8790 C   0  0  0  0  0  0  0  0  0  0  0  0
   21.2470    1.0580   50.9970 C   0  0  0  0  0  3  0  0  0  0  0  0
   20.9230    0.2540   52.0690 C   0  0  0  0  0  3  0  0  0  0  0  0
   21.8660   -0.1440   52.9750 C   0  0  0  0  0  0  0  0  0  0  0  0
   21.4870   -0.9480   53.9800 N   0  0  0  0  0  0  0  0  0  0  0  0
   22.4220   -1.3420   54.8340 C   0  0  0  0  0  3  0  0  0  0  0  0
   23.6850   -0.9550   54.7000 N   0  0  0  0  0  0  0  0  0  0  0  0
   24.1790   -0.1590   53.7450 C   0  0  0  0  0  0  0  0  0  0  0  0
   23.1920    0.2090   52.9070 C   0  0  0  0  0  0  0  0  0  0  0  0
   23.4760    1.0060   51.8280 C   0  0  0  0  0  3  0  0  0  0  0  0
   22.9600    2.2580   49.8000 N   0  0  0  0  0  0  0  0  0  0  0  0
   23.9660    2.5270   49.7160 H   0  0  0  0  0  0  0  0  0  0  0  0
   22.1060    2.7690   48.7810 C   0  0  2  0  0  3  0  0  0  0  0  0
   22.4770    2.0660   47.4650 C   0  0  0  0  0  1  0  0  0  0  0  0
   22.2780    4.2770   48.5490 C   0  0  0  0  0  2  0  0  0  0  0  0
   22.1870    4.9010   49.9200 C   0  0  0  0  0  0  0  0  0  0  0  0
   21.0610    4.8260   50.4430 O   0  0  0  0  0  0  0  0  0  0  0  0
   23.6010    5.6740   50.6930 S   0  0  0  0  0  0  0  0  0  0  0  0
   24.8670    4.5510   50.9370 O   0  0  0  0  0  0  0  0  0  0  0  0
   25.7720    4.6590   49.9070 C   0  0  0  0  0  2  0  0  0  0  0  0
   26.3880    3.3180   49.5640 C   0  0  0  0  0  1  0  0  0  0  0  0
   25.5630    0.1700   53.7040 C   0  0  0  0  0  0  0  0  0  0  0  0
   26.3690    1.1830   53.7650 C   0  0  0  0  0  3  0  0  0  0  0  0
   27.8110    0.9020   53.6500 C   0  0  2  0  0  3  0  0  0  0  0  0
   27.8090   -0.5740   53.4760 C   0  0  0  0  0  0  0  0  0  0  0  0
   29.4220   -1.5420   53.2590 Br  0  0  0  0  0  0  0  0  0  0  0  0
   26.5590   -0.9100   53.5160 C   0  0  0  0  0  3  0  0  0  0  0  0
   28.4430    1.2850   54.9140 N   0  0  0  0  0  0  0  0  0  0  0  0
   28.8610    2.2380   54.8510 H   0  0  0  0  0  0  0  0  0  0  0  0
   27.7620    1.1910   55.7070 H   0  0  0  0  0  0  0  0  0  0  0  0
  1  2  2  0  0  0  0
  1 10  1  0  0  0  0
  2  3  1  0  0  0  0
  3  4  2  0  0  0  0
  4  5  1  0  0  0  0
  5  6  2  0  0  0  0
  7  6  1  0  0  0  0
  8  7  2  0  0  0  0
  9  4  1  0  0  0  0
  9  8  1  0  0  0  0
 10  9  2  0  0  0  0
 11  1  1  0  0  0  0
 12 11  1  0  0  0  0
 13 14  1  6  0  0  0
 13 11  1  0  0  0  0
 15 13  1  0  0  0  0
 15 16  1  0  0  0  0
 16 17  2  0  0  0  0
 16 18  1  0  0  0  0
 18 19  1  0  0  0  0
 20 19  1  0  0  0  0
 21 20  1  0  0  0  0
 22  8  1  0  0  0  0
 22 23  2  0  0  0  0
 24 23  1  0  0  0  0
 24 28  1  1  0  0  0
 25 27  2  0  0  0  0
 25 24  1  0  0  0  0
 26 25  1  0  0  0  0
 27 22  1  0  0  0  0
 28 30  1  0  0  0  0
 29 28  1  0  0  0  0
M  END
>  <TORSDO>
F 9

$$$$
