C:\Qe-CaDD\Project\Data\Stage_6_Molecular_Dynamics\ligands_top\out_10623_EGFR_extracted.pdbqt
 OpenBabel01082506443D

 32 37  0  0  1  0  0  0  0  0999 V2000
   24.7290   -0.4000   53.8450 C   0  0  1  0  0  3  0  0  0  0  0  0
   24.5810   -0.9180   54.9230 N   0  0  0  0  0  0  0  0  0  0  0  0
   23.1380   -1.0460   54.8310 C   0  0  0  0  0  0  0  0  0  0  0  0
   21.9990   -1.7640   55.2740 N   0  0  0  0  0  2  0  0  0  0  0  0
   20.7460   -1.5690   54.3260 C   0  0  0  0  0  2  0  0  0  0  0  0
   21.2900   -0.6810   53.5030 C   0  0  2  0  0  0  0  0  0  0  0  0
   22.3890   -1.1640   52.4780 C   0  0  0  0  0  2  0  0  0  0  0  0
   22.3510    0.0970   52.5860 C   0  0  2  0  0  0  0  0  0  0  0  0
   23.3510    0.0950   53.8350 C   0  0  2  0  0  3  0  0  0  0  0  0
   22.1180    1.4780   52.4630 N   0  0  0  0  0  0  0  0  0  0  0  0
   20.6150    1.4390   52.5680 C   0  0  1  0  0  3  0  0  0  0  0  0
   19.9980    0.6080   51.5460 C   0  0  0  0  0  1  0  0  0  0  0  0
   20.7110    0.6500   53.9050 O   0  0  0  0  0  0  0  0  0  0  0  0
   25.2670    0.2390   52.5850 N   0  0  0  0  0  0  0  0  0  0  0  0
   25.3100    0.5520   51.6210 H   0  0  0  0  0  0  0  0  0  0  0  0
   26.6020    0.7480   52.9630 C   0  0  0  0  0  0  0  0  0  0  0  0
   26.9760    2.0550   53.1720 C   0  0  0  0  0  3  0  0  0  0  0  0
   28.2680    2.3250   53.5440 C   0  0  0  0  0  3  0  0  0  0  0  0
   29.2210    1.3540   53.7220 C   0  0  0  0  0  3  0  0  0  0  0  0
   28.9050    0.0270   53.5260 C   0  0  0  0  0  0  0  0  0  0  0  0
   27.5870   -0.2270   53.1480 C   0  0  0  0  0  3  0  0  0  0  0  0
   29.7830   -1.0420   53.6780 O   0  0  0  0  0  0  0  0  0  0  0  0
   29.3980   -2.3650   53.3200 C   0  0  0  0  0  1  0  0  0  0  0  0
   22.9350    2.6300   52.3460 C   0  0  0  0  0  2  0  0  0  0  0  0
   23.3930    2.9050   50.9370 C   0  0  0  0  0  2  0  0  0  0  0  0
   24.5080    3.8620   51.0300 N   0  0  0  0  0  0  0  0  0  0  0  0
   23.9170    5.0580   51.5980 C   0  0  0  0  0  2  0  0  0  0  0  0
   23.4190    5.8810   50.4440 C   0  0  0  0  0  2  0  0  0  0  0  0
   24.4520    6.3910   49.6640 O   0  0  0  0  0  0  0  0  0  0  0  0
   25.5340    5.5630   49.5610 C   0  0  0  0  0  2  0  0  0  0  0  0
   25.1880    4.1000   49.8050 C   0  0  1  0  0  3  0  0  0  0  0  0
   26.5090    3.3570   49.8320 C   0  0  0  0  0  1  0  0  0  0  0  0
  1 14  1  1  0  0  0
  1  2  1  0  0  0  0
  3  2  2  0  0  0  0
  3  4  1  0  0  0  0
  5  4  1  0  0  0  0
  6  7  1  6  0  0  0
  6 13  1  0  0  0  0
  6  5  1  0  0  0  0
  8  7  1  6  0  0  0
  8  6  1  0  0  0  0
  8  9  1  0  0  0  0
  9  1  1  0  0  0  0
  9  3  1  1  0  0  0
 10 11  1  0  0  0  0
 10  8  1  0  0  0  0
 11 12  1  6  0  0  0
 11 13  1  0  0  0  0
 14 16  1  0  0  0  0
 15 14  1  0  0  0  0
 16 21  2  0  0  0  0
 16 17  1  0  0  0  0
 17 18  2  0  0  0  0
 18 19  1  0  0  0  0
 20 22  1  0  0  0  0
 20 19  2  0  0  0  0
 21 20  1  0  0  0  0
 23 22  1  0  0  0  0
 24 10  1  0  0  0  0
 25 26  1  0  0  0  0
 25 24  1  0  0  0  0
 26 27  1  0  0  0  0
 28 27  1  0  0  0  0
 29 28  1  0  0  0  0
 30 29  1  0  0  0  0
 30 31  1  0  0  0  0
 31 32  1  1  0  0  0
 31 26  1  0  0  0  0
M  END
>  <TORSDO>
F 6

$$$$
