C:\Qe-CaDD\Project\Data\Stage_6_Molecular_Dynamics\ligands_top\out_18358_EGFR_extracted.pdbqt
 OpenBabel01082506443D

 23 26  0  0  1  0  0  0  0  0999 V2000
   21.3980    1.7620   50.7430 C   0  0  0  0  0  1  0  0  0  0  0  0
   21.5760    1.2460   52.1710 C   0  0  0  0  0  0  0  0  0  0  0  0
   22.6950    1.0010   52.9540 C   0  0  0  0  0  0  0  0  0  0  0  0
   21.6230    0.6640   53.6470 N   0  0  0  0  0  0  0  0  0  0  0  0
   21.0710   -0.1480   54.4230 C   0  0  0  0  0  2  0  0  0  0  0  0
   21.8940   -1.3660   54.8750 C   0  0  0  0  0  2  0  0  0  0  0  0
   23.3990   -1.1490   54.7830 C   0  0  0  0  0  2  0  0  0  0  0  0
   24.6190   -1.2160   55.5150 C   0  0  0  0  0  2  0  0  0  0  0  0
   25.9040   -0.8180   54.7700 N   0  0  0  0  0  2  0  0  0  0  0  0
   25.6690    0.0940   53.6810 C   0  0  1  0  0  0  0  0  0  0  0  0
   24.9830    0.9810   52.4750 C   0  0  2  0  0  0  0  0  0  0  0  0
   23.8120    1.3700   52.1920 C   0  0  2  0  0  3  0  0  0  0  0  0
   24.8900    1.8670   51.2770 C   0  0  0  0  0  2  0  0  0  0  0  0
   26.3500    1.0020   52.1490 S   0  0  0  0  0  1  0  0  0  0  0  0
   25.3430    0.2600   53.3940 C   0  0  0  0  0  2  0  0  0  0  0  0
   24.9390   -0.4980   54.4890 N   0  0  1  0  0  4  0  0  0  0  0  0
   24.0840    0.0860   54.7010 H   0  0  0  0  0  0  0  0  0  0  0  0
   27.1250    0.5840   54.0420 N   0  0  0  0  0  0  0  0  0  0  0  0
   27.3450    1.6110   53.6780 H   0  0  0  0  0  0  0  0  0  0  0  0
   28.3510    0.1710   54.7630 C   0  0  0  0  0  2  0  0  0  0  0  0
   29.2560   -0.6210   53.8350 C   0  0  0  0  0  2  0  0  0  0  0  0
   28.6090   -1.8280   53.6270 O   0  0  0  0  0  0  0  0  0  0  0  0
   27.7170   -1.8470   54.0900 H   0  0  0  0  0  0  0  0  0  0  0  0
  1  2  1  0  0  0  0
  2  3  2  0  0  0  0
  2  4  1  0  0  0  0
  3  4  1  0  0  0  0
  4  5  1  0  0  0  0
  5  6  1  0  0  0  0
  7  6  1  0  0  0  0
  7  8  1  0  0  0  0
 10 18  1  1  0  0  0
 10 16  1  0  0  0  0
 10  9  1  0  0  0  0
 11 14  1  6  0  0  0
 11 15  1  0  0  0  0
 12 13  1  1  0  0  0
 12 11  1  0  0  0  0
 12  3  1  0  0  0  0
 13 11  1  0  0  0  0
 15 10  1  0  0  0  0
 16 17  1  1  0  0  0
 16  9  1  0  0  0  0
 16  8  1  0  0  0  0
 18 20  1  0  0  0  0
 19 18  1  0  0  0  0
 21 20  1  0  0  0  0
 22 21  1  0  0  0  0
 22 23  1  0  0  0  0
M  END
>  <TORSDO>
F 7

$$$$
