C:\Qe-CaDD\Project\Data\Stage_6_Molecular_Dynamics\ligands_top\out_22362_EGFR_extracted.pdbqt
 OpenBabel01082506443D

 23 24  0  0  1  0  0  0  0  0999 V2000
   29.9690   -1.0490   53.7740 C   0  0  0  0  0  3  0  0  0  0  0  0
   29.4170    0.0310   53.5960 C   0  0  0  0  0  0  0  0  0  0  0  0
   28.7290    1.3220   53.3790 C   0  0  0  0  0  2  0  0  0  0  0  0
   27.3560    1.0550   53.1170 N   0  0  0  0  0  0  0  0  0  0  0  0
   26.8520    1.5070   51.8700 C   0  0  0  0  0  3  0  0  0  0  0  0
   26.1070    2.3520   51.2360 C   0  0  0  0  0  0  0  0  0  0  0  0
   25.3160    3.2230   50.3980 C   0  0  0  0  0  0  0  0  0  0  0  0
   26.0410    4.2950   49.9500 C   0  0  0  0  0  2  0  0  0  0  0  0
   24.0060    2.9370   50.1180 C   0  0  0  0  0  0  0  0  0  0  0  0
   25.4440    5.2180   49.1280 N   0  0  0  0  0  0  0  0  0  0  0  0
   24.1570    4.9250   48.8600 C   0  0  0  0  0  3  0  0  0  0  0  0
   23.4650    3.8590   49.3150 N   0  0  0  0  0  0  0  0  0  0  0  0
   23.0550    1.9440   50.4510 N   0  0  0  0  0  0  0  0  0  0  0  0
   22.9900    1.9700   51.8720 C   0  0  0  0  0  2  0  0  0  0  0  0
   22.5690    1.3760   49.7240 H   0  0  0  0  0  0  0  0  0  0  0  0
   21.9810    1.0540   52.4890 C   0  0  0  0  0  3  0  0  0  0  0  0
   22.0940    0.0180   53.3600 C   0  0  0  0  0  0  0  0  0  0  0  0
   20.3790   -0.4630   53.5360 Cl  0  0  0  0  0  0  0  0  0  0  0  0
   23.5580   -0.0740   53.6190 C   0  0  1  0  0  3  0  0  0  0  0  0
   22.7940   -0.9640   54.2700 F   0  0  0  0  0  0  0  0  0  0  0  0
   24.3280   -0.8730   54.3840 C   0  0  0  0  0  2  0  0  0  0  0  0
   25.6880   -0.3570   54.1130 C   0  0  0  0  0  3  0  0  0  0  0  0
   26.1150    0.5670   53.3810 N   0  0  0  0  0  0  0  0  0  0  0  0
  2  1  3  0  0  0  0
  3  2  1  0  0  0  0
  4  3  1  0  0  0  0
  4 23  1  0  0  0  0
  5  4  1  0  0  0  0
  6  5  2  0  0  0  0
  7  6  2  0  0  0  0
  8  7  1  0  0  0  0
  9  7  1  0  0  0  0
  9 13  1  0  0  0  0
 10  8  1  0  0  0  0
 11 10  2  0  0  0  0
 11 12  1  0  0  0  0
 12  9  2  0  0  0  0
 13 14  1  0  0  0  0
 14 16  1  0  0  0  0
 15 13  1  0  0  0  0
 16 17  2  0  0  0  0
 17 18  1  0  0  0  0
 17 19  1  0  0  0  0
 19 20  1  1  0  0  0
 19 21  1  0  0  0  0
 22 21  1  0  0  0  0
 23 22  2  0  0  0  0
M  END
>  <TORSDO>
F 1

$$$$
