C:\Qe-CaDD\Project\Data\Stage_6_Molecular_Dynamics\ligands_top\out_11394_EGFR_extracted.pdbqt
 OpenBabel01082506443D

 29 32  0  0  1  0  0  0  0  0999 V2000
   26.0730    3.2380   50.3000 C   0  0  2  0  0  3  0  0  0  0  0  0
   26.7960    4.1100   49.6150 C   0  0  0  0  0  3  0  0  0  0  0  0
   26.2440    5.3040   48.9880 C   0  0  0  0  0  3  0  0  0  0  0  0
   24.9460    5.5350   49.1040 C   0  0  0  0  0  0  0  0  0  0  0  0
   24.1090    6.9150   48.4210 Cl  0  0  0  0  0  0  0  0  0  0  0  0
   23.9990    4.6650   49.8110 C   0  0  0  0  0  3  0  0  0  0  0  0
   24.6700    3.5400   50.4330 N   0  0  0  0  0  0  0  0  0  0  0  0
   26.6800    2.1010   50.8750 N   0  0  0  0  0  0  0  0  0  0  0  0
   26.9740    1.5900   50.0020 H   0  0  0  0  0  0  0  0  0  0  0  0
   26.8750    1.6970   52.2530 C   0  0  1  0  0  3  0  0  0  0  0  0
   27.0300    0.2320   52.3960 C   0  0  0  0  0  3  0  0  0  0  0  0
   27.5950   -0.5680   53.2700 C   0  0  0  0  0  0  0  0  0  0  0  0
   28.3090   -0.1580   54.4970 C   0  0  0  0  0  3  0  0  0  0  0  0
   28.8650    1.0250   54.6950 C   0  0  0  0  0  3  0  0  0  0  0  0
   28.9230    2.1840   53.8130 C   0  0  0  0  0  3  0  0  0  0  0  0
   28.0580    2.3750   52.8340 C   0  0  0  0  0  3  0  0  0  0  0  0
   27.5680   -2.0000   53.1110 N   0  0  0  0  0  0  0  0  0  0  0  0
   28.8860   -2.6420   53.1580 C   0  0  0  0  0  1  0  0  0  0  0  0
   26.7260   -2.6290   52.9660 H   0  0  0  0  0  0  0  0  0  0  0  0
   23.8430    2.6840   51.2480 C   0  0  1  0  0  3  0  0  0  0  0  0
   23.1260    2.7160   52.3610 C   0  0  0  0  0  2  0  0  0  0  0  0
   22.7290    1.3240   52.2350 C   0  0  1  0  0  3  0  0  0  0  0  0
   23.4300    1.3040   51.1530 N   0  0  0  0  0  2  0  0  0  0  0  0
   21.9240    0.3370   52.9460 C   0  0  0  0  0  0  0  0  0  0  0  0
   22.5500   -0.5340   53.8150 C   0  0  0  0  0  3  0  0  0  0  0  0
   21.7070   -1.4350   54.4460 C   0  0  0  0  0  3  0  0  0  0  0  0
   20.3340   -1.4910   54.2440 C   0  0  0  0  0  3  0  0  0  0  0  0
   19.7900   -0.6100   53.3820 N   0  0  0  0  0  0  0  0  0  0  0  0
   20.5550    0.2920   52.7380 C   0  0  0  0  0  3  0  0  0  0  0  0
  1  7  1  0  0  0  0
  1  8  1  1  0  0  0
  2  1  1  0  0  0  0
  3  4  1  0  0  0  0
  3  2  2  0  0  0  0
  4  6  2  0  0  0  0
  5  4  1  0  0  0  0
  6  7  1  0  0  0  0
  9  8  1  0  0  0  0
 10  8  1  6  0  0  0
 10 11  1  0  0  0  0
 10 16  1  0  0  0  0
 11 12  2  0  0  0  0
 12 13  1  0  0  0  0
 13 14  2  0  0  0  0
 15 14  1  0  0  0  0
 16 15  2  0  0  0  0
 17 18  1  0  0  0  0
 17 12  1  0  0  0  0
 19 17  1  0  0  0  0
 20  7  1  6  0  0  0
 20 21  1  0  0  0  0
 22 21  1  0  0  0  0
 22 24  1  1  0  0  0
 23 20  1  0  0  0  0
 23 22  1  0  0  0  0
 24 25  1  0  0  0  0
 25 26  2  0  0  0  0
 27 26  1  0  0  0  0
 28 27  2  0  0  0  0
 29 24  2  0  0  0  0
 29 28  1  0  0  0  0
M  END
>  <TORSDO>
F 5

$$$$
