C:\Qe-CaDD\Project\Data\Stage_6_Molecular_Dynamics\ligands_top\out_22365_EGFR_extracted.pdbqt
 OpenBabel01082506443D

 28 26  0  0  0  0  0  0  0  0999 V2000
   17.9010   -0.2780   52.3910 C   0  0  0  0  0  1  0  0  0  0  0  0
   19.1830   -0.5480   52.9720 C   0  0  0  0  0  0  0  0  0  0  0  0
   20.2080   -0.7560   53.4150 C   0  0  0  0  0  0  0  0  0  0  0  0
   21.5420   -1.0110   54.0160 C   0  0  0  0  0  2  0  0  0  0  0  0
   22.1990   -0.1260   53.2220 O   0  0  0  0  0  1  0  0  0  0  0  0
   22.2930   -1.8460   55.1120 N   0  0  0  0  0  1  0  0  0  0  0  0
   21.4000   -1.8800   54.9200 H   0  0  0  0  0  0  0  0  0  0  0  0
   24.4760   -0.4480   54.2190 S   0  0  0  0  0  0  0  0  0  0  0  0
   25.2940    0.1000   53.8940 C   0  0  0  0  0  1  0  0  0  0  0  0
   26.3040    0.7800   53.5170 C   0  0  0  0  0  0  0  0  0  0  0  0
   26.6660    0.2670   54.7640 C   0  0  0  0  0  0  0  0  0  0  0  0
   24.4040   -0.4960   54.2480 N   0  0  0  0  0  1  0  0  0  0  0  0
   25.9370    1.2230   52.3930 C   0  0  0  0  0  0  0  0  0  0  0  0
   27.1780    1.8530   52.3660 N   0  0  0  0  0  2  0  0  0  0  0  0
   28.0360    1.6890   53.4260 C   0  0  0  0  0  3  0  0  0  0  0  0
   27.8980    0.9760   54.5820 N   0  0  0  0  0  0  0  0  0  0  0  0
   25.8760   -0.6170   55.7370 C   0  0  0  0  0  2  0  0  0  0  0  0
   23.4210   -1.1910   54.6290 H   0  0  0  0  0  0  0  0  0  0  0  0
   24.9640    1.3500   51.4990 N   0  0  0  0  0  0  0  0  0  0  0  0
   24.2330    1.2720   50.8140 H   0  0  0  0  0  0  0  0  0  0  0  0
   24.6340    2.7640   51.3390 C   0  0  0  0  0  0  0  0  0  0  0  0
   23.8750    3.3070   52.4040 C   0  0  0  0  0  3  0  0  0  0  0  0
   23.4220    4.6250   52.4860 C   0  0  0  0  0  3  0  0  0  0  0  0
   23.7580    5.4580   51.4290 C   0  0  0  0  0  0  0  0  0  0  0  0
   23.3910    6.7620   51.3820 F   0  0  0  0  0  0  0  0  0  0  0  0
   24.4850    5.0480   50.3510 C   0  0  0  0  0  0  0  0  0  0  0  0
   24.9870    5.9430   48.9610 Cl  0  0  0  0  0  0  0  0  0  0  0  0
   24.8790    3.7420   50.3600 C   0  0  0  0  0  3  0  0  0  0  0  0
  1  2  1  0  0  0  0
  2  3  3  0  0  0  0
  3  4  1  0  0  0  0
  5  4  1  0  0  0  0
  7  6  1  0  0  0  0
  8 17  1  0  0  0  0
  9  8  1  0  0  0  0
 10 11  2  0  0  0  0
 11 17  1  0  0  0  0
 12 18  1  0  0  0  0
 13 10  2  0  0  0  0
 14 13  1  0  0  0  0
 14 15  1  0  0  0  0
 15 16  2  0  0  0  0
 16 11  1  0  0  0  0
 19 13  1  0  0  0  0
 20 19  1  0  0  0  0
 21 19  1  0  0  0  0
 21 22  1  0  0  0  0
 22 23  2  0  0  0  0
 24 23  1  0  0  0  0
 25 24  1  0  0  0  0
 26 28  1  0  0  0  0
 26 24  2  0  0  0  0
 27 26  1  0  0  0  0
 28 21  2  0  0  0  0
M  END
>  <TORSDO>
F 5

$$$$
