C:\Qe-CaDD\Project\Data\Stage_6_Molecular_Dynamics\ligands_top\out_21807_EGFR_extracted.pdbqt
 OpenBabel01082506443D

 21 23  0  0  1  0  0  0  0  0999 V2000
   29.7900    2.4800   54.9560 O   0  0  0  0  0  0  0  0  0  0  0  0
   29.0950    1.6440   54.2990 C   0  0  0  0  0  0  0  0  0  0  0  0
   29.7050    0.3950   53.8500 C   0  0  0  0  0  3  0  0  0  0  0  0
   29.0340   -0.6940   53.4440 C   0  0  0  0  0  3  0  0  0  0  0  0
   27.6260   -0.9730   53.3270 C   0  0  0  0  0  3  0  0  0  0  0  0
   26.6850   -0.0850   53.5050 C   0  0  0  0  0  0  0  0  0  0  0  0
   25.5230   -0.8870   53.2710 N   0  0  0  0  0  0  0  0  0  0  0  0
   24.2750   -0.6560   53.1700 C   0  0  0  0  0  3  0  0  0  0  0  0
   23.6020    0.6370   53.2730 C   0  0  1  0  0  3  0  0  0  0  0  0
   24.4210    1.6450   52.5160 C   0  0  0  0  0  3  0  0  0  0  0  0
   25.7120    1.9530   52.7550 C   0  0  0  0  0  3  0  0  0  0  0  0
   26.5590    1.3260   53.8360 C   0  0  2  0  0  3  0  0  0  0  0  0
   27.7390    2.0620   54.0770 N   0  0  0  0  0  0  0  0  0  0  0  0
   27.5470    3.0990   54.0880 H   0  0  0  0  0  0  0  0  0  0  0  0
   22.2710    0.6880   52.7800 N   0  0  1  0  0  0  0  0  0  0  0  0
   21.2380    0.5720   53.7420 C   0  0  0  0  0  2  0  0  0  0  0  0
   20.0220    0.1070   52.9780 C   0  0  0  0  0  3  0  0  0  0  0  0
   19.9640    0.1730   51.6340 C   0  0  0  0  0  3  0  0  0  0  0  0
   21.0620    0.6990   50.7600 C   0  0  1  0  0  3  0  0  0  0  0  0
   20.4250    1.6940   49.2600 Br  0  0  0  0  0  0  0  0  0  0  0  0
   22.0200    1.5060   51.6480 C   0  0  0  0  0  2  0  0  0  0  0  0
  2  1  2  0  0  0  0
  3  2  1  0  0  0  0
  4  3  2  0  0  0  0
  5  4  1  0  0  0  0
  5  6  2  0  0  0  0
  6 12  1  0  0  0  0
  7  6  1  0  0  0  0
  8  7  2  0  0  0  0
  8  9  1  0  0  0  0
  9 10  1  6  0  0  0
 10 11  2  0  0  0  0
 12 11  1  6  0  0  0
 12 13  1  0  0  0  0
 13 14  1  0  0  0  0
 13  2  1  0  0  0  0
 15 21  1  1  0  0  0
 15  9  1  0  0  0  0
 15 16  1  0  0  0  0
 17 16  1  0  0  0  0
 18 17  2  0  0  0  0
 19 20  1  6  0  0  0
 19 18  1  0  0  0  0
 19 21  1  0  0  0  0
M  END
>  <TORSDO>
F 1

$$$$
