C:\Qe-CaDD\Project\Data\Stage_6_Molecular_Dynamics\ligands_top\out_2007_EGFR_extracted.pdbqt
 OpenBabel01082506443D

 36 40  0  0  1  0  0  0  0  0999 V2000
   23.7020    6.1560   49.8340 C   0  0  0  0  0  0  0  0  0  0  0  0
   23.9210    4.8260   50.0060 C   0  0  2  0  0  0  0  0  0  0  0  0
   25.2050    4.4640   49.6000 C   0  0  0  0  0  2  0  0  0  0  0  0
   26.2740    5.2050   49.0600 C   0  0  0  0  0  0  0  0  0  0  0  0
   27.4510    4.6020   48.7380 C   0  0  0  0  0  3  0  0  0  0  0  0
   28.3740    5.4790   48.2260 C   0  0  0  0  0  3  0  0  0  0  0  0
   28.1740    6.8220   48.0420 C   0  0  0  0  0  3  0  0  0  0  0  0
   26.9340    7.3300   48.4080 C   0  0  0  0  0  3  0  0  0  0  0  0
   25.9160    6.5570   48.9340 C   0  0  0  0  0  0  0  0  0  0  0  0
   24.6650    6.9700   49.3180 C   0  0  0  0  0  0  0  0  0  0  0  0
   24.5840    8.3540   49.0730 O   0  0  0  0  0  0  0  0  0  0  0  0
   23.8320    8.7840   47.9200 C   0  0  0  0  0  2  0  0  0  0  0  0
   24.3530    8.1390   46.6800 C   0  0  0  0  0  2  0  0  0  0  0  0
   23.4930    8.5640   45.5540 N   0  0  0  0  0  0  0  0  0  0  0  0
   23.3310    7.3090   44.7190 C   0  0  0  0  0  2  0  0  0  0  0  0
   22.4710    6.4810   45.5970 C   0  0  0  0  0  2  0  0  0  0  0  0
   22.1860    5.0450   45.2420 C   0  0  0  0  0  2  0  0  0  0  0  0
   21.3800    4.5930   46.4360 C   0  0  0  0  0  3  0  0  0  0  0  0
   21.5290    3.7700   47.3980 C   0  0  0  0  0  0  0  0  0  0  0  0
   22.2080    2.7750   48.1680 C   0  0  0  0  0  0  0  0  0  0  0  0
   23.1830    2.0470   48.2680 O   0  0  0  0  0  0  0  0  0  0  0  0
   21.8300    2.1460   49.4740 C   0  0  0  0  0  0  0  0  0  0  0  0
   21.0020    1.0120   49.5320 C   0  0  0  0  0  3  0  0  0  0  0  0
   20.6040    0.5090   50.7530 C   0  0  0  0  0  3  0  0  0  0  0  0
   21.0010    1.0890   51.9280 C   0  0  0  0  0  3  0  0  0  0  0  0
   21.8140    2.1960   51.9380 C   0  0  0  0  0  3  0  0  0  0  0  0
   22.2100    2.6990   50.7370 C   0  0  0  0  0  0  0  0  0  0  0  0
   23.0890    3.7780   50.4210 C   0  0  2  0  0  3  0  0  0  0  0  0
   23.5730    4.0870   51.5850 O   0  0  0  0  0  0  0  0  0  0  0  0
   22.5270    8.7790   45.8740 H   0  0  0  0  0  0  0  0  0  0  0  0
   22.4230    6.6680   50.2580 C   0  0  0  0  0  0  0  0  0  0  0  0
   21.8830    7.3860   51.1070 O   0  0  0  0  0  0  0  0  0  0  0  0
   21.2200    6.3870   49.6370 O   0  0  0  0  0  0  0  0  0  0  0  0
   20.5330    7.3770   48.8630 C   0  0  0  0  0  1  0  0  0  0  0  0
   20.4370    3.7610   48.2480 O   0  0  0  0  0  0  0  0  0  0  0  0
   19.6430    4.3840   48.1360 H   0  0  0  0  0  0  0  0  0  0  0  0
  1  2  1  0  0  0  0
  1 31  1  0  0  0  0
  2  3  1  6  0  0  0
  2 28  1  0  0  0  0
  2 29  1  0  0  0  0
  4  3  1  0  0  0  0
  5  4  2  0  0  0  0
  6  5  1  0  0  0  0
  7  6  2  0  0  0  0
  7  8  1  0  0  0  0
  8  9  2  0  0  0  0
  9  4  1  0  0  0  0
  9 10  1  0  0  0  0
 10  1  2  0  0  0  0
 11 10  1  0  0  0  0
 12 11  1  0  0  0  0
 13 12  1  0  0  0  0
 14 30  1  0  0  0  0
 14 13  1  0  0  0  0
 15 14  1  0  0  0  0
 15 16  1  0  0  0  0
 17 16  1  0  0  0  0
 17 18  1  0  0  0  0
 18 19  2  0  0  0  0
 19 20  1  0  0  0  0
 19 35  1  0  0  0  0
 20 21  2  0  0  0  0
 20 22  1  0  0  0  0
 22 23  2  0  0  0  0
 22 27  1  0  0  0  0
 23 24  1  0  0  0  0
 24 25  2  0  0  0  0
 25 26  1  0  0  0  0
 27 26  2  0  0  0  0
 28 27  1  1  0  0  0
 28 29  1  0  0  0  0
 31 32  2  0  0  0  0
 33 31  1  0  0  0  0
 34 33  1  0  0  0  0
 36 35  1  0  0  0  0
M  END
>  <TORSDO>
F 3

$$$$
