C:\Qe-CaDD\Project\Data\Stage_6_Molecular_Dynamics\ligands_top\out_10892_EGFR_extracted.pdbqt
 OpenBabel01082506443D

 23 24  0  0  1  0  0  0  0  0999 V2000
   22.3420   -0.3900   53.4150 C   0  0  0  0  0  0  0  0  0  0  0  0
   23.6380   -0.1280   53.2700 C   0  0  0  0  0  2  0  0  0  0  0  0
   24.8070   -0.3500   54.0850 N   0  0  0  0  0  0  0  0  0  0  0  0
   24.5110   -1.1860   55.2070 C   0  0  0  0  0  3  0  0  0  0  0  0
   23.0550   -1.4480   55.3620 C   0  0  0  0  0  3  0  0  0  0  0  0
   22.0120   -1.1440   54.6260 C   0  0  0  0  0  0  0  0  0  0  0  0
   25.9520    0.3270   53.5800 C   0  0  0  0  0  2  0  0  0  0  0  0
   27.2280    0.3590   54.3500 C   0  0  1  0  0  3  0  0  0  0  0  0
   27.8270   -0.9420   54.1340 O   0  0  0  0  0  0  0  0  0  0  0  0
   29.0640   -1.2080   53.6810 C   0  0  0  0  0  3  0  0  0  0  0  0
   29.9390   -0.2540   53.3950 C   0  0  0  0  0  3  0  0  0  0  0  0
   29.4470    1.1230   53.6070 C   0  0  0  0  0  3  0  0  0  0  0  0
   28.2050    1.4010   54.0480 C   0  0  0  0  0  0  0  0  0  0  0  0
   28.2460    2.7870   54.0880 O   0  0  0  0  0  0  0  0  0  0  0  0
   27.6770    3.2920   54.7510 H   0  0  0  0  0  0  0  0  0  0  0  0
   21.2710   -0.0900   52.4850 C   0  0  0  0  0  0  0  0  0  0  0  0
   19.9130    0.1030   52.8280 N   0  0  0  0  0  0  0  0  0  0  0  0
   19.6090    0.0360   53.8000 H   0  0  0  0  0  0  0  0  0  0  0  0
   21.5310    0.0130   51.2700 O   0  0  0  0  0  0  0  0  0  0  0  0
   19.1840    0.3740   51.6370 C   0  0  0  0  0  2  0  0  0  0  0  0
   18.0680   -0.3950   51.6970 C   0  0  0  0  0  1  0  0  0  0  0  0
   20.7340   -1.5230   54.9990 O   0  0  0  0  0  0  0  0  0  0  0  0
   20.6720   -2.0610   55.8570 H   0  0  0  0  0  0  0  0  0  0  0  0
  1  6  2  0  0  0  0
  2  1  1  0  0  0  0
  2  3  1  0  0  0  0
  3  4  1  0  0  0  0
  4  5  2  0  0  0  0
  6 22  1  0  0  0  0
  6  5  1  0  0  0  0
  7  3  1  0  0  0  0
  8  7  1  6  0  0  0
  9  8  1  0  0  0  0
 10  9  1  0  0  0  0
 11 12  1  0  0  0  0
 11 10  2  0  0  0  0
 12 13  2  0  0  0  0
 13 14  1  0  0  0  0
 13  8  1  0  0  0  0
 14 15  1  0  0  0  0
 16 17  1  0  0  0  0
 16  1  1  0  0  0  0
 17 18  1  0  0  0  0
 19 16  2  0  0  0  0
 20 21  1  0  0  0  0
 20 17  1  0  0  0  0
 22 23  1  0  0  0  0
M  END
>  <TORSDO>
F 6

$$$$
