C:\Qe-CaDD\Project\Data\Stage_6_Molecular_Dynamics\ligands_top\out_16444_EGFR_extracted.pdbqt
 OpenBabel01082506443D

 35 40  0  0  1  0  0  0  0  0999 V2000
   23.5160    4.1910   50.3750 C   0  0  2  0  0  3  0  0  0  0  0  0
   24.0190    3.1760   51.1780 N   0  0  0  0  0  0  0  0  0  0  0  0
   23.8220    2.7550   52.3500 C   0  0  0  0  0  3  0  0  0  0  0  0
   24.5890    1.6150   52.8600 C   0  0  0  0  0  2  0  0  0  0  0  0
   23.8550    0.4670   53.3690 C   0  0  0  0  0  0  0  0  0  0  0  0
   22.6400    0.0250   53.6490 C   0  0  0  0  0  0  0  0  0  0  0  0
   22.5470   -1.2780   54.1610 N   0  0  0  0  0  0  0  0  0  0  0  0
   21.3800   -1.9740   54.4310 N   0  0  0  0  0  0  0  0  0  0  0  0
   20.2550   -1.3930   54.2020 C   0  0  0  0  0  3  0  0  0  0  0  0
   20.2200   -0.0730   53.6900 N   0  0  0  0  0  0  0  0  0  0  0  0
   21.2700    0.5910   53.4330 C   0  0  0  0  0  0  0  0  0  0  0  0
   20.4310    1.7590   53.0460 N   0  0  0  0  0  0  0  0  0  0  0  0
   20.5790    2.2120   51.6740 C   0  0  2  0  0  0  0  0  0  0  0  0
   20.7260    1.3070   50.6640 C   0  0  0  0  0  2  0  0  0  0  0  0
   21.2470    2.4020   50.0310 C   0  0  1  0  0  3  0  0  0  0  0  0
   21.3240    3.6050   50.6320 C   0  0  1  0  0  0  0  0  0  0  0  0
   21.2260    4.6040   51.5450 C   0  0  0  0  0  2  0  0  0  0  0  0
   20.7230    3.4950   52.1410 C   0  0  1  0  0  3  0  0  0  0  0  0
   22.2970    4.0090   49.6190 N   0  0  0  0  0  0  0  0  0  0  0  0
   23.2620   -1.9380   54.4570 H   0  0  0  0  0  0  0  0  0  0  0  0
   19.7770    2.2260   53.7850 H   0  0  0  0  0  0  0  0  0  0  0  0
   22.2950    4.1870   48.5600 H   0  0  0  0  0  0  0  0  0  0  0  0
   25.0520   -0.4550   53.4430 C   0  0  0  0  0  2  0  0  0  0  0  0
   25.4900   -0.6820   54.7080 O   0  0  0  0  0  0  0  0  0  0  0  0
   26.5960   -0.1410   55.2010 C   0  0  0  0  0  2  0  0  0  0  0  0
   27.7500   -0.1230   54.2600 C   0  0  1  0  0  3  0  0  0  0  0  0
   28.8310    0.7770   54.8620 C   0  0  0  0  0  2  0  0  0  0  0  0
   29.7310    1.0850   53.7610 N   0  0  0  0  0  0  0  0  0  0  0  0
   30.1410   -0.1130   53.0750 C   0  0  0  0  0  2  0  0  0  0  0  0
   29.2220    1.7530   53.1450 H   0  0  0  0  0  0  0  0  0  0  0  0
   29.6640   -1.3380   53.8080 C   0  0  0  0  0  2  0  0  0  0  0  0
   28.2750   -1.3050   53.8780 O   0  0  0  0  0  0  0  0  0  0  0  0
   24.6040    4.4810   49.3430 C   0  0  0  0  0  3  0  0  0  0  0  0
   25.9000    4.3850   49.6110 C   0  0  0  0  0  3  0  0  0  0  0  0
   27.2100    4.5680   48.9350 C   0  0  0  0  0  1  0  0  0  0  0  0
  1 33  1  6  0  0  0
  1  2  1  0  0  0  0
  2  3  2  0  0  0  0
  3  4  1  0  0  0  0
  4  5  1  0  0  0  0
  5 23  1  0  0  0  0
  5  6  2  0  0  0  0
  6  7  1  0  0  0  0
  7  8  1  0  0  0  0
  7 20  1  0  0  0  0
  9  8  2  0  0  0  0
 10  9  1  0  0  0  0
 11  6  1  0  0  0  0
 11 10  2  0  0  0  0
 12 11  1  0  0  0  0
 12 21  1  0  0  0  0
 13 14  1  6  0  0  0
 13 18  1  0  0  0  0
 13 12  1  0  0  0  0
 15 16  1  0  0  0  0
 15 14  1  6  0  0  0
 15 13  1  0  0  0  0
 16 17  1  6  0  0  0
 16 18  1  0  0  0  0
 18 17  1  6  0  0  0
 19  1  1  0  0  0  0
 19 16  1  0  0  0  0
 22 19  1  0  0  0  0
 23 24  1  0  0  0  0
 24 25  1  0  0  0  0
 26 27  1  0  0  0  0
 26 25  1  1  0  0  0
 28 27  1  0  0  0  0
 29 28  1  0  0  0  0
 29 31  1  0  0  0  0
 30 28  1  0  0  0  0
 31 32  1  0  0  0  0
 32 26  1  0  0  0  0
 33 34  2  0  0  0  0
 35 34  1  0  0  0  0
M  END
>  <TORSDO>
F 5

$$$$
