C:\Qe-CaDD\Project\Data\Stage_6_Molecular_Dynamics\ligands_top\out_22103_EGFR_extracted.pdbqt
 OpenBabel01082506443D

 32 37  0  0  1  0  0  0  0  0999 V2000
   23.0280    2.1080   48.2420 C   0  0  0  0  0  1  0  0  0  0  0  0
   22.4800    3.1250   49.0090 C   0  0  2  0  0  3  0  0  0  0  0  0
   23.3990    4.4660   48.8680 O   0  0  0  0  0  0  0  0  0  0  0  0
   23.9100    4.3770   50.3460 C   0  0  2  0  0  0  0  0  0  0  0  0
   24.9430    3.5800   49.7480 C   0  0  1  0  0  3  0  0  0  0  0  0
   25.5210    3.0450   50.8660 C   0  0  0  0  0  0  0  0  0  0  0  0
   24.4640    3.8610   51.3750 C   0  0  2  0  0  0  0  0  0  0  0  0
   23.5720    4.5400   52.1910 C   0  0  0  0  0  2  0  0  0  0  0  0
   22.9680    5.1010   51.0720 C   0  0  1  0  0  3  0  0  0  0  0  0
   23.1390    2.9530   50.6060 C   0  0  0  0  0  2  0  0  0  0  0  0
   22.2510    1.9300   51.0510 N   0  0  0  0  0  0  0  0  0  0  0  0
   22.3420    1.0070   52.1160 C   0  0  0  0  0  0  0  0  0  0  0  0
   21.2140    0.5390   52.7400 C   0  0  0  0  0  3  0  0  0  0  0  0
   21.1940   -0.3280   53.8080 C   0  0  0  0  0  3  0  0  0  0  0  0
   22.3820   -0.7920   54.3320 C   0  0  0  0  0  3  0  0  0  0  0  0
   23.5640   -0.3930   53.7940 C   0  0  0  0  0  0  0  0  0  0  0  0
   23.4690    0.4900   52.7040 C   0  0  0  0  0  3  0  0  0  0  0  0
   24.9300   -0.3720   53.7250 O   0  0  0  0  0  0  0  0  0  0  0  0
   25.7570   -0.8950   52.7420 C   0  0  0  0  0  2  0  0  0  0  0  0
   27.1730   -0.5390   53.0140 C   0  0  0  0  0  0  0  0  0  0  0  0
   28.1330   -1.4880   53.2420 C   0  0  0  0  0  3  0  0  0  0  0  0
   29.4510   -1.1640   53.4730 C   0  0  0  0  0  3  0  0  0  0  0  0
   29.8300    0.1720   53.4780 C   0  0  0  0  0  3  0  0  0  0  0  0
   28.8180    1.0730   53.2430 C   0  0  0  0  0  3  0  0  0  0  0  0
   27.4580    0.8290   53.0000 C   0  0  0  0  0  0  0  0  0  0  0  0
   26.6250    2.0450   52.8010 C   0  0  0  0  0  2  0  0  0  0  0  0
   26.4180    2.2970   51.4110 N   0  0  0  0  0  0  0  0  0  0  0  0
   21.3980    1.8760   50.5150 H   0  0  0  0  0  0  0  0  0  0  0  0
   21.8670    6.0000   51.6170 C   0  0  0  0  0  2  0  0  0  0  0  0
   21.8520    7.1550   50.7620 N   0  0  0  0  0  0  0  0  0  0  0  0
   21.2880    6.8820   49.4560 C   0  0  0  0  0  1  0  0  0  0  0  0
   23.1840    7.6980   50.5560 C   0  0  0  0  0  1  0  0  0  0  0  0
  2  1  1  6  0  0  0
  2 10  1  0  0  0  0
  3  2  1  0  0  0  0
  4  3  1  6  0  0  0
  4  9  1  0  0  0  0
  4  7  1  0  0  0  0
  5  4  1  0  0  0  0
  5  6  1  1  0  0  0
  5  7  1  0  0  0  0
  6  7  1  0  0  0  0
  6 27  2  0  0  0  0
  7  8  1  1  0  0  0
  9 29  1  1  0  0  0
  9  8  1  0  0  0  0
 10 11  1  0  0  0  0
 11 12  1  0  0  0  0
 12 17  2  0  0  0  0
 12 13  1  0  0  0  0
 13 14  2  0  0  0  0
 14 15  1  0  0  0  0
 16 15  2  0  0  0  0
 17 16  1  0  0  0  0
 18 16  1  0  0  0  0
 19 20  1  0  0  0  0
 19 18  1  0  0  0  0
 20 21  1  0  0  0  0
 21 22  2  0  0  0  0
 22 23  1  0  0  0  0
 24 23  2  0  0  0  0
 25 20  2  0  0  0  0
 25 24  1  0  0  0  0
 26 25  1  0  0  0  0
 27 26  1  0  0  0  0
 28 11  1  0  0  0  0
 30 29  1  0  0  0  0
 31 30  1  0  0  0  0
 32 30  1  0  0  0  0
M  END
>  <TORSDO>
F 2

$$$$
