C:\Qe-CaDD\Project\Data\Stage_6_Molecular_Dynamics\ligands_top\out_11609_EGFR_extracted.pdbqt
 OpenBabel01082506443D

 33 36  0  0  1  0  0  0  0  0999 V2000
   26.6880    2.2280   50.9310 C   0  0  0  0  0  0  0  0  0  0  0  0
   26.2870    1.0050   51.3490 C   0  0  0  0  0  3  0  0  0  0  0  0
   26.5340    0.6750   52.7990 C   0  0  1  0  0  0  0  0  0  0  0  0
   27.5830   -0.4150   52.8930 C   0  0  0  0  0  1  0  0  0  0  0  0
   27.1580    1.9380   53.2470 C   0  0  0  0  0  0  0  0  0  0  0  0
   27.5490    2.1920   54.4050 O   0  0  0  0  0  0  0  0  0  0  0  0
   27.2220    2.7870   52.1140 N   0  0  0  0  0  0  0  0  0  0  0  0
   27.6300    3.7380   52.1750 H   0  0  0  0  0  0  0  0  0  0  0  0
   25.3500    0.3390   53.5170 N   0  0  0  0  0  0  0  0  0  0  0  0
   25.5120   -0.1670   54.4170 H   0  0  0  0  0  0  0  0  0  0  0  0
   23.9920    0.5830   53.2040 C   0  0  0  0  0  0  0  0  0  0  0  0
   23.0310   -0.4300   53.1880 C   0  0  0  0  0  3  0  0  0  0  0  0
   21.7330   -0.1020   52.8590 C   0  0  0  0  0  3  0  0  0  0  0  0
   21.3200    1.1690   52.5440 C   0  0  0  0  0  0  0  0  0  0  0  0
   22.2690    2.1380   52.5650 C   0  0  0  0  0  3  0  0  0  0  0  0
   23.5740    1.8580   52.8860 C   0  0  0  0  0  3  0  0  0  0  0  0
   19.9540    1.4270   52.2180 N   0  0  0  0  0  0  0  0  0  0  0  0
   18.9210    0.4490   52.1140 C   0  0  0  0  0  2  0  0  0  0  0  0
   18.3270    0.3800   50.7060 C   0  0  0  0  0  2  0  0  0  0  0  0
   17.4580    2.0410   50.5180 P   0  0  2  0  0  0  0  0  0  0  0  0
   17.7030    2.7580   48.8410 C   0  0  0  0  0  1  0  0  0  0  0  0
   18.2010    3.0610   51.8190 N   0  0  0  0  0  0  0  0  0  0  0  0
   19.6090    2.8100   51.9720 C   0  0  0  0  0  2  0  0  0  0  0  0
   17.7200    2.8380   52.7040 H   0  0  0  0  0  0  0  0  0  0  0  0
   26.5140    2.6970   49.5370 C   0  0  0  0  0  2  0  0  0  0  0  0
   25.8250    4.0010   49.4760 C   0  0  0  0  0  0  0  0  0  0  0  0
   26.3360    5.2070   49.0650 C   0  0  0  0  0  0  0  0  0  0  0  0
   25.6740    6.4130   49.0600 C   0  0  0  0  0  3  0  0  0  0  0  0
   24.3750    6.3850   49.5160 C   0  0  0  0  0  3  0  0  0  0  0  0
   23.8280    5.1930   49.9360 C   0  0  0  0  0  3  0  0  0  0  0  0
   24.5190    3.9790   49.9330 C   0  0  0  0  0  3  0  0  0  0  0  0
   27.6740    5.2200   48.5460 C   0  0  0  0  0  0  0  0  0  0  0  0
   28.8650    5.6320   48.2830 C   0  0  0  0  0  3  0  0  0  0  0  0
  1  2  2  0  0  0  0
  1  7  1  0  0  0  0
  2  3  1  0  0  0  0
  3  4  1  1  0  0  0
  3  5  1  0  0  0  0
  3  9  1  0  0  0  0
  5  6  2  0  0  0  0
  7  8  1  0  0  0  0
  7  5  1  0  0  0  0
  9 10  1  0  0  0  0
 11  9  1  0  0  0  0
 12 11  1  0  0  0  0
 13 12  2  0  0  0  0
 14 15  2  0  0  0  0
 14 13  1  0  0  0  0
 15 16  1  0  0  0  0
 16 11  2  0  0  0  0
 17 14  1  0  0  0  0
 18 17  1  0  0  0  0
 19 18  1  0  0  0  0
 20 21  1  6  0  0  0
 20 19  1  0  0  0  0
 20 22  1  0  0  0  0
 22 23  1  0  0  0  0
 22 24  1  0  0  0  0
 23 17  1  0  0  0  0
 25  1  1  0  0  0  0
 26 25  1  0  0  0  0
 26 31  1  0  0  0  0
 27 26  2  0  0  0  0
 28 27  1  0  0  0  0
 28 29  2  0  0  0  0
 29 30  1  0  0  0  0
 31 30  2  0  0  0  0
 32 27  1  0  0  0  0
 33 32  3  0  0  0  0
M  END
>  <TORSDO>
F 6

$$$$
