C:\Qe-CaDD\Project\Data\Stage_6_Molecular_Dynamics\ligands_top\out_14062_EGFR_extracted.pdbqt
 OpenBabel01082506443D

 20 21  0  0  0  0  0  0  0  0999 V2000
   22.7780   -1.3750   55.2150 C   0  0  0  0  0  1  0  0  0  0  0  0
   21.4870   -1.1780   54.5840 C   0  0  0  0  0  0  0  0  0  0  0  0
   20.4120   -0.9990   54.0650 C   0  0  0  0  0  0  0  0  0  0  0  0
   19.2000   -0.7800   53.4880 O   0  0  0  0  0  0  0  0  0  0  0  0
   19.0210   -0.3000   52.1700 C   0  0  0  0  0  2  0  0  0  0  0  0
   20.0870    0.7010   51.9060 C   0  0  0  0  0  0  0  0  0  0  0  0
   21.0390    0.4120   50.9550 C   0  0  0  0  0  3  0  0  0  0  0  0
   22.0830    1.2190   50.5920 C   0  0  0  0  0  3  0  0  0  0  0  0
   22.1870    2.4350   51.2420 C   0  0  0  0  0  0  0  0  0  0  0  0
   21.2530    2.7760   52.2090 C   0  0  0  0  0  3  0  0  0  0  0  0
   20.2150    1.9150   52.5360 C   0  0  0  0  0  3  0  0  0  0  0  0
   23.1780    3.3490   50.9880 O   0  0  0  0  0  0  0  0  0  0  0  0
   24.1590    3.6380   51.9660 C   0  0  0  0  0  2  0  0  0  0  0  0
   25.1170    2.5080   52.0160 C   0  0  0  0  0  0  0  0  0  0  0  0
   26.1630    2.0550   51.3430 C   0  0  0  0  0  3  0  0  0  0  0  0
   26.7080    0.8260   51.9160 C   0  0  0  0  0  3  0  0  0  0  0  0
   25.9360    0.5700   52.9610 C   0  0  0  0  0  0  0  0  0  0  0  0
   24.8580    1.5770   53.1530 C   0  0  0  0  0  2  0  0  0  0  0  0
   26.1300   -0.5830   53.8330 C   0  0  0  0  0  3  0  0  0  0  0  0
   26.4570   -0.5130   55.0270 O   0  0  0  0  0  0  0  0  0  0  0  0
  2  1  1  0  0  0  0
  3  2  3  0  0  0  0
  4  3  1  0  0  0  0
  5  4  1  0  0  0  0
  6  5  1  0  0  0  0
  6 11  1  0  0  0  0
  7  6  2  0  0  0  0
  8  7  1  0  0  0  0
  8  9  2  0  0  0  0
  9 10  1  0  0  0  0
 10 11  2  0  0  0  0
 12  9  1  0  0  0  0
 12 13  1  0  0  0  0
 13 14  1  0  0  0  0
 14 18  1  0  0  0  0
 15 16  1  0  0  0  0
 15 14  2  0  0  0  0
 16 17  2  0  0  0  0
 17 18  1  0  0  0  0
 17 19  1  0  0  0  0
 19 20  2  0  0  0  0
M  END
>  <TORSDO>
F 7

$$$$
