C:\Qe-CaDD\Project\Data\Stage_6_Molecular_Dynamics\ligands_top\out_10658_EGFR_extracted.pdbqt
 OpenBabel01082506443D

 32 36  0  0  0  0  0  0  0  0999 V2000
   19.1440    2.0360   49.3600 O   0  0  0  0  0  0  0  0  0  0  0  0
   19.4730    1.2380   50.3010 C   0  0  0  0  0  0  0  0  0  0  0  0
   18.4450    0.4900   51.0710 C   0  0  0  0  0  2  0  0  0  0  0  0
   18.9260    0.2180   52.3760 O   0  0  0  0  0  0  0  0  0  0  0  0
   20.2650    0.0860   52.6410 C   0  0  0  0  0  0  0  0  0  0  0  0
   20.6340   -0.5000   53.8310 C   0  0  0  0  0  3  0  0  0  0  0  0
   21.9660   -0.6560   54.1460 C   0  0  0  0  0  0  0  0  0  0  0  0
   22.2260   -1.2450   55.3410 N   0  0  0  0  0  0  0  0  0  0  0  0
   23.5180   -1.4100   55.6700 C   0  0  0  0  0  3  0  0  0  0  0  0
   24.4960   -1.0140   54.8600 N   0  0  0  0  0  0  0  0  0  0  0  0
   24.3150   -0.4290   53.6750 C   0  0  0  0  0  0  0  0  0  0  0  0
   23.0140   -0.2530   53.3250 C   0  0  0  0  0  0  0  0  0  0  0  0
   22.5720    0.3130   52.1720 C   0  0  0  0  0  3  0  0  0  0  0  0
   21.2600    0.5020   51.7930 C   0  0  0  0  0  0  0  0  0  0  0  0
   20.8640    1.1010   50.5760 N   0  0  0  0  0  0  0  0  0  0  0  0
   25.3300   -0.0040   52.8040 N   0  0  0  0  0  0  0  0  0  0  0  0
   25.1990    0.0320   51.7750 H   0  0  0  0  0  0  0  0  0  0  0  0
   26.6380    0.4320   53.1280 C   0  0  0  0  0  0  0  0  0  0  0  0
   26.9650    1.7580   53.2870 C   0  0  0  0  0  3  0  0  0  0  0  0
   28.2300    2.2100   53.5950 C   0  0  0  0  0  3  0  0  0  0  0  0
   29.2620    1.3250   53.7630 C   0  0  0  0  0  3  0  0  0  0  0  0
   28.9940    0.0010   53.6160 C   0  0  0  0  0  0  0  0  0  0  0  0
   30.2600   -1.1600   53.8170 Cl  0  0  0  0  0  0  0  0  0  0  0  0
   27.7190   -0.3990   53.3100 C   0  0  0  0  0  3  0  0  0  0  0  0
   21.8760    1.5570   49.6460 C   0  0  0  0  0  2  0  0  0  0  0  0
   22.3340    2.9410   50.0410 C   0  0  0  0  0  2  0  0  0  0  0  0
   23.6290    3.2980   49.5440 N   0  0  0  0  0  0  0  0  0  0  0  0
   23.6620    4.7190   49.3400 C   0  0  0  0  0  2  0  0  0  0  0  0
   25.0310    5.2330   49.0540 C   0  0  0  0  0  3  0  0  0  0  0  0
   26.1210    4.5440   49.3800 C   0  0  0  0  0  3  0  0  0  0  0  0
   26.0350    3.2290   50.0450 C   0  0  0  0  0  2  0  0  0  0  0  0
   24.6530    2.7960   50.4040 C   0  0  0  0  0  2  0  0  0  0  0  0
  1  2  2  0  0  0  0
  2 15  1  0  0  0  0
  2  3  1  0  0  0  0
  3  4  1  0  0  0  0
  4  5  1  0  0  0  0
  5  6  1  0  0  0  0
  6  7  2  0  0  0  0
  7  8  1  0  0  0  0
  8  9  2  0  0  0  0
 10  9  1  0  0  0  0
 11 10  2  0  0  0  0
 12 11  1  0  0  0  0
 12  7  1  0  0  0  0
 13 12  2  0  0  0  0
 14 13  1  0  0  0  0
 14  5  2  0  0  0  0
 15 14  1  0  0  0  0
 16 18  1  0  0  0  0
 16 11  1  0  0  0  0
 17 16  1  0  0  0  0
 18 19  2  0  0  0  0
 18 24  1  0  0  0  0
 19 20  1  0  0  0  0
 20 21  2  0  0  0  0
 22 21  1  0  0  0  0
 22 23  1  0  0  0  0
 24 22  2  0  0  0  0
 25 26  1  0  0  0  0
 25 15  1  0  0  0  0
 27 26  1  0  0  0  0
 27 32  1  0  0  0  0
 28 27  1  0  0  0  0
 29 28  1  0  0  0  0
 29 30  2  0  0  0  0
 30 31  1  0  0  0  0
 31 32  1  0  0  0  0
M  END
>  <TORSDO>
F 5

$$$$
