C:\Qe-CaDD\Project\Data\Stage_6_Molecular_Dynamics\ligands_top\out_12129_EGFR_extracted.pdbqt
 OpenBabel01082506443D

 20 21  0  0  1  0  0  0  0  0999 V2000
   24.6040   -0.0080   52.8620 C   0  0  2  0  0  3  0  0  0  0  0  0
   23.6700   -0.5670   53.8820 C   0  0  0  0  0  0  0  0  0  0  0  0
   22.9560   -1.0020   54.6900 N   0  0  0  0  0  0  0  0  0  0  0  0
   25.9480   -0.0700   53.4740 C   0  0  0  0  0  0  0  0  0  0  0  0
   26.7190    0.4020   54.4360 C   0  0  0  0  0  3  0  0  0  0  0  0
   28.1150    0.2060   54.9130 C   0  0  1  0  0  3  0  0  0  0  0  0
   28.7240   -0.7780   54.0930 O   0  0  0  0  0  0  0  0  0  0  0  0
   28.0280   -1.3620   53.0370 C   0  0  0  0  0  3  0  0  0  0  0  0
   26.7590   -1.0690   52.7180 C   0  0  0  0  0  3  0  0  0  0  0  0
   28.8330    1.3850   54.8680 O   0  0  0  0  0  0  0  0  0  0  0  0
   28.6200    2.0900   53.6830 C   0  0  0  0  0  1  0  0  0  0  0  0
   24.1560    1.3260   52.5360 C   0  0  0  0  0  0  0  0  0  0  0  0
   24.0360    2.1840   53.4430 O   0  0  0  0  0  0  0  0  0  0  0  0
   23.8030    1.8600   51.2470 C   0  0  0  0  0  0  0  0  0  0  0  0
   24.5690    2.7810   50.5580 C   0  0  0  0  0  3  0  0  0  0  0  0
   24.3020    3.3470   49.3360 C   0  0  0  0  0  3  0  0  0  0  0  0
   23.1380    2.9610   48.7120 C   0  0  0  0  0  3  0  0  0  0  0  0
   22.3040    2.0460   49.3160 C   0  0  0  0  0  3  0  0  0  0  0  0
   22.6650    1.5380   50.5440 C   0  0  0  0  0  0  0  0  0  0  0  0
   21.5080    0.3820   51.1570 Cl  0  0  0  0  0  0  0  0  0  0  0  0
  1  4  1  0  0  0  0
  1  2  1  1  0  0  0
  2  3  3  0  0  0  0
  4  5  2  0  0  0  0
  5  6  1  0  0  0  0
  6 10  1  6  0  0  0
  7  6  1  0  0  0  0
  8  7  1  0  0  0  0
  9  8  2  0  0  0  0
  9  4  1  0  0  0  0
 11 10  1  0  0  0  0
 12  1  1  0  0  0  0
 12 13  2  0  0  0  0
 14 12  1  0  0  0  0
 15 14  1  0  0  0  0
 16 15  2  0  0  0  0
 17 18  2  0  0  0  0
 17 16  1  0  0  0  0
 18 19  1  0  0  0  0
 19 20  1  0  0  0  0
 19 14  2  0  0  0  0
M  END
>  <TORSDO>
F 4

$$$$
