C:\Qe-CaDD\Project\Data\Stage_6_Molecular_Dynamics\ligands_top\out_12424_EGFR_extracted.pdbqt
 OpenBabel01082506443D

 30 32  0  0  1  0  0  0  0  0999 V2000
   25.1030    0.8770   52.7750 C   0  0  0  0  0  0  0  0  0  0  0  0
   25.7210    2.0780   53.1370 C   0  0  0  0  0  3  0  0  0  0  0  0
   27.0770    2.0870   53.4910 C   0  0  0  0  0  3  0  0  0  0  0  0
   27.8280    0.9220   53.4900 C   0  0  0  0  0  0  0  0  0  0  0  0
   27.1830   -0.2410   53.1280 C   0  0  0  0  0  0  0  0  0  0  0  0
   27.8660   -1.4940   53.0940 C   0  0  0  0  0  0  0  0  0  0  0  0
   28.4310   -2.5220   53.0680 N   0  0  0  0  0  0  0  0  0  0  0  0
   25.8530   -0.2500   52.7810 C   0  0  0  0  0  3  0  0  0  0  0  0
   29.2750    0.9160   53.8630 C   0  0  0  0  0  2  0  0  0  0  0  0
   29.5810    2.1080   54.6040 N   0  0  0  0  0  0  0  0  0  0  0  0
   30.5580    2.4040   54.5430 H   0  0  0  0  0  0  0  0  0  0  0  0
   28.9930    2.8890   54.2440 H   0  0  0  0  0  0  0  0  0  0  0  0
   23.7130    1.1840   52.4730 C   0  0  1  0  0  3  0  0  0  0  0  0
   22.8640    0.1820   52.5520 C   0  0  1  0  0  3  0  0  0  0  0  0
   22.8410   -0.9400   53.3450 O   0  0  0  0  0  0  0  0  0  0  0  0
   21.6960    0.2870   51.5960 C   0  0  0  0  0  2  0  0  0  0  0  0
   22.2960   -0.8060   54.6710 C   0  0  0  0  0  2  0  0  0  0  0  0
   21.1540   -1.6310   54.8320 O   0  0  0  0  0  0  0  0  0  0  0  0
   20.0500   -1.5160   54.1360 C   0  0  0  0  0  0  0  0  0  0  0  0
   19.0800   -1.4070   53.5450 C   0  0  0  0  0  0  0  0  0  0  0  0
   17.8650   -1.2700   52.8340 C   0  0  0  0  0  2  0  0  0  0  0  0
   18.0350   -0.4760   51.5450 C   0  0  2  0  0  3  0  0  0  0  0  0
   18.3690    0.8480   51.8790 O   0  0  0  0  0  0  0  0  0  0  0  0
   19.6410    1.3080   52.0830 C   0  0  0  0  0  2  0  0  0  0  0  0
   20.9290    1.4760   52.1470 C   0  0  1  0  0  3  0  0  0  0  0  0
   21.7390    2.5310   52.6400 N   0  0  0  0  0  0  0  0  0  0  0  0
   23.1000    2.4820   52.0930 C   0  0  0  0  0  2  0  0  0  0  0  0
   21.1840    3.1430   53.3090 H   0  0  0  0  0  0  0  0  0  0  0  0
   16.7940   -0.4000   50.8860 O   0  0  0  0  0  0  0  0  0  0  0  0
   16.9830    0.2120   49.6330 C   0  0  0  0  0  1  0  0  0  0  0  0
  1  8  2  0  0  0  0
  1  2  1  0  0  0  0
  2  3  2  0  0  0  0
  4  3  1  0  0  0  0
  4  9  1  0  0  0  0
  5  4  2  0  0  0  0
  6  5  1  0  0  0  0
  7  6  3  0  0  0  0
  8  5  1  0  0  0  0
  9 10  1  0  0  0  0
 11 10  1  0  0  0  0
 12 10  1  0  0  0  0
 13 14  1  0  0  0  0
 13  1  1  1  0  0  0
 14 16  1  1  0  0  0
 14 15  1  0  0  0  0
 15 17  1  0  0  0  0
 17 18  1  0  0  0  0
 19 18  1  0  0  0  0
 20 19  3  0  0  0  0
 21 20  1  0  0  0  0
 22 29  1  1  0  0  0
 22 23  1  0  0  0  0
 22 21  1  0  0  0  0
 23 24  1  0  0  0  0
 24 25  1  0  0  0  0
 25 16  1  1  0  0  0
 25 26  1  0  0  0  0
 26 28  1  0  0  0  0
 27 13  1  0  0  0  0
 27 26  1  0  0  0  0
 30 29  1  0  0  0  0
M  END
>  <TORSDO>
F 4

$$$$
