C:\Qe-CaDD\Project\Data\Stage_6_Molecular_Dynamics\ligands_top\out_11925_EGFR_extracted.pdbqt
 OpenBabel01082506443D

 34 38  0  0  1  0  0  0  0  0999 V2000
   23.7360    1.1740   52.2980 C   0  0  0  0  0  0  0  0  0  0  0  0
   23.3520    1.8550   51.2300 C   0  0  0  0  0  3  0  0  0  0  0  0
   24.0830    2.9080   50.4850 C   0  0  0  0  0  0  0  0  0  0  0  0
   23.2230    3.5230   49.6560 N   0  0  0  0  0  0  0  0  0  0  0  0
   23.6550    4.5200   48.8740 C   0  0  0  0  0  3  0  0  0  0  0  0
   24.9290    4.9250   48.8990 N   0  0  0  0  0  0  0  0  0  0  0  0
   25.8650    4.3800   49.6880 C   0  0  0  0  0  0  0  0  0  0  0  0
   25.4000    3.3700   50.4690 C   0  0  0  0  0  0  0  0  0  0  0  0
   26.5680    2.9140   51.2130 C   0  0  0  0  0  3  0  0  0  0  0  0
   26.7610    2.3820   52.4220 C   0  0  0  0  0  3  0  0  0  0  0  0
   25.8980    2.0050   53.5700 C   0  0  2  0  0  3  0  0  0  0  0  0
   26.6770    1.4730   54.5860 O   0  0  0  0  0  0  0  0  0  0  0  0
   27.0950    0.1850   54.3330 C   0  0  0  0  0  2  0  0  0  0  0  0
   25.9580   -0.8150   54.4380 C   0  0  0  0  0  2  0  0  0  0  0  0
   24.8180   -0.2580   53.6690 C   0  0  0  0  0  0  0  0  0  0  0  0
   23.7850   -0.9600   53.4420 O   0  0  0  0  0  0  0  0  0  0  0  0
   24.8620    1.0940   53.1630 N   0  0  0  0  0  0  0  0  0  0  0  0
   27.1920    4.8800   49.6870 N   0  0  0  0  0  0  0  0  0  0  0  0
   27.9800    4.9700   50.3470 H   0  0  0  0  0  0  0  0  0  0  0  0
   27.6530    5.4720   48.4460 C   0  0  0  0  0  0  0  0  0  0  0  0
   27.6900    6.9620   48.4490 C   0  0  0  0  0  3  0  0  0  0  0  0
   29.0190    7.5500   48.1320 C   0  0  0  0  0  0  0  0  0  0  0  0
   30.1640    6.9400   47.8620 C   0  0  0  0  0  3  0  0  0  0  0  0
   30.0170    5.4920   47.8990 C   0  0  0  0  0  3  0  0  0  0  0  0
   28.9440    4.8580   48.1490 N   0  0  0  0  0  0  0  0  0  0  0  0
   29.0120    8.9590   48.1300 O   0  0  0  0  0  0  0  0  0  0  0  0
   29.1730    9.7330   49.2970 C   0  0  0  0  0  2  0  0  0  0  0  0
   30.5610   10.2870   49.2830 C   0  0  1  0  0  3  0  0  0  0  0  0
   31.1050   10.9960   48.1050 C   0  0  0  0  0  2  0  0  0  0  0  0
   30.6610   11.8070   49.2650 C   0  0  1  0  0  3  0  0  0  0  0  0
   29.1390   12.7300   49.0610 Cl  0  0  0  0  0  0  0  0  0  0  0  0
   22.7250    0.2900   52.6530 O   0  0  0  0  0  0  0  0  0  0  0  0
   21.3580    0.5620   52.4070 C   0  0  0  0  0  2  0  0  0  0  0  0
   20.4840    0.4650   53.6120 C   0  0  0  0  0  1  0  0  0  0  0  0
  1 32  1  0  0  0  0
  1 17  1  0  0  0  0
  2  1  2  0  0  0  0
  3  2  1  0  0  0  0
  4  3  2  0  0  0  0
  5  6  2  0  0  0  0
  5  4  1  0  0  0  0
  6  7  1  0  0  0  0
  7  8  2  0  0  0  0
  8  3  1  0  0  0  0
  8  9  1  0  0  0  0
  9 10  2  0  0  0  0
 11 10  1  6  0  0  0
 11 12  1  0  0  0  0
 13 14  1  0  0  0  0
 13 12  1  0  0  0  0
 15 14  1  0  0  0  0
 16 15  2  0  0  0  0
 17 11  1  0  0  0  0
 17 15  1  0  0  0  0
 18  7  1  0  0  0  0
 18 19  1  0  0  0  0
 20 21  1  0  0  0  0
 20 18  1  0  0  0  0
 22 21  2  0  0  0  0
 23 24  2  0  0  0  0
 23 22  1  0  0  0  0
 24 25  1  0  0  0  0
 25 20  2  0  0  0  0
 26 22  1  0  0  0  0
 26 27  1  0  0  0  0
 28 27  1  6  0  0  0
 29 30  1  0  0  0  0
 29 28  1  0  0  0  0
 30 31  1  6  0  0  0
 30 28  1  0  0  0  0
 33 32  1  0  0  0  0
 33 34  1  0  0  0  0
M  END
>  <TORSDO>
F 7

$$$$
