C:\Qe-CaDD\Project\Data\Stage_6_Molecular_Dynamics\ligands_top\out_21431_EGFR_extracted.pdbqt
 OpenBabel01082506443D

 22 22  0  0  1  0  0  0  0  0999 V2000
   23.9270    0.7760   52.8990 C   0  0  0  0  0  0  0  0  0  0  0  0
   24.9970    0.1130   53.2580 C   0  0  0  0  0  3  0  0  0  0  0  0
   26.4020    0.0500   52.9540 C   0  0  2  0  0  0  0  0  0  0  0  0
   26.9080    0.9970   51.9490 C   0  0  0  0  0  3  0  0  0  0  0  0
   26.3750    1.9440   51.1830 C   0  0  0  0  0  3  0  0  0  0  0  0
   24.9870    2.2300   51.2280 N   0  0  0  0  0  0  0  0  0  0  0  0
   23.8230    1.8350   51.9250 C   0  0  0  0  0  2  0  0  0  0  0  0
   26.6710   -1.3260   52.4140 C   0  0  0  0  0  3  0  0  0  0  0  0
   27.1590   -2.2100   53.0540 O   0  0  0  0  0  0  0  0  0  0  0  0
   27.4890    0.2390   54.4490 P   0  0  0  0  0  0  0  0  0  0  0  0
   27.6440   -1.0050   55.1710 H   0  0  0  0  0  0  0  0  0  0  0  0
   29.0460    0.8160   53.8860 O   0  0  0  0  0  0  0  0  0  0  0  0
   29.9470   -0.2060   53.6970 C   0  0  0  0  0  1  0  0  0  0  0  0
   22.6200    0.5800   53.4270 N   0  0  0  0  0  0  0  0  0  0  0  0
   22.1530    1.4130   53.8770 H   0  0  0  0  0  0  0  0  0  0  0  0
   22.1010   -0.7870   53.2810 C   0  0  0  0  0  2  0  0  0  0  0  0
   21.6140   -1.2210   54.6540 C   0  0  0  0  0  1  0  0  0  0  0  0
   24.5100    3.2470   50.2880 C   0  0  0  0  0  2  0  0  0  0  0  0
   24.5690    4.6380   50.8120 C   0  0  0  0  0  2  0  0  0  0  0  0
   25.4320    5.4770   50.1100 N   0  0  0  0  0  0  0  0  0  0  0  0
   25.3210    6.8770   50.3070 C   0  0  0  0  0  1  0  0  0  0  0  0
   26.3120    5.0170   49.1310 C   0  0  0  0  0  1  0  0  0  0  0  0
  1  2  2  0  0  0  0
  1 14  1  0  0  0  0
  3  8  1  6  0  0  0
  3  2  1  0  0  0  0
  3 10  1  0  0  0  0
  4  3  1  0  0  0  0
  5  6  1  0  0  0  0
  5  4  2  0  0  0  0
  6  7  1  0  0  0  0
  7  1  1  0  0  0  0
  8  9  2  0  0  0  0
 10 11  1  0  0  0  0
 12 10  1  0  0  0  0
 13 12  1  0  0  0  0
 14 15  1  0  0  0  0
 16 14  1  0  0  0  0
 16 17  1  0  0  0  0
 18 19  1  0  0  0  0
 18  6  1  0  0  0  0
 20 21  1  0  0  0  0
 20 19  1  0  0  0  0
 22 20  1  0  0  0  0
M  END
>  <TORSDO>
F 8

$$$$
