C:\Qe-CaDD\Project\Data\Stage_6_Molecular_Dynamics\ligands_top\out_10616_EGFR_extracted.pdbqt
 OpenBabel01082506443D

 30 33  0  0  0  0  0  0  0  0999 V2000
   24.3180    4.6900   51.0250 C   0  0  0  0  0  0  0  0  0  0  0  0
   23.8910    5.9070   50.6610 N   0  0  0  0  0  0  0  0  0  0  0  0
   22.6370    6.3460   50.8090 C   0  0  0  0  0  3  0  0  0  0  0  0
   21.7940    5.4720   51.3590 N   0  0  0  0  0  0  0  0  0  0  0  0
   22.0840    4.2290   51.7650 C   0  0  0  0  0  0  0  0  0  0  0  0
   21.0730    3.4500   52.3270 C   0  0  0  0  0  3  0  0  0  0  0  0
   21.4660    2.1800   52.7240 C   0  0  0  0  0  0  0  0  0  0  0  0
   22.7760    1.7760   52.5520 C   0  0  0  0  0  0  0  0  0  0  0  0
   23.7330    2.5630   52.0000 C   0  0  0  0  0  3  0  0  0  0  0  0
   23.4190    3.8230   51.5870 C   0  0  0  0  0  0  0  0  0  0  0  0
   23.1180    0.4710   52.9800 N   0  0  0  0  0  0  0  0  0  0  0  0
   22.0360   -0.2940   53.5540 C   0  0  0  0  0  0  0  0  0  0  0  0
   22.1990   -1.5630   53.5270 O   0  0  0  0  0  0  0  0  0  0  0  0
   20.8110    0.3190   54.1400 C   0  0  0  0  0  2  0  0  0  0  0  0
   20.4630    1.4050   53.2810 O   0  0  0  0  0  0  0  0  0  0  0  0
   24.4540   -0.1440   52.9000 C   0  0  0  0  0  2  0  0  0  0  0  0
   24.9900   -0.1720   54.2760 C   0  0  0  0  0  2  0  0  0  0  0  0
   26.3020    0.4630   54.5410 C   0  0  0  0  0  2  0  0  0  0  0  0
   27.4100   -0.0070   53.7950 N   0  0  0  0  0  0  0  0  0  0  0  0
   28.6310    0.0560   54.6690 C   0  0  0  0  0  2  0  0  0  0  0  0
   29.2080    1.4200   54.7390 C   0  0  0  0  0  2  0  0  0  0  0  0
   28.4220    2.4560   54.3180 O   0  0  0  0  0  0  0  0  0  0  0  0
   27.9030    2.2720   53.0390 C   0  0  0  0  0  2  0  0  0  0  0  0
   27.8210    0.8220   52.6680 C   0  0  0  0  0  2  0  0  0  0  0  0
   25.6560    4.3100   50.8280 N   0  0  0  0  0  0  0  0  0  0  0  0
   26.0440    4.8120   51.6500 H   0  0  0  0  0  0  0  0  0  0  0  0
   26.4660    3.5550   49.9590 C   0  0  0  0  0  3  0  0  0  0  0  0
   27.1030    4.2160   49.0010 C   0  0  0  0  0  3  0  0  0  0  0  0
   27.0060    5.6770   48.8010 C   0  0  0  0  0  3  0  0  0  0  0  0
   28.0380    6.2940   48.1960 C   0  0  0  0  0  2  0  0  0  0  0  0
  1 10  1  0  0  0  0
  2  3  1  0  0  0  0
  2  1  2  0  0  0  0
  3  4  2  0  0  0  0
  4  5  1  0  0  0  0
  5  6  1  0  0  0  0
  6  7  2  0  0  0  0
  7 15  1  0  0  0  0
  8  7  1  0  0  0  0
  8 11  1  0  0  0  0
  9  8  2  0  0  0  0
 10  5  2  0  0  0  0
 10  9  1  0  0  0  0
 11 12  1  0  0  0  0
 12 14  1  0  0  0  0
 13 12  2  0  0  0  0
 15 14  1  0  0  0  0
 16 11  1  0  0  0  0
 16 17  1  0  0  0  0
 17 18  1  0  0  0  0
 19 18  1  0  0  0  0
 19 20  1  0  0  0  0
 20 21  1  0  0  0  0
 22 21  1  0  0  0  0
 23 22  1  0  0  0  0
 24 23  1  0  0  0  0
 24 19  1  0  0  0  0
 25  1  1  0  0  0  0
 25 26  1  0  0  0  0
 27 25  1  0  0  0  0
 28 27  2  0  0  0  0
 29 28  1  0  0  0  0
 30 29  2  0  0  0  0
M  END
>  <TORSDO>
F 7

$$$$
