C:\Qe-CaDD\Project\Data\Stage_6_Molecular_Dynamics\ligands_top\out_10573_EGFR_extracted.pdbqt
 OpenBabel01082506443D

 23 24  0  0  1  0  0  0  0  0999 V2000
   24.9720    2.9450   50.2320 C   0  0  0  0  0  3  0  0  0  0  0  0
   25.0200    3.0530   51.5610 C   0  0  2  0  0  3  0  0  0  0  0  0
   26.3930    2.8840   51.5080 N   0  0  0  0  0  2  0  0  0  0  0  0
   27.1600    1.9690   51.9310 C   0  0  0  0  0  2  0  0  0  0  0  0
   26.2110    1.1330   52.4950 N   0  0  0  0  0  2  0  0  0  0  0  0
   26.3860    0.0210   53.0670 C   0  0  0  0  0  2  0  0  0  0  0  0
   25.0460   -0.4800   53.5040 C   0  0  0  0  0  3  0  0  0  0  0  0
   23.7000   -0.3700   53.6520 C   0  0  0  0  0  0  0  0  0  0  0  0
   22.8260   -1.2610   54.1950 O   0  0  0  0  0  0  0  0  0  0  0  0
   21.6360   -1.0920   53.3870 C   0  0  0  0  0  2  0  0  0  0  0  0
   21.5480    0.4150   53.6090 C   0  0  0  0  0  0  0  0  0  0  0  0
   20.7230    1.3080   53.9940 O   0  0  0  0  0  0  0  0  0  0  0  0
   22.9210    0.8360   53.2160 C   0  0  0  0  0  0  0  0  0  0  0  0
   22.9730    2.1090   52.7280 C   0  0  0  0  0  3  0  0  0  0  0  0
   23.7220    3.2510   52.2760 C   0  0  1  0  0  3  0  0  0  0  0  0
   23.9260    2.9840   49.2580 C   0  0  0  0  0  0  0  0  0  0  0  0
   22.9070    2.9160   48.4300 C   0  0  0  0  0  0  0  0  0  0  0  0
   23.3760    4.1720   48.2270 F   0  0  0  0  0  0  0  0  0  0  0  0
   21.8040    2.2390   47.8250 C   0  0  0  0  0  2  0  0  0  0  0  0
   21.4360    1.2380   48.5920 C   0  0  0  0  0  1  0  0  0  0  0  0
   24.0320    4.2300   53.3490 N   0  0  0  0  0  0  0  0  0  0  0  0
   23.1520    4.6870   53.6830 H   0  0  0  0  0  0  0  0  0  0  0  0
   24.6380    4.9650   52.9440 H   0  0  0  0  0  0  0  0  0  0  0  0
  2  1  1  1  0  0  0
  2 15  1  0  0  0  0
  3  2  1  0  0  0  0
  3  4  1  0  0  0  0
  4  5  1  0  0  0  0
  5  6  1  0  0  0  0
  6  7  1  0  0  0  0
  7  8  2  0  0  0  0
  8  9  1  0  0  0  0
 10 11  1  0  0  0  0
 10  9  1  0  0  0  0
 11 12  2  0  0  0  0
 13 11  1  0  0  0  0
 13  8  1  0  0  0  0
 14 13  2  0  0  0  0
 15 14  1  0  0  0  0
 15 21  1  1  0  0  0
 16  1  2  0  0  0  0
 17 16  2  0  0  0  0
 18 17  1  0  0  0  0
 19 17  1  0  0  0  0
 19 20  1  0  0  0  0
 21 22  1  0  0  0  0
 23 21  1  0  0  0  0
M  END
>  <TORSDO>
F 4

$$$$
