C:\Qe-CaDD\Project\Data\Stage_6_Molecular_Dynamics\ligands_top\out_16915_EGFR_extracted.pdbqt
 OpenBabel01082506443D

 20 22  0  0  0  0  0  0  0  0999 V2000
   21.6850   -0.7470   53.8030 C   0  0  0  0  0  0  0  0  0  0  0  0
   22.9860   -0.4190   53.4880 C   0  0  0  0  0  3  0  0  0  0  0  0
   23.8460   -0.7960   54.4530 N   0  0  0  0  0  0  0  0  0  0  0  0
   23.0760   -1.3760   55.4010 C   0  0  0  0  0  3  0  0  0  0  0  0
   21.7830   -1.3500   55.0180 N   0  0  0  0  0  0  0  0  0  0  0  0
   25.2750   -0.6680   54.5640 C   0  0  0  0  0  2  0  0  0  0  0  0
   25.9460   -0.6660   53.2140 C   0  0  0  0  0  2  0  0  0  0  0  0
   27.2690   -0.0760   53.2280 N   0  0  0  0  0  0  0  0  0  0  0  0
   27.2910    1.1480   52.4810 C   0  0  0  0  0  2  0  0  0  0  0  0
   27.3280    2.2960   53.4790 C   0  0  0  0  0  2  0  0  0  0  0  0
   28.5640    2.2810   54.0960 O   0  0  0  0  0  0  0  0  0  0  0  0
   28.9730    1.0370   54.5220 C   0  0  0  0  0  2  0  0  0  0  0  0
   27.8170    0.0470   54.5570 C   0  0  0  0  0  2  0  0  0  0  0  0
   20.4730   -0.5080   53.0200 C   0  0  0  0  0  0  0  0  0  0  0  0
   20.4810    0.2550   51.8560 C   0  0  0  0  0  3  0  0  0  0  0  0
   19.2900    0.4470   51.1520 C   0  0  0  0  0  3  0  0  0  0  0  0
   18.1520   -0.1380   51.6550 C   0  0  0  0  0  0  0  0  0  0  0  0
   16.9660    0.0330   50.9860 F   0  0  0  0  0  0  0  0  0  0  0  0
   18.0790   -0.9020   52.7990 C   0  0  0  0  0  3  0  0  0  0  0  0
   19.2940   -1.0680   53.4710 C   0  0  0  0  0  3  0  0  0  0  0  0
  1  5  1  0  0  0  0
  2  1  2  0  0  0  0
  2  3  1  0  0  0  0
  3  6  1  0  0  0  0
  3  4  1  0  0  0  0
  5  4  2  0  0  0  0
  7  8  1  0  0  0  0
  7  6  1  0  0  0  0
  8 13  1  0  0  0  0
  9  8  1  0  0  0  0
  9 10  1  0  0  0  0
 10 11  1  0  0  0  0
 11 12  1  0  0  0  0
 12 13  1  0  0  0  0
 14 20  1  0  0  0  0
 14  1  1  0  0  0  0
 15 14  2  0  0  0  0
 16 17  2  0  0  0  0
 16 15  1  0  0  0  0
 17 19  1  0  0  0  0
 18 17  1  0  0  0  0
 19 20  2  0  0  0  0
M  END
>  <TORSDO>
F 4

$$$$
