C:\Qe-CaDD\Project\Data\Stage_6_Molecular_Dynamics\ligands_top\out_10862_EGFR_extracted.pdbqt
 OpenBabel01082506443D

 24 25  0  0  0  0  0  0  0  0999 V2000
   26.0140    1.9530   52.2820 C   0  0  0  0  0  0  0  0  0  0  0  0
   25.6360    2.5550   51.2210 N   0  0  0  0  0  0  0  0  0  0  0  0
   27.2220    1.3390   52.7880 C   0  0  0  0  0  0  0  0  0  0  0  0
   27.4120   -0.0910   52.7280 C   0  0  0  0  0  0  0  0  0  0  0  0
   26.5450   -0.9330   52.2320 C   0  0  0  0  0  1  0  0  0  0  0  0
   28.6470   -0.6500   53.2520 C   0  0  0  0  0  3  0  0  0  0  0  0
   29.5020    0.2290   53.7480 C   0  0  0  0  0  3  0  0  0  0  0  0
   29.3790    1.7000   53.8450 C   0  0  0  0  0  0  0  0  0  0  0  0
   28.1070    2.1660   53.2920 C   0  0  0  0  0  3  0  0  0  0  0  0
   29.4150    2.0600   55.2100 O   0  0  0  0  0  0  0  0  0  0  0  0
   30.5330    2.7770   55.4660 N   0  0  0  0  0  0  0  0  0  0  0  0
   31.3750    2.2740   55.1200 H   0  0  0  0  0  0  0  0  0  0  0  0
   30.6190    2.7900   56.5170 H   0  0  0  0  0  0  0  0  0  0  0  0
   24.6930    2.1570   52.7560 N   0  0  0  0  0  0  0  0  0  0  0  0
   24.1720    3.4860   53.1250 C   0  0  0  0  0  1  0  0  0  0  0  0
   23.7560    1.0670   52.9100 C   0  0  0  0  0  0  0  0  0  0  0  0
   22.7380    0.9390   51.9910 C   0  0  0  0  0  3  0  0  0  0  0  0
   21.8770   -0.1420   52.2140 C   0  0  0  0  0  3  0  0  0  0  0  0
   22.0320   -1.0180   53.2700 C   0  0  0  0  0  3  0  0  0  0  0  0
   23.0730   -0.8420   54.1620 C   0  0  0  0  0  3  0  0  0  0  0  0
   23.9460    0.2150   53.9780 C   0  0  0  0  0  3  0  0  0  0  0  0
   26.4000    2.8310   50.0710 C   0  0  0  0  0  2  0  0  0  0  0  0
   27.0220    3.9450   50.2650 N   0  0  0  0  0  2  0  0  0  0  0  0
   26.9380    4.5010   51.1340 H   0  0  0  0  0  0  0  0  0  0  0  0
  1 14  1  0  0  0  0
  1  3  1  0  0  0  0
  2  1  2  0  0  0  0
  3  9  1  0  0  0  0
  4  3  2  0  0  0  0
  4  6  1  0  0  0  0
  5  4  1  0  0  0  0
  6  7  2  0  0  0  0
  7  8  1  0  0  0  0
  8 10  1  0  0  0  0
  9  8  2  0  0  0  0
 10 11  1  0  0  0  0
 11 13  1  0  0  0  0
 12 11  1  0  0  0  0
 14 16  1  0  0  0  0
 14 15  1  0  0  0  0
 16 21  1  0  0  0  0
 17 18  1  0  0  0  0
 17 16  2  0  0  0  0
 18 19  2  0  0  0  0
 19 20  1  0  0  0  0
 21 20  2  0  0  0  0
 22 23  1  0  0  0  0
 22  2  1  0  0  0  0
 23 24  1  0  0  0  0
M  END
>  <TORSDO>
F 6

$$$$
