C:\Qe-CaDD\Project\Data\Stage_6_Molecular_Dynamics\ligands_top\out_12303_EGFR_extracted.pdbqt
 OpenBabel01082506443D

 31 34  0  0  1  0  0  0  0  0999 V2000
   24.5990    0.7930   53.3150 C   0  0  0  0  0  0  0  0  0  0  0  0
   25.4380    1.1060   54.1950 O   0  0  0  0  0  0  0  0  0  0  0  0
   24.1770    2.0090   52.7150 N   0  0  0  0  0  0  0  0  0  0  0  0
   24.1710    3.3990   52.5500 C   0  0  2  0  0  3  0  0  0  0  0  0
   23.9200    4.6760   52.2270 C   0  0  0  0  0  2  0  0  0  0  0  0
   22.7890    5.0810   51.4090 C   0  0  0  0  0  3  0  0  0  0  0  0
   22.4810    6.3060   50.9790 C   0  0  0  0  0  0  0  0  0  0  0  0
   21.2480    6.3990   50.1550 C   0  0  0  0  0  2  0  0  0  0  0  0
   21.5930    5.9250   48.8970 C   0  0  0  0  0  3  0  0  0  0  0  0
   22.7240    5.2000   48.2440 N   0  0  0  0  0  0  0  0  0  0  0  0
   23.8830    4.9380   48.9040 C   0  0  2  0  0  3  0  0  0  0  0  0
   24.0100    3.4940   49.2740 C   0  0  0  0  0  3  0  0  0  0  0  0
   23.8110    2.6130   50.2900 C   0  0  0  0  0  3  0  0  0  0  0  0
   23.3160    2.6200   51.7040 C   0  0  1  0  0  3  0  0  0  0  0  0
   24.8550    6.0510   49.2210 C   0  0  0  0  0  0  0  0  0  0  0  0
   25.9740    6.1110   48.4500 C   0  0  0  0  0  3  0  0  0  0  0  0
   26.8760    7.1120   48.7070 C   0  0  0  0  0  0  0  0  0  0  0  0
   27.9580    7.0570   47.8590 F   0  0  0  0  0  0  0  0  0  0  0  0
   26.6790    8.0370   49.7060 C   0  0  0  0  0  0  0  0  0  0  0  0
   27.9060    9.2540   49.9220 Cl  0  0  0  0  0  0  0  0  0  0  0  0
   25.5440    7.9740   50.4860 C   0  0  0  0  0  3  0  0  0  0  0  0
   24.5980    6.9920   50.2780 C   0  0  0  0  0  0  0  0  0  0  0  0
   23.5440    7.2470   51.3000 N   0  0  0  0  0  0  0  0  0  0  0  0
   23.8780    8.0040   51.9170 H   0  0  0  0  0  0  0  0  0  0  0  0
   24.0940   -0.5110   52.9110 C   0  0  0  0  0  3  0  0  0  0  0  0
   22.8460   -0.8840   53.1060 C   0  0  0  0  0  3  0  0  0  0  0  0
   21.8380   -0.0110   53.7550 C   0  0  2  0  0  3  0  0  0  0  0  0
   21.5090   -0.4710   55.1600 C   0  0  0  0  0  1  0  0  0  0  0  0
   20.6560   -0.0140   52.9060 N   0  0  0  0  0  0  0  0  0  0  0  0
   19.5960   -0.8300   53.4170 C   0  0  0  0  0  1  0  0  0  0  0  0
   20.2220    1.3220   52.6470 C   0  0  0  0  0  1  0  0  0  0  0  0
  1  2  2  0  0  0  0
  3  1  1  0  0  0  0
  4  5  1  1  0  0  0
  4  3  1  0  0  0  0
  6  5  1  0  0  0  0
  7 23  1  0  0  0  0
  7  6  2  0  0  0  0
  8  7  1  0  0  0  0
  9  8  1  0  0  0  0
 10  9  2  0  0  0  0
 10 11  1  0  0  0  0
 11 15  1  0  0  0  0
 11 12  1  1  0  0  0
 12 13  2  0  0  0  0
 14 13  1  6  0  0  0
 14  4  1  0  0  0  0
 14  3  1  0  0  0  0
 15 22  1  0  0  0  0
 16 17  1  0  0  0  0
 16 15  2  0  0  0  0
 17 19  2  0  0  0  0
 18 17  1  0  0  0  0
 19 20  1  0  0  0  0
 19 21  1  0  0  0  0
 22 21  2  0  0  0  0
 22 23  1  0  0  0  0
 23 24  1  0  0  0  0
 25 26  2  0  0  0  0
 25  1  1  0  0  0  0
 26 27  1  0  0  0  0
 27 28  1  1  0  0  0
 29 30  1  0  0  0  0
 29 27  1  0  0  0  0
 31 29  1  0  0  0  0
M  END
>  <TORSDO>
F 3

$$$$
