C:\Qe-CaDD\Project\Data\Stage_6_Molecular_Dynamics\ligands_top\out_1466_EGFR_extracted.pdbqt
 OpenBabel01082506443D

 30 32  0  0  0  0  0  0  0  0999 V2000
   21.1570    1.6550   50.8530 C   0  0  0  0  0  0  0  0  0  0  0  0
   22.0920    2.4390   50.3390 C   0  0  0  0  0  3  0  0  0  0  0  0
   23.3230    2.0490   51.0350 C   0  0  0  0  0  0  0  0  0  0  0  0
   24.5480    2.5480   50.8890 C   0  0  0  0  0  2  0  0  0  0  0  0
   25.6780    2.0970   51.6140 O   0  0  0  0  0  0  0  0  0  0  0  0
   25.9460    0.7230   51.7820 C   0  0  0  0  0  2  0  0  0  0  0  0
   25.1460    0.1660   52.9400 C   0  0  0  0  0  0  0  0  0  0  0  0
   25.2960   -0.4020   54.1230 C   0  0  0  0  0  0  0  0  0  0  0  0
   23.6790    0.1260   52.9880 C   0  0  0  0  0  2  0  0  0  0  0  0
   22.9820    0.9710   51.9860 C   0  0  0  0  0  0  0  0  0  0  0  0
   21.6710    0.7470   51.8620 C   0  0  0  0  0  2  0  0  0  0  0  0
   25.5440   -1.0210   55.4140 N   0  0  0  0  0  0  0  0  0  0  0  0
   26.5610   -1.0090   55.7310 H   0  0  0  0  0  0  0  0  0  0  0  0
   24.4930   -1.5880   56.1410 N   0  0  0  0  0  0  0  0  0  0  0  0
   24.4040   -2.5870   55.8060 H   0  0  0  0  0  0  0  0  0  0  0  0
   23.6000   -1.1270   55.8090 H   0  0  0  0  0  0  0  0  0  0  0  0
   26.7790   -0.3530   53.9450 C   0  0  0  0  0  0  0  0  0  0  0  0
   27.5470   -1.3600   53.3490 C   0  0  0  0  0  3  0  0  0  0  0  0
   28.9230   -1.3550   53.1630 C   0  0  0  0  0  3  0  0  0  0  0  0
   29.5690   -0.2280   53.6220 C   0  0  0  0  0  0  0  0  0  0  0  0
   30.9110   -0.1640   53.4660 F   0  0  0  0  0  0  0  0  0  0  0  0
   28.9480    0.8410   54.2270 C   0  0  0  0  0  0  0  0  0  0  0  0
   29.7720    2.2660   54.8120 Cl  0  0  0  0  0  0  0  0  0  0  0  0
   27.5580    0.7370   54.3680 C   0  0  0  0  0  3  0  0  0  0  0  0
   19.8090    1.7510   50.4090 N   0  0  0  0  0  0  0  0  0  0  0  0
   19.5200    1.1320   49.6080 H   0  0  0  0  0  0  0  0  0  0  0  0
   18.6560    2.8190   51.1180 S   0  0  0  0  0  0  0  0  0  0  0  0
   18.1520    4.1180   50.0340 C   0  0  0  0  0  1  0  0  0  0  0  0
   17.4260    2.0870   51.5630 O   0  0  0  0  0  0  0  0  0  0  0  0
   19.2570    3.4520   52.3400 O   0  0  0  0  0  0  0  0  0  0  0  0
  1 11  1  0  0  0  0
  2  1  2  0  0  0  0
  2  3  1  0  0  0  0
  3 10  2  0  0  0  0
  4  3  1  0  0  0  0
  4  5  1  0  0  0  0
  5  6  1  0  0  0  0
  6  7  1  0  0  0  0
  7  9  1  0  0  0  0
  7  8  2  3  0  0  0
  8 12  1  0  0  0  0
 10  9  1  0  0  0  0
 11 10  1  0  0  0  0
 12 13  1  0  0  0  0
 12 14  1  0  0  0  0
 15 14  1  0  0  0  0
 16 14  1  0  0  0  0
 17  8  1  0  0  0  0
 17 24  1  0  0  0  0
 18 17  2  0  0  0  0
 19 18  1  0  0  0  0
 19 20  2  0  0  0  0
 20 22  1  0  0  0  0
 21 20  1  0  0  0  0
 22 24  2  0  0  0  0
 22 23  1  0  0  0  0
 25  1  1  0  0  0  0
 25 27  1  0  0  0  0
 26 25  1  0  0  0  0
 27 29  2  0  0  0  0
 27 30  2  0  0  0  0
 28 27  1  0  0  0  0
M  END
>  <TORSDO>
F 5

$$$$
