C:\Qe-CaDD\Project\Data\Stage_6_Molecular_Dynamics\ligands_top\out_22340_EGFR_extracted.pdbqt
 OpenBabel01082506443D

 33 35  0  0  1  0  0  0  0  0999 V2000
   24.4460    5.4870   50.2620 C   0  0  1  0  0  0  0  0  0  0  0  0
   24.5070    7.0080   50.5480 C   0  0  0  0  0  1  0  0  0  0  0  0
   23.5850    4.9940   51.3830 C   0  0  0  0  0  3  0  0  0  0  0  0
   22.5080    4.2400   51.4590 C   0  0  0  0  0  3  0  0  0  0  0  0
   21.7540    3.5980   50.4040 C   0  0  0  0  0  0  0  0  0  0  0  0
   21.9430    3.8600   49.0670 C   0  0  0  0  0  0  0  0  0  0  0  0
   21.1720    3.2530   48.1360 N   0  0  0  0  0  0  0  0  0  0  0  0
   20.2360    2.3940   48.6220 C   0  0  0  0  0  3  0  0  0  0  0  0
   20.0770    2.1580   49.9310 N   0  0  0  0  0  0  0  0  0  0  0  0
   20.8080    2.7300   50.8850 C   0  0  0  0  0  0  0  0  0  0  0  0
   22.9210    4.7410   48.4050 C   0  0  0  0  0  3  0  0  0  0  0  0
   23.9120    5.3650   48.9660 N   0  0  0  0  0  0  0  0  0  0  0  0
   25.8020    5.0420   50.4670 N   0  0  0  0  0  0  0  0  0  0  0  0
   26.4360    5.8960   50.3820 H   0  0  0  0  0  0  0  0  0  0  0  0
   26.3060    4.1440   49.4300 C   0  0  1  0  0  3  0  0  0  0  0  0
   27.5190    4.6830   48.7780 C   0  0  0  0  0  1  0  0  0  0  0  0
   26.3930    2.7900   50.0530 C   0  0  0  0  0  2  0  0  0  0  0  0
   26.8620    2.7010   51.4460 C   0  0  0  0  0  2  0  0  0  0  0  0
   26.2390    1.8080   52.3510 N   0  0  0  0  0  0  0  0  0  0  0  0
   25.5050    2.3880   53.4170 C   0  0  0  0  0  1  0  0  0  0  0  0
   27.1370    0.7440   52.6790 C   0  0  0  0  0  3  0  0  0  0  0  0
   27.4680    0.7120   54.1720 C   0  0  0  0  0  1  0  0  0  0  0  0
   26.7850   -0.6000   52.1450 C   0  0  0  0  0  1  0  0  0  0  0  0
   20.6510    2.4300   52.2570 N   0  0  0  0  0  0  0  0  0  0  0  0
   20.3440    3.0570   53.0220 H   0  0  0  0  0  0  0  0  0  0  0  0
   20.9070    1.1810   52.8920 C   0  0  0  0  0  0  0  0  0  0  0  0
   19.9880    0.2000   53.1550 C   0  0  0  0  0  3  0  0  0  0  0  0
   20.2660   -1.0010   53.7600 C   0  0  0  0  0  3  0  0  0  0  0  0
   21.5560   -1.2750   54.1450 C   0  0  0  0  0  0  0  0  0  0  0  0
   21.7760   -2.4700   54.7360 F   0  0  0  0  0  0  0  0  0  0  0  0
   22.5220   -0.3050   53.8960 C   0  0  0  0  0  0  0  0  0  0  0  0
   24.1300   -0.7910   54.4390 Cl  0  0  0  0  0  0  0  0  0  0  0  0
   22.1930    0.8850   53.2870 C   0  0  0  0  0  3  0  0  0  0  0  0
  1 13  1  0  0  0  0
  1  2  1  1  0  0  0
  1  3  1  0  0  0  0
  3  4  2  0  0  0  0
  5 10  1  0  0  0  0
  5  4  1  0  0  0  0
  6  5  2  0  0  0  0
  7  8  2  0  0  0  0
  7  6  1  0  0  0  0
  8  9  1  0  0  0  0
  9 10  2  0  0  0  0
 10 24  1  0  0  0  0
 11 12  2  0  0  0  0
 11  6  1  0  0  0  0
 12  1  1  0  0  0  0
 14 13  1  0  0  0  0
 15 16  1  1  0  0  0
 15 17  1  0  0  0  0
 15 13  1  0  0  0  0
 17 18  1  0  0  0  0
 18 19  1  0  0  0  0
 19 21  1  0  0  0  0
 19 20  1  0  0  0  0
 21 22  1  0  0  0  0
 23 21  1  0  0  0  0
 24 26  1  0  0  0  0
 24 25  1  0  0  0  0
 26 27  2  0  0  0  0
 26 33  1  0  0  0  0
 27 28  1  0  0  0  0
 28 29  2  0  0  0  0
 29 30  1  0  0  0  0
 31 29  1  0  0  0  0
 31 32  1  0  0  0  0
 33 31  2  0  0  0  0
M  END
>  <TORSDO>
F 8

$$$$
