C:\Qe-CaDD\Project\Data\Stage_6_Molecular_Dynamics\ligands_top\out_1638_EGFR_extracted.pdbqt
 OpenBabel01082506443D

 27 30  0  0  1  0  0  0  0  0999 V2000
   26.2810    2.2800   52.1880 C   0  0  2  0  0  3  0  0  0  0  0  0
   27.5450    1.7650   52.6340 N   0  0  0  0  0  0  0  0  0  0  0  0
   27.6100    0.6150   53.5080 C   0  0  0  0  0  2  0  0  0  0  0  0
   26.5860   -0.0430   53.9610 N   0  0  0  0  0  0  0  0  0  0  0  0
   25.2930    0.4050   53.5630 C   0  0  0  0  0  0  0  0  0  0  0  0
   25.2140    1.4570   52.7620 C   0  0  1  0  0  3  0  0  0  0  0  0
   23.9620    1.9990   52.2940 N   0  0  0  0  0  0  0  0  0  0  0  0
   22.6060    1.5650   52.1790 C   0  0  0  0  0  2  0  0  0  0  0  0
   22.2370    0.4070   53.0020 C   0  0  0  0  0  0  0  0  0  0  0  0
   20.8700    0.2310   52.8140 C   0  0  0  0  0  3  0  0  0  0  0  0
   20.2050   -0.8080   53.4720 C   0  0  0  0  0  0  0  0  0  0  0  0
   18.3290   -1.1060   53.2580 Br  0  0  0  0  0  0  0  0  0  0  0  0
   20.9220   -1.6370   54.2960 C   0  0  0  0  0  3  0  0  0  0  0  0
   22.2780   -1.4690   54.4880 C   0  0  0  0  0  3  0  0  0  0  0  0
   22.9280   -0.4440   53.8370 C   0  0  0  0  0  0  0  0  0  0  0  0
   24.2880   -0.3790   54.1110 O   0  0  0  0  0  0  0  0  0  0  0  0
   28.5220    2.0700   52.4440 H   0  0  0  0  0  0  0  0  0  0  0  0
   24.0110    2.9950   51.9220 H   0  0  0  0  0  0  0  0  0  0  0  0
   26.1580    2.5330   50.7920 N   0  0  0  0  0  0  0  0  0  0  0  0
   26.0140    1.6790   50.2100 H   0  0  0  0  0  0  0  0  0  0  0  0
   26.2130    3.7990   50.1540 C   0  0  0  0  0  0  0  0  0  0  0  0
   27.1140    4.1380   49.1770 C   0  0  0  0  0  3  0  0  0  0  0  0
   27.1610    5.3710   48.5560 C   0  0  0  0  0  3  0  0  0  0  0  0
   26.2420    6.3290   48.9440 C   0  0  0  0  0  3  0  0  0  0  0  0
   25.3160    6.0370   49.9230 C   0  0  0  0  0  0  0  0  0  0  0  0
   24.0480    7.3660   50.4550 Br  0  0  0  0  0  0  0  0  0  0  0  0
   25.3210    4.7920   50.5010 C   0  0  0  0  0  3  0  0  0  0  0  0
  1 19  1  6  0  0  0
  1  2  1  0  0  0  0
  1  6  1  0  0  0  0
  2  3  1  0  0  0  0
  3  4  1  0  0  0  0
  5  4  2  0  0  0  0
  5 16  1  0  0  0  0
  6  5  1  1  0  0  0
  7  6  1  0  0  0  0
  8  7  1  0  0  0  0
  8  9  1  0  0  0  0
  9 15  1  0  0  0  0
 10  9  2  0  0  0  0
 10 11  1  0  0  0  0
 11 13  2  0  0  0  0
 12 11  1  0  0  0  0
 13 14  1  0  0  0  0
 15 16  1  0  0  0  0
 15 14  2  0  0  0  0
 17  2  1  0  0  0  0
 18  7  1  0  0  0  0
 20 19  1  0  0  0  0
 21 27  1  0  0  0  0
 21 19  1  0  0  0  0
 22 21  2  0  0  0  0
 23 24  2  0  0  0  0
 23 22  1  0  0  0  0
 24 25  1  0  0  0  0
 25 26  1  0  0  0  0
 25 27  2  0  0  0  0
M  END
>  <TORSDO>
F 2

$$$$
