C:\Qe-CaDD\Project\Data\Stage_6_Molecular_Dynamics\ligands_top\out_22358_EGFR_extracted.pdbqt
 OpenBabel01082506443D

 23 24  0  0  1  0  0  0  0  0999 V2000
   20.9810   -1.3830   54.4300 C   0  0  0  0  0  1  0  0  0  0  0  0
   22.0530   -0.5810   53.7900 C   0  0  0  0  0  0  0  0  0  0  0  0
   22.9260    0.0920   53.2790 C   0  0  0  0  0  0  0  0  0  0  0  0
   23.9310    0.8930   52.6680 C   0  0  0  0  0  0  0  0  0  0  0  0
   23.8010    2.1220   52.3850 O   0  0  0  0  0  0  0  0  0  0  0  0
   25.2100    0.4160   52.2990 N   0  0  0  0  0  0  0  0  0  0  0  0
   25.2170   -0.6420   52.5150 H   0  0  0  0  0  0  0  0  0  0  0  0
   26.5190    0.3630   51.8020 C   0  0  2  0  0  3  0  0  0  0  0  0
   27.3430   -0.6510   51.9610 C   0  0  0  0  0  2  0  0  0  0  0  0
   26.6670   -1.7150   52.7710 C   0  0  2  0  0  3  0  0  0  0  0  0
   26.5480   -1.1210   54.1070 N   0  0  0  0  0  0  0  0  0  0  0  0
   27.4510   -2.9210   52.7660 N   0  0  0  0  0  0  0  0  0  0  0  0
   27.0300    0.0350   54.3460 C   0  0  0  0  0  3  0  0  0  0  0  0
   27.7060    1.2050   53.9660 N   0  0  0  0  0  0  0  0  0  0  0  0
   27.4180    2.5460   53.5510 C   0  0  0  0  0  2  0  0  0  0  0  0
   29.0740    0.7440   54.1260 C   0  0  1  0  0  3  0  0  0  0  0  0
   26.7920    2.6330   52.2270 C   0  0  0  0  0  2  0  0  0  0  0  0
   26.3400    1.7510   51.3360 N   0  0  0  0  0  2  0  0  0  0  0  0
   29.7500    1.8430   54.5910 F   0  0  0  0  0  0  0  0  0  0  0  0
   29.7730   -0.3850   53.9580 C   0  0  0  0  0  3  0  0  0  0  0  0
   29.7610   -1.8070   53.5600 C   0  0  0  0  0  3  0  0  0  0  0  0
   28.6390   -2.3130   53.1840 C   0  0  0  0  0  2  0  0  0  0  0  0
   26.9870   -3.8030   52.4910 H   0  0  0  0  0  0  0  0  0  0  0  0
  2  1  1  0  0  0  0
  3  2  3  0  0  0  0
  4  3  1  0  0  0  0
  5  4  2  0  0  0  0
  6  7  1  0  0  0  0
  6  4  1  0  0  0  0
  8  9  1  0  0  0  0
  8  6  1  1  0  0  0
 10  9  1  6  0  0  0
 10 11  1  0  0  0  0
 11 13  2  0  0  0  0
 12 10  1  0  0  0  0
 12 22  1  0  0  0  0
 14 16  1  0  0  0  0
 14 13  1  0  0  0  0
 15 14  1  0  0  0  0
 16 19  1  1  0  0  0
 17 15  1  0  0  0  0
 18  8  1  0  0  0  0
 18 17  1  0  0  0  0
 20 16  1  0  0  0  0
 21 20  2  0  0  0  0
 22 21  1  0  0  0  0
 23 12  1  0  0  0  0
M  END
>  <TORSDO>
F 2

$$$$
