C:\Qe-CaDD\Project\Data\Stage_6_Molecular_Dynamics\ligands_top\out_10949_EGFR_extracted.pdbqt
 OpenBabel01082506443D

 30 31  0  0  0  0  0  0  0  0999 V2000
   25.7930    0.3400   53.3000 C   0  0  0  0  0  0  0  0  0  0  0  0
   24.9670   -0.1090   54.1660 O   0  0  0  0  0  0  0  0  0  0  0  0
   25.4550    1.4310   52.4500 N   0  0  0  0  0  0  0  0  0  0  0  0
   24.1500    1.9610   52.6460 C   0  0  0  0  0  2  0  0  0  0  0  0
   23.8120    2.9790   51.8400 C   0  0  0  0  0  0  0  0  0  0  0  0
   24.7400    3.4900   50.8490 C   0  0  0  0  0  0  0  0  0  0  0  0
   25.9450    2.9640   50.7130 C   0  0  0  0  0  3  0  0  0  0  0  0
   26.4720    1.8540   51.5080 C   0  0  0  0  0  3  0  0  0  0  0  0
   24.2640    4.6450   49.9810 C   0  0  0  0  0  2  0  0  0  0  0  0
   25.1210    5.6600   49.8730 N   0  0  0  0  0  2  0  0  0  0  0  0
   25.9000    6.4660   49.7350 C   0  0  0  0  0  2  0  0  0  0  0  0
   26.6100    6.4060   48.4280 C   0  0  0  0  0  2  0  0  0  0  0  0
   27.6380    5.3490   48.5340 C   0  0  0  0  0  3  0  0  0  0  0  0
   28.9050    5.5250   48.2170 C   0  0  0  0  0  3  0  0  0  0  0  0
   29.6850    6.6800   47.7070 C   0  0  0  0  0  2  0  0  0  0  0  0
   30.5820    7.2430   48.7760 C   0  0  0  0  0  2  0  0  0  0  0  0
   29.9250    8.3470   49.4110 N   0  0  0  0  0  0  0  0  0  0  0  0
   29.6100    9.0630   48.6920 H   0  0  0  0  0  0  0  0  0  0  0  0
   29.0130    7.9560   49.7960 H   0  0  0  0  0  0  0  0  0  0  0  0
   22.5420    3.5520   51.9740 N   0  0  0  0  0  0  0  0  0  0  0  0
   22.4010    4.2450   52.7670 H   0  0  0  0  0  0  0  0  0  0  0  0
   21.6860    3.4080   51.4040 H   0  0  0  0  0  0  0  0  0  0  0  0
   27.0360   -0.4120   53.3440 C   0  0  0  0  0  0  0  0  0  0  0  0
   28.2590   -0.0770   53.8860 C   0  0  0  0  0  0  0  0  0  0  0  0
   29.2880   -0.9930   53.7860 C   0  0  0  0  0  3  0  0  0  0  0  0
   29.1350   -2.2170   53.1690 C   0  0  0  0  0  3  0  0  0  0  0  0
   27.9180   -2.5600   52.6240 C   0  0  0  0  0  3  0  0  0  0  0  0
   26.8640   -1.6470   52.7150 C   0  0  0  0  0  3  0  0  0  0  0  0
   28.2760    1.1600   54.4670 O   0  0  0  0  0  0  0  0  0  0  0  0
   28.9500    2.2900   53.9600 C   0  0  0  0  0  1  0  0  0  0  0  0
  1 23  1  0  0  0  0
  1  2  2  0  0  0  0
  3  4  1  0  0  0  0
  3  1  1  0  0  0  0
  5 20  1  0  0  0  0
  5  4  1  0  0  0  0
  6  5  2  0  0  0  0
  7  6  1  0  0  0  0
  7  8  2  0  0  0  0
  8  3  1  0  0  0  0
  9  6  1  0  0  0  0
 10  9  1  0  0  0  0
 11 10  1  0  0  0  0
 12 13  1  0  0  0  0
 12 11  1  0  0  0  0
 14 13  2  0  0  0  0
 15 14  1  0  0  0  0
 15 16  1  0  0  0  0
 16 17  1  0  0  0  0
 17 19  1  0  0  0  0
 18 17  1  0  0  0  0
 20 21  1  0  0  0  0
 22 20  1  0  0  0  0
 23 24  1  0  0  0  0
 24 29  1  0  0  0  0
 25 24  2  0  0  0  0
 26 25  1  0  0  0  0
 27 28  1  0  0  0  0
 27 26  2  0  0  0  0
 28 23  2  0  0  0  0
 30 29  1  0  0  0  0
M  END
>  <TORSDO>
F 11

$$$$
