C:\Qe-CaDD\Project\Data\Stage_6_Molecular_Dynamics\ligands_top\out_14237_EGFR_extracted.pdbqt
 OpenBabel01082506443D

 31 33  0  0  0  0  0  0  0  0999 V2000
   20.6430    2.2760   51.3030 O   0  0  0  0  0  1  0  0  0  0  0  0
   20.2570    3.3260   50.7890 C   0  0  0  0  0  2  0  0  0  0  0  0
   19.9480    3.3830   52.3320 C   0  0  0  0  0  1  0  0  0  0  0  0
   20.4560    2.2030   52.7220 O   0  0  0  0  0  0  0  0  0  0  0  0
   20.9270    1.1030   53.0970 C   0  0  0  0  0  0  0  0  0  0  0  0
   20.0650    0.2090   53.6400 C   0  0  0  0  0  3  0  0  0  0  0  0
   20.5460   -1.0050   54.0490 C   0  0  0  0  0  3  0  0  0  0  0  0
   21.8320   -1.3840   53.9500 C   0  0  0  0  0  0  0  0  0  0  0  0
   22.2990   -2.5800   54.3530 F   0  0  0  0  0  0  0  0  0  0  0  0
   22.6750   -0.4240   53.3860 C   0  0  0  0  0  3  0  0  0  0  0  0
   22.3050    0.8640   52.9250 C   0  0  0  0  0  0  0  0  0  0  0  0
   23.4320    1.6160   52.3790 C   0  0  0  0  0  2  0  0  0  0  0  0
   23.8490    2.3240   51.3330 C   0  0  0  0  0  0  0  0  0  0  0  0
   25.2410    2.8020   51.5180 C   0  0  0  0  0  0  0  0  0  0  0  0
   25.9030    3.4140   50.6040 N   0  0  0  0  0  0  0  0  0  0  0  0
   25.3840    3.7220   49.3350 C   0  0  0  0  0  3  0  0  0  0  0  0
   24.1990    3.3800   49.1620 N   0  0  0  0  0  0  0  0  0  0  0  0
   23.3110    2.7540   50.0430 C   0  0  0  0  0  0  0  0  0  0  0  0
   22.4640    1.7940   49.3230 C   0  0  0  0  0  3  0  0  0  0  0  0
   21.1720    2.0160   49.0160 C   0  0  0  0  0  3  0  0  0  0  0  0
   20.5350    3.2760   49.3990 N   0  0  0  0  0  0  0  0  0  0  0  0
   20.0870    4.1960   49.5820 H   0  0  0  0  0  0  0  0  0  0  0  0
   26.0430    2.6910   52.7020 N   0  0  0  0  0  0  0  0  0  0  0  0
   25.8340    3.4570   53.3960 H   0  0  0  0  0  0  0  0  0  0  0  0
   27.0310    1.7290   53.0400 C   0  0  0  0  0  0  0  0  0  0  0  0
   28.1880    2.1360   53.6560 C   0  0  0  0  0  3  0  0  0  0  0  0
   29.1740    1.2440   54.0060 C   0  0  0  0  0  3  0  0  0  0  0  0
   29.0640   -0.1100   53.7620 C   0  0  0  0  0  3  0  0  0  0  0  0
   27.9020   -0.4930   53.1470 C   0  0  0  0  0  0  0  0  0  0  0  0
   27.6770   -2.3620   52.7740 Br  0  0  0  0  0  0  0  0  0  0  0  0
   26.8920    0.3850   52.7840 C   0  0  0  0  0  3  0  0  0  0  0  0
  2  1  1  0  0  0  0
  3  4  1  0  0  0  0
  4  5  1  0  0  0  0
  5  6  1  0  0  0  0
  6  7  2  0  0  0  0
  8  7  1  0  0  0  0
  8  9  1  0  0  0  0
 10  8  2  0  0  0  0
 11  5  2  0  0  0  0
 11 10  1  0  0  0  0
 12 11  1  0  0  0  0
 13 14  1  0  0  0  0
 13 12  1  0  0  0  0
 14 23  1  0  0  0  0
 15 14  2  0  0  0  0
 16 15  1  0  0  0  0
 17 16  2  0  0  0  0
 17 18  1  0  0  0  0
 18 13  2  0  0  0  0
 19 18  1  0  0  0  0
 20 19  2  0  0  0  0
 20 21  1  0  0  0  0
 21 22  1  0  0  0  0
 21  2  1  0  0  0  0
 23 25  1  0  0  0  0
 23 24  1  0  0  0  0
 25 26  1  0  0  0  0
 26 27  2  0  0  0  0
 28 27  1  0  0  0  0
 29 28  2  0  0  0  0
 30 29  1  0  0  0  0
 31 25  2  0  0  0  0
 31 29  1  0  0  0  0
M  END
>  <TORSDO>
F 2

$$$$
