C:\Qe-CaDD\Project\Data\Stage_6_Molecular_Dynamics\ligands_top\out_16945_EGFR_extracted.pdbqt
 OpenBabel01082506443D

 30 33  0  0  1  0  0  0  0  0999 V2000
   22.7880    2.7320   50.7520 C   0  0  0  0  0  0  0  0  0  0  0  0
   22.2500    3.3520   49.6850 C   0  0  0  0  0  2  0  0  0  0  0  0
   22.4440    4.8130   49.8550 C   0  0  1  0  0  0  0  0  0  0  0  0
   21.4890    5.7150   49.3490 N   0  0  0  0  0  0  0  0  0  0  0  0
   21.1720    6.5510   50.2730 C   0  0  0  0  0  3  0  0  0  0  0  0
   21.8950    6.2560   51.4900 N   0  0  0  0  0  0  0  0  0  0  0  0
   22.6550    5.1950   51.2350 C   0  0  0  0  0  0  0  0  0  0  0  0
   23.3510    4.4830   52.3000 C   0  0  0  0  0  2  0  0  0  0  0  0
   23.3780    3.1430   52.0310 C   0  0  0  0  0  0  0  0  0  0  0  0
   23.6800    5.1580   49.0550 N   0  0  0  0  0  0  0  0  0  0  0  0
   23.2450    5.2960   48.0920 H   0  0  0  0  0  0  0  0  0  0  0  0
   25.0630    5.4080   48.8490 C   0  0  0  0  0  0  0  0  0  0  0  0
   25.5790    6.6160   48.3610 C   0  0  0  0  0  3  0  0  0  0  0  0
   26.9340    6.6680   48.2190 C   0  0  0  0  0  3  0  0  0  0  0  0
   27.7340    5.6160   48.5290 C   0  0  0  0  0  0  0  0  0  0  0  0
   29.5760    5.9850   48.2260 Br  0  0  0  0  0  0  0  0  0  0  0  0
   27.2610    4.4170   49.0090 C   0  0  0  0  0  3  0  0  0  0  0  0
   25.9000    4.3610   49.1540 C   0  0  0  0  0  0  0  0  0  0  0  0
   25.6370    3.1200   49.6200 F   0  0  0  0  0  0  0  0  0  0  0  0
   22.7490    1.3160   50.7290 O   0  0  0  0  0  0  0  0  0  0  0  0
   21.5420    0.6030   50.9180 C   0  0  0  0  0  1  0  0  0  0  0  0
   23.9430    2.2820   52.9540 O   0  0  0  0  0  0  0  0  0  0  0  0
   25.1960    2.3810   53.5510 C   0  0  0  0  0  2  0  0  0  0  0  0
   26.2110    1.4400   52.9350 C   0  0  0  0  0  3  0  0  0  0  0  0
   27.5620    2.1390   53.0220 C   0  0  0  0  0  2  0  0  0  0  0  0
   28.5780    1.1980   53.6710 C   0  0  0  0  0  2  0  0  0  0  0  0
   28.5220   -0.1160   53.0930 N   0  0  0  0  0  0  0  0  0  0  0  0
   29.5590   -0.9160   53.6810 C   0  0  0  0  0  1  0  0  0  0  0  0
   27.2450   -0.7550   53.1570 C   0  0  0  0  0  2  0  0  0  0  0  0
   26.2560    0.1970   53.7990 C   0  0  0  0  0  2  0  0  0  0  0  0
  1  9  2  0  0  0  0
  2  3  1  0  0  0  0
  2  1  1  0  0  0  0
  3 10  1  6  0  0  0
  3  7  1  0  0  0  0
  4  3  1  0  0  0  0
  4  5  2  0  0  0  0
  5  6  1  0  0  0  0
  7  6  2  0  0  0  0
  7  8  1  0  0  0  0
  9  8  1  0  0  0  0
  9 22  1  0  0  0  0
 11 10  1  0  0  0  0
 12 10  1  0  0  0  0
 12 18  1  0  0  0  0
 13 12  2  0  0  0  0
 14 13  1  0  0  0  0
 14 15  2  0  0  0  0
 15 17  1  0  0  0  0
 16 15  1  0  0  0  0
 17 18  2  0  0  0  0
 18 19  1  0  0  0  0
 20  1  1  0  0  0  0
 20 21  1  0  0  0  0
 22 23  1  0  0  0  0
 24 25  1  0  0  0  0
 24 23  1  0  0  0  0
 24 30  1  0  0  0  0
 25 26  1  0  0  0  0
 27 29  1  0  0  0  0
 27 26  1  0  0  0  0
 27 28  1  0  0  0  0
 29 30  1  0  0  0  0
M  END
>  <TORSDO>
F 6

$$$$
