C:\Qe-CaDD\Project\Data\Stage_6_Molecular_Dynamics\ligands_top\out_11301_EGFR_extracted.pdbqt
 OpenBabel01082506443D

 28 31  0  0  1  0  0  0  0  0999 V2000
   21.2160    0.2990   49.8320 C   0  0  0  0  0  1  0  0  0  0  0  0
   22.0140    1.5520   49.7320 C   0  0  1  0  0  3  0  0  0  0  0  0
   22.0720    2.2740   48.6230 C   0  0  0  0  0  3  0  0  0  0  0  0
   22.8130    3.5350   48.3600 C   0  0  0  0  0  3  0  0  0  0  0  0
   23.5320    3.9010   49.6060 C   0  0  0  0  0  0  0  0  0  0  0  0
   23.5470    3.2620   50.7650 C   0  0  0  0  0  3  0  0  0  0  0  0
   22.7730    2.0710   50.8170 N   0  0  0  0  0  0  0  0  0  0  0  0
   24.2880    5.1000   49.4920 N   0  0  0  0  0  0  0  0  0  0  0  0
   23.8220    5.9180   49.9850 H   0  0  0  0  0  0  0  0  0  0  0  0
   25.5110    5.5650   48.9070 C   0  0  0  0  0  0  0  0  0  0  0  0
   26.5190    4.7550   49.1460 C   0  0  0  0  0  3  0  0  0  0  0  0
   27.8830    4.9630   48.6820 C   0  0  0  0  0  3  0  0  0  0  0  0
   28.4370    6.0420   48.1690 C   0  0  0  0  0  0  0  0  0  0  0  0
   27.8500    7.3510   47.9120 C   0  0  0  0  0  3  0  0  0  0  0  0
   26.5490    7.5970   47.9370 C   0  0  0  0  0  3  0  0  0  0  0  0
   25.3150    6.8460   48.1800 C   0  0  0  0  0  2  0  0  0  0  0  0
   29.8440    5.9310   47.7970 C   0  0  0  0  0  3  0  0  0  0  0  0
   30.4860    4.8310   47.8350 O   0  0  0  0  0  0  0  0  0  0  0  0
   22.7610    1.3530   52.0430 C   0  0  0  0  0  0  0  0  0  0  0  0
   21.7110    0.9850   52.6890 N   0  0  0  0  0  2  0  0  0  0  0  0
   22.4870    0.3660   53.7340 C   0  0  0  0  0  2  0  0  0  0  0  0
   23.5900    0.7410   53.0750 C   0  0  0  0  0  0  0  0  0  0  0  0
   25.0450    0.6730   53.1670 C   0  0  0  0  0  0  0  0  0  0  0  0
   25.8810   -0.3230   52.7190 C   0  0  0  0  0  3  0  0  0  0  0  0
   27.2400   -0.2260   52.8900 C   0  0  0  0  0  3  0  0  0  0  0  0
   27.7810    0.8820   53.5160 C   0  0  0  0  0  3  0  0  0  0  0  0
   26.9810    1.8520   53.9540 N   0  0  0  0  0  0  0  0  0  0  0  0
   25.6390    1.7740   53.7950 C   0  0  0  0  0  3  0  0  0  0  0  0
  2  1  1  1  0  0  0
  2  7  1  0  0  0  0
  3  2  1  0  0  0  0
  4  3  2  0  0  0  0
  4  5  1  0  0  0  0
  5  6  2  0  0  0  0
  6  7  1  0  0  0  0
  7 19  1  0  0  0  0
  8  5  1  0  0  0  0
  8  9  1  0  0  0  0
 10 11  2  0  0  0  0
 10  8  1  0  0  0  0
 12 11  1  0  0  0  0
 13 12  2  0  0  0  0
 14 15  2  0  0  0  0
 14 13  1  0  0  0  0
 15 16  1  0  0  0  0
 16 10  1  0  0  0  0
 17 18  2  0  0  0  0
 17 13  1  0  0  0  0
 19 20  1  0  0  0  0
 19 22  2  0  0  0  0
 20 21  1  0  0  0  0
 22 23  1  0  0  0  0
 22 21  1  0  0  0  0
 23 28  1  0  0  0  0
 24 25  1  0  0  0  0
 24 23  2  0  0  0  0
 25 26  2  0  0  0  0
 26 27  1  0  0  0  0
 28 27  2  0  0  0  0
M  END
>  <TORSDO>
F 5

$$$$
