C:\Qe-CaDD\Project\Data\Stage_6_Molecular_Dynamics\ligands_top\out_22355_EGFR_extracted.pdbqt
 OpenBabel01082506443D

 27 28  0  0  0  0  0  0  0  0999 V2000
   20.7960   -1.0580   53.8260 C   0  0  0  0  0  1  0  0  0  0  0  0
   22.0450   -0.8410   54.2090 C   0  0  0  0  0  0  0  0  0  0  0  0
   22.8500   -0.0110   53.3190 C   0  0  0  0  0  3  0  0  0  0  0  0
   24.1590    0.1930   53.2810 C   0  0  0  0  0  0  0  0  0  0  0  0
   25.1350   -0.4100   54.1820 C   0  0  0  0  0  0  0  0  0  0  0  0
   24.9160   -1.1170   55.2420 N   0  0  0  0  0  0  0  0  0  0  0  0
   23.7150   -1.5420   55.8790 C   0  0  0  0  0  3  0  0  0  0  0  0
   22.4960   -1.4180   55.4290 N   0  0  0  0  0  2  0  0  0  0  0  0
   24.7870    1.0770   52.2950 C   0  0  0  0  0  2  0  0  0  0  0  0
   24.4710    2.4750   52.4720 N   0  0  0  0  0  0  0  0  0  0  0  0
   24.0740    3.0960   51.2700 C   0  0  0  0  0  0  0  0  0  0  0  0
   24.0230    2.4300   50.1790 O   0  0  0  0  0  0  0  0  0  0  0  0
   24.4870    3.0880   53.3250 H   0  0  0  0  0  0  0  0  0  0  0  0
   23.7070    4.4810   51.1770 C   0  0  0  0  0  0  0  0  0  0  0  0
   23.4110    5.6470   51.0850 C   0  0  0  0  0  0  0  0  0  0  0  0
   23.0750    7.0500   50.9760 C   0  0  0  0  0  2  0  0  0  0  0  0
   24.1510    7.9360   51.3770 N   0  0  0  0  0  0  0  0  0  0  0  0
   23.8310    8.7840   51.8840 H   0  0  0  0  0  0  0  0  0  0  0  0
   24.7830    8.3810   50.1400 C   0  0  0  0  0  2  0  0  0  0  0  0
   26.2390    7.9130   50.1000 C   0  0  0  0  0  1  0  0  0  0  0  0
   26.5360   -0.2800   53.9850 N   0  0  0  0  0  0  0  0  0  0  0  0
   27.0800   -1.4160   53.2910 C   0  0  0  0  0  2  0  0  0  0  0  0
   28.3940   -1.4140   53.0460 C   0  0  0  0  0  3  0  0  0  0  0  0
   29.3750   -0.3610   53.4100 C   0  0  0  0  0  3  0  0  0  0  0  0
   28.6610    0.7320   54.1130 C   0  0  0  0  0  0  0  0  0  0  0  0
   29.6970    2.0520   54.6070 Cl  0  0  0  0  0  0  0  0  0  0  0  0
   27.3700    0.7770   54.3790 C   0  0  0  0  0  3  0  0  0  0  0  0
  1  2  1  0  0  0  0
  2  8  1  0  0  0  0
  3  2  2  0  0  0  0
  4  3  1  0  0  0  0
  4  5  2  0  0  0  0
  5  6  1  0  0  0  0
  6  7  2  0  0  0  0
  8  7  1  0  0  0  0
  9 10  1  0  0  0  0
  9  4  1  0  0  0  0
 10 13  1  0  0  0  0
 11 10  1  0  0  0  0
 12 11  2  0  0  0  0
 14 11  1  0  0  0  0
 15 14  3  0  0  0  0
 16 15  1  0  0  0  0
 16 17  1  0  0  0  0
 17 18  1  0  0  0  0
 19 17  1  0  0  0  0
 20 19  1  0  0  0  0
 21  5  1  0  0  0  0
 21 27  1  0  0  0  0
 22 21  1  0  0  0  0
 23 22  1  0  0  0  0
 23 24  2  0  0  0  0
 24 25  1  0  0  0  0
 25 27  2  0  0  0  0
 25 26  1  0  0  0  0
M  END
>  <TORSDO>
F 7

$$$$
