C:\Qe-CaDD\Project\Data\Stage_6_Molecular_Dynamics\ligands_top\out_10835_EGFR_extracted.pdbqt
 OpenBabel01082506443D

 22 24  0  0  1  0  0  0  0  0999 V2000
   24.1860    4.0850   49.6510 C   0  0  0  0  0  0  0  0  0  0  0  0
   23.4400    3.2310   48.9700 C   0  0  0  0  0  3  0  0  0  0  0  0
   22.2100    3.1690   49.6090 C   0  0  2  0  0  0  0  0  0  0  0  0
   20.8890    3.2770   48.9520 N   0  0  0  0  0  2  0  0  0  0  0  0
   19.9860    3.8330   49.8170 C   0  0  0  0  0  3  0  0  0  0  0  0
   19.9640    4.3890   51.1560 N   0  0  0  0  0  0  0  0  0  0  0  0
   21.1500    4.4810   51.7520 C   0  0  0  0  0  2  0  0  0  0  0  0
   22.1230    4.0460   50.7420 C   0  0  0  0  0  0  0  0  0  0  0  0
   23.3730    4.5980   50.7460 C   0  0  0  0  0  0  0  0  0  0  0  0
   22.0640    1.7110   50.1220 N   0  0  0  0  0  0  0  0  0  0  0  0
   21.6010    0.9410   48.9500 C   0  0  0  0  0  1  0  0  0  0  0  0
   22.3150    1.0020   51.3130 C   0  0  0  0  0  0  0  0  0  0  0  0
   23.4720    0.9720   52.0450 C   0  0  0  0  0  3  0  0  0  0  0  0
   23.6840    0.3160   53.2340 C   0  0  0  0  0  3  0  0  0  0  0  0
   22.5790   -0.3590   53.6750 C   0  0  0  0  0  0  0  0  0  0  0  0
   22.6630   -1.2530   55.1770 Cl  0  0  0  0  0  0  0  0  0  0  0  0
   21.3840   -0.3780   52.9980 C   0  0  0  0  0  3  0  0  0  0  0  0
   21.2440    0.3030   51.8120 C   0  0  0  0  0  3  0  0  0  0  0  0
   25.4810    4.3110   49.2150 O   0  0  0  0  0  0  0  0  0  0  0  0
   26.6240    3.6470   49.7150 C   0  0  0  0  0  1  0  0  0  0  0  0
   24.0550    5.5380   51.5540 O   0  0  0  0  0  0  0  0  0  0  0  0
   24.0730    6.9040   51.1160 C   0  0  0  0  0  1  0  0  0  0  0  0
  1  9  1  0  0  0  0
  2  3  1  0  0  0  0
  2  1  2  0  0  0  0
  3 10  1  1  0  0  0
  3  8  1  0  0  0  0
  4  3  1  0  0  0  0
  4  5  1  0  0  0  0
  5  6  2  0  0  0  0
  6  7  1  0  0  0  0
  8  9  2  0  0  0  0
  8  7  1  0  0  0  0
  9 21  1  0  0  0  0
 10 12  1  0  0  0  0
 11 10  1  0  0  0  0
 12 18  2  0  0  0  0
 12 13  1  0  0  0  0
 13 14  2  0  0  0  0
 14 15  1  0  0  0  0
 15 16  1  0  0  0  0
 17 15  2  0  0  0  0
 18 17  1  0  0  0  0
 19  1  1  0  0  0  0
 19 20  1  0  0  0  0
 22 21  1  0  0  0  0
M  END
>  <TORSDO>
F 4

$$$$
