C:\Qe-CaDD\Project\Data\Stage_6_Molecular_Dynamics\ligands_top\out_13095_EGFR_extracted.pdbqt
 OpenBabel01082506443D

 22 25  0  0  1  0  0  0  0  0999 V2000
   26.8980    0.5340   52.1670 C   0  0  0  0  0  3  0  0  0  0  0  0
   26.0620    1.5110   52.3140 C   0  0  0  0  0  0  0  0  0  0  0  0
   25.0040    1.2050   53.3490 C   0  0  0  0  0  2  0  0  0  0  0  0
   23.6780    1.0410   52.5750 C   0  0  0  0  0  2  0  0  0  0  0  0
   23.3250    1.6870   51.4860 C   0  0  1  0  0  3  0  0  0  0  0  0
   23.5680    2.6560   50.4520 C   0  0  1  0  0  0  0  0  0  0  0  0
   23.9560    3.6610   49.6570 C   0  0  2  0  0  3  0  0  0  0  0  0
   25.0080    4.6270   50.2490 C   0  0  0  0  0  2  0  0  0  0  0  0
   25.1400    3.9480   51.5800 N   0  0  0  0  0  0  0  0  0  0  0  0
   25.7890    2.6910   51.5530 C   0  0  0  0  0  0  0  0  0  0  0  0
   26.2900    2.4770   50.4380 O   0  0  0  0  0  0  0  0  0  0  0  0
   22.9760    2.9020   48.8980 C   0  0  1  0  0  0  0  0  0  0  0  0
   23.0820    3.7440   47.7840 F   0  0  0  0  0  0  0  0  0  0  0  0
   22.3270    1.8670   49.2350 N   0  0  0  0  0  2  0  0  0  0  0  0
   22.4120    1.2040   50.4390 N   0  0  2  0  0  4  0  0  0  0  0  0
   25.0340    3.8610   52.5980 H   0  0  0  0  0  0  0  0  0  0  0  0
   21.8240    0.3160   50.6390 H   0  0  0  0  0  0  0  0  0  0  0  0
   26.8090   -0.6750   52.9040 C   0  0  0  0  0  0  0  0  0  0  0  0
   26.5520   -1.8050   53.3480 O   0  0  0  0  0  0  0  0  0  0  0  0
   27.6030   -0.6970   54.0330 O   0  0  0  0  0  0  0  0  0  0  0  0
   28.8580   -0.0960   54.1580 C   0  0  0  0  0  2  0  0  0  0  0  0
   29.9870   -0.9470   53.6480 C   0  0  0  0  0  1  0  0  0  0  0  0
  1  2  2  0  0  0  0
  1 18  1  0  0  0  0
  2  3  1  0  0  0  0
  4  3  1  0  0  0  0
  5  4  1  6  0  0  0
  6  5  1  0  0  0  0
  7  8  1  0  0  0  0
  7  6  1  0  0  0  0
  8  9  1  0  0  0  0
  9 16  1  0  0  0  0
 10  9  1  0  0  0  0
 10  2  1  0  0  0  0
 11 10  2  0  0  0  0
 12 14  1  0  0  0  0
 12  7  1  0  0  0  0
 12  6  1  0  0  0  0
 13 12  1  0  0  0  0
 14 15  1  0  0  0  0
 15  6  1  0  0  0  0
 15 17  1  0  0  0  0
 15  5  1  0  0  0  0
 18 19  2  0  0  0  0
 18 20  1  0  0  0  0
 20 21  1  0  0  0  0
 22 21  1  0  0  0  0
M  END
>  <TORSDO>
F 3

$$$$
