C:\Qe-CaDD\Project\Data\Stage_6_Molecular_Dynamics\ligands_top\out_17482_EGFR_extracted.pdbqt
 OpenBabel01082506443D

 33 37  0  0  1  0  0  0  0  0999 V2000
   19.6400    1.6760   51.9870 C   0  0  0  0  0  2  0  0  0  0  0  0
   20.4090    1.3300   52.9700 N   0  0  0  0  0  2  0  0  0  0  0  0
   21.4220    0.4500   52.6310 N   0  0  0  0  0  0  0  0  0  0  0  0
   21.1280    0.1300   51.2170 C   0  0  1  0  0  3  0  0  0  0  0  0
   19.5990    0.3120   51.3900 C   0  0  0  0  0  2  0  0  0  0  0  0
   22.5050   -0.0610   53.3990 C   0  0  0  0  0  0  0  0  0  0  0  0
   23.6990   -0.0240   53.3440 N   0  0  0  0  0  0  0  0  0  0  0  0
   24.5370   -0.5800   54.1790 C   0  0  0  0  0  0  0  0  0  0  0  0
   23.8420   -1.3180   55.2910 C   0  0  0  0  0  3  0  0  0  0  0  0
   22.1120   -1.0500   54.8880 S   0  0  0  0  0  0  0  0  0  0  0  0
   25.9810   -0.5010   54.0620 C   0  0  0  0  0  0  0  0  0  0  0  0
   26.7620    0.2080   54.9380 C   0  0  0  0  0  3  0  0  0  0  0  0
   28.1340    0.2810   54.8240 C   0  0  0  0  0  3  0  0  0  0  0  0
   28.8030   -0.3620   53.8110 C   0  0  0  0  0  3  0  0  0  0  0  0
   28.0270   -1.0780   52.9250 C   0  0  0  0  0  3  0  0  0  0  0  0
   26.6680   -1.1350   53.0590 C   0  0  0  0  0  3  0  0  0  0  0  0
   21.5740    1.2700   50.3770 C   0  0  0  0  0  0  0  0  0  0  0  0
   20.8710    1.7190   49.2520 C   0  0  0  0  0  3  0  0  0  0  0  0
   21.3990    2.7080   48.4110 C   0  0  0  0  0  3  0  0  0  0  0  0
   22.6450    3.2890   48.6500 C   0  0  0  0  0  0  0  0  0  0  0  0
   23.3440    2.8600   49.7460 C   0  0  0  0  0  0  0  0  0  0  0  0
   22.7690    1.9040   50.5240 C   0  0  0  0  0  3  0  0  0  0  0  0
   23.2310    4.2670   47.8650 O   0  0  0  0  0  0  0  0  0  0  0  0
   23.9940    4.7830   48.3280 H   0  0  0  0  0  0  0  0  0  0  0  0
   24.7710    3.2070   50.0760 C   0  0  2  0  0  3  0  0  0  0  0  0
   24.8520    3.1490   51.6100 C   0  0  0  0  0  2  0  0  0  0  0  0
   23.8670    3.5500   52.4740 C   0  0  0  0  0  3  0  0  0  0  0  0
   22.8020    4.6190   52.5270 C   0  0  0  0  0  3  0  0  0  0  0  0
   22.6280    5.5740   51.5670 C   0  0  0  0  0  2  0  0  0  0  0  0
   23.7710    6.4610   51.1180 C   0  0  0  0  0  3  0  0  0  0  0  0
   24.7590    5.8650   50.3660 C   0  0  0  0  0  3  0  0  0  0  0  0
   25.0640    4.5990   49.6800 N   0  0  0  0  0  0  0  0  0  0  0  0
   25.5530    4.7780   48.7980 H   0  0  0  0  0  0  0  0  0  0  0  0
  1  2  1  0  0  0  0
  3  2  1  0  0  0  0
  3  6  1  0  0  0  0
  4 17  1  6  0  0  0
  4  5  1  0  0  0  0
  4  3  1  0  0  0  0
  5  1  1  0  0  0  0
  6 10  1  0  0  0  0
  7  6  2  0  0  0  0
  7  8  1  0  0  0  0
  8  9  2  0  0  0  0
 10  9  1  0  0  0  0
 11  8  1  0  0  0  0
 11 12  1  0  0  0  0
 13 12  2  0  0  0  0
 14 13  1  0  0  0  0
 15 16  1  0  0  0  0
 15 14  2  0  0  0  0
 16 11  2  0  0  0  0
 17 22  1  0  0  0  0
 18 17  2  0  0  0  0
 19 20  2  0  0  0  0
 19 18  1  0  0  0  0
 20 21  1  0  0  0  0
 21 22  2  0  0  0  0
 23 24  1  0  0  0  0
 23 20  1  0  0  0  0
 25 21  1  1  0  0  0
 25 26  1  0  0  0  0
 26 27  1  0  0  0  0
 27 28  2  0  0  0  0
 29 28  1  0  0  0  0
 30 29  1  0  0  0  0
 31 30  2  0  0  0  0
 32 25  1  0  0  0  0
 32 31  1  0  0  0  0
 33 32  1  0  0  0  0
M  END
>  <TORSDO>
F 6

$$$$
