C:\Qe-CaDD\Project\Data\Stage_6_Molecular_Dynamics\ligands_top\out_20868_EGFR_extracted.pdbqt
 OpenBabel01082506443D

 23 25  0  0  1  0  0  0  0  0999 V2000
   26.7420    0.8640   54.1170 C   0  0  0  0  0  0  0  0  0  0  0  0
   26.1510    1.9590   53.6740 C   0  0  0  0  0  3  0  0  0  0  0  0
   24.8910    2.0820   52.8900 C   0  0  0  0  0  2  0  0  0  0  0  0
   24.2000    0.7830   52.8400 N   0  0  0  0  0  0  0  0  0  0  0  0
   25.1930   -0.2670   52.5590 C   0  0  0  0  0  2  0  0  0  0  0  0
   26.0480   -0.4090   53.7810 C   0  0  1  0  0  3  0  0  0  0  0  0
   22.8210    0.4800   53.0190 C   0  0  0  0  0  0  0  0  0  0  0  0
   22.5660    0.0560   54.2900 N   0  0  0  0  0  0  0  0  0  0  0  0
   21.3010   -0.2830   54.6520 C   0  0  0  0  0  3  0  0  0  0  0  0
   20.3030   -0.2000   53.7550 N   0  0  0  0  0  0  0  0  0  0  0  0
   20.5050    0.2150   52.4880 C   0  0  0  0  0  0  0  0  0  0  0  0
   19.5410    0.3300   51.5110 C   0  0  0  0  0  3  0  0  0  0  0  0
   21.7850    0.5610   52.1120 C   0  0  0  0  0  0  0  0  0  0  0  0
   19.8760    0.7690   50.2420 C   0  0  0  0  0  3  0  0  0  0  0  0
   21.1820    1.1130   49.8920 C   0  0  0  0  0  0  0  0  0  0  0  0
   21.5690    1.6650   48.2770 Cl  0  0  0  0  0  0  0  0  0  0  0  0
   22.1630    1.0030   50.8620 C   0  0  0  0  0  3  0  0  0  0  0  0
   26.9400   -1.4420   53.7360 O   0  0  0  0  0  0  0  0  0  0  0  0
   27.0060   -2.1640   52.5780 C   0  0  0  0  0  2  0  0  0  0  0  0
   28.1070   -3.0390   52.7250 O   0  0  0  0  0  0  0  0  0  0  0  0
   29.2130   -2.3760   53.2340 C   0  0  0  0  0  1  0  0  0  0  0  0
   27.9930    0.7920   54.8930 C   0  0  0  0  0  2  0  0  0  0  0  0
   29.1800    1.3310   54.1700 C   0  0  0  0  0  1  0  0  0  0  0  0
  1 22  1  0  0  0  0
  2  1  2  0  0  0  0
  3  2  1  0  0  0  0
  4  3  1  0  0  0  0
  4  7  1  0  0  0  0
  5  4  1  0  0  0  0
  5  6  1  0  0  0  0
  6 18  1  6  0  0  0
  6  1  1  0  0  0  0
  7  8  1  0  0  0  0
  8  9  2  0  0  0  0
 10  9  1  0  0  0  0
 11 10  2  0  0  0  0
 12 11  1  0  0  0  0
 13 11  1  0  0  0  0
 13  7  2  0  0  0  0
 14 12  2  0  0  0  0
 15 14  1  0  0  0  0
 15 17  2  0  0  0  0
 16 15  1  0  0  0  0
 17 13  1  0  0  0  0
 19 20  1  0  0  0  0
 19 18  1  0  0  0  0
 20 21  1  0  0  0  0
 23 22  1  0  0  0  0
M  END
>  <TORSDO>
F 5

$$$$
