C:\Qe-CaDD\Project\Data\Stage_6_Molecular_Dynamics\ligands_top\out_11581_EGFR_extracted.pdbqt
 OpenBabel01082506443D

 28 32  0  0  1  0  0  0  0  0999 V2000
   25.5010    3.2110   50.9190 C   0  0  0  0  0  3  0  0  0  0  0  0
   24.4710    3.3620   51.6810 C   0  0  0  0  0  2  0  0  0  0  0  0
   23.6480    3.8290   50.4890 C   0  0  1  0  0  0  0  0  0  0  0  0
   24.3870    3.7650   49.2040 C   0  0  1  0  0  3  0  0  0  0  0  0
   25.6580    4.5820   49.3580 C   0  0  0  0  0  2  0  0  0  0  0  0
   24.8780    4.4730   50.3760 C   0  0  2  0  0  0  0  0  0  0  0  0
   23.7530    5.2170   50.7540 N   0  0  0  0  0  0  0  0  0  0  0  0
   23.5640    6.1710   50.9960 H   0  0  0  0  0  0  0  0  0  0  0  0
   22.3460    3.2870   50.4840 N   0  0  0  0  0  0  0  0  0  0  0  0
   21.7990    3.7390   51.2480 H   0  0  0  0  0  0  0  0  0  0  0  0
   22.4420    1.8700   50.8280 C   0  0  2  0  0  3  0  0  0  0  0  0
   21.5800    0.8790   50.1530 C   0  0  0  0  0  2  0  0  0  0  0  0
   21.2900    1.2340   51.5570 C   0  0  1  0  0  3  0  0  0  0  0  0
   21.5900    0.2790   52.6560 C   0  0  0  0  0  0  0  0  0  0  0  0
   20.6140   -0.5130   53.2220 C   0  0  0  0  0  3  0  0  0  0  0  0
   20.8530   -1.4090   54.2400 C   0  0  0  0  0  3  0  0  0  0  0  0
   22.1530   -1.5390   54.7400 C   0  0  0  0  0  3  0  0  0  0  0  0
   23.1620   -0.7640   54.2000 C   0  0  0  0  0  3  0  0  0  0  0  0
   22.8780    0.1250   53.1780 C   0  0  0  0  0  3  0  0  0  0  0  0
   26.3750    2.1080   51.1110 O   0  0  0  0  0  0  0  0  0  0  0  0
   27.2320    2.2610   52.2430 C   0  0  0  0  0  2  0  0  0  0  0  0
   27.6730    1.0240   52.7630 N   0  0  0  0  0  0  0  0  0  0  0  0
   26.6520    0.2090   53.3640 C   0  0  1  0  0  3  0  0  0  0  0  0
   26.5530   -1.0790   52.5570 C   0  0  0  0  0  1  0  0  0  0  0  0
   26.7920   -0.0350   54.8220 C   0  0  0  0  0  2  0  0  0  0  0  0
   28.0600   -0.1960   55.3040 O   0  0  0  0  0  0  0  0  0  0  0  0
   29.0440   -0.1830   54.3310 C   0  0  0  0  0  2  0  0  0  0  0  0
   28.8940    1.0700   53.5080 C   0  0  0  0  0  2  0  0  0  0  0  0
  1 20  1  0  0  0  0
  1  2  2  0  0  0  0
  3  9  1  1  0  0  0
  3  7  1  0  0  0  0
  4  5  1  6  0  0  0
  4  6  1  0  0  0  0
  4  3  1  0  0  0  0
  6  5  1  1  0  0  0
  6  3  1  0  0  0  0
  6  7  1  0  0  0  0
  7  8  1  0  0  0  0
  9 10  1  0  0  0  0
 11  9  1  6  0  0  0
 11 13  1  0  0  0  0
 12 11  1  0  0  0  0
 12 13  1  0  0  0  0
 13 14  1  1  0  0  0
 14 19  2  0  0  0  0
 14 15  1  0  0  0  0
 15 16  2  0  0  0  0
 16 17  1  0  0  0  0
 18 17  2  0  0  0  0
 19 18  1  0  0  0  0
 20 21  1  0  0  0  0
 21 22  1  0  0  0  0
 22 23  1  0  0  0  0
 22 28  1  0  0  0  0
 23 24  1  6  0  0  0
 23 25  1  0  0  0  0
 25 26  1  0  0  0  0
 27 26  1  0  0  0  0
 28 27  1  0  0  0  0
M  END
>  <TORSDO>
F 6

$$$$
