C:\Qe-CaDD\Project\Data\Stage_6_Molecular_Dynamics\ligands_top\out_21915_EGFR_extracted.pdbqt
 OpenBabel01082506443D

 27 28  0  0  0  0  0  0  0  0999 V2000
   34.6020    6.5910   47.6000 N   0  0  0  0  0  0  0  0  0  0  0  0
   33.4470    6.5200   47.6940 C   0  0  0  0  0  0  0  0  0  0  0  0
   32.0170    6.4530   47.8170 C   0  0  0  0  0  0  0  0  0  0  0  0
   31.3210    7.5870   47.4430 C   0  0  0  0  0  3  0  0  0  0  0  0
   29.9440    7.6180   47.5250 C   0  0  0  0  0  3  0  0  0  0  0  0
   29.3160    6.4820   47.9900 C   0  0  0  0  0  0  0  0  0  0  0  0
   30.0070    5.3860   48.3500 N   0  0  0  0  0  0  0  0  0  0  0  0
   31.3530    5.3260   48.2810 C   0  0  0  0  0  3  0  0  0  0  0  0
   27.8620    6.4520   48.1000 C   0  0  0  0  0  3  0  0  0  0  0  0
   27.2020    5.5680   48.8310 C   0  0  0  0  0  3  0  0  0  0  0  0
   25.7090    5.5310   48.9490 C   0  0  0  0  0  2  0  0  0  0  0  0
   25.3590    4.1670   49.3730 N   0  0  0  0  0  0  0  0  0  0  0  0
   25.9840    3.4720   48.9140 H   0  0  0  0  0  0  0  0  0  0  0  0
   25.4510    4.0260   50.7450 N   0  0  0  0  0  0  0  0  0  0  0  0
   26.2580    2.9180   51.1290 C   0  0  0  0  0  0  0  0  0  0  0  0
   26.8030    2.1810   50.2550 O   0  0  0  0  0  0  0  0  0  0  0  0
   26.5000    2.5730   52.5050 N   0  0  0  0  0  0  0  0  0  0  0  0
   26.0660    3.1590   53.2560 H   0  0  0  0  0  0  0  0  0  0  0  0
   25.0530    4.5620   51.5650 H   0  0  0  0  0  0  0  0  0  0  0  0
   27.3150    1.4530   52.8520 C   0  0  0  0  0  0  0  0  0  0  0  0
   28.4770    1.8720   53.4990 C   0  0  0  0  0  3  0  0  0  0  0  0
   29.4240    0.9590   53.9310 C   0  0  0  0  0  3  0  0  0  0  0  0
   29.1990   -0.3840   53.7130 C   0  0  0  0  0  0  0  0  0  0  0  0
   30.1060   -1.3110   54.1230 F   0  0  0  0  0  0  0  0  0  0  0  0
   28.0510   -0.7920   53.0740 C   0  0  0  0  0  0  0  0  0  0  0  0
   27.7000   -2.4920   52.7610 Cl  0  0  0  0  0  0  0  0  0  0  0  0
   27.1080    0.0960   52.6420 C   0  0  0  0  0  3  0  0  0  0  0  0
  1  2  3  0  0  0  0
  2  3  1  0  0  0  0
  3  8  1  0  0  0  0
  4  5  1  0  0  0  0
  4  3  2  0  0  0  0
  5  6  2  0  0  0  0
  6  9  1  0  0  0  0
  6  7  1  0  0  0  0
  8  7  2  0  0  0  0
  9 10  2  0  0  0  0
 10 11  1  0  0  0  0
 11 12  1  0  0  0  0
 12 14  1  0  0  0  0
 13 12  1  0  0  0  0
 14 15  1  0  0  0  0
 14 19  1  0  0  0  0
 15 17  1  0  0  0  0
 16 15  2  0  0  0  0
 17 20  1  0  0  0  0
 17 18  1  0  0  0  0
 20 21  1  0  0  0  0
 21 22  2  0  0  0  0
 23 22  1  0  0  0  0
 23 24  1  0  0  0  0
 25 23  2  0  0  0  0
 26 25  1  0  0  0  0
 27 20  2  0  0  0  0
 27 25  1  0  0  0  0
M  END
>  <TORSDO>
F 5

$$$$
