C:\Qe-CaDD\Project\Data\Stage_6_Molecular_Dynamics\ligands_top\out_18477_EGFR_extracted.pdbqt
 OpenBabel01082506443D

 29 31  0  0  1  0  0  0  0  0999 V2000
   27.0710    1.6480   51.7770 C   0  0  0  0  0  0  0  0  0  0  0  0
   27.5360    2.3160   52.8230 N   0  0  0  0  0  0  0  0  0  0  0  0
   27.8620    1.5930   54.0310 C   0  0  0  0  0  2  0  0  0  0  0  0
   26.7000    1.1650   54.1930 N   0  0  0  0  0  2  0  0  0  0  0  0
   26.0530    0.3480   55.1370 C   0  0  0  0  0  2  0  0  0  0  0  0
   25.7100   -0.9400   54.5190 N   0  0  0  0  0  0  0  0  0  0  0  0
   24.9160   -0.4760   53.4070 C   0  0  0  0  0  0  0  0  0  0  0  0
   23.4880   -0.5510   53.5500 C   0  0  0  0  0  0  0  0  0  0  0  0
   22.5580   -0.1630   52.6150 C   0  0  0  0  0  3  0  0  0  0  0  0
   21.1900   -0.2440   52.7720 C   0  0  0  0  0  3  0  0  0  0  0  0
   20.6740   -0.7390   53.9250 C   0  0  0  0  0  0  0  0  0  0  0  0
   21.5560   -1.1450   54.9030 C   0  0  0  0  0  3  0  0  0  0  0  0
   22.9000   -1.0490   54.7070 C   0  0  0  0  0  3  0  0  0  0  0  0
   25.4510    0.0020   52.2960 C   0  0  0  0  0  3  0  0  0  0  0  0
   26.8780    0.1670   51.9400 C   0  0  0  0  0  2  0  0  0  0  0  0
   25.6370   -1.9590   54.3210 H   0  0  0  0  0  0  0  0  0  0  0  0
   26.7840    2.4370   50.6530 N   0  0  0  0  0  0  0  0  0  0  0  0
   27.3210    2.1000   49.7900 H   0  0  0  0  0  0  0  0  0  0  0  0
   25.9200    3.5600   50.5890 C   0  0  1  0  0  3  0  0  0  0  0  0
   26.2950    4.4100   49.3950 C   0  0  0  0  0  2  0  0  0  0  0  0
   25.8080    5.8360   49.5400 C   0  0  0  0  0  1  0  0  0  0  0  0
   24.5000    3.3630   50.8010 C   0  0  0  0  0  0  0  0  0  0  0  0
   23.6080    2.8570   49.8800 C   0  0  0  0  0  3  0  0  0  0  0  0
   22.2560    2.6910   50.0880 C   0  0  0  0  0  3  0  0  0  0  0  0
   21.7260    3.0480   51.2930 C   0  0  0  0  0  3  0  0  0  0  0  0
   22.5590    3.5620   52.2660 C   0  0  0  0  0  3  0  0  0  0  0  0
   23.9050    3.7060   52.0040 C   0  0  0  0  0  3  0  0  0  0  0  0
   19.3170   -0.8430   54.1370 O   0  0  0  0  0  0  0  0  0  0  0  0
   18.7350   -1.2090   53.4070 H   0  0  0  0  0  0  0  0  0  0  0  0
  1 15  1  0  0  0  0
  1  2  2  0  0  0  0
  2  3  1  0  0  0  0
  3  4  1  0  0  0  0
  4  5  1  0  0  0  0
  6  5  1  0  0  0  0
  7  8  1  0  0  0  0
  7  6  1  0  0  0  0
  8 13  1  0  0  0  0
  9 10  1  0  0  0  0
  9  8  2  0  0  0  0
 10 11  2  0  0  0  0
 11 28  1  0  0  0  0
 11 12  1  0  0  0  0
 13 12  2  0  0  0  0
 14  7  2  0  0  0  0
 15 14  1  0  0  0  0
 16  6  1  0  0  0  0
 17  1  1  0  0  0  0
 18 17  1  0  0  0  0
 19 20  1  6  0  0  0
 19 17  1  0  0  0  0
 19 22  1  0  0  0  0
 20 21  1  0  0  0  0
 22 27  1  0  0  0  0
 23 24  1  0  0  0  0
 23 22  2  0  0  0  0
 24 25  2  0  0  0  0
 25 26  1  0  0  0  0
 27 26  2  0  0  0  0
 29 28  1  0  0  0  0
M  END
>  <TORSDO>
F 5

$$$$
