C:\Qe-CaDD\Project\Data\Stage_6_Molecular_Dynamics\ligands_top\out_22925_EGFR_extracted.pdbqt
 OpenBabel01082506443D

 28 30  0  0  0  0  0  0  0  0999 V2000
   21.7430    0.6550   51.3510 C   0  0  0  0  0  0  0  0  0  0  0  0
   22.7510    0.2950   52.1340 C   0  0  0  0  0  3  0  0  0  0  0  0
   22.8520   -0.3880   53.3970 C   0  0  0  0  0  0  0  0  0  0  0  0
   21.9530   -1.0280   54.2220 C   0  0  0  0  0  0  0  0  0  0  0  0
   22.4250   -1.5620   55.3360 N   0  0  0  0  0  0  0  0  0  0  0  0
   23.7230   -1.4840   55.6510 C   0  0  0  0  0  3  0  0  0  0  0  0
   24.5710   -0.8540   54.8290 N   0  0  0  0  0  0  0  0  0  0  0  0
   24.1920   -0.2890   53.6890 C   0  0  0  0  0  0  0  0  0  0  0  0
   20.4980   -1.2550   54.1200 C   0  0  0  0  0  3  0  0  0  0  0  0
   19.5080   -0.7280   53.3980 C   0  0  0  0  0  3  0  0  0  0  0  0
   19.6130    0.2820   52.4520 O   0  0  0  0  0  0  0  0  0  0  0  0
   20.2800    0.5970   51.2740 C   0  0  0  0  0  2  0  0  0  0  0  0
   25.1890    0.3390   52.9010 N   0  0  0  0  0  0  0  0  0  0  0  0
   25.3830    0.9540   52.0940 H   0  0  0  0  0  0  0  0  0  0  0  0
   26.5710    0.1610   53.2220 C   0  0  0  0  0  0  0  0  0  0  0  0
   27.0770   -1.0840   52.8450 C   0  0  0  0  0  3  0  0  0  0  0  0
   28.3950   -1.4290   53.0450 C   0  0  0  0  0  3  0  0  0  0  0  0
   29.2760   -0.5330   53.6400 C   0  0  0  0  0  0  0  0  0  0  0  0
   30.5840   -0.7350   53.8950 F   0  0  0  0  0  0  0  0  0  0  0  0
   28.8070    0.7030   54.0240 C   0  0  0  0  0  0  0  0  0  0  0  0
   29.7200    1.9930   54.7870 Cl  0  0  0  0  0  0  0  0  0  0  0  0
   27.4890    1.0360   53.8180 C   0  0  0  0  0  3  0  0  0  0  0  0
   22.1700    1.3270   50.1710 N   0  0  0  0  0  0  0  0  0  0  0  0
   22.4090    2.7060   49.9950 C   0  0  0  0  0  0  0  0  0  0  0  0
   22.2510    3.5220   50.9380 O   0  0  0  0  0  0  0  0  0  0  0  0
   22.2660    0.5450   49.4640 H   0  0  0  0  0  0  0  0  0  0  0  0
   22.8460    2.9800   48.5970 C   0  0  0  0  0  2  0  0  0  0  0  0
   22.3560    1.9490   47.6380 C   0  0  0  0  0  1  0  0  0  0  0  0
  1  2  2  0  0  0  0
  2  3  1  0  0  0  0
  3  8  2  0  0  0  0
  3  4  1  0  0  0  0
  4  5  2  0  0  0  0
  5  6  1  0  0  0  0
  7  6  2  0  0  0  0
  8  7  1  0  0  0  0
  9  4  1  0  0  0  0
 10  9  2  0  0  0  0
 11 10  1  0  0  0  0
 12  1  1  0  0  0  0
 12 11  1  0  0  0  0
 13 15  1  0  0  0  0
 13  8  1  0  0  0  0
 14 13  1  0  0  0  0
 15 22  1  0  0  0  0
 16 17  1  0  0  0  0
 16 15  2  0  0  0  0
 17 18  2  0  0  0  0
 18 19  1  0  0  0  0
 18 20  1  0  0  0  0
 20 21  1  0  0  0  0
 22 20  2  0  0  0  0
 23  1  1  0  0  0  0
 24 23  1  0  0  0  0
 24 25  2  0  0  0  0
 26 23  1  0  0  0  0
 27 24  1  0  0  0  0
 28 27  1  0  0  0  0
M  END
>  <TORSDO>
F 4

$$$$
