C:\Qe-CaDD\Project\Data\Stage_6_Molecular_Dynamics\ligands_top\out_12972_EGFR_extracted.pdbqt
 OpenBabel01082506443D

 24 25  0  0  1  0  0  0  0  0999 V2000
   25.8480    1.1990   53.7020 C   0  0  1  0  0  3  0  0  0  0  0  0
   26.7090    2.0360   52.8200 C   0  0  0  0  0  2  0  0  0  0  0  0
   26.0180    2.8360   51.8920 N   0  0  0  0  0  0  0  0  0  0  0  0
   24.8940    3.3510   51.7730 C   0  0  0  0  0  0  0  0  0  0  0  0
   23.5370    3.5130   52.4050 C   0  0  0  0  0  2  0  0  0  0  0  0
   22.5100    2.7540   51.7090 N   0  0  0  0  0  0  0  0  0  0  0  0
   22.6600    1.4440   51.6970 C   0  0  0  0  0  3  0  0  0  0  0  0
   23.8270    0.7560   52.3680 C   0  0  0  0  0  2  0  0  0  0  0  0
   24.8970    0.3720   53.0080 N   0  0  0  0  0  2  0  0  0  0  0  0
   25.0380    4.0030   50.5150 N   0  0  0  0  0  0  0  0  0  0  0  0
   25.7430    3.2600   49.4560 C   0  0  0  0  0  2  0  0  0  0  0  0
   26.9150    4.1530   49.1220 C   0  0  0  0  0  2  0  0  0  0  0  0
   26.5790    5.4250   48.8480 C   0  0  1  0  0  3  0  0  0  0  0  0
   27.6830    6.3560   48.5120 C   0  0  0  0  0  1  0  0  0  0  0  0
   25.1400    5.8070   48.8980 C   0  0  0  0  0  2  0  0  0  0  0  0
   24.5500    5.3320   50.2060 C   0  0  2  0  0  3  0  0  0  0  0  0
   24.8420    6.3060   51.2130 N   0  0  0  0  0  0  0  0  0  0  0  0
   24.9790    7.2310   50.7080 H   0  0  0  0  0  0  0  0  0  0  0  0
   25.7640    6.0670   51.6530 H   0  0  0  0  0  0  0  0  0  0  0  0
   26.5700    0.3070   54.6320 C   0  0  0  0  0  0  0  0  0  0  0  0
   26.2460   -0.5000   55.5390 O   0  0  0  0  0  0  0  0  0  0  0  0
   28.0040    0.4160   54.4150 C   0  0  0  0  0  2  0  0  0  0  0  0
   28.5630   -0.6780   53.8820 C   0  0  0  0  0  2  0  0  0  0  0  0
   30.0270   -0.7970   53.5700 C   0  0  0  0  0  1  0  0  0  0  0  0
  1 20  1  6  0  0  0
  2  1  1  0  0  0  0
  3  2  1  0  0  0  0
  4  3  2  0  0  0  0
  4  5  1  0  0  0  0
  6  5  1  0  0  0  0
  7  6  2  0  0  0  0
  7  8  1  0  0  0  0
  8  9  1  0  0  0  0
  9  1  1  0  0  0  0
 10  4  1  0  0  0  0
 11 10  1  0  0  0  0
 12 11  1  0  0  0  0
 13 14  1  6  0  0  0
 13 15  1  0  0  0  0
 13 12  1  0  0  0  0
 15 16  1  0  0  0  0
 16 10  1  0  0  0  0
 16 17  1  1  0  0  0
 17 19  1  0  0  0  0
 18 17  1  0  0  0  0
 20 21  2  0  0  0  0
 22 20  1  0  0  0  0
 23 22  1  0  0  0  0
 24 23  1  0  0  0  0
M  END
>  <TORSDO>
F 4

$$$$
