C:\Qe-CaDD\Project\Data\Stage_6_Molecular_Dynamics\ligands_top\out_11673_EGFR_extracted.pdbqt
 OpenBabel01082506443D

 30 32  0  0  0  0  0  0  0  0999 V2000
   29.7850   -0.8530   53.7600 C   0  0  0  0  0  3  0  0  0  0  0  0
   28.7280   -1.2370   53.2850 C   0  0  0  0  0  0  0  0  0  0  0  0
   27.4600   -1.7080   52.6990 C   0  0  0  0  0  2  0  0  0  0  0  0
   26.3490   -0.9900   53.1690 O   0  0  0  0  0  0  0  0  0  0  0  0
   26.0670    0.2490   52.5940 C   0  0  0  0  0  0  0  0  0  0  0  0
   26.8010    0.8990   51.6200 C   0  0  0  0  0  3  0  0  0  0  0  0
   26.2300    2.0980   51.2720 C   0  0  0  0  0  0  0  0  0  0  0  0
   26.8220    2.8340   50.3150 N   0  0  0  0  0  0  0  0  0  0  0  0
   25.0740    2.5620   51.8430 C   0  0  0  0  0  0  0  0  0  0  0  0
   26.2850    4.0050   49.9240 C   0  0  0  0  0  3  0  0  0  0  0  0
   25.1340    4.4830   50.4750 N   0  0  0  0  0  0  0  0  0  0  0  0
   24.5370    3.7570   51.4310 C   0  0  0  0  0  0  0  0  0  0  0  0
   23.3230    4.3020   51.8990 N   0  0  0  0  0  0  0  0  0  0  0  0
   22.2660    3.4680   51.7460 C   0  0  0  0  0  0  0  0  0  0  0  0
   23.2640    5.2530   52.3150 H   0  0  0  0  0  0  0  0  0  0  0  0
   21.3620    2.7760   51.6280 C   0  0  0  0  0  0  0  0  0  0  0  0
   20.2730    1.9620   51.5050 C   0  0  0  0  0  2  0  0  0  0  0  0
   19.8260    0.8730   52.0180 C   0  0  0  0  0  0  0  0  0  0  0  0
   19.9900   -0.2000   52.9230 C   0  0  0  0  0  0  0  0  0  0  0  0
   18.6190    0.6060   51.4130 F   0  0  0  0  0  0  0  0  0  0  0  0
   20.4660   -0.9920   53.8160 C   0  0  0  0  0  0  0  0  0  0  0  0
   18.8300   -1.3630   53.5260 Cl  0  0  0  0  0  0  0  0  0  0  0  0
   21.4990   -1.5010   54.6590 C   0  0  0  0  0  0  0  0  0  0  0  0
   22.6150   -1.7380   55.2670 C   0  0  0  0  0  3  0  0  0  0  0  0
   23.8830   -1.1200   55.0750 C   0  0  0  0  0  0  0  0  0  0  0  0
   24.3820   -0.2230   54.1440 N   0  0  0  0  0  0  0  0  0  0  0  0
   24.9910   -1.1140   55.6290 O   0  0  0  0  0  0  0  0  0  0  0  0
   24.8990    0.7030   53.1840 C   0  0  0  0  0  0  0  0  0  0  0  0
   23.6870   -0.3220   53.4100 H   0  0  0  0  0  0  0  0  0  0  0  0
   24.3530    1.9270   52.8040 C   0  0  0  0  0  3  0  0  0  0  0  0
  2  1  3  0  0  0  0
  3  4  1  0  0  0  0
  3  2  1  0  0  0  0
  5  4  1  0  0  0  0
  5 28  1  0  0  0  0
  6  5  2  0  0  0  0
  7  6  1  0  0  0  0
  7  9  1  0  0  0  0
  8  7  2  0  0  0  0
  9 30  1  0  0  0  0
 10  8  1  0  0  0  0
 10 11  2  0  0  0  0
 11 12  1  0  0  0  0
 12  9  2  0  0  0  0
 12 13  1  0  0  0  0
 13 15  1  0  0  0  0
 14 13  1  0  0  0  0
 16 14  3  0  0  0  0
 17 16  1  0  0  0  0
 17 18  1  0  0  0  0
 18 19  2  0  0  0  0
 19 21  2  0  0  0  0
 20 18  1  0  0  0  0
 21 23  2  0  0  0  0
 22 21  1  0  0  0  0
 23 24  2  0  0  0  0
 25 24  1  0  0  0  0
 25 27  2  0  0  0  0
 26 25  1  0  0  0  0
 28 26  1  0  0  0  0
 29 26  1  0  0  0  0
 30 28  2  0  0  0  0
M  END
>  <TORSDO>
F 2

$$$$
