C:\Qe-CaDD\Project\Data\Stage_6_Molecular_Dynamics\ligands_top\out_10558_EGFR_extracted.pdbqt
 OpenBabel01082506443D

 22 24  0  0  1  0  0  0  0  0999 V2000
   23.8030    5.0840   52.4370 O   0  0  0  0  0  0  0  0  0  0  0  0
   23.1180    4.3940   51.6610 C   0  0  0  0  0  0  0  0  0  0  0  0
   21.6790    4.2890   52.1980 C   0  0  0  0  0  2  0  0  0  0  0  0
   21.0210    3.4710   51.5430 O   0  0  0  0  0  0  0  0  0  0  0  0
   20.3550    2.6430   50.8800 C   0  0  0  0  0  2  0  0  0  0  0  0
   21.2420    1.5570   50.3230 C   0  0  0  0  0  0  0  0  0  0  0  0
   21.5190    1.2320   49.0930 C   0  0  0  0  0  3  0  0  0  0  0  0
   20.8820    2.0630   48.0400 C   0  0  0  0  0  2  0  0  0  0  0  0
   21.9980    2.8940   47.3710 C   0  0  0  0  0  2  0  0  0  0  0  0
   22.7520    3.6840   48.4420 C   0  0  0  0  0  3  0  0  0  0  0  0
   23.2980    3.2730   49.4980 N   0  0  0  0  0  0  0  0  0  0  0  0
   24.0110    3.9620   50.5200 C   0  0  2  0  0  3  0  0  0  0  0  0
   25.0040    2.9490   51.0630 C   0  0  0  0  0  0  0  0  0  0  0  0
   26.3410    2.6310   51.0580 C   0  0  0  0  0  3  0  0  0  0  0  0
   26.7330    1.4770   51.6860 C   0  0  0  0  0  3  0  0  0  0  0  0
   25.8780    0.6110   52.3220 C   0  0  0  0  0  0  0  0  0  0  0  0
   26.4800   -0.9610   53.1630 Br  0  0  0  0  0  0  0  0  0  0  0  0
   24.5270    0.8260   52.3920 C   0  0  0  0  0  0  0  0  0  0  0  0
   24.2700    1.9980   51.7380 C   0  0  0  0  0  3  0  0  0  0  0  0
   23.4170    0.0210   52.9480 C   0  0  0  0  0  2  0  0  0  0  0  0
   22.0700    0.5790   52.4480 C   0  0  0  0  0  2  0  0  0  0  0  0
   21.9860    0.6290   51.0600 O   0  0  0  0  0  0  0  0  0  0  0  0
  2  3  1  0  0  0  0
  2  1  2  0  0  0  0
  4  3  1  0  0  0  0
  5  4  1  0  0  0  0
  6  5  1  0  0  0  0
  6 22  1  0  0  0  0
  7  6  2  0  0  0  0
  8  7  1  0  0  0  0
  9  8  1  0  0  0  0
  9 10  1  0  0  0  0
 10 11  2  0  0  0  0
 12 11  1  6  0  0  0
 12 13  1  0  0  0  0
 12  2  1  0  0  0  0
 13 19  1  0  0  0  0
 14 13  2  0  0  0  0
 14 15  1  0  0  0  0
 15 16  2  0  0  0  0
 16 18  1  0  0  0  0
 16 17  1  0  0  0  0
 18 20  1  0  0  0  0
 19 18  2  0  0  0  0
 21 20  1  0  0  0  0
 22 21  1  0  0  0  0
M  END
>  <TORSDO>
F 0

$$$$
