C:\Qe-CaDD\Project\Data\Stage_6_Molecular_Dynamics\ligands_top\out_10714_EGFR_extracted.pdbqt
 OpenBabel01082506443D

 22 24  0  0  1  0  0  0  0  0999 V2000
   26.3980    0.3750   54.2460 C   0  0  0  0  0  0  0  0  0  0  0  0
   25.2750   -0.3870   53.9440 C   0  0  0  0  0  3  0  0  0  0  0  0
   24.2070    0.2080   53.3020 C   0  0  0  0  0  0  0  0  0  0  0  0
   23.0920   -0.4720   52.9820 N   0  0  0  0  0  0  0  0  0  0  0  0
   22.0530    0.1440   52.3480 C   0  0  0  0  0  3  0  0  0  0  0  0
   22.1730    1.4370   52.0530 N   0  0  0  0  0  0  0  0  0  0  0  0
   23.2660    2.1670   52.3500 C   0  0  0  0  0  0  0  0  0  0  0  0
   24.2940    1.5260   52.9860 C   0  0  0  0  0  0  0  0  0  0  0  0
   25.4080    2.2740   53.2880 C   0  0  0  0  0  3  0  0  0  0  0  0
   26.5080    1.7250   53.9320 C   0  0  0  0  0  0  0  0  0  0  0  0
   23.2350    3.5380   51.9660 N   0  0  0  0  0  0  0  0  0  0  0  0
   22.6570    4.6520   52.7360 C   0  0  0  0  0  1  0  0  0  0  0  0
   23.8140    3.9210   50.7020 C   0  0  1  0  0  3  0  0  0  0  0  0
   23.3080    3.9340   49.4840 C   0  0  0  0  0  2  0  0  0  0  0  0
   23.8970    4.7890   48.6640 C   0  0  0  0  0  2  0  0  0  0  0  0
   25.2380    4.9390   49.2540 C   0  0  1  0  0  3  0  0  0  0  0  0
   26.6880    5.6500   48.5670 Cl  0  0  0  0  0  0  0  0  0  0  0  0
   25.1880    4.4140   50.4890 C   0  0  0  0  0  2  0  0  0  0  0  0
   27.6680    2.4080   54.2720 O   0  0  0  0  0  0  0  0  0  0  0  0
   28.6940    2.6070   53.3410 C   0  0  0  0  0  1  0  0  0  0  0  0
   27.4540   -0.2220   54.8830 O   0  0  0  0  0  0  0  0  0  0  0  0
   28.5850   -0.7490   54.2500 C   0  0  0  0  0  1  0  0  0  0  0  0
  1 21  1  0  0  0  0
  2  1  1  0  0  0  0
  3  2  2  0  0  0  0
  4  3  1  0  0  0  0
  5  4  2  0  0  0  0
  6  5  1  0  0  0  0
  6  7  2  0  0  0  0
  7  8  1  0  0  0  0
  8  9  2  0  0  0  0
  8  3  1  0  0  0  0
  9 10  1  0  0  0  0
 10  1  2  0  0  0  0
 10 19  1  0  0  0  0
 11  7  1  0  0  0  0
 11 12  1  0  0  0  0
 13 11  1  1  0  0  0
 14 13  1  0  0  0  0
 15 16  1  0  0  0  0
 15 14  1  0  0  0  0
 16 17  1  1  0  0  0
 16 18  1  0  0  0  0
 18 13  1  0  0  0  0
 20 19  1  0  0  0  0
 22 21  1  0  0  0  0
M  END
>  <TORSDO>
F 4

$$$$
