C:\Qe-CaDD\Project\Data\Stage_6_Molecular_Dynamics\ligands_top\out_11923_EGFR_extracted.pdbqt
 OpenBabel01082506443D

 34 37  0  0  1  0  0  0  0  0999 V2000
   22.9990    0.4990   52.8560 C   0  0  0  0  0  0  0  0  0  0  0  0
   21.8820    0.6390   52.0640 C   0  0  0  0  0  3  0  0  0  0  0  0
   21.8910    1.3700   50.9150 C   0  0  0  0  0  0  0  0  0  0  0  0
   20.7880    1.4930   50.1540 N   0  0  0  0  0  0  0  0  0  0  0  0
   20.8470    2.2300   49.0210 C   0  0  0  0  0  3  0  0  0  0  0  0
   22.0070    2.8200   48.6840 N   0  0  0  0  0  0  0  0  0  0  0  0
   23.1380    2.7320   49.4020 C   0  0  0  0  0  0  0  0  0  0  0  0
   23.0730    1.9810   50.5550 C   0  0  0  0  0  0  0  0  0  0  0  0
   24.1800    1.8300   51.3600 C   0  0  0  0  0  3  0  0  0  0  0  0
   24.1950    1.0980   52.5240 C   0  0  0  0  0  0  0  0  0  0  0  0
   25.2690    0.8880   53.4060 N   0  0  0  0  0  0  0  0  0  0  0  0
   26.3400   -0.0370   53.3200 C   0  0  0  0  0  0  0  0  0  0  0  0
   26.3990   -0.8130   52.3360 O   0  0  0  0  0  0  0  0  0  0  0  0
   25.3770    1.4490   54.2780 H   0  0  0  0  0  0  0  0  0  0  0  0
   27.4350   -0.2040   54.2800 C   0  0  1  0  0  3  0  0  0  0  0  0
   28.7410   -0.5730   53.6500 C   0  0  0  0  0  2  0  0  0  0  0  0
   29.3090    0.6780   53.3310 O   0  0  0  0  0  0  0  0  0  0  0  0
   29.0590    1.5030   54.4420 C   0  0  0  0  0  0  0  0  0  0  0  0
   29.7390    2.4090   55.0200 O   0  0  0  0  0  0  0  0  0  0  0  0
   27.7420    1.0910   54.8570 N   0  0  0  0  0  0  0  0  0  0  0  0
   27.1530    1.7050   55.4910 H   0  0  0  0  0  0  0  0  0  0  0  0
   22.8850   -0.2590   53.9950 O   0  0  0  0  0  0  0  0  0  0  0  0
   21.7170   -0.5470   54.7030 C   0  0  0  0  0  2  0  0  0  0  0  0
   21.1900   -1.9350   54.5380 C   0  0  0  0  0  1  0  0  0  0  0  0
   24.3110    3.3940   48.9590 N   0  0  0  0  0  0  0  0  0  0  0  0
   24.9690    3.0890   48.2170 H   0  0  0  0  0  0  0  0  0  0  0  0
   24.6870    4.6530   49.5790 C   0  0  2  0  0  3  0  0  0  0  0  0
   23.5370    5.5960   49.4480 C   0  0  0  0  0  1  0  0  0  0  0  0
   25.9550    5.2060   49.0600 C   0  0  0  0  0  0  0  0  0  0  0  0
   27.1140    4.4750   48.9850 C   0  0  0  0  0  3  0  0  0  0  0  0
   28.2670    5.0830   48.4800 C   0  0  0  0  0  3  0  0  0  0  0  0
   28.2890    6.4120   48.0460 C   0  0  0  0  0  3  0  0  0  0  0  0
   27.1310    7.1690   48.1120 C   0  0  0  0  0  3  0  0  0  0  0  0
   26.0320    6.5280   48.6140 C   0  0  0  0  0  3  0  0  0  0  0  0
  1 22  1  0  0  0  0
  2  1  2  0  0  0  0
  3  2  1  0  0  0  0
  4  3  2  0  0  0  0
  5  4  1  0  0  0  0
  6  5  2  0  0  0  0
  6  7  1  0  0  0  0
  7  8  2  0  0  0  0
  8  3  1  0  0  0  0
  8  9  1  0  0  0  0
  9 10  2  0  0  0  0
 10  1  1  0  0  0  0
 10 11  1  0  0  0  0
 11 14  1  0  0  0  0
 12 11  1  0  0  0  0
 13 12  2  0  0  0  0
 15 12  1  6  0  0  0
 15 20  1  0  0  0  0
 16 15  1  0  0  0  0
 17 16  1  0  0  0  0
 17 18  1  0  0  0  0
 18 20  1  0  0  0  0
 18 19  2  0  0  0  0
 20 21  1  0  0  0  0
 22 23  1  0  0  0  0
 24 23  1  0  0  0  0
 25  7  1  0  0  0  0
 25 27  1  0  0  0  0
 26 25  1  0  0  0  0
 27 28  1  6  0  0  0
 29 27  1  0  0  0  0
 30 29  1  0  0  0  0
 31 30  2  0  0  0  0
 32 33  2  0  0  0  0
 32 31  1  0  0  0  0
 33 34  1  0  0  0  0
 34 29  2  0  0  0  0
M  END
>  <TORSDO>
F 7

$$$$
