C:\Qe-CaDD\Project\Data\Stage_6_Molecular_Dynamics\ligands_top\out_21527_EGFR_extracted.pdbqt
 OpenBabel01082506443D

 25 27  0  0  1  0  0  0  0  0999 V2000
   22.7950    0.7160   52.4080 C   0  0  0  0  0  0  0  0  0  0  0  0
   21.8610   -0.1880   52.6560 C   0  0  0  0  0  3  0  0  0  0  0  0
   22.2100   -1.0730   53.7640 C   0  0  0  0  0  3  0  0  0  0  0  0
   23.4180   -0.6390   54.1640 C   0  0  0  0  0  0  0  0  0  0  0  0
   24.0600   -1.3620   55.3160 C   0  0  0  0  0  1  0  0  0  0  0  0
   23.9380    0.5200   53.3690 C   0  0  1  0  0  3  0  0  0  0  0  0
   22.7620    1.7370   51.3820 C   0  0  0  0  0  0  0  0  0  0  0  0
   22.7470    1.4300   50.1650 O   0  0  0  0  0  0  0  0  0  0  0  0
   22.7450    3.1680   51.6110 C   0  0  0  0  0  0  0  0  0  0  0  0
   21.6460    3.8710   51.7100 C   0  0  0  0  0  2  0  0  0  0  0  0
   23.9750    3.9690   51.7550 C   0  0  0  0  0  2  0  0  0  0  0  0
   24.6850    4.2250   50.5490 N   0  0  0  0  0  0  0  0  0  0  0  0
   26.0020    3.5630   50.7390 C   0  0  0  0  0  2  0  0  0  0  0  0
   26.6540    3.4470   49.4030 C   0  0  0  0  0  2  0  0  0  0  0  0
   26.9310    4.8500   48.8920 C   0  0  0  0  0  2  0  0  0  0  0  0
   25.6670    5.6920   48.9360 C   0  0  0  0  0  2  0  0  0  0  0  0
   25.0350    5.6140   50.3260 C   0  0  0  0  0  2  0  0  0  0  0  0
   25.0410    0.2090   52.6450 O   0  0  0  0  0  0  0  0  0  0  0  0
   26.2200    0.8210   52.8800 C   0  0  0  0  0  2  0  0  0  0  0  0
   27.3100   -0.1520   53.0480 C   0  0  0  0  0  0  0  0  0  0  0  0
   28.5950   -0.0430   53.5330 C   0  0  0  0  0  3  0  0  0  0  0  0
   29.4100   -1.1410   53.5860 C   0  0  0  0  0  3  0  0  0  0  0  0
   29.0300   -2.3850   53.1780 C   0  0  0  0  0  3  0  0  0  0  0  0
   27.7350   -2.5260   52.6830 C   0  0  0  0  0  3  0  0  0  0  0  0
   26.8920   -1.4130   52.6230 C   0  0  0  0  0  3  0  0  0  0  0  0
  1  2  2  0  0  0  0
  1  6  1  0  0  0  0
  2  3  1  0  0  0  0
  3  4  2  0  0  0  0
  4  5  1  0  0  0  0
  6 18  1  6  0  0  0
  6  4  1  0  0  0  0
  7  9  1  0  0  0  0
  7  1  1  0  0  0  0
  8  7  2  0  0  0  0
  9 10  2  0  0  0  0
  9 11  1  0  0  0  0
 12 13  1  0  0  0  0
 12 11  1  0  0  0  0
 14 13  1  0  0  0  0
 15 16  1  0  0  0  0
 15 14  1  0  0  0  0
 16 17  1  0  0  0  0
 17 12  1  0  0  0  0
 18 19  1  0  0  0  0
 19 20  1  0  0  0  0
 20 21  1  0  0  0  0
 21 22  2  0  0  0  0
 23 22  1  0  0  0  0
 24 23  2  0  0  0  0
 25 24  1  0  0  0  0
 25 20  2  0  0  0  0
M  END
>  <TORSDO>
F 7

$$$$
