C:\Qe-CaDD\Project\Data\Stage_6_Molecular_Dynamics\ligands_top\out_20523_EGFR_extracted.pdbqt
 OpenBabel01082506443D

 21 25  0  0  1  0  0  0  0  0999 V2000
   24.1570    3.8820   52.8450 C   0  0  0  0  0  1  0  0  0  0  0  0
   24.1340    2.5480   53.1190 O   0  0  0  0  0  0  0  0  0  0  0  0
   24.5000    1.3750   52.4080 C   0  0  1  0  0  0  0  0  0  0  0  0
   25.0740    1.7950   53.6820 C   0  0  1  0  0  3  0  0  0  0  0  0
   26.4060    1.7530   52.8860 C   0  0  1  0  0  3  0  0  0  0  0  0
   27.2970    2.5390   53.5070 C   0  0  0  0  0  2  0  0  0  0  0  0
   27.6180    1.7280   54.4280 N   0  0  0  0  0  2  0  0  0  0  0  0
   26.9610    0.5070   54.4150 N   0  0  0  0  0  0  0  0  0  0  0  0
   28.3220   -0.0570   54.7510 C   0  0  0  0  0  1  0  0  0  0  0  0
   26.0360   -0.5310   54.3410 C   0  0  1  0  0  3  0  0  0  0  0  0
   24.6550   -0.6290   54.0640 C   0  0  0  0  0  3  0  0  0  0  0  0
   23.5940   -0.1620   53.3370 C   0  0  0  0  0  3  0  0  0  0  0  0
   23.2040    0.8300   52.3010 C   0  0  1  0  0  0  0  0  0  0  0  0
   21.5480    1.0680   51.4460 Br  0  0  0  0  0  0  0  0  0  0  0  0
   23.5030    1.8850   51.4700 C   0  0  2  0  0  3  0  0  0  0  0  0
   24.8160    2.5050   50.8360 C   0  0  2  0  0  3  0  0  0  0  0  0
   26.2120    2.1300   50.8260 C   0  0  0  0  0  2  0  0  0  0  0  0
   26.5790    0.9380   51.6880 C   0  0  0  0  0  0  0  0  0  0  0  0
   26.8470    0.0780   52.4590 N   0  0  0  0  0  0  0  0  0  0  0  0
   27.1930   -1.2340   52.3680 C   0  0  0  0  0  2  0  0  0  0  0  0
   26.6840   -1.5460   53.5090 N   0  0  0  0  0  2  0  0  0  0  0  0
  1  2  1  0  0  0  0
  2  4  1  0  0  0  0
  3  4  1  0  0  0  0
  5  6  1  0  0  0  0
  5  4  1  0  0  0  0
  6  7  1  0  0  0  0
  8  7  1  0  0  0  0
  8  9  1  0  0  0  0
 10  8  1  0  0  0  0
 11 10  1  0  0  0  0
 12 11  2  0  0  0  0
 13  3  1  0  0  0  0
 13 12  1  0  0  0  0
 14 13  1  0  0  0  0
 15 13  1  0  0  0  0
 15  3  1  0  0  0  0
 16 15  1  0  0  0  0
 16  3  1  0  0  0  0
 17 16  1  0  0  0  0
 17 18  1  0  0  0  0
 18 19  2  3  0  0  0
 18  5  1  0  0  0  0
 20 19  1  0  0  0  0
 20 21  1  0  0  0  0
 21 10  1  0  0  0  0
M  END
>  <TORSDO>
F 0

$$$$
