C:\Qe-CaDD\Project\Data\Stage_6_Molecular_Dynamics\ligands_top\out_12201_EGFR_extracted.pdbqt
 OpenBabel01082506443D

 27 30  0  0  1  0  0  0  0  0999 V2000
   25.9680    4.3540   49.2660 C   0  0  0  0  0  1  0  0  0  0  0  0
   25.4290    3.4640   50.2320 O   0  0  0  0  0  0  0  0  0  0  0  0
   24.0850    3.4580   50.5560 C   0  0  2  0  0  3  0  0  0  0  0  0
   24.7580    2.4720   51.1010 C   0  0  0  0  0  2  0  0  0  0  0  0
   25.9210    1.6400   51.4230 C   0  0  0  0  0  2  0  0  0  0  0  0
   26.0350    1.4110   52.9300 C   0  0  1  0  0  0  0  0  0  0  0  0
   26.1800    2.7040   53.6640 C   0  0  0  0  0  1  0  0  0  0  0  0
   24.8510    0.6520   53.2950 N   0  0  2  0  0  0  0  0  0  0  0  0
   24.8670   -0.5230   53.8080 C   0  0  0  0  0  2  0  0  0  0  0  0
   23.5500   -0.0570   53.6380 N   0  0  2  0  0  0  0  0  0  0  0  0
   22.5990   -0.7190   53.0600 N   0  0  0  0  0  2  0  0  0  0  0  0
   21.2830   -0.0960   52.9580 C   0  0  0  0  0  0  0  0  0  0  0  0
   20.9330   -1.2600   53.1830 O   0  0  0  0  0  0  0  0  0  0  0  0
   21.3980    1.2930   52.6920 C   0  0  2  0  0  3  0  0  0  0  0  0
   20.2420    2.2280   52.9270 C   0  0  0  0  0  2  0  0  0  0  0  0
   20.8390    3.4890   52.2310 C   0  0  0  0  0  2  0  0  0  0  0  0
   21.9460    3.0130   51.4680 N   0  0  2  0  0  0  0  0  0  0  0  0
   22.6490    3.8320   50.6300 C   0  0  0  0  0  2  0  0  0  0  0  0
   21.5830    1.6750   51.1950 C   0  0  0  0  0  2  0  0  0  0  0  0
   27.2230    0.5800   53.2120 C   0  0  0  0  0  0  0  0  0  0  0  0
   28.2780    1.2750   53.7990 C   0  0  0  0  0  3  0  0  0  0  0  0
   29.4500    0.6340   54.1190 C   0  0  0  0  0  3  0  0  0  0  0  0
   29.6460   -0.7110   53.8830 C   0  0  0  0  0  0  0  0  0  0  0  0
   30.8070   -1.3280   54.2050 F   0  0  0  0  0  0  0  0  0  0  0  0
   28.5770   -1.3790   53.2980 C   0  0  0  0  0  0  0  0  0  0  0  0
   28.7250   -3.0900   52.9560 Cl  0  0  0  0  0  0  0  0  0  0  0  0
   27.3960   -0.7430   52.9720 C   0  0  0  0  0  3  0  0  0  0  0  0
  1  2  1  0  0  0  0
  3  2  1  6  0  0  0
  3 18  1  0  0  0  0
  3  4  1  0  0  0  0
  4  5  1  0  0  0  0
  5  6  1  0  0  0  0
  6 20  1  0  0  0  0
  6  8  1  0  0  0  0
  6  7  1  1  0  0  0
  8 10  1  0  0  0  0
  8  9  1  6  0  0  0
 10  9  1  1  0  0  0
 11 10  1  0  0  0  0
 12 11  1  0  0  0  0
 12 13  2  0  0  0  0
 14 19  1  6  0  0  0
 14 15  1  0  0  0  0
 14 12  1  0  0  0  0
 16 15  1  0  0  0  0
 17 18  1  6  0  0  0
 17 16  1  0  0  0  0
 19 17  1  0  0  0  0
 20 21  1  0  0  0  0
 21 22  2  0  0  0  0
 23 22  1  0  0  0  0
 23 24  1  0  0  0  0
 25 23  2  0  0  0  0
 26 25  1  0  0  0  0
 27 20  2  0  0  0  0
 27 25  1  0  0  0  0
M  END
>  <TORSDO>
F 1

$$$$
