C:\Qe-CaDD\Project\Data\Stage_6_Molecular_Dynamics\ligands_top\out_14081_EGFR_extracted.pdbqt
 OpenBabel01082506443D

 27 29  0  0  1  0  0  0  0  0999 V2000
   23.5840    4.2150   52.6200 C   0  0  0  0  0  0  0  0  0  0  0  0
   22.4460    3.5410   52.4310 N   0  0  0  0  0  0  0  0  0  0  0  0
   22.3510    2.2030   52.5290 C   0  0  0  0  0  3  0  0  0  0  0  0
   23.4790    1.4700   52.8400 C   0  0  0  0  0  0  0  0  0  0  0  0
   24.6710    2.1380   53.0410 C   0  0  0  0  0  0  0  0  0  0  0  0
   24.6660    3.4770   52.9210 N   0  0  0  0  0  0  0  0  0  0  0  0
   25.8470    1.4040   53.3620 N   0  0  0  0  0  0  0  0  0  0  0  0
   27.0130    2.0870   53.7200 N   0  0  0  0  0  0  0  0  0  0  0  0
   28.0490    1.4540   54.1630 C   0  0  0  0  0  3  0  0  0  0  0  0
   28.0340   -0.0170   54.3060 C   0  0  0  0  0  0  0  0  0  0  0  0
   28.9930   -0.7010   54.7250 O   0  0  0  0  0  0  0  0  0  0  0  0
   26.8400   -0.7030   53.9390 N   0  0  0  0  0  0  0  0  0  0  0  0
   25.7270   -0.0550   53.2880 C   0  0  1  0  0  3  0  0  0  0  0  0
   24.4050   -0.5070   53.8760 C   0  0  0  0  0  2  0  0  0  0  0  0
   23.3210    0.0040   52.9360 C   0  0  0  0  0  2  0  0  0  0  0  0
   26.6400   -1.7150   54.0920 H   0  0  0  0  0  0  0  0  0  0  0  0
   23.6690    5.6510   52.5100 N   0  0  0  0  0  0  0  0  0  0  0  0
   23.8670    6.1660   53.4050 H   0  0  0  0  0  0  0  0  0  0  0  0
   23.4830    6.2510   51.2240 C   0  0  0  0  0  2  0  0  0  0  0  0
   24.7980    6.7210   50.6500 C   0  0  0  0  0  2  0  0  0  0  0  0
   24.9440    6.2210   49.2510 C   0  0  0  0  0  2  0  0  0  0  0  0
   26.1300    5.3930   49.1780 N   0  0  0  0  0  0  0  0  0  0  0  0
   27.2600    5.9540   48.5460 C   0  0  0  0  0  0  0  0  0  0  0  0
   28.5800    5.3490   48.3340 C   0  0  0  0  0  1  0  0  0  0  0  0
   27.2840    7.1300   48.0470 O   0  0  0  0  0  0  0  0  0  0  0  0
   26.1920    4.0450   49.7190 C   0  0  0  0  0  2  0  0  0  0  0  0
   24.9550    3.2480   49.3960 C   0  0  0  0  0  1  0  0  0  0  0  0
  1  6  1  0  0  0  0
  2  3  1  0  0  0  0
  2  1  2  0  0  0  0
  3  4  2  0  0  0  0
  4 15  1  0  0  0  0
  4  5  1  0  0  0  0
  5  7  1  0  0  0  0
  6  5  2  0  0  0  0
  7  8  1  0  0  0  0
  8  9  2  0  0  0  0
  9 10  1  0  0  0  0
 10 11  2  0  0  0  0
 12 16  1  0  0  0  0
 12 10  1  0  0  0  0
 13  7  1  0  0  0  0
 13 14  1  1  0  0  0
 13 12  1  0  0  0  0
 15 14  1  0  0  0  0
 17  1  1  0  0  0  0
 17 18  1  0  0  0  0
 19 17  1  0  0  0  0
 20 19  1  0  0  0  0
 21 20  1  0  0  0  0
 22 21  1  0  0  0  0
 22 26  1  0  0  0  0
 23 22  1  0  0  0  0
 24 23  1  0  0  0  0
 25 23  2  0  0  0  0
 27 26  1  0  0  0  0
M  END
>  <TORSDO>
F 6

$$$$
