C:\Qe-CaDD\Project\Data\Stage_6_Molecular_Dynamics\ligands_top\out_11405_EGFR_extracted.pdbqt
 OpenBabel01082506443D

 29 32  0  0  1  0  0  0  0  0999 V2000
   26.5090    1.6960   53.5840 C   0  0  1  0  0  3  0  0  0  0  0  0
   27.7260    2.2450   53.4350 C   0  0  0  0  0  3  0  0  0  0  0  0
   28.9410    1.4480   53.4470 C   0  0  0  0  0  3  0  0  0  0  0  0
   28.7510    0.1520   53.6070 C   0  0  0  0  0  0  0  0  0  0  0  0
   30.1100   -0.9820   53.6520 Cl  0  0  0  0  0  0  0  0  0  0  0  0
   27.4910   -0.6170   53.7430 C   0  0  0  0  0  3  0  0  0  0  0  0
   26.3730    0.3010   53.8050 N   0  0  0  0  0  0  0  0  0  0  0  0
   25.0880   -0.1940   54.1060 C   0  0  0  0  0  0  0  0  0  0  0  0
   24.9700   -0.9400   55.2190 N   0  0  0  0  0  0  0  0  0  0  0  0
   23.8510   -1.4860   55.6830 C   0  0  0  0  0  3  0  0  0  0  0  0
   22.6830   -1.2940   54.9870 C   0  0  0  0  0  3  0  0  0  0  0  0
   22.7750   -0.5360   53.8430 C   0  0  0  0  0  0  0  0  0  0  0  0
   23.9530   -0.0230   53.4520 N   0  0  0  0  0  0  0  0  0  0  0  0
   21.6120   -0.2460   53.0160 C   0  0  0  0  0  0  0  0  0  0  0  0
   21.7670    0.2210   51.7340 C   0  0  0  0  0  3  0  0  0  0  0  0
   20.7530    0.5250   50.8610 C   0  0  0  0  0  3  0  0  0  0  0  0
   19.4580    0.3350   51.3430 C   0  0  0  0  0  3  0  0  0  0  0  0
   19.2720   -0.1250   52.6090 N   0  0  0  0  0  0  0  0  0  0  0  0
   20.3070   -0.4070   53.4210 C   0  0  0  0  0  3  0  0  0  0  0  0
   25.4760    2.6720   53.5310 N   0  0  0  0  0  0  0  0  0  0  0  0
   25.0070    2.8780   52.1840 C   0  0  0  0  0  0  0  0  0  0  0  0
   25.4750    2.2470   51.1740 O   0  0  0  0  0  0  0  0  0  0  0  0
   25.0680    3.2030   54.3250 H   0  0  0  0  0  0  0  0  0  0  0  0
   23.9600    3.8270   51.8800 C   0  0  0  0  0  0  0  0  0  0  0  0
   22.6720    3.6090   52.3250 C   0  0  0  0  0  3  0  0  0  0  0  0
   21.6050    4.4520   52.0840 C   0  0  0  0  0  3  0  0  0  0  0  0
   21.7970    5.5980   51.3530 C   0  0  0  0  0  3  0  0  0  0  0  0
   23.0670    5.8630   50.8850 C   0  0  0  0  0  3  0  0  0  0  0  0
   24.1010    4.9900   51.1530 C   0  0  0  0  0  3  0  0  0  0  0  0
  1 20  1  1  0  0  0
  1  7  1  0  0  0  0
  2  3  2  0  0  0  0
  2  1  1  0  0  0  0
  3  4  1  0  0  0  0
  4  5  1  0  0  0  0
  4  6  2  0  0  0  0
  6  7  1  0  0  0  0
  7  8  1  0  0  0  0
  8  9  2  0  0  0  0
  9 10  1  0  0  0  0
 11 10  2  0  0  0  0
 12 11  1  0  0  0  0
 13 12  2  0  0  0  0
 13  8  1  0  0  0  0
 14 19  1  0  0  0  0
 14 12  1  0  0  0  0
 15 14  2  0  0  0  0
 16 17  2  0  0  0  0
 16 15  1  0  0  0  0
 17 18  1  0  0  0  0
 18 19  2  0  0  0  0
 20 23  1  0  0  0  0
 21 20  1  0  0  0  0
 22 21  2  0  0  0  0
 24 21  1  0  0  0  0
 24 25  1  0  0  0  0
 26 25  2  0  0  0  0
 27 26  1  0  0  0  0
 28 29  1  0  0  0  0
 28 27  2  0  0  0  0
 29 24  2  0  0  0  0
M  END
>  <TORSDO>
F 4

$$$$
