C:\Qe-CaDD\Project\Data\Stage_6_Molecular_Dynamics\ligands_top\out_10981_EGFR_extracted.pdbqt
 OpenBabel01082506443D

 29 32  0  0  1  0  0  0  0  0999 V2000
   24.7730    2.0690   52.6330 C   0  0  0  0  0  0  0  0  0  0  0  0
   24.5870    3.1670   53.3600 C   0  0  0  0  0  3  0  0  0  0  0  0
   23.6750    4.2280   52.9230 C   0  0  0  0  0  3  0  0  0  0  0  0
   23.0720    4.0060   51.7750 C   0  0  0  0  0  3  0  0  0  0  0  0
   23.1780    2.8540   50.8730 C   0  0  1  0  0  0  0  0  0  0  0  0
   24.1110    1.7820   51.3330 C   0  0  0  0  0  2  0  0  0  0  0  0
   21.8900    2.2620   50.5650 N   0  0  0  0  0  0  0  0  0  0  0  0
   22.1340    1.6560   49.2520 C   0  0  0  0  0  2  0  0  0  0  0  0
   23.0120    2.6160   48.5760 N   0  0  0  0  0  2  0  0  0  0  0  0
   23.6170    3.3090   49.5090 C   0  0  1  0  0  3  0  0  0  0  0  0
   21.1320    2.9630   50.4850 H   0  0  0  0  0  0  0  0  0  0  0  0
   24.5630    4.3540   49.1980 C   0  0  0  0  0  0  0  0  0  0  0  0
   25.9460    4.3500   49.3330 C   0  0  0  0  0  3  0  0  0  0  0  0
   26.6820    5.4060   48.9980 N   0  0  0  0  0  0  0  0  0  0  0  0
   26.1230    6.5430   48.5050 C   0  0  0  0  0  3  0  0  0  0  0  0
   24.7500    6.6050   48.3490 C   0  0  0  0  0  3  0  0  0  0  0  0
   23.9850    5.5100   48.6970 C   0  0  0  0  0  0  0  0  0  0  0  0
   22.5490    5.6740   48.4940 C   0  0  0  0  0  3  0  0  0  0  0  0
   21.7380    6.5100   49.1240 C   0  0  0  0  0  3  0  0  0  0  0  0
   20.0340    6.6270   48.8050 Cl  0  0  0  0  0  0  0  0  0  0  0  0
   25.6600    1.0600   53.0790 N   0  0  0  0  0  0  0  0  0  0  0  0
   24.9750    0.6170   53.7550 H   0  0  0  0  0  0  0  0  0  0  0  0
   27.0020    0.5630   52.8930 C   0  0  1  0  0  3  0  0  0  0  0  0
   27.8890    1.2130   53.8770 C   0  0  0  0  0  0  0  0  0  0  0  0
   27.9210    2.4070   54.1150 O   0  0  0  0  0  0  0  0  0  0  0  0
   28.8240    0.3440   54.6480 C   0  0  0  0  0  2  0  0  0  0  0  0
   29.4110   -0.7440   53.7790 C   0  0  0  0  0  2  0  0  0  0  0  0
   28.3810   -1.5260   53.0410 C   0  0  0  0  0  2  0  0  0  0  0  0
   27.0000   -0.9300   53.1110 C   0  0  0  0  0  2  0  0  0  0  0  0
  1 21  1  0  0  0  0
  1  2  2  0  0  0  0
  3  2  1  0  0  0  0
  4  3  2  0  0  0  0
  5  6  1  1  0  0  0
  5  4  1  0  0  0  0
  6  1  1  0  0  0  0
  7  5  1  0  0  0  0
  8  7  1  0  0  0  0
  9  8  1  0  0  0  0
  9 10  1  0  0  0  0
 10 12  1  6  0  0  0
 10  5  1  0  0  0  0
 11  7  1  0  0  0  0
 12 13  1  0  0  0  0
 14 13  2  0  0  0  0
 15 14  1  0  0  0  0
 16 15  2  0  0  0  0
 16 17  1  0  0  0  0
 17 12  2  0  0  0  0
 18 17  1  0  0  0  0
 18 19  2  0  0  0  0
 20 19  1  0  0  0  0
 21 22  1  0  0  0  0
 23 21  1  1  0  0  0
 23 29  1  0  0  0  0
 23 24  1  0  0  0  0
 24 25  2  0  0  0  0
 24 26  1  0  0  0  0
 27 26  1  0  0  0  0
 28 29  1  0  0  0  0
 28 27  1  0  0  0  0
M  END
>  <TORSDO>
F 4

$$$$
