C:\Qe-CaDD\Project\Data\Stage_6_Molecular_Dynamics\ligands_top\out_18293_EGFR_extracted.pdbqt
 OpenBabel01082506443D

 26 32  0  0  1  0  0  0  0  0999 V2000
   24.5680   -0.0300   53.2820 C   0  0  0  0  0  0  0  0  0  0  0  0
   24.9910    0.6700   52.3350 N   0  0  0  0  0  0  0  0  0  0  0  0
   26.0780    1.2060   51.8880 N   0  0  0  0  0  0  0  0  0  0  0  0
   26.7920    2.4820   51.5830 C   0  0  0  0  0  2  0  0  0  0  0  0
   25.8100    3.3390   50.3130 S   0  0  0  0  0  0  0  0  0  0  0  0
   24.0620    3.4540   50.8720 C   0  0  2  0  0  0  0  0  0  0  0  0
   24.1750    3.7920   52.1710 C   0  0  0  0  0  2  0  0  0  0  0  0
   23.0180    3.0630   52.3560 C   0  0  0  0  0  2  0  0  0  0  0  0
   23.2730    2.9660   51.0210 C   0  0  2  0  0  0  0  0  0  0  0  0
   22.2960    2.0550   51.3340 N   0  0  1  0  0  4  0  0  0  0  0  0
   21.6530    1.3980   50.3690 C   0  0  1  0  0  0  0  0  0  0  0  0
   21.0220    0.7500   49.3320 C   0  0  0  0  0  2  0  0  0  0  0  0
   21.9970    1.6530   49.0200 C   0  0  1  0  0  3  0  0  0  0  0  0
   22.6980    2.3640   49.9650 C   0  0  1  0  0  0  0  0  0  0  0  0
   23.8670    3.0650   49.5790 C   0  0  0  0  0  2  0  0  0  0  0  0
   21.7260    0.6240   51.6010 N   0  0  1  0  0  4  0  0  0  0  0  0
   21.8090   -0.1260   52.8100 N   0  0  0  0  0  2  0  0  0  0  0  0
   23.0930   -0.1980   53.2120 C   0  0  0  0  0  2  0  0  0  0  0  0
   26.6340    0.3480   51.6820 H   0  0  0  0  0  0  0  0  0  0  0  0
   21.0010   -0.1150   51.8030 H   0  0  0  0  0  0  0  0  0  0  0  0
   24.8770   -0.7690   54.5400 C   0  0  0  0  0  2  0  0  0  0  0  0
   26.0430   -0.2650   55.2790 C   0  0  0  0  0  2  0  0  0  0  0  0
   27.1090   -0.4920   54.5590 N   0  0  0  0  0  2  0  0  0  0  0  0
   28.3930   -0.1420   54.9580 N   0  0  0  0  0  0  0  0  0  0  0  0
   29.1190    0.9030   54.2350 C   0  0  0  0  0  1  0  0  0  0  0  0
   28.6340   -0.7570   55.7890 H   0  0  0  0  0  0  0  0  0  0  0  0
  1 21  1  0  0  0  0
  2  1  2  0  0  0  0
  3  2  1  0  0  0  0
  4  3  1  0  0  0  0
  5  6  1  0  0  0  0
  5  4  1  0  0  0  0
  6 15  1  6  0  0  0
  6  9  1  0  0  0  0
  6  7  1  0  0  0  0
  7  8  1  0  0  0  0
  9 10  1  0  0  0  0
  9  8  1  6  0  0  0
 10 16  1  0  0  0  0
 11 10  1  0  0  0  0
 11 16  1  0  0  0  0
 12 11  1  0  0  0  0
 13 12  1  0  0  0  0
 13 14  1  0  0  0  0
 13 11  1  0  0  0  0
 14  9  1  0  0  0  0
 14 10  1  0  0  0  0
 15 14  1  0  0  0  0
 16 20  1  0  0  0  0
 16 17  1  0  0  0  0
 17 18  1  0  0  0  0
 18  1  1  0  0  0  0
 19  3  1  0  0  0  0
 21 22  1  0  0  0  0
 23 24  1  0  0  0  0
 23 22  1  0  0  0  0
 24 26  1  0  0  0  0
 25 24  1  0  0  0  0
M  END
>  <TORSDO>
F 6

$$$$
