C:\Qe-CaDD\Project\Data\Stage_6_Molecular_Dynamics\ligands_top\out_10856_EGFR_extracted.pdbqt
 OpenBabel01082506443D

 24 26  0  0  1  0  0  0  0  0999 V2000
   22.2230   -0.4290   53.8930 C   0  0  0  0  0  0  0  0  0  0  0  0
   22.2080    0.6730   53.1430 N   0  0  0  0  0  0  0  0  0  0  0  0
   23.3030    1.3230   52.7280 C   0  0  1  0  0  3  0  0  0  0  0  0
   24.5200    0.8300   53.0920 C   0  0  0  0  0  0  0  0  0  0  0  0
   25.6610    1.4840   52.6750 C   0  0  0  0  0  3  0  0  0  0  0  0
   26.8690    0.9300   53.0810 C   0  0  0  0  0  0  0  0  0  0  0  0
   26.9720   -0.2060   53.8560 C   0  0  0  0  0  0  0  0  0  0  0  0
   25.7880   -0.8020   54.2320 C   0  0  0  0  0  3  0  0  0  0  0  0
   24.5500   -0.3120   53.8690 C   0  0  0  0  0  0  0  0  0  0  0  0
   23.4200   -0.9300   54.2620 N   0  0  0  0  0  0  0  0  0  0  0  0
   23.1110    2.4850   51.9320 N   0  0  0  0  0  0  0  0  0  0  0  0
   23.1920    3.8540   52.4630 C   0  0  0  0  0  1  0  0  0  0  0  0
   22.8220    2.3210   50.5480 C   0  0  0  0  0  0  0  0  0  0  0  0
   21.9640    1.3750   50.0810 C   0  0  0  0  0  3  0  0  0  0  0  0
   21.6540    1.1770   48.7460 C   0  0  0  0  0  3  0  0  0  0  0  0
   22.2430    1.9850   47.8010 C   0  0  0  0  0  3  0  0  0  0  0  0
   23.1310    2.9660   48.2460 C   0  0  0  0  0  3  0  0  0  0  0  0
   23.4070    3.1230   49.5890 C   0  0  0  0  0  3  0  0  0  0  0  0
   21.0870   -1.0970   54.3190 O   0  0  0  0  0  0  0  0  0  0  0  0
   19.8280   -0.9030   53.7160 C   0  0  0  0  0  1  0  0  0  0  0  0
   28.0140    1.5890   52.6610 O   0  0  0  0  0  0  0  0  0  0  0  0
   28.6450    2.5420   53.4870 C   0  0  0  0  0  1  0  0  0  0  0  0
   28.2400   -0.6400   54.1810 O   0  0  0  0  0  0  0  0  0  0  0  0
   28.9390   -1.5460   53.3690 C   0  0  0  0  0  1  0  0  0  0  0  0
  1 10  2  0  0  0  0
  1 19  1  0  0  0  0
  2  1  2  0  0  0  0
  3 11  1  6  0  0  0
  3  4  1  0  0  0  0
  3  2  1  0  0  0  0
  4  9  1  0  0  0  0
  5  6  1  0  0  0  0
  5  4  2  0  0  0  0
  6  7  2  0  0  0  0
  7 23  1  0  0  0  0
  7  8  1  0  0  0  0
  9  8  2  0  0  0  0
  9 10  1  0  0  0  0
 11 12  1  0  0  0  0
 13 11  1  0  0  0  0
 14 13  1  0  0  0  0
 15 14  2  0  0  0  0
 16 17  2  0  0  0  0
 16 15  1  0  0  0  0
 17 18  1  0  0  0  0
 18 13  2  0  0  0  0
 20 19  1  0  0  0  0
 21  6  1  0  0  0  0
 21 22  1  0  0  0  0
 24 23  1  0  0  0  0
M  END
>  <TORSDO>
F 5

$$$$
