C:\Qe-CaDD\Project\Data\Stage_6_Molecular_Dynamics\ligands_top\out_10528_EGFR_extracted.pdbqt
 OpenBabel01082506443D

 34 37  0  0  0  0  0  0  0  0999 V2000
   26.5920    3.7860   49.7840 C   0  0  0  0  0  2  0  0  0  0  0  0
   25.6030    4.6300   50.0180 C   0  0  0  0  0  0  0  0  0  0  0  0
   25.3560    5.8070   49.3260 O   0  0  0  0  0  0  0  0  0  0  0  0
   24.5330    6.8290   49.8360 C   0  0  0  0  0  2  0  0  0  0  0  0
   23.4330    6.2590   50.6930 C   0  0  0  0  0  0  0  0  0  0  0  0
   22.3290    6.8890   50.7120 O   0  0  0  0  0  0  0  0  0  0  0  0
   23.6440    5.0480   51.4510 N   0  0  0  0  0  0  0  0  0  0  0  0
   24.7420    4.2170   51.1130 C   0  0  0  0  0  0  0  0  0  0  0  0
   24.9160    3.1080   51.8000 C   0  0  0  0  0  3  0  0  0  0  0  0
   22.6760    4.8500   52.4740 C   0  0  0  0  0  2  0  0  0  0  0  0
   21.7430    3.7040   52.2480 C   0  0  0  0  0  2  0  0  0  0  0  0
   20.6230    3.9680   51.3040 C   0  0  0  0  0  2  0  0  0  0  0  0
   20.7350    3.2000   50.0810 N   0  0  0  0  0  0  0  0  0  0  0  0
   21.5970    2.0530   50.2260 C   0  0  0  0  0  2  0  0  0  0  0  0
   21.5550    1.2440   48.9500 C   0  0  0  0  0  2  0  0  0  0  0  0
   20.7670    1.8810   47.9930 O   0  0  0  0  0  0  0  0  0  0  0  0
   21.3260    3.1290   47.7570 C   0  0  0  0  0  2  0  0  0  0  0  0
   21.1370    4.0310   48.9600 C   0  0  0  0  0  2  0  0  0  0  0  0
   26.3050    2.0420   51.3580 P   0  0  0  0  0  0  0  0  0  0  0  0
   26.0720    1.1530   50.2640 H   0  0  0  0  0  0  0  0  0  0  0  0
   27.0690    1.2930   52.8140 C   0  0  0  0  0  0  0  0  0  0  0  0
   28.2130    1.9620   53.2440 C   0  0  0  0  0  3  0  0  0  0  0  0
   28.9150    1.5450   54.3120 N   0  0  0  0  0  0  0  0  0  0  0  0
   28.5070    0.4440   54.9960 C   0  0  0  0  0  3  0  0  0  0  0  0
   27.3990   -0.2250   54.6010 N   0  0  0  0  0  0  0  0  0  0  0  0
   26.6920    0.1890   53.5320 C   0  0  0  0  0  0  0  0  0  0  0  0
   25.5150   -0.4420   53.0450 N   0  0  0  0  0  0  0  0  0  0  0  0
   25.7740   -0.8670   52.1480 H   0  0  0  0  0  0  0  0  0  0  0  0
   24.2270   -0.5090   53.6130 C   0  0  0  0  0  0  0  0  0  0  0  0
   24.0560   -1.1770   54.8080 C   0  0  0  0  0  3  0  0  0  0  0  0
   22.8290   -1.2590   55.3880 C   0  0  0  0  0  3  0  0  0  0  0  0
   21.7790   -0.6360   54.7090 C   0  0  0  0  0  3  0  0  0  0  0  0
   21.9410    0.0370   53.5110 C   0  0  0  0  0  3  0  0  0  0  0  0
   23.2040    0.0990   52.9510 C   0  0  0  0  0  3  0  0  0  0  0  0
  1  2  2  0  0  0  0
  2  8  1  0  0  0  0
  3  4  1  0  0  0  0
  3  2  1  0  0  0  0
  4  5  1  0  0  0  0
  5  6  2  0  0  0  0
  5  7  1  0  0  0  0
  7 10  1  0  0  0  0
  8  7  1  0  0  0  0
  8  9  2  0  0  0  0
 11 10  1  0  0  0  0
 12 11  1  0  0  0  0
 13 14  1  0  0  0  0
 13 12  1  0  0  0  0
 15 14  1  0  0  0  0
 16 15  1  0  0  0  0
 17 16  1  0  0  0  0
 17 18  1  0  0  0  0
 18 13  1  0  0  0  0
 19  9  1  0  0  0  0
 19 21  1  0  0  0  0
 20 19  1  0  0  0  0
 21 22  2  0  0  0  0
 21 26  1  0  0  0  0
 22 23  1  0  0  0  0
 23 24  2  0  0  0  0
 25 24  1  0  0  0  0
 26 25  2  0  0  0  0
 27 26  1  0  0  0  0
 27 29  1  0  0  0  0
 28 27  1  0  0  0  0
 29 30  1  0  0  0  0
 30 31  2  0  0  0  0
 32 31  1  0  0  0  0
 33 32  2  0  0  0  0
 34 33  1  0  0  0  0
 34 29  2  0  0  0  0
M  END
>  <TORSDO>
F 8

$$$$
