C:\Qe-CaDD\Project\Data\Stage_6_Molecular_Dynamics\ligands_top\out_11886_EGFR_extracted.pdbqt
 OpenBabel01082506443D

 33 36  0  0  1  0  0  0  0  0999 V2000
   24.7250    5.1330   50.4920 C   0  0  2  0  0  3  0  0  0  0  0  0
   24.0530    4.6970   49.2610 C   0  0  0  0  0  2  0  0  0  0  0  0
   23.3540    3.3990   49.2900 N   0  0  0  0  0  0  0  0  0  0  0  0
   22.7030    2.8710   50.4920 C   0  0  2  0  0  0  0  0  0  0  0  0
   21.9350    3.5070   51.4370 C   0  0  2  0  0  3  0  0  0  0  0  0
   23.1300    3.1300   52.1420 C   0  0  1  0  0  0  0  0  0  0  0  0
   24.2470    2.7460   52.6750 C   0  0  0  0  0  2  0  0  0  0  0  0
   23.6890    1.2900   52.1780 C   0  0  0  0  0  0  0  0  0  0  0  0
   23.7950    0.0830   52.7430 C   0  0  0  0  0  3  0  0  0  0  0  0
   22.9490    1.3760   50.8020 C   0  0  0  0  0  2  0  0  0  0  0  0
   24.3900    4.2210   51.7180 N   0  0  0  0  0  0  0  0  0  0  0  0
   23.2350    2.6960   48.4980 H   0  0  0  0  0  0  0  0  0  0  0  0
   25.2730    4.5620   52.3160 H   0  0  0  0  0  0  0  0  0  0  0  0
   24.4730   -0.1170   53.9700 N   0  0  0  0  0  0  0  0  0  0  0  0
   24.0300   -0.1400   54.8990 H   0  0  0  0  0  0  0  0  0  0  0  0
   25.8960   -0.3040   53.9060 C   0  0  0  0  0  0  0  0  0  0  0  0
   26.4650   -1.1970   53.0090 C   0  0  0  0  0  3  0  0  0  0  0  0
   27.8230   -1.4250   52.8970 C   0  0  0  0  0  3  0  0  0  0  0  0
   28.6710   -0.7140   53.7350 C   0  0  0  0  0  0  0  0  0  0  0  0
   28.1230    0.1840   54.6370 C   0  0  0  0  0  0  0  0  0  0  0  0
   28.9830    0.8610   55.4410 F   0  0  0  0  0  0  0  0  0  0  0  0
   26.7530    0.3920   54.7290 C   0  0  0  0  0  3  0  0  0  0  0  0
   30.0740   -0.9410   53.6270 N   0  0  0  0  0  0  0  0  0  0  0  0
   30.6010   -1.3300   54.4430 H   0  0  0  0  0  0  0  0  0  0  0  0
   30.5130   -0.6940   52.7000 H   0  0  0  0  0  0  0  0  0  0  0  0
   20.8300    4.1990   52.0240 O   0  0  0  0  0  0  0  0  0  0  0  0
   19.5280    3.9570   51.5420 C   0  0  0  0  0  1  0  0  0  0  0  0
   24.4350    6.3930   50.9900 O   0  0  0  0  0  0  0  0  0  0  0  0
   25.0430    7.5680   50.5500 C   0  0  0  0  0  0  0  0  0  0  0  0
   26.4280    7.8060   50.5780 N   0  0  0  0  0  0  0  0  0  0  0  0
   26.9920    9.0510   50.1050 C   0  0  0  0  0  1  0  0  0  0  0  0
   27.0700    7.0740   50.9480 H   0  0  0  0  0  0  0  0  0  0  0  0
   24.2000    8.3980   50.1200 O   0  0  0  0  0  0  0  0  0  0  0  0
  1 28  1  1  0  0  0
  1 11  1  0  0  0  0
  2  3  1  0  0  0  0
  2  1  1  0  0  0  0
  3  4  1  0  0  0  0
  4 10  1  6  0  0  0
  4  5  1  0  0  0  0
  4  6  1  0  0  0  0
  5 26  1  1  0  0  0
  5  6  1  0  0  0  0
  6  7  1  1  0  0  0
  8  7  1  0  0  0  0
  8  9  2  0  0  0  0
  9 14  1  0  0  0  0
 10  8  1  0  0  0  0
 11  6  1  0  0  0  0
 11 13  1  0  0  0  0
 12  3  1  0  0  0  0
 14 15  1  0  0  0  0
 16 14  1  0  0  0  0
 16 22  1  0  0  0  0
 17 16  2  0  0  0  0
 18 17  1  0  0  0  0
 18 19  2  0  0  0  0
 19 20  1  0  0  0  0
 20 22  2  0  0  0  0
 20 21  1  0  0  0  0
 23 19  1  0  0  0  0
 23 24  1  0  0  0  0
 25 23  1  0  0  0  0
 27 26  1  0  0  0  0
 29 30  1  0  0  0  0
 29 28  1  0  0  0  0
 30 32  1  0  0  0  0
 31 30  1  0  0  0  0
 33 29  2  0  0  0  0
M  END
>  <TORSDO>
F 6

$$$$
