C:\Qe-CaDD\Project\Data\Stage_6_Molecular_Dynamics\ligands_top\out_12256_EGFR_extracted.pdbqt
 OpenBabel01082506443D

 27 30  0  0  1  0  0  0  0  0999 V2000
   23.0650    3.7270   52.9870 C   0  0  0  0  0  1  0  0  0  0  0  0
   23.4060    2.2350   52.5320 C   0  0  1  0  0  3  0  0  0  0  0  0
   22.1850    1.9450   51.8860 C   0  0  0  0  0  2  0  0  0  0  0  0
   22.0860    0.7650   51.2760 C   0  0  0  0  0  2  0  0  0  0  0  0
   21.6410   -0.0990   52.1210 C   0  0  0  0  0  2  0  0  0  0  0  0
   22.8050   -0.2910   52.9590 C   0  0  0  0  0  0  0  0  0  0  0  0
   22.9580   -0.3280   54.2070 O   0  0  0  0  0  0  0  0  0  0  0  0
   24.1640   -0.5050   52.7000 N   0  0  0  0  0  0  0  0  0  0  0  0
   25.4270   -0.6910   53.2470 C   0  0  1  0  0  3  0  0  0  0  0  0
   26.4130   -1.4620   52.8720 C   0  0  0  0  0  2  0  0  0  0  0  0
   27.7650   -0.9180   53.1540 C   0  0  0  0  0  3  0  0  0  0  0  0
   27.9780    0.2320   53.7210 C   0  0  0  0  0  0  0  0  0  0  0  0
   29.2050    0.8950   53.9890 N   0  0  0  0  0  0  0  0  0  0  0  0
   29.1990    2.2150   53.7780 C   0  0  0  0  0  3  0  0  0  0  0  0
   27.9490    2.8460   53.3090 N   0  0  0  0  0  0  0  0  0  0  0  0
   26.7330    2.0490   53.0910 N   0  0  0  0  0  0  0  0  0  0  0  0
   25.9630    2.4530   51.9660 C   0  0  0  0  0  0  0  0  0  0  0  0
   26.7930    2.8330   50.8870 C   0  0  0  0  0  3  0  0  0  0  0  0
   26.4660    3.2830   49.6180 C   0  0  0  0  0  3  0  0  0  0  0  0
   25.0930    3.3450   49.4520 C   0  0  0  0  0  3  0  0  0  0  0  0
   24.2030    2.9930   50.4510 C   0  0  0  0  0  0  0  0  0  0  0  0
   22.4570    3.2730   49.7380 Br  0  0  0  0  0  0  0  0  0  0  0  0
   24.6170    2.5540   51.6880 C   0  0  0  0  0  0  0  0  0  0  0  0
   26.7720    1.0890   54.1190 C   0  0  1  0  0  3  0  0  0  0  0  0
   25.6440    0.1680   54.4070 C   0  0  0  0  0  2  0  0  0  0  0  0
   24.2240   -0.5710   51.6930 H   0  0  0  0  0  0  0  0  0  0  0  0
   27.9420    3.8890   53.0780 H   0  0  0  0  0  0  0  0  0  0  0  0
  2  1  1  1  0  0  0
  3  2  1  0  0  0  0
  4  3  1  0  0  0  0
  4  5  1  0  0  0  0
  5  6  1  0  0  0  0
  6  7  2  0  0  0  0
  8  6  1  0  0  0  0
  8  9  1  0  0  0  0
  9 10  1  6  0  0  0
  9 25  1  0  0  0  0
 10 11  1  0  0  0  0
 11 12  2  0  0  0  0
 12 13  1  0  0  0  0
 12 24  1  0  0  0  0
 14 13  2  0  0  0  0
 15 14  1  0  0  0  0
 16 15  1  0  0  0  0
 16 24  1  0  0  0  0
 17 16  1  0  0  0  0
 18 17  2  0  0  0  0
 19 18  1  0  0  0  0
 20 19  2  0  0  0  0
 20 21  1  0  0  0  0
 21 23  2  0  0  0  0
 22 21  1  0  0  0  0
 23 17  1  0  0  0  0
 23  2  1  0  0  0  0
 24 25  1  6  0  0  0
 26  8  1  0  0  0  0
 27 15  1  0  0  0  0
M  END
>  <TORSDO>
F 0

$$$$
