C:\Qe-CaDD\Project\Data\Stage_6_Molecular_Dynamics\ligands_top\out_12804_EGFR_extracted.pdbqt
 OpenBabel01082506443D

 28 31  0  0  1  0  0  0  0  0999 V2000
   25.5770    1.1660   53.7820 C   0  0  1  0  0  3  0  0  0  0  0  0
   25.5900    2.5150   53.3680 O   0  0  0  0  0  0  0  0  0  0  0  0
   26.0590    2.4550   52.0340 C   0  0  0  0  0  2  0  0  0  0  0  0
   25.4730    1.3830   51.3670 O   0  0  0  0  0  0  0  0  0  0  0  0
   24.2220    1.0700   51.8770 C   0  0  2  0  0  3  0  0  0  0  0  0
   23.3170    2.2340   51.6610 C   0  0  0  0  0  2  0  0  0  0  0  0
   22.7520    2.3510   50.3490 N   0  0  0  0  0  0  0  0  0  0  0  0
   23.4370    3.2300   49.4390 C   0  0  0  0  0  2  0  0  0  0  0  0
   22.9180    3.3470   48.2320 C   0  0  0  0  0  3  0  0  0  0  0  0
   21.7160    2.6960   47.6630 C   0  0  0  0  0  3  0  0  0  0  0  0
   21.0540    1.8050   48.6390 C   0  0  0  0  0  3  0  0  0  0  0  0
   21.5940    1.7130   49.8260 C   0  0  0  0  0  0  0  0  0  0  0  0
   21.0510    0.8950   50.8100 C   0  0  0  0  0  0  0  0  0  0  0  0
   20.6250    0.2280   51.6250 C   0  0  0  0  0  0  0  0  0  0  0  0
   20.1370   -0.5680   52.6080 N   0  0  0  0  0  0  0  0  0  0  0  0
   21.2230   -0.2100   53.4810 C   0  0  0  0  0  3  0  0  0  0  0  0
   22.4660   -0.5080   53.2510 N   0  0  0  0  0  0  0  0  0  0  0  0
   23.5470   -0.1710   54.0780 C   0  0  0  0  0  2  0  0  0  0  0  0
   24.2980    0.5880   53.2730 C   0  0  1  0  0  3  0  0  0  0  0  0
   19.2880   -1.1330   52.5370 H   0  0  0  0  0  0  0  0  0  0  0  0
   26.6160    0.5330   53.1730 O   0  0  0  0  0  0  0  0  0  0  0  0
   27.2840   -0.4260   53.8730 C   0  0  1  0  0  3  0  0  0  0  0  0
   27.7880   -1.5740   53.0920 C   0  0  0  0  0  0  0  0  0  0  0  0
   26.9700   -2.0910   52.2210 C   0  0  0  0  0  2  0  0  0  0  0  0
   29.1800   -2.0440   53.3600 C   0  0  0  0  0  2  0  0  0  0  0  0
   30.0720   -1.0020   53.1910 O   0  0  0  0  0  0  0  0  0  0  0  0
   29.6120    0.2090   53.6550 C   0  0  0  0  0  2  0  0  0  0  0  0
   28.4760    0.1020   54.6410 C   0  0  0  0  0  2  0  0  0  0  0  0
  1 21  1  6  0  0  0
  2  1  1  0  0  0  0
  3  2  1  0  0  0  0
  4  5  1  0  0  0  0
  4  3  1  0  0  0  0
  5  6  1  1  0  0  0
  5 19  1  0  0  0  0
  7  6  1  0  0  0  0
  8  7  1  0  0  0  0
  9  8  1  0  0  0  0
 10  9  2  0  0  0  0
 10 11  1  0  0  0  0
 11 12  2  0  0  0  0
 12  7  1  0  0  0  0
 12 13  1  0  0  0  0
 13 14  3  0  0  0  0
 14 15  1  0  0  0  0
 15 16  1  0  0  0  0
 17 16  2  0  0  0  0
 17 18  1  0  0  0  0
 19  1  1  0  0  0  0
 19 18  1  6  0  0  0
 20 15  1  0  0  0  0
 22 21  1  6  0  0  0
 22 28  1  0  0  0  0
 23 25  1  0  0  0  0
 23 22  1  0  0  0  0
 24 23  2  0  0  0  0
 26 25  1  0  0  0  0
 26 27  1  0  0  0  0
 27 28  1  0  0  0  0
M  END
>  <TORSDO>
F 2

$$$$
