C:\Qe-CaDD\Project\Data\Stage_6_Molecular_Dynamics\ligands_top\out_10630_EGFR_extracted.pdbqt
 OpenBabel01082506443D

 32 35  0  0  1  0  0  0  0  0999 V2000
   25.1240    0.9750   51.9440 C   0  0  0  0  0  0  0  0  0  0  0  0
   23.8430    1.1380   52.0910 N   0  0  0  0  0  0  0  0  0  0  0  0
   23.2440    2.2760   51.4840 C   0  0  0  0  0  3  0  0  0  0  0  0
   23.8960    3.1530   50.7970 N   0  0  0  0  0  0  0  0  0  0  0  0
   25.2990    2.9640   50.6400 C   0  0  0  0  0  0  0  0  0  0  0  0
   25.9110    3.8340   49.9610 C   0  0  2  0  0  3  0  0  0  0  0  0
   26.8060    4.4720   49.3750 C   0  0  0  0  0  0  0  0  0  0  0  0
   27.5660    5.0390   48.8620 C   0  0  0  0  0  0  0  0  0  0  0  0
   28.4200    5.7070   48.2670 N   0  0  0  0  0  0  0  0  0  0  0  0
   26.9980    6.4300   48.1800 C   0  0  0  0  0  0  0  0  0  0  0  0
   26.8530    7.6140   47.5040 O   0  0  0  0  0  0  0  0  0  0  0  0
   25.5170    6.1930   48.6840 C   0  0  0  0  0  2  0  0  0  0  0  0
   25.3410    4.9870   49.3360 O   0  0  0  0  0  0  0  0  0  0  0  0
   26.0980    1.8500   51.1960 C   0  0  0  0  0  3  0  0  0  0  0  0
   25.6620   -0.1830   52.5770 N   0  0  0  0  0  0  0  0  0  0  0  0
   25.1610   -1.1190   52.5150 H   0  0  0  0  0  0  0  0  0  0  0  0
   26.8840   -0.1370   53.3170 C   0  0  0  0  0  0  0  0  0  0  0  0
   28.0550   -0.9790   53.0960 C   0  0  0  0  0  3  0  0  0  0  0  0
   29.0100   -0.6780   53.9560 C   0  0  0  0  0  3  0  0  0  0  0  0
   28.5490    0.4180   54.8450 C   0  0  2  0  0  3  0  0  0  0  0  0
   27.1780    0.6650   54.3260 C   0  0  0  0  0  3  0  0  0  0  0  0
   29.3750    1.5140   54.8200 O   0  0  0  0  0  0  0  0  0  0  0  0
   28.8170    2.4000   53.8700 C   0  0  0  0  0  1  0  0  0  0  0  0
   29.2760    6.5430   47.5740 C   0  0  0  0  0  2  0  0  0  0  0  0
   30.7270    6.3730   48.0430 C   0  0  0  0  0  2  0  0  0  0  0  0
   31.2010    5.0130   47.5740 C   0  0  0  0  0  2  0  0  0  0  0  0
   32.4550    4.6470   48.1480 N   0  0  0  0  0  0  0  0  0  0  0  0
   33.5250    5.5610   47.9010 C   0  0  0  0  0  2  0  0  0  0  0  0
   34.8340    5.0390   48.4320 C   0  0  0  0  0  2  0  0  0  0  0  0
   35.1140    3.7410   48.0590 O   0  0  0  0  0  0  0  0  0  0  0  0
   34.1800    3.2600   47.1240 C   0  0  0  0  0  2  0  0  0  0  0  0
   32.7920    3.3200   47.7350 C   0  0  0  0  0  2  0  0  0  0  0  0
  1  2  1  0  0  0  0
  1 15  1  0  0  0  0
  3  2  2  0  0  0  0
  4  3  1  0  0  0  0
  5  4  2  0  0  0  0
  5 14  1  0  0  0  0
  6  5  1  1  0  0  0
  7  6  1  0  0  0  0
  8  7  3  0  0  0  0
  9  8  1  0  0  0  0
 10  9  1  0  0  0  0
 10 12  1  0  0  0  0
 11 10  2  0  0  0  0
 12 13  1  0  0  0  0
 13  6  1  0  0  0  0
 14  1  2  0  0  0  0
 15 17  1  0  0  0  0
 16 15  1  0  0  0  0
 17 21  2  0  0  0  0
 18 17  1  0  0  0  0
 18 19  2  0  0  0  0
 19 20  1  0  0  0  0
 20 22  1  6  0  0  0
 21 20  1  0  0  0  0
 23 22  1  0  0  0  0
 24 25  1  0  0  0  0
 24  9  1  0  0  0  0
 26 25  1  0  0  0  0
 26 27  1  0  0  0  0
 28 27  1  0  0  0  0
 28 29  1  0  0  0  0
 30 29  1  0  0  0  0
 31 32  1  0  0  0  0
 31 30  1  0  0  0  0
 32 27  1  0  0  0  0
M  END
>  <TORSDO>
F 7

$$$$
