C:\Qe-CaDD\Project\Data\Stage_6_Molecular_Dynamics\ligands_top\out_11822_EGFR_extracted.pdbqt
 OpenBabel01082506443D

 21 23  0  0  1  0  0  0  0  0999 V2000
   22.0200    0.0950   52.5280 C   0  0  0  0  0  0  0  0  0  0  0  0
   21.0530    0.3020   51.5840 C   0  0  0  0  0  3  0  0  0  0  0  0
   21.2010    1.1160   50.4920 C   0  0  0  0  0  3  0  0  0  0  0  0
   22.3740    1.7690   50.3110 C   0  0  0  0  0  3  0  0  0  0  0  0
   23.3950    1.6100   51.2200 C   0  0  0  0  0  0  0  0  0  0  0  0
   23.1920    0.7780   52.3020 C   0  0  0  0  0  0  0  0  0  0  0  0
   24.0650    0.4130   53.4110 C   0  0  0  0  0  2  0  0  0  0  0  0
   25.4410    0.9970   53.3560 C   0  0  1  0  0  3  0  0  0  0  0  0
   26.2180    0.6470   54.5770 C   0  0  0  0  0  2  0  0  0  0  0  0
   27.4750    0.2080   54.7470 C   0  0  0  0  0  2  0  0  0  0  0  0
   28.2210    0.0450   53.4420 C   0  0  0  0  0  2  0  0  0  0  0  0
   27.1640   -0.4120   52.4580 C   0  0  0  0  0  2  0  0  0  0  0  0
   26.2010    0.6160   52.2110 N   0  0  2  0  0  0  0  0  0  0  0  0
   26.8630    1.7320   51.5650 C   0  0  0  0  0  2  0  0  0  0  0  0
   25.7990    2.5540   50.9340 C   0  0  0  0  0  0  0  0  0  0  0  0
   26.2840    3.6640   50.5200 O   0  0  0  0  0  0  0  0  0  0  0  0
   24.4050    2.4460   50.6670 N   0  0  0  0  0  0  0  0  0  0  0  0
   24.0550    3.1120   49.9160 H   0  0  0  0  0  0  0  0  0  0  0  0
   21.7430   -0.7920   53.6480 C   0  0  0  0  0  0  0  0  0  0  0  0
   21.1380   -0.1860   54.8580 C   0  0  0  0  0  1  0  0  0  0  0  0
   21.9020   -2.0150   53.8520 O   0  0  0  0  0  0  0  0  0  0  0  0
  1 19  1  0  0  0  0
  2  1  2  0  0  0  0
  3  2  1  0  0  0  0
  4  3  2  0  0  0  0
  4  5  1  0  0  0  0
  5  6  2  0  0  0  0
  6  1  1  0  0  0  0
  6  7  1  0  0  0  0
  8  7  1  1  0  0  0
  8  9  1  0  0  0  0
  9 10  1  0  0  0  0
 11 10  1  0  0  0  0
 12 11  1  0  0  0  0
 13 14  1  1  0  0  0
 13 12  1  0  0  0  0
 13  8  1  0  0  0  0
 15 14  1  0  0  0  0
 16 15  2  0  0  0  0
 17 15  1  0  0  0  0
 17  5  1  0  0  0  0
 18 17  1  0  0  0  0
 19 21  2  0  0  0  0
 19 20  1  0  0  0  0
M  END
>  <TORSDO>
F 1

$$$$
