C:\Qe-CaDD\Project\Data\Stage_6_Molecular_Dynamics\ligands_top\out_14304_EGFR_extracted.pdbqt
 OpenBabel01082506443D

 31 33  0  0  1  0  0  0  0  0999 V2000
   28.2620    7.2250   47.7830 C   0  0  0  0  0  0  0  0  0  0  0  0
   28.9460    5.9450   48.0540 C   0  0  0  0  0  3  0  0  0  0  0  0
   28.5750    4.7820   48.5440 N   0  0  0  0  0  0  0  0  0  0  0  0
   27.1940    4.6260   48.9400 C   0  0  0  0  0  0  0  0  0  0  0  0
   26.5690    5.7630   48.7030 C   0  0  0  0  0  3  0  0  0  0  0  0
   26.8270    7.1140   48.1740 C   0  0  0  0  0  3  0  0  0  0  0  0
   26.5800    3.4420   49.5010 C   0  0  0  0  0  3  0  0  0  0  0  0
   25.6960    3.4820   50.4690 C   0  0  0  0  0  3  0  0  0  0  0  0
   25.1440    2.2640   50.9580 N   0  0  0  0  0  0  0  0  0  0  0  0
   24.4890    2.3500   52.2320 C   0  0  0  0  0  0  0  0  0  0  0  0
   24.4760    3.5120   52.7700 O   0  0  0  0  0  0  0  0  0  0  0  0
   25.0760    1.2790   50.6250 H   0  0  0  0  0  0  0  0  0  0  0  0
   23.7860    1.4200   53.1400 C   0  0  0  0  0  2  0  0  0  0  0  0
   24.4260    0.1960   53.2800 O   0  0  0  0  0  0  0  0  0  0  0  0
   25.7490    0.0680   53.6160 C   0  0  0  0  0  0  0  0  0  0  0  0
   26.4050   -0.7120   52.6560 C   0  0  0  0  0  3  0  0  0  0  0  0
   27.7640   -1.0050   52.7490 C   0  0  0  0  0  3  0  0  0  0  0  0
   28.4870   -0.5170   53.8160 C   0  0  0  0  0  0  0  0  0  0  0  0
   29.8180   -0.7540   53.9870 F   0  0  0  0  0  0  0  0  0  0  0  0
   27.8640    0.2540   54.7760 C   0  0  0  0  0  3  0  0  0  0  0  0
   26.5220    0.5440   54.6820 C   0  0  0  0  0  3  0  0  0  0  0  0
   28.9250    8.3810   48.3200 N   0  0  0  0  0  0  0  0  0  0  0  0
   29.7210    8.9860   47.2860 C   0  0  0  0  0  2  0  0  0  0  0  0
   30.5370   10.0720   47.9530 C   0  0  0  0  0  3  0  0  0  0  0  0
   29.8730   11.0210   48.6040 C   0  0  0  0  0  0  0  0  0  0  0  0
   30.5570   12.1300   49.2920 C   0  0  0  0  0  1  0  0  0  0  0  0
   28.4130   10.7360   48.4940 C   0  0  0  0  0  2  0  0  0  0  0  0
   28.0640    9.3430   48.9030 C   0  0  2  0  0  3  0  0  0  0  0  0
   28.1100    9.3360   50.3730 N   0  0  0  0  0  0  0  0  0  0  0  0
   28.2840    8.3970   50.7560 H   0  0  0  0  0  0  0  0  0  0  0  0
   28.8520    9.9830   50.7030 H   0  0  0  0  0  0  0  0  0  0  0  0
  1  2  2  0  0  0  0
  1  6  1  0  0  0  0
  1 22  1  0  0  0  0
  2  3  1  0  0  0  0
  3  4  2  0  0  0  0
  4  7  1  0  0  0  0
  5  4  1  0  0  0  0
  6  5  2  0  0  0  0
  7  8  2  0  0  0  0
  8  9  1  0  0  0  0
  9 10  1  0  0  0  0
 10 11  2  0  0  0  0
 10 13  1  0  0  0  0
 12  9  1  0  0  0  0
 13 14  1  0  0  0  0
 14 15  1  0  0  0  0
 15 21  1  0  0  0  0
 16 17  1  0  0  0  0
 16 15  2  0  0  0  0
 17 18  2  0  0  0  0
 18 19  1  0  0  0  0
 18 20  1  0  0  0  0
 21 20  2  0  0  0  0
 22 28  1  0  0  0  0
 23 24  1  0  0  0  0
 23 22  1  0  0  0  0
 24 25  2  0  0  0  0
 25 26  1  0  0  0  0
 27 25  1  0  0  0  0
 27 28  1  0  0  0  0
 28 29  1  1  0  0  0
 29 31  1  0  0  0  0
 29 30  1  0  0  0  0
M  END
>  <TORSDO>
F 7

$$$$
