C:\Qe-CaDD\Project\Data\Stage_6_Molecular_Dynamics\ligands_top\out_22361_EGFR_extracted.pdbqt
 OpenBabel01082506443D

 24 25  0  0  1  0  0  0  0  0999 V2000
   27.5190    2.1380   54.1510 N   0  0  0  0  0  0  0  0  0  0  0  0
   26.5960    2.4220   53.2650 C   0  0  0  0  0  0  0  0  0  0  0  0
   25.1360    2.3040   53.5140 C   0  0  0  0  0  2  0  0  0  0  0  0
   24.4270    1.6110   52.3690 C   0  0  2  0  0  3  0  0  0  0  0  0
   24.8640    2.0880   51.0740 N   0  0  0  0  0  0  0  0  0  0  0  0
   26.0180    2.6460   50.9520 C   0  0  0  0  0  3  0  0  0  0  0  0
   26.9820    2.8750   51.9730 N   0  0  0  0  0  0  0  0  0  0  0  0
   27.8880    3.3300   51.7990 H   0  0  0  0  0  0  0  0  0  0  0  0
   22.9960    1.8380   52.4230 N   0  0  0  0  0  0  0  0  0  0  0  0
   22.6440    2.7570   52.1290 H   0  0  0  0  0  0  0  0  0  0  0  0
   22.0870    0.8390   52.8610 C   0  0  0  0  0  0  0  0  0  0  0  0
   22.3970   -0.0980   53.8230 C   0  0  0  0  0  3  0  0  0  0  0  0
   21.5370   -1.0810   54.2700 C   0  0  0  0  0  3  0  0  0  0  0  0
   20.2760   -1.1070   53.6950 C   0  0  0  0  0  0  0  0  0  0  0  0
   19.3350   -2.0370   54.0590 F   0  0  0  0  0  0  0  0  0  0  0  0
   19.8910   -0.1920   52.7170 C   0  0  0  0  0  0  0  0  0  0  0  0
   18.2950   -0.2450   52.0080 Cl  0  0  0  0  0  0  0  0  0  0  0  0
   20.8210    0.7700   52.3210 C   0  0  0  0  0  3  0  0  0  0  0  0
   28.9230    2.2670   53.8640 C   0  0  0  0  0  2  0  0  0  0  0  0
   29.3610    0.9950   53.2980 N   0  0  0  0  0  0  0  0  0  0  0  0
   29.1580   -0.2140   54.0150 C   0  0  0  0  0  0  0  0  0  0  0  0
   29.6010   -1.5060   53.4400 C   0  0  0  0  0  1  0  0  0  0  0  0
   28.5960   -0.1940   55.1510 O   0  0  0  0  0  0  0  0  0  0  0  0
   29.8340    0.9070   52.3590 H   0  0  0  0  0  0  0  0  0  0  0  0
  2  3  1  0  0  0  0
  2  1  2  0  0  0  0
  4  9  1  1  0  0  0
  4  3  1  0  0  0  0
  5  4  1  0  0  0  0
  6  5  2  0  0  0  0
  6  7  1  0  0  0  0
  7  2  1  0  0  0  0
  8  7  1  0  0  0  0
  9 11  1  0  0  0  0
 10  9  1  0  0  0  0
 11 12  1  0  0  0  0
 12 13  2  0  0  0  0
 14 15  1  0  0  0  0
 14 13  1  0  0  0  0
 16 14  2  0  0  0  0
 17 16  1  0  0  0  0
 18 16  1  0  0  0  0
 18 11  2  0  0  0  0
 19  1  1  0  0  0  0
 20 19  1  0  0  0  0
 20 21  1  0  0  0  0
 21 23  2  0  0  0  0
 22 21  1  0  0  0  0
 24 20  1  0  0  0  0
M  END
>  <TORSDO>
F 4

$$$$
