C:\Qe-CaDD\Project\Data\Stage_6_Molecular_Dynamics\ligands_top\out_16417_EGFR_extracted.pdbqt
 OpenBabel01082506443D

 22 23  0  0  1  0  0  0  0  0999 V2000
   27.3390    2.1040   53.1330 C   0  0  2  0  0  3  0  0  0  0  0  0
   28.5830    2.4080   53.6070 C   0  0  0  0  0  3  0  0  0  0  0  0
   29.3910    1.7840   54.5290 C   0  0  0  0  0  3  0  0  0  0  0  0
   28.7640    0.6710   55.0110 N   0  0  0  0  0  0  0  0  0  0  0  0
   27.5730    0.2800   54.6340 C   0  0  0  0  0  0  0  0  0  0  0  0
   26.7800    0.9310   53.6970 C   0  0  0  0  0  0  0  0  0  0  0  0
   25.7400   -0.0530   53.8520 C   0  0  0  0  0  0  0  0  0  0  0  0
   26.5330   -0.6790   54.7700 O   0  0  0  0  0  0  0  0  0  0  0  0
   26.5370    2.7470   52.1920 N   0  0  0  0  0  0  0  0  0  0  0  0
   25.9170    3.5330   52.5110 H   0  0  0  0  0  0  0  0  0  0  0  0
   26.2910    2.6250   50.7750 C   0  0  0  0  0  2  0  0  0  0  0  0
   24.8400    2.9240   50.4350 C   0  0  0  0  0  2  0  0  0  0  0  0
   24.0750    3.1400   51.6610 C   0  0  0  0  0  3  0  0  0  0  0  0
   22.9270    2.8400   52.2380 C   0  0  0  0  0  3  0  0  0  0  0  0
   21.7610    2.0620   51.8640 C   0  0  0  0  0  2  0  0  0  0  0  0
   21.6580    1.1320   50.8980 C   0  0  0  0  0  2  0  0  0  0  0  0
   20.3300    0.6120   50.8650 C   0  0  0  0  0  3  0  0  0  0  0  0
   19.2890    0.2130   51.4890 C   0  0  0  0  0  2  0  0  0  0  0  0
   24.5590   -0.2870   53.3610 C   0  0  0  0  0  2  0  0  0  0  0  0
   23.2550   -0.4900   53.9660 C   0  0  0  0  0  2  0  0  0  0  0  0
   22.2760   -1.3130   53.4960 C   0  0  0  0  0  2  0  0  0  0  0  0
   21.1820   -1.1480   54.4680 C   0  0  0  0  0  1  0  0  0  0  0  0
  1  9  1  6  0  0  0
  1  2  1  0  0  0  0
  1  6  1  0  0  0  0
  2  3  2  0  0  0  0
  3  4  1  0  0  0  0
  5  8  1  0  0  0  0
  5  4  2  0  0  0  0
  6  7  2  0  0  0  0
  6  5  1  0  0  0  0
  7  8  1  0  0  0  0
  9 10  1  0  0  0  0
 11  9  1  0  0  0  0
 12 11  1  0  0  0  0
 12 13  1  0  0  0  0
 13 14  2  0  0  0  0
 15 14  1  0  0  0  0
 16 15  1  0  0  0  0
 17 16  1  0  0  0  0
 17 18  2  0  0  0  0
 19  7  1  0  0  0  0
 19 20  1  0  0  0  0
 21 20  1  0  0  0  0
 21 22  1  0  0  0  0
M  END
>  <TORSDO>
F 8

$$$$
