C:\Qe-CaDD\Project\Data\Stage_6_Molecular_Dynamics\ligands_top\out_22009_EGFR_extracted.pdbqt
 OpenBabel01082506443D

 25 27  0  0  1  0  0  0  0  0999 V2000
   26.2220    2.7950   51.0800 C   0  0  0  0  0  2  0  0  0  0  0  0
   25.2130    2.0180   51.4380 C   0  0  0  0  0  0  0  0  0  0  0  0
   23.8810    2.0480   50.7270 C   0  0  2  0  0  3  0  0  0  0  0  0
   23.8510    3.3050   49.8490 C   0  0  0  0  0  2  0  0  0  0  0  0
   22.6810    4.1740   50.1350 N   0  0  0  0  0  0  0  0  0  0  0  0
   22.0460    3.8710   51.3710 C   0  0  2  0  0  3  0  0  0  0  0  0
   22.0110    4.9580   49.8790 H   0  0  0  0  0  0  0  0  0  0  0  0
   23.0470    3.3410   52.1900 C   0  0  0  0  0  2  0  0  0  0  0  0
   20.6570    3.9150   51.8950 C   0  0  0  0  0  2  0  0  0  0  0  0
   22.8690    2.0300   51.7830 C   0  0  1  0  0  3  0  0  0  0  0  0
   21.8470    1.1700   52.3750 C   0  0  0  0  0  3  0  0  0  0  0  0
   20.6370    1.6550   52.7950 C   0  0  0  0  0  3  0  0  0  0  0  0
   20.2240    3.0730   52.8430 N   0  0  0  0  0  2  0  0  0  0  0  0
   25.5640    1.1950   52.5370 N   0  0  0  0  0  0  0  0  0  0  0  0
   25.6340   -0.2540   52.2860 C   0  0  0  0  0  2  0  0  0  0  0  0
   27.0800   -0.6300   52.4340 C   0  0  0  0  0  2  0  0  0  0  0  0
   27.5520   -0.1920   53.5710 C   0  0  1  0  0  3  0  0  0  0  0  0
   26.7680    0.5710   54.5760 C   0  0  0  0  0  2  0  0  0  0  0  0
   25.8710    1.5800   53.8900 C   0  0  1  0  0  3  0  0  0  0  0  0
   28.9870   -0.4890   53.8670 C   0  0  0  0  0  0  0  0  0  0  0  0
   29.2420   -1.8060   53.6220 F   0  0  0  0  0  0  0  0  0  0  0  0
   29.1740   -0.2780   55.2280 F   0  0  0  0  0  0  0  0  0  0  0  0
   29.8450    0.3380   53.2100 F   0  0  0  0  0  0  0  0  0  0  0  0
   26.5990    2.7890   53.9220 O   0  0  0  0  0  0  0  0  0  0  0  0
   26.4000    3.3300   53.1240 H   0  0  0  0  0  0  0  0  0  0  0  0
  1  2  2  0  0  0  0
  2 14  1  0  0  0  0
  3  2  1  1  0  0  0
  3 10  1  0  0  0  0
  4  5  1  0  0  0  0
  4  3  1  0  0  0  0
  5  6  1  0  0  0  0
  6  9  1  6  0  0  0
  6  8  1  0  0  0  0
  7  5  1  0  0  0  0
  9 13  1  0  0  0  0
 10  8  1  6  0  0  0
 10 11  1  0  0  0  0
 11 12  2  0  0  0  0
 12 13  1  0  0  0  0
 14 19  1  0  0  0  0
 15 16  1  0  0  0  0
 15 14  1  0  0  0  0
 16 17  1  0  0  0  0
 17 20  1  1  0  0  0
 17 18  1  0  0  0  0
 19 24  1  6  0  0  0
 19 18  1  0  0  0  0
 20 22  1  0  0  0  0
 21 20  1  0  0  0  0
 23 20  1  0  0  0  0
 25 24  1  0  0  0  0
M  END
>  <TORSDO>
F 4

$$$$
