C:\Qe-CaDD\Project\Data\Stage_6_Molecular_Dynamics\ligands_top\out_21634_EGFR_extracted.pdbqt
 OpenBabel01082506443D

 23 25  0  0  1  0  0  0  0  0999 V2000
   24.1560    1.9050   52.2170 C   0  0  0  0  0  2  0  0  0  0  0  0
   23.9230    0.7370   52.7750 C   0  0  1  0  0  3  0  0  0  0  0  0
   25.1260    0.0020   53.0060 C   0  0  1  0  0  3  0  0  0  0  0  0
   25.1300    1.1610   52.4830 O   0  0  0  0  0  0  0  0  0  0  0  0
   26.4730   -0.4850   53.1140 C   0  0  0  0  0  0  0  0  0  0  0  0
   27.3610    0.1660   53.8860 C   0  0  0  0  0  0  0  0  0  0  0  0
   28.7810   -0.0980   54.1790 C   0  0  0  0  0  3  0  0  0  0  0  0
   29.3450   -1.1910   53.7300 C   0  0  0  0  0  0  0  0  0  0  0  0
   28.9090   -2.3580   52.9250 C   0  0  0  0  0  2  0  0  0  0  0  0
   27.5430   -2.5770   53.1180 O   0  0  0  0  0  0  0  0  0  0  0  0
   26.7790   -1.7140   52.3350 C   0  0  0  0  0  2  0  0  0  0  0  0
   26.8630    1.3040   54.5390 O   0  0  0  0  0  0  0  0  0  0  0  0
   26.0140    1.7490   54.2740 H   0  0  0  0  0  0  0  0  0  0  0  0
   30.6830   -1.1960   54.1450 O   0  0  0  0  0  0  0  0  0  0  0  0
   30.9340   -1.2750   55.1420 H   0  0  0  0  0  0  0  0  0  0  0  0
   22.6290    0.1830   53.1590 C   0  0  0  0  0  0  0  0  0  0  0  0
   22.3720   -0.4970   54.3270 C   0  0  0  0  0  3  0  0  0  0  0  0
   21.1010   -0.9680   54.5650 C   0  0  0  0  0  3  0  0  0  0  0  0
   20.1170   -0.7530   53.6340 C   0  0  0  0  0  0  0  0  0  0  0  0
   20.3730   -0.0670   52.4540 C   0  0  0  0  0  3  0  0  0  0  0  0
   21.6670    0.4120   52.2150 C   0  0  0  0  0  3  0  0  0  0  0  0
   18.8410   -1.2570   53.9330 O   0  0  0  0  0  0  0  0  0  0  0  0
   18.1460   -1.2450   53.2160 H   0  0  0  0  0  0  0  0  0  0  0  0
  1  4  1  0  0  0  0
  1  2  1  0  0  0  0
  2  3  1  0  0  0  0
  2 16  1  1  0  0  0
  3  5  1  1  0  0  0
  4  3  1  0  0  0  0
  5  6  2  0  0  0  0
  6  7  1  0  0  0  0
  6 12  1  0  0  0  0
  8 14  1  0  0  0  0
  8  7  2  0  0  0  0
  9 10  1  0  0  0  0
  9  8  1  0  0  0  0
 11  5  1  0  0  0  0
 11 10  1  0  0  0  0
 13 12  1  0  0  0  0
 14 15  1  0  0  0  0
 16 17  1  0  0  0  0
 17 18  2  0  0  0  0
 19 22  1  0  0  0  0
 19 18  1  0  0  0  0
 20 19  2  0  0  0  0
 21 20  1  0  0  0  0
 21 16  2  0  0  0  0
 23 22  1  0  0  0  0
M  END
>  <TORSDO>
F 5

$$$$
