C:\Qe-CaDD\Project\Data\Stage_6_Molecular_Dynamics\ligands_top\out_21443_EGFR_extracted.pdbqt
 OpenBabel01082506443D

 31 33  0  0  1  0  0  0  0  0999 V2000
   26.8050   -0.1700   52.7940 C   0  0  0  0  0  0  0  0  0  0  0  0
   27.0510    0.7620   51.8530 C   0  0  0  0  0  3  0  0  0  0  0  0
   26.2940    1.8620   51.5450 C   0  0  0  0  0  0  0  0  0  0  0  0
   25.1100    2.0910   52.2640 C   0  0  0  0  0  0  0  0  0  0  0  0
   24.8550    1.1420   53.2280 C   0  0  0  0  0  3  0  0  0  0  0  0
   25.6520    0.0260   53.5160 C   0  0  0  0  0  0  0  0  0  0  0  0
   24.9970   -0.7920   54.5790 C   0  0  0  0  0  2  0  0  0  0  0  0
   23.5270   -0.5080   54.5070 N   0  0  0  0  0  0  0  0  0  0  0  0
   22.9200   -0.8520   53.3810 C   0  0  0  0  0  3  0  0  0  0  0  0
   21.4780   -0.6500   53.1100 C   0  0  0  0  0  0  0  0  0  0  0  0
   20.4920   -1.2070   53.8940 C   0  0  0  0  0  3  0  0  0  0  0  0
   19.2450   -0.8200   53.4160 C   0  0  0  0  0  3  0  0  0  0  0  0
   19.5520   -0.0310   52.3360 C   0  0  0  0  0  0  0  0  0  0  0  0
   18.4000    0.5530   51.5870 C   0  0  0  0  0  1  0  0  0  0  0  0
   20.8750    0.0790   52.1410 N   0  0  0  0  0  0  0  0  0  0  0  0
   21.4380    0.8010   51.0950 N   0  0  0  0  0  0  0  0  0  0  0  0
   22.7270    1.4300   51.0250 C   0  0  0  0  0  2  0  0  0  0  0  0
   22.7790    2.5580   52.0130 C   0  0  2  0  0  3  0  0  0  0  0  0
   21.7600    3.6240   51.6530 C   0  0  0  0  0  1  0  0  0  0  0  0
   24.1220    3.1290   52.1110 N   0  0  0  0  0  0  0  0  0  0  0  0
   20.8650    0.9230   50.1990 H   0  0  0  0  0  0  0  0  0  0  0  0
   24.7880    3.8950   52.1390 H   0  0  0  0  0  0  0  0  0  0  0  0
   26.5430    2.8740   50.5570 N   0  0  0  0  0  0  0  0  0  0  0  0
   27.5790    3.0110   50.7970 H   0  0  0  0  0  0  0  0  0  0  0  0
   26.7800    3.8450   49.6090 C   0  0  0  0  0  2  0  0  0  0  0  0
   25.5350    4.7390   49.4200 C   0  0  0  0  0  2  0  0  0  0  0  0
   25.9550    6.0440   48.9770 N   0  0  0  0  0  0  0  0  0  0  0  0
   25.6790    6.9880   50.0410 C   0  0  0  0  0  1  0  0  0  0  0  0
   27.3000    6.0940   48.4850 C   0  0  0  0  0  1  0  0  0  0  0  0
   27.4600   -1.2720   53.1860 O   0  0  0  0  0  0  0  0  0  0  0  0
   28.8600   -1.3240   53.3360 C   0  0  0  0  0  1  0  0  0  0  0  0
  1 30  1  0  0  0  0
  1  6  1  0  0  0  0
  2  1  2  0  0  0  0
  3  2  1  0  0  0  0
  3  4  2  0  0  0  0
  4  5  1  0  0  0  0
  5  6  2  0  0  0  0
  6  7  1  0  0  0  0
  8  7  1  0  0  0  0
  9  8  2  0  0  0  0
 10  9  1  0  0  0  0
 10 11  2  0  0  0  0
 12 11  1  0  0  0  0
 13 12  2  0  0  0  0
 14 13  1  0  0  0  0
 15 13  1  0  0  0  0
 15 10  1  0  0  0  0
 16 15  1  0  0  0  0
 17 16  1  0  0  0  0
 17 18  1  0  0  0  0
 18 19  1  6  0  0  0
 18 20  1  0  0  0  0
 20 22  1  0  0  0  0
 20  4  1  0  0  0  0
 21 16  1  0  0  0  0
 23 24  1  0  0  0  0
 23  3  1  0  0  0  0
 25 23  1  0  0  0  0
 26 25  1  0  0  0  0
 27 26  1  0  0  0  0
 27 28  1  0  0  0  0
 29 27  1  0  0  0  0
 30 31  1  0  0  0  0
M  END
>  <TORSDO>
F 5

$$$$
