C:\Qe-CaDD\Project\Data\Stage_6_Molecular_Dynamics\ligands_top\out_18304_EGFR_extracted.pdbqt
 OpenBabel01082506443D

 32 35  0  0  1  0  0  0  0  0999 V2000
   22.5690    2.9000   51.1500 C   0  0  0  0  0  0  0  0  0  0  0  0
   22.2890    2.1840   50.1300 N   0  0  0  0  0  0  0  0  0  0  0  0
   22.6670    2.4830   48.7440 C   0  0  0  0  0  2  0  0  0  0  0  0
   23.6440    3.6440   48.8020 C   0  0  0  0  0  0  0  0  0  0  0  0
   24.6470    3.1950   49.6130 C   0  0  0  0  0  3  0  0  0  0  0  0
   25.4960    4.1980   49.9680 C   0  0  0  0  0  2  0  0  0  0  0  0
   25.1810    5.4590   49.4390 C   0  0  2  0  0  0  0  0  0  0  0  0
   24.1210    5.8350   48.5910 C   0  0  0  0  0  3  0  0  0  0  0  0
   23.2720    4.8150   48.2430 C   0  0  0  0  0  0  0  0  0  0  0  0
   26.0490    6.5100   49.9860 N   0  0  0  0  0  0  0  0  0  0  0  0
   24.8560    6.6380   50.8350 C   0  0  2  0  0  3  0  0  0  0  0  0
   23.8660    6.3730   51.5810 N   0  0  0  0  0  2  0  0  0  0  0  0
   23.4170    5.1350   52.0360 C   0  0  0  0  0  2  0  0  0  0  0  0
   22.9650    3.9020   52.1450 C   0  0  0  0  0  2  0  0  0  0  0  0
   26.8540    7.0870   50.1100 H   0  0  0  0  0  0  0  0  0  0  0  0
   21.8270    1.8310   51.8680 N   0  0  0  0  0  0  0  0  0  0  0  0
   20.6350    1.8220   52.7090 C   0  0  0  0  0  1  0  0  0  0  0  0
   22.2590    0.4360   51.8670 C   0  0  0  0  0  2  0  0  0  0  0  0
   23.1840    0.0660   52.9490 C   0  0  0  0  0  0  0  0  0  0  0  0
   22.8240   -0.7030   54.0560 C   0  0  0  0  0  0  0  0  0  0  0  0
   21.5430   -1.2810   54.5410 C   0  0  0  0  0  1  0  0  0  0  0  0
   23.9070   -0.8920   54.8240 N   0  0  0  0  0  0  0  0  0  0  0  0
   24.9500   -0.2840   54.2790 N   0  0  0  0  0  0  0  0  0  0  0  0
   26.2740   -0.3270   54.9220 C   0  0  0  0  0  1  0  0  0  0  0  0
   24.5320    0.3130   53.1300 C   0  0  0  0  0  0  0  0  0  0  0  0
   25.4210    1.0740   52.2410 C   0  0  0  0  0  1  0  0  0  0  0  0
   21.9640    5.0870   47.1250 S   0  0  0  0  0  0  0  0  0  0  0  0
   21.9180    4.1430   45.9740 O   0  0  0  0  0  0  0  0  0  0  0  0
   20.6690    5.0500   47.8620 O   0  0  0  0  0  0  0  0  0  0  0  0
   22.1180    6.6940   46.4270 N   0  0  0  0  0  0  0  0  0  0  0  0
   22.5000    7.3640   47.1690 H   0  0  0  0  0  0  0  0  0  0  0  0
   22.8590    6.6650   45.6880 H   0  0  0  0  0  0  0  0  0  0  0  0
  1 16  1  0  0  0  0
  1 14  1  0  0  0  0
  2  1  2  0  0  0  0
  3  4  1  0  0  0  0
  3  2  1  0  0  0  0
  4  5  2  0  0  0  0
  5  6  1  0  0  0  0
  7  8  1  6  0  0  0
  7  6  1  0  0  0  0
  7 10  1  0  0  0  0
  7 11  1  0  0  0  0
  9  8  2  0  0  0  0
  9  4  1  0  0  0  0
 10 15  1  0  0  0  0
 10 11  1  0  0  0  0
 11 12  1  1  0  0  0
 12 13  1  0  0  0  0
 13 14  1  0  0  0  0
 16 17  1  0  0  0  0
 18 16  1  0  0  0  0
 18 19  1  0  0  0  0
 19 25  2  0  0  0  0
 19 20  1  0  0  0  0
 20 21  1  0  0  0  0
 20 22  2  0  0  0  0
 23 22  1  0  0  0  0
 23 24  1  0  0  0  0
 25 23  1  0  0  0  0
 26 25  1  0  0  0  0
 27 29  2  0  0  0  0
 27  9  1  0  0  0  0
 28 27  2  0  0  0  0
 30 27  1  0  0  0  0
 30 31  1  0  0  0  0
 32 30  1  0  0  0  0
M  END
>  <TORSDO>
F 5

$$$$
