C:\Qe-CaDD\Project\Data\Stage_6_Molecular_Dynamics\ligands_top\out_18179_EGFR_extracted.pdbqt
 OpenBabel01082506443D

 31 34  0  0  0  0  0  0  0  0999 V2000
   24.8460    2.0620   51.1660 C   0  0  0  0  0  0  0  0  0  0  0  0
   23.8680    2.7680   50.5280 C   0  0  0  0  0  3  0  0  0  0  0  0
   24.0830    3.8960   49.7950 C   0  0  0  0  0  0  0  0  0  0  0  0
   23.0560    4.5110   49.2050 N   0  0  0  0  0  0  0  0  0  0  0  0
   23.2070    5.6310   48.4610 C   0  0  0  0  0  3  0  0  0  0  0  0
   24.4660    6.0860   48.3560 N   0  0  0  0  0  0  0  0  0  0  0  0
   25.5240    5.5100   48.9250 C   0  0  0  0  0  0  0  0  0  0  0  0
   25.3700    4.3700   49.6820 C   0  0  0  0  0  0  0  0  0  0  0  0
   26.4170    3.7350   50.2820 C   0  0  0  0  0  3  0  0  0  0  0  0
   26.1400    2.5790   51.0240 C   0  0  0  0  0  0  0  0  0  0  0  0
   24.8760    0.9460   51.9350 O   0  0  0  0  0  0  0  0  0  0  0  0
   24.7100    0.7280   53.2760 C   0  0  0  0  0  2  0  0  0  0  0  0
   25.4020   -0.4930   53.8480 C   0  0  0  0  0  3  0  0  0  0  0  0
   26.1650   -0.1380   55.1150 C   0  0  0  0  0  2  0  0  0  0  0  0
   27.4830    0.4660   54.6890 C   0  0  0  0  0  2  0  0  0  0  0  0
   28.2300   -0.6570   54.1050 N   0  0  0  0  0  0  0  0  0  0  0  0
   29.6250   -0.3210   53.8840 C   0  0  0  0  0  1  0  0  0  0  0  0
   27.6670   -1.0140   52.8290 C   0  0  0  0  0  2  0  0  0  0  0  0
   26.2040   -1.2130   52.8270 C   0  0  0  0  0  2  0  0  0  0  0  0
   27.3100    2.0300   51.5870 O   0  0  0  0  0  0  0  0  0  0  0  0
   28.0630    2.8670   52.3700 N   0  0  0  0  0  0  0  0  0  0  0  0
   27.4240    3.3090   53.0620 H   0  0  0  0  0  0  0  0  0  0  0  0
   28.4940    3.6230   51.7930 H   0  0  0  0  0  0  0  0  0  0  0  0
   26.8320    6.1180   48.7260 C   0  0  0  0  0  0  0  0  0  0  0  0
   27.9360    5.4010   48.2920 C   0  0  0  0  0  3  0  0  0  0  0  0
   29.1990    5.9080   48.0970 C   0  0  0  0  0  3  0  0  0  0  0  0
   29.4030    7.2470   48.3490 C   0  0  0  0  0  0  0  0  0  0  0  0
   31.1350    7.9860   48.0900 Br  0  0  0  0  0  0  0  0  0  0  0  0
   28.3220    7.9870   48.7820 C   0  0  0  0  0  3  0  0  0  0  0  0
   27.0700    7.4630   48.9710 C   0  0  0  0  0  0  0  0  0  0  0  0
   26.0530    8.2660   49.4030 F   0  0  0  0  0  0  0  0  0  0  0  0
  1 11  1  0  0  0  0
  2  1  2  0  0  0  0
  3  2  1  0  0  0  0
  4  3  2  0  0  0  0
  5  4  1  0  0  0  0
  6  5  2  0  0  0  0
  6  7  1  0  0  0  0
  7  8  2  0  0  0  0
  8  3  1  0  0  0  0
  8  9  1  0  0  0  0
  9 10  2  0  0  0  0
 10  1  1  0  0  0  0
 10 20  1  0  0  0  0
 11 12  1  0  0  0  0
 12 13  1  0  0  0  0
 13 14  1  0  0  0  0
 15 14  1  0  0  0  0
 16 15  1  0  0  0  0
 17 16  1  0  0  0  0
 18 16  1  0  0  0  0
 19 18  1  0  0  0  0
 19 13  1  0  0  0  0
 20 21  1  0  0  0  0
 21 22  1  0  0  0  0
 23 21  1  0  0  0  0
 24  7  1  0  0  0  0
 24 30  1  0  0  0  0
 25 24  2  0  0  0  0
 26 25  1  0  0  0  0
 26 27  2  0  0  0  0
 27 29  1  0  0  0  0
 28 27  1  0  0  0  0
 29 30  2  0  0  0  0
 30 31  1  0  0  0  0
M  END
>  <TORSDO>
F 6

$$$$
