C:\Qe-CaDD\Project\Data\Stage_6_Molecular_Dynamics\ligands_top\out_16944_EGFR_extracted.pdbqt
 OpenBabel01082506443D

 27 29  0  0  1  0  0  0  0  0999 V2000
   19.0060    3.2680   51.8350 C   0  0  0  0  0  1  0  0  0  0  0  0
   20.2700    2.5570   51.9490 C   0  0  2  0  0  3  0  0  0  0  0  0
   20.3540    1.4300   52.6850 C   0  0  2  0  0  3  0  0  0  0  0  0
   21.0100    0.2360   53.2800 C   0  0  0  0  0  3  0  0  0  0  0  0
   22.2690   -0.2460   53.3690 C   0  0  0  0  0  3  0  0  0  0  0  0
   23.5410    0.2750   52.9440 C   0  0  0  0  0  2  0  0  0  0  0  0
   24.1590    1.3590   52.4100 C   0  0  1  0  0  3  0  0  0  0  0  0
   23.3880    2.5800   52.7070 C   0  0  0  0  0  2  0  0  0  0  0  0
   22.7390    3.4190   51.8270 N   0  0  0  0  0  0  0  0  0  0  0  0
   21.4600    3.4280   51.5110 C   0  0  0  0  0  0  0  0  0  0  0  0
   21.2990    4.5340   50.5500 C   0  0  0  0  0  2  0  0  0  0  0  0
   21.5300    4.0410   49.2620 N   0  0  2  0  0  0  0  0  0  0  0  0
   20.4900    3.5050   48.4910 C   0  0  0  0  0  2  0  0  0  0  0  0
   20.4140    2.0290   48.7600 C   0  0  0  0  0  2  0  0  0  0  0  0
   21.6300    1.3940   49.3530 C   0  0  1  0  0  3  0  0  0  0  0  0
   22.8870    2.1020   49.0080 C   0  0  0  0  0  2  0  0  0  0  0  0
   22.8410    3.6050   48.9500 C   0  0  0  0  0  2  0  0  0  0  0  0
   21.4560    0.7800   50.6660 C   0  0  0  0  0  2  0  0  0  0  0  0
   21.5410    1.5660   51.8940 O   0  0  0  0  0  0  0  0  0  0  0  0
   25.4390    1.7870   51.9860 N   0  0  0  0  0  0  0  0  0  0  0  0
   26.2520    1.2220   52.2820 H   0  0  0  0  0  0  0  0  0  0  0  0
   25.8380    2.8960   51.1960 C   0  0  0  0  0  3  0  0  0  0  0  0
   26.4200    2.8910   50.0110 C   0  0  0  0  0  3  0  0  0  0  0  0
   26.8190    4.0490   49.2230 C   0  0  0  0  0  3  0  0  0  0  0  0
   26.1740    5.1920   49.3940 C   0  0  0  0  0  3  0  0  0  0  0  0
   26.5870    6.3590   48.5890 C   0  0  0  0  0  2  0  0  0  0  0  0
   28.4680    6.1800   48.2070 Br  0  0  0  0  0  0  0  0  0  0  0  0
  2  1  1  1  0  0  0
  2  3  1  0  0  0  0
  3  4  1  1  0  0  0
  4  5  2  0  0  0  0
  6  5  1  0  0  0  0
  7 20  1  1  0  0  0
  7  8  1  0  0  0  0
  7  6  1  0  0  0  0
  9  8  1  0  0  0  0
 10  9  2  0  0  0  0
 10  2  1  0  0  0  0
 11 10  1  0  0  0  0
 12 13  1  1  0  0  0
 12 11  1  0  0  0  0
 13 14  1  0  0  0  0
 15 14  1  1  0  0  0
 15 18  1  0  0  0  0
 16 15  1  0  0  0  0
 17 16  1  0  0  0  0
 17 12  1  0  0  0  0
 18 19  1  0  0  0  0
 19  3  1  0  0  0  0
 20 21  1  0  0  0  0
 22 20  1  0  0  0  0
 23 22  2  0  0  0  0
 24 25  2  0  0  0  0
 24 23  1  0  0  0  0
 26 25  1  0  0  0  0
 27 26  1  0  0  0  0
M  END
>  <TORSDO>
F 4

$$$$
