C:\Qe-CaDD\Project\Data\Stage_6_Molecular_Dynamics\ligands_top\out_16388_EGFR_extracted.pdbqt
 OpenBabel01082506443D

 23 26  0  0  0  0  0  0  0  0999 V2000
   27.1800    1.7430   52.9030 C   0  0  0  0  0  0  0  0  0  0  0  0
   28.4660    1.6880   53.3910 C   0  0  0  0  0  3  0  0  0  0  0  0
   28.8970    0.8110   54.3620 C   0  0  0  0  0  3  0  0  0  0  0  0
   28.0010   -0.0540   54.8710 N   0  0  0  0  0  0  0  0  0  0  0  0
   26.7370   -0.0330   54.4220 C   0  0  0  0  0  0  0  0  0  0  0  0
   25.7120   -0.7630   54.7590 O   0  0  0  0  0  0  0  0  0  0  0  0
   24.6250   -0.4550   54.1010 C   0  0  0  0  0  0  0  0  0  0  0  0
   24.9740    0.5720   53.2540 C   0  0  0  0  0  0  0  0  0  0  0  0
   26.3070    0.8390   53.4560 C   0  0  0  0  0  0  0  0  0  0  0  0
   23.9260    0.9470   52.5470 C   0  0  0  0  0  3  0  0  0  0  0  0
   22.7480    0.1220   52.9210 C   0  0  0  0  0  3  0  0  0  0  0  0
   23.3460   -0.7610   53.9550 C   0  0  0  0  0  2  0  0  0  0  0  0
   26.8490    2.6640   51.9110 N   0  0  0  0  0  0  0  0  0  0  0  0
   26.8430    3.6270   52.2490 H   0  0  0  0  0  0  0  0  0  0  0  0
   26.5080    2.6370   50.5070 C   0  0  0  0  0  2  0  0  0  0  0  0
   26.2730    3.9820   49.9210 C   0  0  0  0  0  0  0  0  0  0  0  0
   27.3200    4.3940   49.0860 C   0  0  0  0  0  3  0  0  0  0  0  0
   27.3570    5.6030   48.4300 C   0  0  0  0  0  3  0  0  0  0  0  0
   26.3170    6.4920   48.5790 C   0  0  0  0  0  0  0  0  0  0  0  0
   25.2880    6.0940   49.3980 C   0  0  0  0  0  3  0  0  0  0  0  0
   25.2460    4.8880   50.0540 C   0  0  0  0  0  3  0  0  0  0  0  0
   26.2040    7.7280   47.9980 O   0  0  0  0  0  0  0  0  0  0  0  0
   27.0220    8.1920   46.9530 C   0  0  0  0  0  1  0  0  0  0  0  0
  1  2  1  0  0  0  0
  1  9  2  0  0  0  0
  2  3  2  0  0  0  0
  3  4  1  0  0  0  0
  5  6  1  0  0  0  0
  5  4  2  0  0  0  0
  7  6  1  0  0  0  0
  8  9  1  0  0  0  0
  8  7  2  0  0  0  0
  9  5  1  0  0  0  0
 10 11  2  0  0  0  0
 10  8  1  0  0  0  0
 11 12  1  0  0  0  0
 12  7  1  0  0  0  0
 13 14  1  0  0  0  0
 13  1  1  0  0  0  0
 15 13  1  0  0  0  0
 16 21  1  0  0  0  0
 16 15  1  0  0  0  0
 17 16  2  0  0  0  0
 18 19  2  0  0  0  0
 18 17  1  0  0  0  0
 19 20  1  0  0  0  0
 20 21  2  0  0  0  0
 22 19  1  0  0  0  0
 23 22  1  0  0  0  0
M  END
>  <TORSDO>
F 4

$$$$
