C:\Qe-CaDD\Project\Data\Stage_6_Molecular_Dynamics\ligands_top\out_10841_EGFR_extracted.pdbqt
 OpenBabel01082506443D

 23 26  0  0  0  0  0  0  0  0999 V2000
   20.0110    0.4150   51.3860 C   0  0  0  0  0  1  0  0  0  0  0  0
   21.2980    0.2790   52.0850 C   0  0  0  0  0  0  0  0  0  0  0  0
   21.3730   -0.5030   53.2370 C   0  0  0  0  0  3  0  0  0  0  0  0
   22.5690   -0.6640   53.9340 C   0  0  0  0  0  0  0  0  0  0  0  0
   22.6350   -1.4200   55.0420 N   0  0  0  0  0  0  0  0  0  0  0  0
   23.8090   -1.5460   55.6810 C   0  0  0  0  0  3  0  0  0  0  0  0
   24.9280   -0.9390   55.2490 N   0  0  0  0  0  0  0  0  0  0  0  0
   24.9490   -0.1530   54.1310 C   0  0  0  0  0  0  0  0  0  0  0  0
   23.7250   -0.0500   53.5070 C   0  0  0  0  0  0  0  0  0  0  0  0
   23.6210    0.7130   52.3720 C   0  0  0  0  0  3  0  0  0  0  0  0
   22.4640    0.9020   51.6480 C   0  0  0  0  0  0  0  0  0  0  0  0
   26.1450    0.4840   53.6990 N   0  0  0  0  0  0  0  0  0  0  0  0
   26.6450    1.8220   53.3400 C   0  0  0  0  0  2  0  0  0  0  0  0
   28.0480    1.8470   53.9140 C   0  0  0  0  0  2  0  0  0  0  0  0
   28.4770    0.4480   53.6380 C   0  0  0  0  0  0  0  0  0  0  0  0
   29.7400   -0.0370   53.5160 C   0  0  0  0  0  3  0  0  0  0  0  0
   27.3100   -0.3150   53.5210 C   0  0  0  0  0  0  0  0  0  0  0  0
   29.9220   -1.3800   53.2570 C   0  0  0  0  0  3  0  0  0  0  0  0
   28.8180   -2.1980   53.1290 C   0  0  0  0  0  3  0  0  0  0  0  0
   27.5610   -1.6540   53.2610 C   0  0  0  0  0  3  0  0  0  0  0  0
   22.3730    1.7220   50.4350 C   0  0  0  0  0  2  0  0  0  0  0  0
   23.5390    2.4940   50.2720 O   0  0  0  0  0  0  0  0  0  0  0  0
   23.8860    2.7570   51.1500 H   0  0  0  0  0  0  0  0  0  0  0  0
  1  2  1  0  0  0  0
  2  3  1  0  0  0  0
  3  4  2  0  0  0  0
  4  5  1  0  0  0  0
  5  6  2  0  0  0  0
  7  6  1  0  0  0  0
  8  7  2  0  0  0  0
  9  4  1  0  0  0  0
  9  8  1  0  0  0  0
 10  9  2  0  0  0  0
 11  2  2  0  0  0  0
 11 10  1  0  0  0  0
 12  8  1  0  0  0  0
 13 12  1  0  0  0  0
 13 14  1  0  0  0  0
 15 14  1  0  0  0  0
 16 15  2  0  0  0  0
 17 15  1  0  0  0  0
 17 12  1  0  0  0  0
 18 16  1  0  0  0  0
 19 18  2  0  0  0  0
 19 20  1  0  0  0  0
 20 17  2  0  0  0  0
 21 11  1  0  0  0  0
 22 21  1  0  0  0  0
 22 23  1  0  0  0  0
M  END
>  <TORSDO>
F 3

$$$$
