C:\Qe-CaDD\Project\Data\Stage_6_Molecular_Dynamics\ligands_top\out_16948_EGFR_extracted.pdbqt
 OpenBabel01082506443D

 20 24  0  0  1  0  0  0  0  0999 V2000
   25.0950    1.7330   53.2210 C   0  0  0  0  0  0  0  0  0  0  0  0
   26.2320    2.5110   53.3550 C   0  0  0  0  0  2  0  0  0  0  0  0
   27.6090    2.0110   53.7050 C   0  0  2  0  0  3  0  0  0  0  0  0
   27.6800    0.9940   54.4830 N   0  0  0  0  0  0  0  0  0  0  0  0
   26.6050    0.3620   55.0190 C   0  0  0  0  0  3  0  0  0  0  0  0
   25.7670   -0.4440   54.6690 N   0  0  0  0  0  0  0  0  0  0  0  0
   25.7660   -1.0200   53.2590 C   0  0  2  0  0  3  0  0  0  0  0  0
   24.4040   -0.8360   53.1400 C   0  0  0  0  0  2  0  0  0  0  0  0
   24.0960    0.5500   53.1210 C   0  0  0  0  0  0  0  0  0  0  0  0
   26.9960   -1.6730   53.0870 C   0  0  0  0  0  0  0  0  0  0  0  0
   27.9520   -2.6000   52.8690 C   0  0  0  0  0  3  0  0  0  0  0  0
   29.2850   -2.2700   53.0050 C   0  0  0  0  0  2  0  0  0  0  0  0
   29.8580   -1.0640   53.3520 C   0  0  2  0  0  3  0  0  0  0  0  0
   29.2430    0.1250   53.6520 C   0  0  0  0  0  0  0  0  0  0  0  0
   28.0750   -0.7120   53.3830 C   0  0  0  0  0  0  0  0  0  0  0  0
   28.9350    1.5290   54.0430 C   0  0  1  0  0  3  0  0  0  0  0  0
   24.3720    2.9530   52.9660 O   0  0  0  0  0  0  0  0  0  0  0  0
   24.4040    3.6020   51.7360 C   0  0  0  0  0  1  0  0  0  0  0  0
   22.7840    0.8720   53.0040 O   0  0  0  0  0  0  0  0  0  0  0  0
   21.7970    0.3350   53.8540 C   0  0  0  0  0  1  0  0  0  0  0  0
  1  2  1  0  0  0  0
  3  2  1  1  0  0  0
  3 16  1  0  0  0  0
  3  4  1  0  0  0  0
  4  5  1  0  0  0  0
  6  5  2  0  0  0  0
  7  8  1  1  0  0  0
  7  6  1  0  0  0  0
  9  8  1  0  0  0  0
  9  1  2  0  0  0  0
 10  7  1  0  0  0  0
 10 15  1  0  0  0  0
 11 12  1  0  0  0  0
 11 10  2  0  0  0  0
 13 12  1  1  0  0  0
 13 15  1  0  0  0  0
 13 14  1  0  0  0  0
 15 14  2  3  0  0  0
 16 14  1  6  0  0  0
 16  4  1  0  0  0  0
 17  1  1  0  0  0  0
 18 17  1  0  0  0  0
 19  9  1  0  0  0  0
 19 20  1  0  0  0  0
M  END
>  <TORSDO>
F 2

$$$$
