C:\Qe-CaDD\Project\Data\Stage_6_Molecular_Dynamics\ligands_top\out_11567_EGFR_extracted.pdbqt
 OpenBabel01082506443D

 26 28  0  0  1  0  0  0  0  0999 V2000
   27.7020    6.3020   48.5150 C   0  0  0  0  0  0  0  0  0  0  0  0
   27.7720    4.9840   48.4950 C   0  0  0  0  0  3  0  0  0  0  0  0
   26.8230    4.0810   49.1600 C   0  0  0  0  0  3  0  0  0  0  0  0
   25.7700    4.8190   49.8600 C   0  0  0  0  0  0  0  0  0  0  0  0
   24.8170    4.1800   50.5210 C   0  0  2  0  0  3  0  0  0  0  0  0
   25.7040    6.2760   49.8740 C   0  0  0  0  0  3  0  0  0  0  0  0
   26.6240    6.9970   49.2350 C   0  0  0  0  0  0  0  0  0  0  0  0
   23.4940    5.0370   51.4030 S   0  0  0  0  0  0  0  0  0  0  0  0
   23.5590    6.4150   51.0900 H   0  0  0  0  0  0  0  0  0  0  0  0
   24.6690    2.7860   50.6510 N   0  0  0  0  0  0  0  0  0  0  0  0
   24.1020    2.2770   49.9390 H   0  0  0  0  0  0  0  0  0  0  0  0
   25.2640    2.0700   51.7140 C   0  0  0  0  0  0  0  0  0  0  0  0
   24.5350    1.1660   52.4590 C   0  0  0  0  0  3  0  0  0  0  0  0
   25.1550    0.5180   53.4540 N   0  0  0  0  0  0  0  0  0  0  0  0
   26.4550    0.7270   53.7380 C   0  0  0  0  0  0  0  0  0  0  0  0
   27.0730    0.0460   54.7700 C   0  0  0  0  0  3  0  0  0  0  0  0
   27.2120    1.6270   53.0080 C   0  0  0  0  0  0  0  0  0  0  0  0
   28.4040    0.2750   55.0440 C   0  0  0  0  0  3  0  0  0  0  0  0
   29.1340    1.1760   54.3020 C   0  0  0  0  0  3  0  0  0  0  0  0
   28.5430    1.8760   53.2590 C   0  0  0  0  0  3  0  0  0  0  0  0
   26.5600    2.2540   52.0250 N   0  0  0  0  0  0  0  0  0  0  0  0
   26.4860    8.3760   49.2990 O   0  0  0  0  0  0  0  0  0  0  0  0
   27.1150    9.2200   50.2130 C   0  0  0  0  0  1  0  0  0  0  0  0
   28.9210    7.2950   47.6660 S   0  0  0  0  0  0  0  0  0  0  0  0
   30.1540    7.7430   48.7740 O   0  0  0  0  0  0  0  0  0  0  0  0
   31.1470    6.7830   48.7260 C   0  0  0  0  0  1  0  0  0  0  0  0
  1  7  1  0  0  0  0
  2  1  2  0  0  0  0
  2  3  1  0  0  0  0
  3  4  2  0  0  0  0
  4  6  1  0  0  0  0
  4  5  1  0  0  0  0
  5 10  1  0  0  0  0
  5  8  1  1  0  0  0
  7 22  1  0  0  0  0
  7  6  2  0  0  0  0
  9  8  1  0  0  0  0
 10 12  1  0  0  0  0
 11 10  1  0  0  0  0
 12 21  2  0  0  0  0
 12 13  1  0  0  0  0
 13 14  2  0  0  0  0
 14 15  1  0  0  0  0
 15 16  1  0  0  0  0
 16 18  2  0  0  0  0
 17 20  1  0  0  0  0
 17 15  2  0  0  0  0
 19 18  1  0  0  0  0
 20 19  2  0  0  0  0
 21 17  1  0  0  0  0
 22 23  1  0  0  0  0
 24  1  1  0  0  0  0
 24 25  1  0  0  0  0
 26 25  1  0  0  0  0
M  END
>  <TORSDO>
F 6

$$$$
