C:\Qe-CaDD\Project\Data\Stage_6_Molecular_Dynamics\ligands_top\out_22799_EGFR_extracted.pdbqt
 OpenBabel01082506443D

 22 25  0  0  1  0  0  0  0  0999 V2000
   24.2050    7.0390   51.1130 C   0  0  0  0  0  2  0  0  0  0  0  0
   23.8510    5.7990   50.5050 N   0  0  2  0  0  0  0  0  0  0  0  0
   25.0690    5.8270   49.8760 C   0  0  1  0  0  3  0  0  0  0  0  0
   26.1390    5.8620   49.3220 C   0  0  0  0  0  0  0  0  0  0  0  0
   27.4550    5.9060   48.6050 C   0  0  0  0  0  2  0  0  0  0  0  0
   27.4680    4.6090   48.7040 C   0  0  0  0  0  2  0  0  0  0  0  0
   26.2400    4.3280   49.3670 C   0  0  0  0  0  0  0  0  0  0  0  0
   25.5990    3.2840   49.7710 C   0  0  0  0  0  2  0  0  0  0  0  0
   24.3290    3.3610   50.4190 C   0  0  2  0  0  0  0  0  0  0  0  0
   23.3860    2.1710   50.1880 C   0  0  0  0  0  1  0  0  0  0  0  0
   23.5050    4.5410   49.8800 C   0  0  0  0  0  2  0  0  0  0  0  0
   24.3230    3.4600   51.9490 C   0  0  0  0  0  0  0  0  0  0  0  0
   23.9290    3.9590   53.0890 O   0  0  0  0  0  0  0  0  0  0  0  0
   25.3650    2.3930   52.2750 N   0  0  0  0  0  0  0  0  0  0  0  0
   26.0850    2.1030   51.5310 H   0  0  0  0  0  0  0  0  0  0  0  0
   26.1940    1.4980   53.1370 C   0  0  0  0  0  0  0  0  0  0  0  0
   27.2880    2.2840   52.9930 C   0  0  0  0  0  3  0  0  0  0  0  0
   28.6470    1.9840   53.6550 C   0  0  0  0  0  3  0  0  0  0  0  0
   29.2560    0.7650   53.7740 C   0  0  0  0  0  3  0  0  0  0  0  0
   28.6780   -0.4480   53.2670 C   0  0  0  0  0  2  0  0  0  0  0  0
   27.4420   -1.1230   53.1870 C   0  0  0  0  0  2  0  0  0  0  0  0
   26.1360   -0.0660   53.9990 S   0  0  0  0  0  0  0  0  0  0  0  0
  2 11  1  6  0  0  0
  2  1  1  0  0  0  0
  3  2  1  0  0  0  0
  3  1  1  1  0  0  0
  4  7  2  0  0  0  0
  4  3  1  0  0  0  0
  5  6  1  0  0  0  0
  5  4  1  0  0  0  0
  6  7  1  0  0  0  0
  7  8  1  0  0  0  0
  8  9  1  0  0  0  0
  9 10  1  6  0  0  0
  9 12  1  0  0  0  0
 11  9  1  0  0  0  0
 12 14  1  0  0  0  0
 12 13  2  0  0  0  0
 14 16  1  0  0  0  0
 15 14  1  0  0  0  0
 16 22  1  0  0  0  0
 17 16  2  0  0  0  0
 17 18  1  0  0  0  0
 18 19  2  0  0  0  0
 20 19  1  0  0  0  0
 21 20  1  0  0  0  0
 21 22  1  0  0  0  0
M  END
>  <TORSDO>
F 2

$$$$
