C:\Qe-CaDD\Project\Data\Stage_6_Molecular_Dynamics\ligands_top\out_16376_EGFR_extracted.pdbqt
 OpenBabel01082506443D

 23 27  0  0  1  0  0  0  0  0999 V2000
   23.3620    3.2760   51.5970 C   0  0  0  0  0  1  0  0  0  0  0  0
   24.2530    2.2970   51.9490 C   0  0  2  0  0  3  0  0  0  0  0  0
   25.6370    2.4190   51.2560 C   0  0  0  0  0  2  0  0  0  0  0  0
   26.7720    2.4970   52.1030 N   0  0  0  0  0  0  0  0  0  0  0  0
   27.2240    1.4860   53.0580 C   0  0  1  0  0  3  0  0  0  0  0  0
   28.5350    1.5120   53.4400 C   0  0  0  0  0  3  0  0  0  0  0  0
   29.0420    0.6810   54.4220 C   0  0  0  0  0  3  0  0  0  0  0  0
   28.1280   -0.1420   54.9660 N   0  0  0  0  0  0  0  0  0  0  0  0
   26.8650   -0.1990   54.6330 C   0  0  0  0  0  0  0  0  0  0  0  0
   25.7450   -0.8070   54.9220 O   0  0  0  0  0  0  0  0  0  0  0  0
   24.8010   -0.3770   54.2070 C   0  0  2  0  0  0  0  0  0  0  0  0
   25.0520    0.6640   53.2010 C   0  0  2  0  0  3  0  0  0  0  0  0
   26.3370    0.5680   53.6880 C   0  0  1  0  0  0  0  0  0  0  0  0
   24.6030    1.6480   52.3350 C   0  0  1  0  0  3  0  0  0  0  0  0
   23.2730    2.0960   52.0930 C   0  0  1  0  0  3  0  0  0  0  0  0
   23.6240    1.0640   52.6450 C   0  0  1  0  0  3  0  0  0  0  0  0
   22.3030    0.4240   52.5760 C   0  0  0  0  0  3  0  0  0  0  0  0
   21.9160   -0.5370   53.5730 C   0  0  0  0  0  3  0  0  0  0  0  0
   22.2670   -1.2800   54.5350 C   0  0  0  0  0  2  0  0  0  0  0  0
   23.6110   -0.8920   54.4640 C   0  0  0  0  0  2  0  0  0  0  0  0
   27.4030    3.3660   52.0890 H   0  0  0  0  0  0  0  0  0  0  0  0
   23.4340    4.4150   50.6920 C   0  0  0  0  0  1  0  0  0  0  0  0
   23.3300    4.0050   48.9530 Cl  0  0  0  0  0  0  0  0  0  0  0  0
  1 15  1  0  0  0  0
  2  3  1  6  0  0  0
  2 15  1  0  0  0  0
  2 14  1  0  0  0  0
  3  4  1  0  0  0  0
  4  5  1  0  0  0  0
  5  6  1  1  0  0  0
  5 13  1  0  0  0  0
  6  7  2  0  0  0  0
  7  8  1  0  0  0  0
  9 10  1  0  0  0  0
  9  8  2  0  0  0  0
 11 20  1  1  0  0  0
 11 10  1  0  0  0  0
 12 13  1  0  0  0  0
 12 11  1  0  0  0  0
 13 11  1  0  0  0  0
 13  9  1  0  0  0  0
 14 16  1  0  0  0  0
 14 12  1  0  0  0  0
 15 16  1  0  0  0  0
 17 16  1  0  0  0  0
 17 18  2  0  0  0  0
 18 19  1  0  0  0  0
 20 19  1  0  0  0  0
 21  4  1  0  0  0  0
 23 22  1  0  0  0  0
M  END
>  <TORSDO>
F 1

$$$$
