C:\Qe-CaDD\Project\Data\Stage_6_Molecular_Dynamics\ligands_top\out_14063_EGFR_extracted.pdbqt
 OpenBabel01082506443D

 23 26  0  0  0  0  0  0  0  0999 V2000
   22.6890    0.4390   53.0240 C   0  0  0  0  0  0  0  0  0  0  0  0
   21.7420   -0.0370   53.9280 C   0  0  0  0  0  3  0  0  0  0  0  0
   20.6110   -0.0430   53.2780 O   0  0  0  0  0  0  0  0  0  0  0  0
   20.7530    0.3770   52.0620 C   0  0  0  0  0  0  0  0  0  0  0  0
   19.8550    0.5470   51.0040 C   0  0  0  0  0  3  0  0  0  0  0  0
   20.2930    1.0260   49.7890 C   0  0  0  0  0  3  0  0  0  0  0  0
   21.6220    1.3390   49.6120 C   0  0  0  0  0  0  0  0  0  0  0  0
   22.5530    1.1950   50.6100 C   0  0  0  0  0  3  0  0  0  0  0  0
   22.0770    0.7150   51.8100 C   0  0  0  0  0  0  0  0  0  0  0  0
   24.0970    0.5960   53.3740 C   0  0  0  0  0  0  0  0  0  0  0  0
   24.8090   -0.5370   53.7190 C   0  0  0  0  0  3  0  0  0  0  0  0
   26.1400   -0.4560   54.0590 C   0  0  0  0  0  3  0  0  0  0  0  0
   26.7260    0.7910   54.0420 C   0  0  0  0  0  0  0  0  0  0  0  0
   26.0340    1.9110   53.7050 C   0  0  0  0  0  3  0  0  0  0  0  0
   24.7000    1.8520   53.3610 C   0  0  0  0  0  3  0  0  0  0  0  0
   28.4330    0.9290   54.4750 S   0  0  2  0  0  0  0  0  0  0  0  0
   28.8520    2.3890   54.5510 O   0  0  0  0  0  0  0  0  0  0  0  0
   29.4870    0.1530   53.2430 C   0  0  0  0  0  2  0  0  0  0  0  0
   29.6320   -1.3290   53.4890 C   0  0  0  0  0  1  0  0  0  0  0  0
   22.0610    1.8540   48.2850 C   0  0  0  0  0  3  0  0  0  0  0  0
   23.0750    2.8810   48.2930 C   0  0  0  0  0  2  0  0  0  0  0  0
   22.2860    3.7910   47.8120 C   0  0  0  0  0  2  0  0  0  0  0  0
   21.1490    2.9000   47.7300 C   0  0  0  0  0  2  0  0  0  0  0  0
  1 10  1  0  0  0  0
  1  2  2  0  0  0  0
  3  2  1  0  0  0  0
  4  3  1  0  0  0  0
  5  4  2  0  0  0  0
  6  5  1  0  0  0  0
  7  6  2  0  0  0  0
  7  8  1  0  0  0  0
  8  9  2  0  0  0  0
  9  4  1  0  0  0  0
  9  1  1  0  0  0  0
 10 11  1  0  0  0  0
 11 12  2  0  0  0  0
 13 12  1  0  0  0  0
 13 16  1  0  0  0  0
 14 13  2  0  0  0  0
 15 10  2  0  0  0  0
 15 14  1  0  0  0  0
 16 17  2  6  0  0  0
 18 19  1  0  0  0  0
 18 16  1  0  0  0  0
 20 21  1  0  0  0  0
 20  7  1  0  0  0  0
 22 21  1  0  0  0  0
 23 22  1  0  0  0  0
 23 20  1  0  0  0  0
M  END
>  <TORSDO>
F 4

$$$$
