C:\Qe-CaDD\Project\Data\Stage_6_Molecular_Dynamics\ligands_top\out_18009_EGFR_extracted.pdbqt
 OpenBabel01082506443D

 28 32  0  0  1  0  0  0  0  0999 V2000
   26.4920   -0.5100   52.8100 C   0  0  0  0  0  0  0  0  0  0  0  0
   26.9710    0.1500   51.7250 C   0  0  0  0  0  3  0  0  0  0  0  0
   26.4790    1.3920   51.3100 C   0  0  0  0  0  3  0  0  0  0  0  0
   25.4520    2.1110   51.9400 C   0  0  0  0  0  0  0  0  0  0  0  0
   25.0890    1.3200   53.0080 C   0  0  0  0  0  0  0  0  0  0  0  0
   24.2530    2.0950   53.7050 F   0  0  0  0  0  0  0  0  0  0  0  0
   25.4830    0.1070   53.4980 C   0  0  0  0  0  0  0  0  0  0  0  0
   24.5040   -0.3370   54.6190 C   0  0  0  0  0  2  0  0  0  0  0  0
   23.3560   -0.6060   53.8870 O   0  0  0  0  0  0  0  0  0  0  0  0
   22.1770   -0.8400   54.5140 C   0  0  2  0  0  3  0  0  0  0  0  0
   21.4240   -2.0580   54.1430 C   0  0  0  0  0  1  0  0  0  0  0  0
   21.3430    0.4200   54.2520 C   0  0  0  0  0  2  0  0  0  0  0  0
   21.1010    0.6120   52.8230 O   0  0  0  0  0  0  0  0  0  0  0  0
   20.7270    1.9450   52.5130 C   0  0  2  0  0  3  0  0  0  0  0  0
   20.3590    3.2610   52.2050 C   0  0  0  0  0  2  0  0  0  0  0  0
   21.3740    4.0930   51.7950 N   0  0  0  0  0  4  0  0  0  0  0  0
   21.3590    5.4150   51.4730 N   0  0  0  0  0  0  0  0  0  0  0  0
   22.6040    5.9110   51.1570 C   0  0  0  0  0  3  0  0  0  0  0  0
   23.7720    5.2440   51.1400 N   0  0  0  0  0  0  0  0  0  0  0  0
   23.8460    3.9380   51.4460 C   0  0  0  0  0  0  0  0  0  0  0  0
   22.6020    3.6120   51.7150 C   0  0  1  0  0  3  0  0  0  0  0  0
   21.8610    2.5850   52.1250 C   0  0  1  0  0  0  0  0  0  0  0  0
   22.5270    1.5400   51.2060 C   0  0  0  0  0  1  0  0  0  0  0  0
   25.0450    3.3060   51.4300 O   0  0  0  0  0  0  0  0  0  0  0  0
   26.8320   -1.7410   53.3800 N   0  0  0  0  0  0  0  0  0  0  0  0
   26.3900   -2.2190   54.1860 H   0  0  0  0  0  0  0  0  0  0  0  0
   27.9240   -2.4520   52.7980 C   0  0  0  0  0  2  0  0  0  0  0  0
   29.2260   -1.8850   53.3340 C   0  0  0  0  0  1  0  0  0  0  0  0
  1 25  1  0  0  0  0
  1  7  1  0  0  0  0
  2  1  2  0  0  0  0
  3  2  1  0  0  0  0
  3  4  2  0  0  0  0
  4  5  1  0  0  0  0
  5  7  2  0  0  0  0
  5  6  1  0  0  0  0
  7  8  1  0  0  0  0
  9 10  1  0  0  0  0
  9  8  1  0  0  0  0
 10 11  1  6  0  0  0
 12 10  1  0  0  0  0
 13 12  1  0  0  0  0
 14 15  1  6  0  0  0
 14 13  1  0  0  0  0
 16 22  1  0  0  0  0
 16 15  1  0  0  0  0
 17 16  1  0  0  0  0
 18 17  2  0  0  0  0
 19 18  1  0  0  0  0
 19 20  2  0  0  0  0
 21 20  1  1  0  0  0
 21 16  1  0  0  0  0
 21 22  1  0  0  0  0
 22 23  1  6  0  0  0
 22 14  1  0  0  0  0
 24 20  1  0  0  0  0
 24  4  1  0  0  0  0
 25 26  1  0  0  0  0
 27 28  1  0  0  0  0
 27 25  1  0  0  0  0
M  END
>  <TORSDO>
F 2

$$$$
