C:\Qe-CaDD\Project\Data\Stage_6_Molecular_Dynamics\ligands_top\out_20183_EGFR_extracted.pdbqt
 OpenBabel01082506443D

 29 31  0  0  0  0  0  0  0  0999 V2000
   27.1490    7.1600   48.2410 C   0  0  0  0  0  0  0  0  0  0  0  0
   26.1600    6.9020   49.1140 C   0  0  0  0  0  2  0  0  0  0  0  0
   25.8240    5.6720   49.7860 C   0  0  0  0  0  0  0  0  0  0  0  0
   24.8780    5.4680   50.6070 N   0  0  0  0  0  0  0  0  0  0  0  0
   24.7000    4.1910   51.1700 N   0  0  0  0  0  0  0  0  0  0  0  0
   25.5430    3.0540   50.8740 C   0  0  0  0  0  0  0  0  0  0  0  0
   26.5520    3.1850   50.0280 C   0  0  0  0  0  3  0  0  0  0  0  0
   26.6950    4.5190   49.4750 C   0  0  0  0  0  0  0  0  0  0  0  0
   27.6510    4.8250   48.6150 C   0  0  0  0  0  3  0  0  0  0  0  0
   28.0490    6.0460   47.8980 C   0  0  0  0  0  0  0  0  0  0  0  0
   23.9310    3.9850   51.8530 H   0  0  0  0  0  0  0  0  0  0  0  0
   25.3330    1.7720   51.4590 N   0  0  0  0  0  0  0  0  0  0  0  0
   24.3730    1.4900   51.1900 H   0  0  0  0  0  0  0  0  0  0  0  0
   26.4570    1.2890   52.2020 C   0  0  0  0  0  0  0  0  0  0  0  0
   27.3190    2.1200   52.8840 C   0  0  0  0  0  3  0  0  0  0  0  0
   28.3570    1.4800   53.5480 C   0  0  0  0  0  3  0  0  0  0  0  0
   28.4810    0.1140   53.5070 C   0  0  0  0  0  0  0  0  0  0  0  0
   29.5240   -0.4620   54.1780 F   0  0  0  0  0  0  0  0  0  0  0  0
   27.6060   -0.7090   52.8160 C   0  0  0  0  0  0  0  0  0  0  0  0
   27.8010   -2.4400   52.7860 Cl  0  0  0  0  0  0  0  0  0  0  0  0
   26.5610   -0.0830   52.1440 C   0  0  0  0  0  3  0  0  0  0  0  0
   29.5080    6.2860   48.2440 C   0  0  0  0  0  2  0  0  0  0  0  0
   29.7480    5.3840   49.3180 O   0  0  0  0  0  0  0  0  0  0  0  0
   28.9300    4.8210   49.4750 H   0  0  0  0  0  0  0  0  0  0  0  0
   27.1690    8.5700   47.7540 C   0  0  0  0  0  2  0  0  0  0  0  0
   27.3700    9.5830   48.6910 N   0  0  0  0  0  0  0  0  0  0  0  0
   26.5350   10.7340   48.6340 C   0  0  0  0  0  1  0  0  0  0  0  0
   28.3950    9.5520   49.6370 C   0  0  0  0  0  2  0  0  0  0  0  0
   29.7540    9.9540   49.1020 C   0  0  0  0  0  1  0  0  0  0  0  0
  1  2  1  0  0  0  0
  2  3  1  0  0  0  0
  3  4  2  0  0  0  0
  4  5  1  0  0  0  0
  5 11  1  0  0  0  0
  6  5  1  0  0  0  0
  6 12  1  0  0  0  0
  7  6  2  0  0  0  0
  8  3  1  0  0  0  0
  8  7  1  0  0  0  0
  9  8  2  0  0  0  0
 10  1  2  0  0  0  0
 10 22  1  0  0  0  0
 10  9  1  0  0  0  0
 12 14  1  0  0  0  0
 13 12  1  0  0  0  0
 14 15  1  0  0  0  0
 15 16  2  0  0  0  0
 17 16  1  0  0  0  0
 17 18  1  0  0  0  0
 19 17  2  0  0  0  0
 20 19  1  0  0  0  0
 21 14  2  0  0  0  0
 21 19  1  0  0  0  0
 22 23  1  0  0  0  0
 23 24  1  0  0  0  0
 25  1  1  0  0  0  0
 25 26  1  0  0  0  0
 26 28  1  0  0  0  0
 27 26  1  0  0  0  0
 29 28  1  0  0  0  0
M  END
>  <TORSDO>
F 7

$$$$
