C:\Qe-CaDD\Project\Data\Stage_6_Molecular_Dynamics\ligands_top\out_13817_EGFR_extracted.pdbqt
 OpenBabel01082506443D

 25 29  0  0  0  0  0  0  0  0999 V2000
   25.0540    0.5940   52.8040 C   0  0  0  0  0  0  0  0  0  0  0  0
   23.8750   -0.0110   53.1710 C   0  0  0  0  0  3  0  0  0  0  0  0
   22.6550    0.2970   52.6070 C   0  0  0  0  0  3  0  0  0  0  0  0
   22.6380    1.2650   51.6250 C   0  0  0  0  0  0  0  0  0  0  0  0
   21.4790    1.6270   51.0190 N   0  0  0  0  0  0  0  0  0  0  0  0
   21.5430    2.5820   50.0670 C   0  0  0  0  0  3  0  0  0  0  0  0
   22.6880    3.2090   49.6700 N   0  0  0  0  0  0  0  0  0  0  0  0
   23.8590    2.8520   50.2730 C   0  0  0  0  0  0  0  0  0  0  0  0
   23.8160    1.8780   51.2490 C   0  0  0  0  0  0  0  0  0  0  0  0
   25.0430    1.5770   51.8070 C   0  0  0  0  0  3  0  0  0  0  0  0
   25.0000    3.5750   49.7790 C   0  0  0  0  0  0  0  0  0  0  0  0
   26.2570    3.3170   49.5370 C   0  0  0  0  0  3  0  0  0  0  0  0
   26.9480    4.3230   49.0740 C   0  0  0  0  0  0  0  0  0  0  0  0
   28.2450    4.4970   48.6990 N   0  0  0  0  0  2  0  0  0  0  0  0
   26.0870    5.4150   48.9760 C   0  0  0  0  0  0  0  0  0  0  0  0
   28.7130    5.6820   48.2410 C   0  0  0  0  0  3  0  0  0  0  0  0
   27.8970    6.8050   48.1220 C   0  0  0  0  0  3  0  0  0  0  0  0
   26.5860    6.6140   48.5050 C   0  0  0  0  0  3  0  0  0  0  0  0
   24.8890    4.9990   49.3950 C   0  0  0  0  0  3  0  0  0  0  0  0
   26.3330    0.2520   53.4150 C   0  0  0  0  0  0  0  0  0  0  0  0
   27.5580   -0.0890   52.8630 C   0  0  0  0  0  3  0  0  0  0  0  0
   28.4550   -0.3240   53.8310 N   0  0  0  0  0  0  0  0  0  0  0  0
   29.8300   -0.7020   53.6470 C   0  0  0  0  0  1  0  0  0  0  0  0
   27.8390   -0.1430   54.9840 N   0  0  0  0  0  0  0  0  0  0  0  0
   26.5640    0.2040   54.7950 C   0  0  0  0  0  3  0  0  0  0  0  0
  1  2  1  0  0  0  0
  1 20  1  0  0  0  0
  3  2  2  0  0  0  0
  4  3  1  0  0  0  0
  5  4  2  0  0  0  0
  6  5  1  0  0  0  0
  7  6  2  0  0  0  0
  7  8  1  0  0  0  0
  8  9  2  0  0  0  0
  9  4  1  0  0  0  0
  9 10  1  0  0  0  0
 10  1  2  0  0  0  0
 11  8  1  0  0  0  0
 12 11  1  0  0  0  0
 13 12  2  0  0  0  0
 14 13  1  0  0  0  0
 15 13  1  0  0  0  0
 15 19  1  0  0  0  0
 16 14  1  0  0  0  0
 17 16  2  0  0  0  0
 17 18  1  0  0  0  0
 18 15  2  0  0  0  0
 19 11  2  0  0  0  0
 20 25  1  0  0  0  0
 21 20  2  0  0  0  0
 21 22  1  0  0  0  0
 22 24  1  0  0  0  0
 23 22  1  0  0  0  0
 25 24  2  0  0  0  0
M  END
>  <TORSDO>
F 2

$$$$
