C:\Qe-CaDD\Project\Data\Stage_6_Molecular_Dynamics\ligands_top\out_20792_EGFR_extracted.pdbqt
 OpenBabel01082506443D

 28 31  0  0  1  0  0  0  0  0999 V2000
   26.6180   -0.9280   52.7150 C   0  0  2  0  0  3  0  0  0  0  0  0
   27.2330    0.0240   51.9550 C   0  0  0  0  0  2  0  0  0  0  0  0
   26.3000    0.9830   52.0480 C   0  0  1  0  0  0  0  0  0  0  0  0
   25.3620    1.9350   52.1440 C   0  0  2  0  0  3  0  0  0  0  0  0
   24.7940    0.9400   52.8990 C   0  0  0  0  0  2  0  0  0  0  0  0
   25.6080   -0.0980   52.9100 C   0  0  1  0  0  0  0  0  0  0  0  0
   25.1900   -0.6580   54.2690 C   0  0  0  0  0  2  0  0  0  0  0  0
   26.3410   -0.1010   55.2010 C   0  0  0  0  0  2  0  0  0  0  0  0
   26.2950    1.2850   54.9520 O   0  0  0  0  0  0  0  0  0  0  0  0
   27.3760    1.5560   54.1330 N   0  0  0  0  0  0  0  0  0  0  0  0
   27.8760    2.3770   53.0270 C   0  0  0  0  0  2  0  0  0  0  0  0
   27.2800    2.0660   51.8360 N   0  0  0  0  0  2  0  0  0  0  0  0
   28.2140    0.9690   54.3170 H   0  0  0  0  0  0  0  0  0  0  0  0
   24.9720    3.2960   51.7290 C   0  0  0  0  0  2  0  0  0  0  0  0
   24.8530    3.2710   50.2950 N   0  0  0  0  0  0  0  0  0  0  0  0
   24.2900    2.5760   49.7730 H   0  0  0  0  0  0  0  0  0  0  0  0
   25.5860    4.3030   49.6580 C   0  0  0  0  0  0  0  0  0  0  0  0
   26.8540    3.9240   49.1800 C   0  0  0  0  0  3  0  0  0  0  0  0
   27.6260    4.9370   48.6300 C   0  0  0  0  0  3  0  0  0  0  0  0
   27.2730    6.2690   48.5100 C   0  0  0  0  0  0  0  0  0  0  0  0
   26.0020    6.6270   48.9920 C   0  0  0  0  0  0  0  0  0  0  0  0
   25.2080    5.6150   49.5470 C   0  0  0  0  0  3  0  0  0  0  0  0
   28.0420    7.2670   47.9680 O   0  0  0  0  0  0  0  0  0  0  0  0
   29.2000    7.8130   48.5100 C   0  0  0  0  0  1  0  0  0  0  0  0
   25.6180    7.9130   48.8950 O   0  0  0  0  0  0  0  0  0  0  0  0
   25.5690    8.9500   49.8090 C   0  0  0  0  0  1  0  0  0  0  0  0
   26.9810   -2.2010   53.0740 O   0  0  0  0  0  0  0  0  0  0  0  0
   28.3060   -2.6360   53.0490 C   0  0  0  0  0  1  0  0  0  0  0  0
  1  6  1  0  0  0  0
  1 27  1  1  0  0  0
  2  1  1  0  0  0  0
  3  2  1  6  0  0  0
  3  4  1  0  0  0  0
  3  6  1  0  0  0  0
  4 14  1  6  0  0  0
  4  5  1  0  0  0  0
  6  5  1  6  0  0  0
  6  7  1  0  0  0  0
  7  8  1  0  0  0  0
  9  8  1  0  0  0  0
 10 13  1  0  0  0  0
 10  9  1  0  0  0  0
 11 10  1  0  0  0  0
 12  3  1  0  0  0  0
 12 11  1  0  0  0  0
 15 14  1  0  0  0  0
 16 15  1  0  0  0  0
 17 15  1  0  0  0  0
 18 17  2  0  0  0  0
 19 18  1  0  0  0  0
 20 19  2  0  0  0  0
 20 21  1  0  0  0  0
 21 22  2  0  0  0  0
 22 17  1  0  0  0  0
 23 20  1  0  0  0  0
 23 24  1  0  0  0  0
 25 21  1  0  0  0  0
 25 26  1  0  0  0  0
 28 27  1  0  0  0  0
M  END
>  <TORSDO>
F 6

$$$$
