C:\Qe-CaDD\Project\Data\Stage_6_Molecular_Dynamics\ligands_top\out_12509_EGFR_extracted.pdbqt
 OpenBabel01082506443D

 24 26  0  0  1  0  0  0  0  0999 V2000
   23.6010    2.8980   51.2290 C   0  0  1  0  0  3  0  0  0  0  0  0
   23.7290    3.9980   52.2890 C   0  0  2  0  0  3  0  0  0  0  0  0
   24.1410    5.0630   51.3900 N   0  0  0  0  0  2  0  0  0  0  0  0
   24.8750    4.5810   50.3790 C   0  0  0  0  0  2  0  0  0  0  0  0
   24.9860    3.1730   50.7360 N   0  0  1  0  0  0  0  0  0  0  0  0
   26.2090    2.3710   50.6780 C   0  0  1  0  0  3  0  0  0  0  0  0
   26.7490    2.6620   49.4950 F   0  0  0  0  0  0  0  0  0  0  0  0
   26.6790    1.5360   51.6770 C   0  0  0  0  0  2  0  0  0  0  0  0
   26.2850    1.6000   53.1370 C   0  0  0  0  0  3  0  0  0  0  0  0
   25.5150    2.5400   53.7510 C   0  0  0  0  0  3  0  0  0  0  0  0
   24.6320    3.6210   53.3280 N   0  0  0  0  0  0  0  0  0  0  0  0
   24.7150    4.3520   54.0830 H   0  0  0  0  0  0  0  0  0  0  0  0
   23.4300    1.5770   51.7910 C   0  0  0  0  0  3  0  0  0  0  0  0
   22.2170    1.0890   51.9950 C   0  0  0  0  0  0  0  0  0  0  0  0
   22.0340   -0.1970   52.5420 O   0  0  0  0  0  0  0  0  0  0  0  0
   22.0870   -0.4460   53.9170 C   0  0  0  0  0  3  0  0  0  0  0  0
   23.4470   -0.9000   54.4020 C   0  0  0  0  0  1  0  0  0  0  0  0
   21.1130   -1.5990   54.1860 C   0  0  0  0  0  1  0  0  0  0  0  0
   20.9920    1.8200   51.6790 C   0  0  0  0  0  0  0  0  0  0  0  0
   20.3220    2.5520   52.5820 C   0  0  0  0  0  3  0  0  0  0  0  0
   19.1720    3.2410   52.2910 O   0  0  0  0  0  0  0  0  0  0  0  0
   18.7280    3.5320   50.9850 C   0  0  0  0  0  2  0  0  0  0  0  0
   19.5530    2.8380   49.9290 C   0  0  0  0  0  2  0  0  0  0  0  0
   20.3880    1.8470   50.4420 O   0  0  0  0  0  0  0  0  0  0  0  0
  1 13  1  1  0  0  0
  1  2  1  0  0  0  0
  2  3  1  6  0  0  0
  2 11  1  0  0  0  0
  4  3  1  0  0  0  0
  5  4  1  1  0  0  0
  5  1  1  0  0  0  0
  6  7  1  1  0  0  0
  6  5  1  0  0  0  0
  6  8  1  0  0  0  0
  8  9  1  0  0  0  0
  9 10  2  0  0  0  0
 11 10  1  0  0  0  0
 11 12  1  0  0  0  0
 13 14  2  0  0  0  0
 14 15  1  0  0  0  0
 15 16  1  0  0  0  0
 16 18  1  0  0  0  0
 16 17  1  0  0  0  0
 19 14  1  0  0  0  0
 19 20  2  0  0  0  0
 21 20  1  0  0  0  0
 22 21  1  0  0  0  0
 23 24  1  0  0  0  0
 23 22  1  0  0  0  0
 24 19  1  0  0  0  0
M  END
>  <TORSDO>
F 4

$$$$
