C:\Qe-CaDD\Project\Data\Stage_6_Molecular_Dynamics\ligands_top\out_21893_EGFR_extracted.pdbqt
 OpenBabel01082506443D

 29 31  0  0  0  0  0  0  0  0999 V2000
   23.9490    3.2530   50.0620 C   0  0  0  0  0  0  0  0  0  0  0  0
   23.9850    2.5310   51.2160 C   0  0  0  0  0  3  0  0  0  0  0  0
   23.0730    1.5640   51.5820 C   0  0  0  0  0  0  0  0  0  0  0  0
   23.1750    0.8710   52.7720 C   0  0  0  0  0  0  0  0  0  0  0  0
   22.1980   -0.0720   53.0230 C   0  0  0  0  0  0  0  0  0  0  0  0
   22.2310   -0.8460   54.2520 C   0  0  0  0  0  0  0  0  0  0  0  0
   22.2740   -1.4660   55.2290 N   0  0  0  0  0  0  0  0  0  0  0  0
   21.1570   -0.3440   52.1680 C   0  0  0  0  0  3  0  0  0  0  0  0
   21.0920    0.3610   51.0060 N   0  0  0  0  0  0  0  0  0  0  0  0
   22.0220    1.2780   50.7350 C   0  0  0  0  0  0  0  0  0  0  0  0
   21.9500    1.9890   49.5560 C   0  0  0  0  0  3  0  0  0  0  0  0
   22.8910    2.9450   49.2400 C   0  0  0  0  0  0  0  0  0  0  0  0
   24.2200    1.1230   53.6640 N   0  0  0  0  0  0  0  0  0  0  0  0
   24.0410    1.7410   54.4850 H   0  0  0  0  0  0  0  0  0  0  0  0
   25.4980    0.5690   53.4880 C   0  0  0  0  0  0  0  0  0  0  0  0
   25.6850   -0.6900   52.9530 C   0  0  0  0  0  3  0  0  0  0  0  0
   26.9640   -1.1910   52.7990 C   0  0  0  0  0  3  0  0  0  0  0  0
   28.0870   -0.4750   53.1630 C   0  0  0  0  0  3  0  0  0  0  0  0
   27.9380    0.8020   53.7090 C   0  0  0  0  0  0  0  0  0  0  0  0
   29.4210    1.8810   54.2480 Br  0  0  0  0  0  0  0  0  0  0  0  0
   26.6430    1.2660   53.8450 C   0  0  0  0  0  3  0  0  0  0  0  0
   24.8680    4.2490   49.6590 N   0  0  0  0  0  0  0  0  0  0  0  0
   26.2050    4.1380   49.2820 C   0  0  0  0  0  0  0  0  0  0  0  0
   26.7400    3.0110   49.2780 O   0  0  0  0  0  0  0  0  0  0  0  0
   24.5280    5.2500   49.6220 H   0  0  0  0  0  0  0  0  0  0  0  0
   27.0310    5.2660   48.8870 C   0  0  0  0  0  3  0  0  0  0  0  0
   28.2680    5.1540   48.4290 C   0  0  0  0  0  2  0  0  0  0  0  0
   22.7390    3.6190   48.0220 O   0  0  0  0  0  0  0  0  0  0  0  0
   21.9980    3.0700   46.9460 C   0  0  0  0  0  1  0  0  0  0  0  0
  1  2  1  0  0  0  0
  2  3  2  0  0  0  0
  3  4  1  0  0  0  0
  4  5  2  0  0  0  0
  4 13  1  0  0  0  0
  5  6  1  0  0  0  0
  6  7  3  0  0  0  0
  8  5  1  0  0  0  0
  9  8  2  0  0  0  0
 10  9  1  0  0  0  0
 10  3  1  0  0  0  0
 11 10  2  0  0  0  0
 12 11  1  0  0  0  0
 12  1  2  0  0  0  0
 13 14  1  0  0  0  0
 15 13  1  0  0  0  0
 15 21  1  0  0  0  0
 16 15  2  0  0  0  0
 17 16  1  0  0  0  0
 17 18  2  0  0  0  0
 18 19  1  0  0  0  0
 19 21  2  0  0  0  0
 19 20  1  0  0  0  0
 22  1  1  0  0  0  0
 23 22  1  0  0  0  0
 24 23  2  0  0  0  0
 25 22  1  0  0  0  0
 26 23  1  0  0  0  0
 27 26  2  0  0  0  0
 28 12  1  0  0  0  0
 29 28  1  0  0  0  0
M  END
>  <TORSDO>
F 5

$$$$
