C:\Qe-CaDD\Project\Data\Stage_6_Molecular_Dynamics\ligands_top\out_17755_EGFR_extracted.pdbqt
 OpenBabel01082506443D

 32 35  0  0  0  0  0  0  0  0999 V2000
   23.5410    2.0180   52.6440 C   0  0  0  0  0  0  0  0  0  0  0  0
   24.8470    1.9060   53.1180 C   0  0  0  0  0  3  0  0  0  0  0  0
   25.0060    0.5880   53.4130 N   0  0  0  0  0  0  0  0  0  0  0  0
   23.8940   -0.0340   53.1400 N   0  0  0  0  0  0  0  0  0  0  0  0
   22.9400    0.7770   52.6610 C   0  0  0  0  0  0  0  0  0  0  0  0
   23.1010    3.3580   52.2450 C   0  0  0  0  0  0  0  0  0  0  0  0
   24.1540    4.0520   51.6760 C   0  0  0  0  0  3  0  0  0  0  0  0
   23.9560    5.3620   51.2250 C   0  0  0  0  0  0  0  0  0  0  0  0
   22.6980    5.9180   51.3670 C   0  0  0  0  0  0  0  0  0  0  0  0
   21.6990    5.2150   51.9260 N   0  0  0  0  0  0  0  0  0  0  0  0
   21.8680    3.9590   52.3640 C   0  0  0  0  0  3  0  0  0  0  0  0
   24.8620    6.2160   50.6360 O   0  0  0  0  0  0  0  0  0  0  0  0
   25.6670    5.7080   49.5850 C   0  0  0  0  0  1  0  0  0  0  0  0
   22.3340    7.2430   50.9580 N   0  0  0  0  0  0  0  0  0  0  0  0
   21.5540    7.4520   50.2940 H   0  0  0  0  0  0  0  0  0  0  0  0
   22.7760    8.1590   51.2530 H   0  0  0  0  0  0  0  0  0  0  0  0
   21.5630    0.5910   52.2200 C   0  0  0  0  0  0  0  0  0  0  0  0
   20.7090    0.1670   53.2180 C   0  0  0  0  0  0  0  0  0  0  0  0
   21.1680   -0.1510   54.8810 Cl  0  0  0  0  0  0  0  0  0  0  0  0
   19.3560   -0.0470   52.9450 C   0  0  0  0  0  3  0  0  0  0  0  0
   18.9420    0.1850   51.6500 C   0  0  0  0  0  3  0  0  0  0  0  0
   19.7720    0.6090   50.6310 C   0  0  0  0  0  0  0  0  0  0  0  0
   19.3510    0.8320   49.3740 F   0  0  0  0  0  0  0  0  0  0  0  0
   21.1180    0.8160   50.9330 C   0  0  0  0  0  0  0  0  0  0  0  0
   22.2920    1.3570   49.7360 Cl  0  0  0  0  0  0  0  0  0  0  0  0
   26.1940   -0.0350   53.9420 C   0  0  0  0  0  3  0  0  0  0  0  0
   26.6910   -1.1690   53.0740 C   0  0  0  0  0  2  0  0  0  0  0  0
   28.1900   -1.0760   52.8930 C   0  0  0  0  0  2  0  0  0  0  0  0
   28.7730   -0.9610   54.2080 N   0  0  0  0  0  0  0  0  0  0  0  0
   28.5300    0.3790   54.6790 C   0  0  0  0  0  2  0  0  0  0  0  0
   28.2960   -1.6300   54.8330 H   0  0  0  0  0  0  0  0  0  0  0  0
   27.2670    1.0040   54.1600 C   0  0  0  0  0  2  0  0  0  0  0  0
  1  5  1  0  0  0  0
  1  2  2  0  0  0  0
  2  3  1  0  0  0  0
  3 26  1  0  0  0  0
  4  3  1  0  0  0  0
  5  4  2  0  0  0  0
  6 11  1  0  0  0  0
  6  1  1  0  0  0  0
  7  6  2  0  0  0  0
  8  9  2  0  0  0  0
  8  7  1  0  0  0  0
  9 10  1  0  0  0  0
 10 11  2  0  0  0  0
 12  8  1  0  0  0  0
 13 12  1  0  0  0  0
 14 16  1  0  0  0  0
 14  9  1  0  0  0  0
 15 14  1  0  0  0  0
 17  5  1  0  0  0  0
 17 18  1  0  0  0  0
 18 19  1  0  0  0  0
 20 18  2  0  0  0  0
 21 20  1  0  0  0  0
 22 24  1  0  0  0  0
 22 21  2  0  0  0  0
 23 22  1  0  0  0  0
 24 17  2  0  0  0  0
 25 24  1  0  0  0  0
 26 32  1  0  0  0  0
 27 26  1  0  0  0  0
 28 27  1  0  0  0  0
 28 29  1  0  0  0  0
 29 30  1  0  0  0  0
 29 31  1  0  0  0  0
 32 30  1  0  0  0  0
M  END
>  <TORSDO>
F 5

$$$$
