C:\Qe-CaDD\Project\Data\Stage_6_Molecular_Dynamics\ligands_top\out_12495_EGFR_extracted.pdbqt
 OpenBabel01082506443D

 26 31  0  0  1  0  0  0  0  0999 V2000
   23.7520    5.2970   52.0340 C   0  0  0  0  0  1  0  0  0  0  0  0
   22.5240    4.5050   52.1700 C   0  0  2  0  0  3  0  0  0  0  0  0
   22.7470    3.0980   52.6790 C   0  0  0  0  0  2  0  0  0  0  0  0
   22.2480    2.0840   51.9120 C   0  0  1  0  0  3  0  0  0  0  0  0
   20.8610    1.8190   52.2630 O   0  0  0  0  0  0  0  0  0  0  0  0
   19.6330    2.4740   51.9230 C   0  0  0  0  0  2  0  0  0  0  0  0
   19.8840    3.4210   50.7940 O   0  0  0  0  0  0  0  0  0  0  0  0
   21.2360    3.3360   50.2240 C   0  0  2  0  0  0  0  0  0  0  0  0
   20.9720    2.2780   49.4250 C   0  0  1  0  0  3  0  0  0  0  0  0
   21.8530    1.5430   48.5390 C   0  0  0  0  0  2  0  0  0  0  0  0
   22.1660    2.3340   49.4790 N   0  0  0  0  0  4  0  0  0  0  0  0
   23.4730    2.6420   49.8760 C   0  0  0  0  0  0  0  0  0  0  0  0
   24.2970    3.4090   49.3250 N   0  0  0  0  0  0  0  0  0  0  0  0
   25.6060    3.7740   49.6410 C   0  0  0  0  0  2  0  0  0  0  0  0
   26.2130    3.3090   50.8320 N   0  0  0  0  0  0  0  0  0  0  0  0
   25.9150    2.3260   51.8130 C   0  0  0  0  0  0  0  0  0  0  0  0
   26.9670    2.1110   52.6620 C   0  0  0  0  0  3  0  0  0  0  0  0
   26.8030    1.1670   53.6560 C   0  0  0  0  0  3  0  0  0  0  0  0
   25.5970    0.5030   53.7340 C   0  0  0  0  0  3  0  0  0  0  0  0
   24.5430    0.7510   52.8470 C   0  0  0  0  0  0  0  0  0  0  0  0
   23.3690   -0.0400   53.0670 C   0  0  0  0  0  0  0  0  0  0  0  0
   22.4280   -0.6910   53.2330 N   0  0  0  0  0  0  0  0  0  0  0  0
   24.6880    1.6930   51.8430 C   0  0  0  0  0  0  0  0  0  0  0  0
   23.4520    1.7580   51.0630 C   0  0  1  0  0  3  0  0  0  0  0  0
   21.8230    4.4210   50.9200 O   0  0  0  0  0  0  0  0  0  0  0  0
   27.1010    3.8540   50.9880 H   0  0  0  0  0  0  0  0  0  0  0  0
  2  1  1  6  0  0  0
  2  3  1  0  0  0  0
  4  5  1  0  0  0  0
  4  3  1  6  0  0  0
  6  5  1  0  0  0  0
  7  6  1  0  0  0  0
  8  7  1  1  0  0  0
  8 25  1  0  0  0  0
  9 10  1  6  0  0  0
  9 11  1  0  0  0  0
  9  8  1  0  0  0  0
 10 11  1  0  0  0  0
 11 12  1  0  0  0  0
 11  8  1  0  0  0  0
 13 14  1  0  0  0  0
 13 12  2  0  0  0  0
 14 15  1  0  0  0  0
 15 26  1  0  0  0  0
 15 16  1  0  0  0  0
 16 23  2  0  0  0  0
 16 17  1  0  0  0  0
 17 18  2  0  0  0  0
 18 19  1  0  0  0  0
 20 21  1  0  0  0  0
 20 19  2  0  0  0  0
 21 22  3  0  0  0  0
 23 20  1  0  0  0  0
 24 12  1  6  0  0  0
 24 23  1  0  0  0  0
 24  4  1  0  0  0  0
 25  2  1  0  0  0  0
M  END
>  <TORSDO>
F 0

$$$$
