C:\Qe-CaDD\Project\Data\Stage_6_Molecular_Dynamics\ligands_top\out_10555_EGFR_extracted.pdbqt
 OpenBabel01082506443D

 27 30  0  0  0  0  0  0  0  0999 V2000
   24.4720   -0.1760   53.7080 N   0  0  0  0  0  0  0  0  0  0  0  0
   24.9140   -0.7960   54.9140 C   0  0  0  0  0  0  0  0  0  0  0  0
   26.1730   -0.8020   55.0750 O   0  0  0  0  0  0  0  0  0  0  0  0
   24.0760   -1.4190   55.9710 C   0  0  0  0  0  2  0  0  0  0  0  0
   22.7320   -1.5300   55.5530 O   0  0  0  0  0  0  0  0  0  0  0  0
   22.2550   -0.9370   54.3850 C   0  0  0  0  0  0  0  0  0  0  0  0
   20.8750   -1.0700   54.2130 C   0  0  0  0  0  3  0  0  0  0  0  0
   20.3090   -0.5050   53.0680 C   0  0  0  0  0  0  0  0  0  0  0  0
   18.9620   -0.6340   52.8990 N   0  0  0  0  0  0  0  0  0  0  0  0
   18.4380   -0.0830   51.7890 C   0  0  0  0  0  3  0  0  0  0  0  0
   19.1910    0.5660   50.8800 N   0  0  0  0  0  0  0  0  0  0  0  0
   20.5180    0.6990   51.0350 C   0  0  0  0  0  0  0  0  0  0  0  0
   21.1100    0.1570   52.1510 C   0  0  0  0  0  0  0  0  0  0  0  0
   22.4650    0.2720   52.3450 C   0  0  0  0  0  3  0  0  0  0  0  0
   23.0520   -0.2770   53.4710 C   0  0  0  0  0  0  0  0  0  0  0  0
   25.4030    0.6430   52.5600 S   0  0  2  0  0  0  0  0  0  0  0  0
   26.5740   -0.0950   51.8420 C   0  0  0  0  0  2  0  0  0  0  0  0
   25.5470    2.3940   52.7640 C   0  0  0  0  0  2  0  0  0  0  0  0
   24.6750    3.0670   51.7270 C   0  0  0  0  0  2  0  0  0  0  0  0
   25.0940    2.8170   50.3680 N   0  0  0  0  0  0  0  0  0  0  0  0
   24.2590    3.4940   49.4080 C   0  0  0  0  0  2  0  0  0  0  0  0
   24.2790    4.9850   49.5410 C   0  0  0  0  0  2  0  0  0  0  0  0
   25.5760    5.4930   49.6320 O   0  0  0  0  0  0  0  0  0  0  0  0
   26.5310    4.5390   49.3290 C   0  0  0  0  0  2  0  0  0  0  0  0
   26.4540    3.3340   50.2530 C   0  0  0  0  0  2  0  0  0  0  0  0
   21.2600    1.3980   50.0360 N   0  0  0  0  0  2  0  0  0  0  0  0
   21.4580    0.7370   48.9760 O   0  0  0  0  0  1  0  0  0  0  0  0
  1  2  1  0  0  0  0
  2  3  2  0  0  0  0
  2  4  1  0  0  0  0
  5  4  1  0  0  0  0
  6  5  1  0  0  0  0
  7  6  1  0  0  0  0
  8  7  2  0  0  0  0
  9  8  1  0  0  0  0
 10  9  2  0  0  0  0
 11 12  2  0  0  0  0
 11 10  1  0  0  0  0
 12 13  1  0  0  0  0
 13 14  2  0  0  0  0
 13  8  1  0  0  0  0
 14 15  1  0  0  0  0
 15  1  1  0  0  0  0
 15  6  2  0  0  0  0
 16 17  2  1  0  0  0
 16 18  1  0  0  0  0
 16  1  1  0  0  0  0
 19 18  1  0  0  0  0
 20 19  1  0  0  0  0
 21 22  1  0  0  0  0
 21 20  1  0  0  0  0
 22 23  1  0  0  0  0
 24 23  1  0  0  0  0
 24 25  1  0  0  0  0
 25 20  1  0  0  0  0
 26 12  1  0  0  0  0
 27 26  1  0  0  0  0
M  END
>  <TORSDO>
F 5

$$$$
