C:\Qe-CaDD\Project\Data\Stage_6_Molecular_Dynamics\ligands_top\out_12133_EGFR_extracted.pdbqt
 OpenBabel01082506443D

 29 30  0  0  1  0  0  0  0  0999 V2000
   23.4260    3.3520   52.5750 C   0  0  0  0  0  1  0  0  0  0  0  0
   24.2300    3.9260   51.4370 C   0  0  0  0  0  0  0  0  0  0  0  0
   25.2200    3.0390   51.1600 C   0  0  0  0  0  0  0  0  0  0  0  0
   26.4190    2.9650   50.2830 C   0  0  0  0  0  3  0  0  0  0  0  0
   27.0600    3.7090   49.4120 C   0  0  0  0  0  3  0  0  0  0  0  0
   27.1620    4.9850   48.6860 C   0  0  0  0  0  3  0  0  0  0  0  0
   26.3150    6.0710   48.7950 C   0  0  0  0  0  0  0  0  0  0  0  0
   26.5130    7.2670   48.0280 C   0  0  0  0  0  0  0  0  0  0  0  0
   26.6770    8.2150   47.3980 N   0  0  0  0  0  0  0  0  0  0  0  0
   25.2910    5.8370   49.7650 C   0  0  0  0  0  2  0  0  0  0  0  0
   23.9630    5.7260   49.7480 N   0  0  0  0  0  0  0  0  0  0  0  0
   23.6010    5.2320   51.0840 C   0  0  1  0  0  3  0  0  0  0  0  0
   23.5680    5.0610   49.0480 H   0  0  0  0  0  0  0  0  0  0  0  0
   22.1040    4.9190   50.9900 C   0  0  0  0  0  2  0  0  0  0  0  0
   21.3070    5.9750   51.0510 C   0  0  0  0  0  2  0  0  0  0  0  0
   21.8990    7.2610   51.1930 N   0  0  0  0  0  0  0  0  0  0  0  0
   21.4410    8.2090   51.1800 H   0  0  0  0  0  0  0  0  0  0  0  0
   22.8900    7.5440   51.3350 H   0  0  0  0  0  0  0  0  0  0  0  0
   24.9750    1.6980   52.3070 S   0  0  0  0  0  0  0  0  0  0  0  0
   26.4640    0.9410   52.8420 C   0  0  0  0  0  0  0  0  0  0  0  0
   26.5850   -0.3810   52.4000 C   0  0  0  0  0  3  0  0  0  0  0  0
   27.7210   -1.1230   52.7450 C   0  0  0  0  0  3  0  0  0  0  0  0
   28.7180   -0.5620   53.5150 C   0  0  0  0  0  0  0  0  0  0  0  0
   28.5970    0.7560   53.9550 C   0  0  0  0  0  3  0  0  0  0  0  0
   27.4790    1.4890   53.6160 C   0  0  0  0  0  0  0  0  0  0  0  0
   29.8590   -1.2610   53.8800 O   0  0  0  0  0  0  0  0  0  0  0  0
   30.6480   -1.3980   53.2570 H   0  0  0  0  0  0  0  0  0  0  0  0
   27.1990    2.8030   53.9670 O   0  0  0  0  0  0  0  0  0  0  0  0
   26.6880    3.3380   53.2470 H   0  0  0  0  0  0  0  0  0  0  0  0
  2  1  1  0  0  0  0
  3  2  2  0  0  0  0
  3 19  1  0  0  0  0
  4  3  1  0  0  0  0
  5  4  2  0  0  0  0
  6  7  2  0  0  0  0
  6  5  1  0  0  0  0
  7 10  1  0  0  0  0
  8  7  1  0  0  0  0
  9  8  3  0  0  0  0
 11 10  1  0  0  0  0
 11 12  1  0  0  0  0
 12 14  1  6  0  0  0
 12  2  1  0  0  0  0
 13 11  1  0  0  0  0
 14 15  1  0  0  0  0
 15 16  1  0  0  0  0
 16 18  1  0  0  0  0
 17 16  1  0  0  0  0
 19 20  1  0  0  0  0
 20 25  1  0  0  0  0
 21 22  1  0  0  0  0
 21 20  2  0  0  0  0
 22 23  2  0  0  0  0
 23 26  1  0  0  0  0
 23 24  1  0  0  0  0
 25 24  2  0  0  0  0
 25 28  1  0  0  0  0
 27 26  1  0  0  0  0
 29 28  1  0  0  0  0
M  END
>  <TORSDO>
F 6

$$$$
