C:\Qe-CaDD\Project\Data\Stage_6_Molecular_Dynamics\ligands_top\out_10690_EGFR_extracted.pdbqt
 OpenBabel01082506443D

 22 23  0  0  0  0  0  0  0  0999 V2000
   25.4860    2.5640   51.1380 C   0  0  0  0  0  3  0  0  0  0  0  0
   26.3850    2.1370   51.9470 N   0  0  0  0  0  0  0  0  0  0  0  0
   26.2370    1.0400   52.7760 N   0  0  0  0  0  0  0  0  0  0  0  0
   24.9700    0.7190   53.3510 C   0  0  0  0  0  1  0  0  0  0  0  0
   27.3770    0.2330   53.0490 C   0  0  0  0  0  0  0  0  0  0  0  0
   27.5760   -1.0980   52.7820 C   0  0  0  0  0  3  0  0  0  0  0  0
   28.7740   -1.6850   53.1380 C   0  0  0  0  0  3  0  0  0  0  0  0
   29.7650   -0.9500   53.7560 C   0  0  0  0  0  3  0  0  0  0  0  0
   29.5870    0.3850   54.0330 C   0  0  0  0  0  3  0  0  0  0  0  0
   28.3810    0.9780   53.6750 C   0  0  0  0  0  0  0  0  0  0  0  0
   28.3130    2.3670   54.0130 N   0  0  0  0  0  0  0  0  0  0  0  0
   29.0590    3.0590   54.1950 H   0  0  0  0  0  0  0  0  0  0  0  0
   27.2680    2.5260   54.0330 H   0  0  0  0  0  0  0  0  0  0  0  0
   25.6320    3.7190   50.2590 C   0  0  0  0  0  0  0  0  0  0  0  0
   24.5220    4.4770   49.9810 C   0  0  0  0  0  0  0  0  0  0  0  0
   24.5430    5.5920   49.1610 C   0  0  0  0  0  3  0  0  0  0  0  0
   25.7490    5.9770   48.5800 C   0  0  0  0  0  3  0  0  0  0  0  0
   26.8650    5.2020   48.8690 C   0  0  0  0  0  0  0  0  0  0  0  0
   28.3980    5.6710   48.1450 Cl  0  0  0  0  0  0  0  0  0  0  0  0
   26.8290    4.0930   49.6880 C   0  0  0  0  0  3  0  0  0  0  0  0
   23.2610    4.1280   50.5490 N   0  0  0  0  0  0  0  0  0  0  0  0
   22.5960    5.0210   51.1870 C   0  0  0  0  0  2  0  0  0  0  0  0
  1  2  2  0  0  0  0
  2  3  1  0  0  0  0
  3  5  1  0  0  0  0
  3  4  1  0  0  0  0
  5 10  1  0  0  0  0
  6  5  2  0  0  0  0
  6  7  1  0  0  0  0
  7  8  2  0  0  0  0
  8  9  1  0  0  0  0
 10 11  1  0  0  0  0
 10  9  2  0  0  0  0
 11 13  1  0  0  0  0
 11 12  1  0  0  0  0
 14  1  1  0  0  0  0
 15 14  1  0  0  0  0
 15 21  1  0  0  0  0
 16 15  2  0  0  0  0
 17 18  2  0  0  0  0
 17 16  1  0  0  0  0
 18 20  1  0  0  0  0
 19 18  1  0  0  0  0
 20 14  2  0  0  0  0
 21 22  2  0  0  0  0
M  END
>  <TORSDO>
F 5

$$$$
