C:\Qe-CaDD\Project\Data\Stage_6_Molecular_Dynamics\ligands_top\out_18454_EGFR_extracted.pdbqt
 OpenBabel01082506443D

 30 33  0  0  1  0  0  0  0  0999 V2000
   25.4610   -0.8680   54.2080 C   0  0  1  0  0  3  0  0  0  0  0  0
   24.4040   -0.0360   53.5670 C   0  0  0  0  0  0  0  0  0  0  0  0
   24.9420    0.9950   52.9270 C   0  0  0  0  0  3  0  0  0  0  0  0
   26.3920    0.9690   53.0660 C   0  0  0  0  0  0  0  0  0  0  0  0
   27.3660    1.8200   52.5820 C   0  0  0  0  0  0  0  0  0  0  0  0
   28.6490    1.5320   52.8810 N   0  0  0  0  0  0  0  0  0  0  0  0
   28.9370    0.4400   53.6300 C   0  0  0  0  0  3  0  0  0  0  0  0
   27.9870   -0.4000   54.1090 N   0  0  0  0  0  0  0  0  0  0  0  0
   26.7000   -0.1390   53.8270 C   0  0  0  0  0  0  0  0  0  0  0  0
   27.0300    2.9600   51.7970 N   0  0  0  0  0  0  0  0  0  0  0  0
   27.1460    3.8940   52.1990 H   0  0  0  0  0  0  0  0  0  0  0  0
   26.5360    2.7670   50.4470 C   0  0  0  0  0  2  0  0  0  0  0  0
   26.2850    4.0350   49.7340 C   0  0  0  0  0  0  0  0  0  0  0  0
   25.0600    4.6650   49.6460 C   0  0  0  0  0  3  0  0  0  0  0  0
   25.0060    5.8550   48.9340 C   0  0  0  0  0  3  0  0  0  0  0  0
   26.1270    6.3920   48.3360 C   0  0  0  0  0  0  0  0  0  0  0  0
   26.0300    7.5630   47.6450 F   0  0  0  0  0  0  0  0  0  0  0  0
   27.3560    5.7640   48.4230 C   0  0  0  0  0  3  0  0  0  0  0  0
   27.4090    4.5830   49.1300 C   0  0  0  0  0  3  0  0  0  0  0  0
   22.9570   -0.3340   53.6430 C   0  0  0  0  0  0  0  0  0  0  0  0
   22.4910   -1.3940   54.4180 C   0  0  0  0  0  3  0  0  0  0  0  0
   21.1110   -1.6180   54.4440 C   0  0  0  0  0  3  0  0  0  0  0  0
   20.2190   -0.8170   53.7260 C   0  0  0  0  0  0  0  0  0  0  0  0
   20.6990    0.2210   52.9710 C   0  0  0  0  0  3  0  0  0  0  0  0
   22.0640    0.4460   52.9420 C   0  0  0  0  0  3  0  0  0  0  0  0
   18.8750   -1.1610   53.8500 O   0  0  0  0  0  0  0  0  0  0  0  0
   18.1220   -0.4960   53.9700 H   0  0  0  0  0  0  0  0  0  0  0  0
   25.3670   -0.7460   55.6680 N   0  0  0  0  0  0  0  0  0  0  0  0
   24.5990   -1.4100   55.9540 H   0  0  0  0  0  0  0  0  0  0  0  0
   26.2710   -0.9890   56.1180 H   0  0  0  0  0  0  0  0  0  0  0  0
  1 28  1  1  0  0  0
  2 20  1  0  0  0  0
  2  1  1  0  0  0  0
  3  4  1  0  0  0  0
  3  2  2  0  0  0  0
  4  9  1  0  0  0  0
  5  6  1  0  0  0  0
  5  4  2  0  0  0  0
  6  7  2  0  0  0  0
  7  8  1  0  0  0  0
  9  8  2  0  0  0  0
  9  1  1  0  0  0  0
 10 11  1  0  0  0  0
 10  5  1  0  0  0  0
 12 10  1  0  0  0  0
 13 12  1  0  0  0  0
 14 13  1  0  0  0  0
 15 14  2  0  0  0  0
 16 18  2  0  0  0  0
 16 15  1  0  0  0  0
 17 16  1  0  0  0  0
 18 19  1  0  0  0  0
 19 13  2  0  0  0  0
 20 21  1  0  0  0  0
 21 22  2  0  0  0  0
 23 26  1  0  0  0  0
 23 22  1  0  0  0  0
 24 23  2  0  0  0  0
 25 24  1  0  0  0  0
 25 20  2  0  0  0  0
 26 27  1  0  0  0  0
 28 29  1  0  0  0  0
 28 30  1  0  0  0  0
M  END
>  <TORSDO>
F 6

$$$$
