C:\Qe-CaDD\Project\Data\Stage_6_Molecular_Dynamics\ligands_top\out_22339_EGFR_extracted.pdbqt
 OpenBabel01082506443D

 25 27  0  0  1  0  0  0  0  0999 V2000
   24.8710    0.3780   52.6530 C   0  0  0  0  0  0  0  0  0  0  0  0
   24.1250    1.4140   52.1230 C   0  0  0  0  0  3  0  0  0  0  0  0
   22.7900    1.4570   52.4660 C   0  0  0  0  0  0  0  0  0  0  0  0
   22.0500    2.4830   51.9430 C   0  0  0  0  0  0  0  0  0  0  0  0
   20.7350    2.5520   52.2610 N   0  0  0  0  0  0  0  0  0  0  0  0
   20.1780    1.6170   53.0820 C   0  0  0  0  0  3  0  0  0  0  0  0
   20.9390    0.6100   53.5860 N   0  0  0  0  0  0  0  0  0  0  0  0
   22.2480    0.4970   53.3010 C   0  0  0  0  0  0  0  0  0  0  0  0
   23.0430   -0.5230   53.8040 C   0  0  0  0  0  3  0  0  0  0  0  0
   24.3600   -0.5680   53.4680 N   0  0  0  0  0  0  0  0  0  0  0  0
   22.5180    3.5070   51.0830 N   0  0  0  0  0  0  0  0  0  0  0  0
   22.4880    3.4250   49.6310 C   0  0  0  0  0  2  0  0  0  0  0  0
   23.8900    3.4970   49.0820 C   0  0  0  0  0  3  0  0  0  0  0  0
   24.8350    4.1790   49.7370 C   0  0  0  0  0  0  0  0  0  0  0  0
   26.5150    4.3580   49.2300 Cl  0  0  0  0  0  0  0  0  0  0  0  0
   24.5490    4.8840   51.0120 C   0  0  0  0  0  2  0  0  0  0  0  0
   23.0980    4.7930   51.4150 C   0  0  2  0  0  3  0  0  0  0  0  0
   23.0600    5.0140   52.7960 F   0  0  0  0  0  0  0  0  0  0  0  0
   26.3190    0.2340   52.3510 C   0  0  0  0  0  2  0  0  0  0  0  0
   27.0030   -0.7320   53.2630 C   0  0  0  0  0  2  0  0  0  0  0  0
   27.5770   -0.1420   54.5040 C   0  0  0  0  0  2  0  0  0  0  0  0
   29.0430    0.0040   54.5580 C   0  0  1  0  0  3  0  0  0  0  0  0
   29.7340   -0.8890   53.5350 C   0  0  0  0  0  1  0  0  0  0  0  0
   29.3840    1.3990   54.1510 C   0  0  0  0  0  3  0  0  0  0  0  0
   28.8210    2.5000   54.2070 O   0  0  0  0  0  0  0  0  0  0  0  0
  1 10  1  0  0  0  0
  2  3  1  0  0  0  0
  2  1  2  0  0  0  0
  3  8  1  0  0  0  0
  4  5  1  0  0  0  0
  4  3  2  0  0  0  0
  5  6  2  0  0  0  0
  6  7  1  0  0  0  0
  8  7  2  0  0  0  0
  8  9  1  0  0  0  0
 10  9  2  0  0  0  0
 11 17  1  0  0  0  0
 11  4  1  0  0  0  0
 12 11  1  0  0  0  0
 13 12  1  0  0  0  0
 13 14  2  0  0  0  0
 14 16  1  0  0  0  0
 15 14  1  0  0  0  0
 16 17  1  0  0  0  0
 17 18  1  1  0  0  0
 19  1  1  0  0  0  0
 19 20  1  0  0  0  0
 20 21  1  0  0  0  0
 21 22  1  0  0  0  0
 22 23  1  6  0  0  0
 24 25  2  0  0  0  0
 24 22  1  0  0  0  0
M  END
>  <TORSDO>
F 6

$$$$
