C:\Qe-CaDD\Project\Data\Stage_6_Molecular_Dynamics\ligands_top\out_18313_EGFR_extracted.pdbqt
 OpenBabel01082506443D

 25 27  0  0  1  0  0  0  0  0999 V2000
   25.8110    0.1860   53.6260 C   0  0  2  0  0  0  0  0  0  0  0  0
   26.5640    0.7690   54.7310 N   0  0  0  0  0  0  0  0  0  0  0  0
   27.7610    0.3020   54.7870 C   0  0  0  0  0  3  0  0  0  0  0  0
   28.0280   -0.6490   53.7640 N   0  0  0  0  0  0  0  0  0  0  0  0
   29.3440   -1.2790   53.6830 C   0  0  0  0  0  1  0  0  0  0  0  0
   26.7820   -0.7110   53.0370 C   0  0  0  0  0  0  0  0  0  0  0  0
   26.8190   -1.5720   52.0030 C   0  0  0  0  0  2  0  0  0  0  0  0
   25.4810    1.3720   52.7980 C   0  0  0  0  0  0  0  0  0  0  0  0
   26.2410    1.5110   51.6290 C   0  0  0  0  0  3  0  0  0  0  0  0
   26.0770    2.5480   50.7340 C   0  0  0  0  0  3  0  0  0  0  0  0
   25.1040    3.4690   51.0490 C   0  0  0  0  0  0  0  0  0  0  0  0
   24.3400    3.3610   52.1910 C   0  0  0  0  0  0  0  0  0  0  0  0
   24.5360    2.3120   53.0560 C   0  0  0  0  0  3  0  0  0  0  0  0
   24.9050    4.5740   50.1300 C   0  0  0  0  0  3  0  0  0  0  0  0
   25.9100    4.9610   49.3680 C   0  0  0  0  0  2  0  0  0  0  0  0
   23.1140    4.6110   52.4920 S   0  0  0  0  0  0  0  0  0  0  0  0
   21.4710    3.9910   52.1540 C   0  0  0  0  0  3  0  0  0  0  0  0
   20.4750    3.5360   52.6570 O   0  0  0  0  0  0  0  0  0  0  0  0
   24.6160   -0.4530   54.2410 C   0  0  0  0  0  0  0  0  0  0  0  0
   24.5000   -1.0060   55.5270 C   0  0  0  0  0  3  0  0  0  0  0  0
   23.2730   -1.4850   55.7150 N   0  0  0  0  0  0  0  0  0  0  0  0
   22.5500   -1.2880   54.6320 N   0  0  0  0  0  0  0  0  0  0  0  0
   21.1620   -1.6740   54.4580 C   0  0  0  0  0  1  0  0  0  0  0  0
   23.3460   -0.6630   53.7250 C   0  0  0  0  0  0  0  0  0  0  0  0
   22.9020   -0.2680   52.3750 C   0  0  0  0  0  1  0  0  0  0  0  0
  1  8  1  6  0  0  0
  1 19  1  0  0  0  0
  1  2  1  0  0  0  0
  2  3  2  0  0  0  0
  4  3  1  0  0  0  0
  5  4  1  0  0  0  0
  6  1  1  0  0  0  0
  6  4  1  0  0  0  0
  7  6  2  0  0  0  0
  8 13  1  0  0  0  0
  9  8  2  0  0  0  0
 10 11  2  0  0  0  0
 10  9  1  0  0  0  0
 11 12  1  0  0  0  0
 12 16  1  0  0  0  0
 12 13  2  0  0  0  0
 14 11  1  0  0  0  0
 15 14  2  0  0  0  0
 17 16  1  0  0  0  0
 17 18  2  0  0  0  0
 19 20  1  0  0  0  0
 20 21  2  0  0  0  0
 22 21  1  0  0  0  0
 23 22  1  0  0  0  0
 24 19  2  0  0  0  0
 24 22  1  0  0  0  0
 25 24  1  0  0  0  0
M  END
>  <TORSDO>
F 5

$$$$
