C:\Qe-CaDD\Project\Data\Stage_6_Molecular_Dynamics\ligands_top\out_11162_EGFR_extracted.pdbqt
 OpenBabel01082506443D

 26 27  0  0  1  0  0  0  0  0999 V2000
   17.8950    0.2750   50.6540 C   0  0  0  0  0  1  0  0  0  0  0  0
   19.3600    0.2960   50.6850 C   0  0  0  0  0  3  0  0  0  0  0  0
   20.3320    1.1630   51.0650 C   0  0  0  0  0  0  0  0  0  0  0  0
   19.8430    2.4260   51.5870 C   0  0  0  0  0  3  0  0  0  0  0  0
   20.3940    3.5220   52.0560 C   0  0  0  0  0  3  0  0  0  0  0  0
   21.5580    4.2580   52.3840 N   0  0  0  0  0  0  0  0  0  0  0  0
   22.4440    5.0270   51.5830 C   0  0  2  0  0  3  0  0  0  0  0  0
   22.8870    4.0110   50.9080 N   0  0  0  0  0  0  0  0  0  0  0  0
   24.1880    4.3800   50.4690 C   0  0  0  0  0  0  0  0  0  0  0  0
   24.4140    5.5740   50.9070 N   0  0  0  0  0  2  0  0  0  0  0  0
   23.1140    6.2710   51.1140 C   0  0  0  0  0  2  0  0  0  0  0  0
   25.3000    3.8860   49.7430 N   0  0  0  0  0  0  0  0  0  0  0  0
   26.5060    3.3460   50.3210 C   0  0  0  0  0  2  0  0  0  0  0  0
   26.3370    2.0200   51.0200 C   0  0  0  0  0  2  0  0  0  0  0  0
   25.2030    2.1830   52.4400 P   0  0  0  0  0  0  0  0  0  0  0  0
   23.6890    1.2350   52.3880 C   0  0  0  0  0  2  0  0  0  0  0  0
   22.5340    0.6320   52.1160 C   0  0  1  0  0  3  0  0  0  0  0  0
   21.7100    0.7180   50.8900 C   0  0  0  0  0  2  0  0  0  0  0  0
   22.0400    4.4070   53.2950 H   0  0  0  0  0  0  0  0  0  0  0  0
   25.2830    3.8940   48.6850 H   0  0  0  0  0  0  0  0  0  0  0  0
   24.9400    3.5640   52.7240 H   0  0  0  0  0  0  0  0  0  0  0  0
   21.7720   -0.3090   53.0080 C   0  0  1  0  0  3  0  0  0  0  0  0
   22.3350   -1.5710   53.0040 F   0  0  0  0  0  0  0  0  0  0  0  0
   21.6940    0.1380   54.4310 C   0  0  0  0  0  3  0  0  0  0  0  0
   21.9340   -0.9130   55.3170 F   0  0  0  0  0  0  0  0  0  0  0  0
   20.4170    0.5910   54.7590 F   0  0  0  0  0  0  0  0  0  0  0  0
  1  2  1  0  0  0  0
  2  3  2  0  0  0  0
  3  4  1  0  0  0  0
  4  5  2  0  0  0  0
  5  6  1  0  0  0  0
  6 19  1  0  0  0  0
  7 11  1  1  0  0  0
  7  6  1  0  0  0  0
  8  7  1  0  0  0  0
  9 10  1  0  0  0  0
  9  8  2  0  0  0  0
 10 11  1  0  0  0  0
 12 13  1  0  0  0  0
 12  9  1  0  0  0  0
 13 14  1  0  0  0  0
 14 15  1  0  0  0  0
 15 21  1  0  0  0  0
 16 15  1  0  0  0  0
 17 16  1  0  0  0  0
 17 22  1  6  0  0  0
 18  3  1  0  0  0  0
 18 17  1  0  0  0  0
 20 12  1  0  0  0  0
 22 23  1  1  0  0  0
 22 24  1  0  0  0  0
 24 26  1  0  0  0  0
 24 25  1  0  0  0  0
M  END
>  <TORSDO>
F 2

$$$$
