C:\Qe-CaDD\Project\Data\Stage_6_Molecular_Dynamics\ligands_top\out_22259_EGFR_extracted.pdbqt
 OpenBabel01082506443D

 28 29  0  0  0  0  0  0  0  0999 V2000
   29.1070   -1.1710   53.4650 C   0  0  0  0  0  1  0  0  0  0  0  0
   27.9390   -0.2890   53.3770 C   0  0  0  0  0  0  0  0  0  0  0  0
   26.9500    0.4390   53.2950 C   0  0  0  0  0  0  0  0  0  0  0  0
   25.7850    1.2760   53.1870 C   0  0  0  0  0  0  0  0  0  0  0  0
   25.8440    2.3420   53.8380 O   0  0  0  0  0  0  0  0  0  0  0  0
   24.6460    0.9220   52.4010 N   0  0  0  0  0  0  0  0  0  0  0  0
   24.7440   -0.0100   51.9090 H   0  0  0  0  0  0  0  0  0  0  0  0
   23.5340    1.9340   52.4270 C   0  0  0  0  0  2  0  0  0  0  0  0
   23.4020    2.5790   51.1420 C   0  0  0  0  0  0  0  0  0  0  0  0
   23.8280    3.7740   50.8330 C   0  0  0  0  0  0  0  0  0  0  0  0
   24.2570    5.0560   50.4080 C   0  0  0  0  0  0  0  0  0  0  0  0
   24.2540    5.7230   51.5370 N   0  0  0  0  0  2  0  0  0  0  0  0
   23.8840    5.1760   52.7490 N   0  0  0  0  0  0  0  0  0  0  0  0
   22.4680    4.8330   52.4780 C   0  0  0  0  0  2  0  0  0  0  0  0
   23.5300    4.7500   53.6290 H   0  0  0  0  0  0  0  0  0  0  0  0
   21.3940    4.1790   52.1050 N   0  0  0  0  0  2  0  0  0  0  0  0
   21.3810    2.8620   51.5480 C   0  0  0  0  0  2  0  0  0  0  0  0
   21.2990    1.5900   51.0440 C   0  0  0  0  0  2  0  0  0  0  0  0
   22.6640    1.5350   50.3520 C   0  0  0  0  0  2  0  0  0  0  0  0
   24.4450    5.9160   49.3210 N   0  0  0  0  0  0  0  0  0  0  0  0
   23.4580    6.2550   49.0750 H   0  0  0  0  0  0  0  0  0  0  0  0
   25.7420    6.1530   48.8030 C   0  0  0  0  0  0  0  0  0  0  0  0
   26.8720    5.3430   48.8560 C   0  0  0  0  0  3  0  0  0  0  0  0
   28.0490    5.7530   48.2830 C   0  0  0  0  0  3  0  0  0  0  0  0
   28.1050    6.9790   47.6490 C   0  0  0  0  0  3  0  0  0  0  0  0
   27.0040    7.8040   47.5790 C   0  0  0  0  0  0  0  0  0  0  0  0
   27.2650    9.4550   46.6680 Br  0  0  0  0  0  0  0  0  0  0  0  0
   25.8230    7.3890   48.1580 C   0  0  0  0  0  3  0  0  0  0  0  0
  2  1  1  0  0  0  0
  3  2  3  0  0  0  0
  4  3  1  0  0  0  0
  4  5  2  0  0  0  0
  6  8  1  0  0  0  0
  6  4  1  0  0  0  0
  7  6  1  0  0  0  0
  9  8  1  0  0  0  0
 10  9  2  0  0  0  0
 11 10  2  0  0  0  0
 11 12  1  0  0  0  0
 12 13  1  0  0  0  0
 13 15  1  0  0  0  0
 14 13  1  0  0  0  0
 16 14  1  0  0  0  0
 17 16  1  0  0  0  0
 18 17  1  0  0  0  0
 19 18  1  0  0  0  0
 19  9  1  0  0  0  0
 20 11  1  0  0  0  0
 21 20  1  0  0  0  0
 22 23  1  0  0  0  0
 22 20  1  0  0  0  0
 24 23  2  0  0  0  0
 25 24  1  0  0  0  0
 26 25  2  0  0  0  0
 26 28  1  0  0  0  0
 27 26  1  0  0  0  0
 28 22  2  0  0  0  0
M  END
>  <TORSDO>
F 5

$$$$
