C:\Qe-CaDD\Project\Data\Stage_6_Molecular_Dynamics\ligands_top\out_12050_EGFR_extracted.pdbqt
 OpenBabel01082506443D

 30 30  0  0  0  0  0  0  0  0999 V2000
   29.1580   -1.8550   53.5360 N   0  0  0  0  0  0  0  0  0  0  0  0
   28.6350   -0.8240   53.3350 C   0  0  0  0  0  0  0  0  0  0  0  0
   27.9740    0.4450   53.0640 C   0  0  0  0  0  0  0  0  0  0  0  0
   26.9040    0.4600   52.2980 C   0  0  0  0  0  3  0  0  0  0  0  0
   28.6110    1.5630   53.7300 C   0  0  0  0  0  3  0  0  0  0  0  0
   28.9820    2.8280   53.2040 N   0  0  0  0  0  1  0  0  0  0  0  0
   28.7660    3.7830   53.5590 H   0  0  0  0  0  0  0  0  0  0  0  0
   28.7760    3.7920   53.5430 H   0  0  0  0  0 15  0  0  0  0  0  0
   28.9620    1.6230   54.9210 O   0  0  0  0  0  0  0  0  0  0  0  0
   25.9640    1.4440   51.7780 C   0  0  0  0  0  0  0  0  0  0  0  0
   24.6120    1.3170   51.9650 C   0  0  0  0  0  3  0  0  0  0  0  0
   23.6930    2.2130   51.4630 C   0  0  0  0  0  0  0  0  0  0  0  0
   24.1750    3.2710   50.7480 C   0  0  0  0  0  0  0  0  0  0  0  0
   25.5150    3.4600   50.5230 C   0  0  0  0  0  0  0  0  0  0  0  0
   26.3920    2.5370   51.0450 C   0  0  0  0  0  3  0  0  0  0  0  0
   21.9360    2.0560   51.6910 S   0  0  0  0  0  0  0  0  0  0  0  0
   21.4790    0.6820   52.7130 C   0  0  0  0  0  0  0  0  0  0  0  0
   22.3480    0.1440   53.6610 C   0  0  0  0  0  3  0  0  0  0  0  0
   22.0310   -0.9210   54.4750 C   0  0  0  0  0  3  0  0  0  0  0  0
   20.7760   -1.5070   54.3620 C   0  0  0  0  0  3  0  0  0  0  0  0
   19.9320   -0.9730   53.4310 C   0  0  0  0  0  3  0  0  0  0  0  0
   20.2200    0.0880   52.6050 C   0  0  0  0  0  3  0  0  0  0  0  0
   23.3050    4.2070   50.2150 O   0  0  0  0  0  0  0  0  0  0  0  0
   22.3130    4.1980   50.2570 H   0  0  0  0  0  0  0  0  0  0  0  0
   26.0870    4.5640   49.7710 C   0  0  0  0  0  0  0  0  0  0  0  0
   27.2520    4.3620   49.0430 C   0  0  0  0  0  3  0  0  0  0  0  0
   27.8190    5.4060   48.3140 C   0  0  0  0  0  3  0  0  0  0  0  0
   27.2470    6.6620   48.2940 C   0  0  0  0  0  3  0  0  0  0  0  0
   26.0820    6.8730   49.0200 C   0  0  0  0  0  3  0  0  0  0  0  0
   25.5280    5.8330   49.7380 C   0  0  0  0  0  3  0  0  0  0  0  0
  2  1  3  0  0  0  0
  3  2  1  0  0  0  0
  3  5  1  0  0  0  0
  4  3  2  0  0  0  0
  5  9  2  0  0  0  0
  6  7  1  0  0  0  0
 10 11  1  0  0  0  0
 10  4  1  0  0  0  0
 12 16  1  0  0  0  0
 12 11  2  0  0  0  0
 13 12  1  0  0  0  0
 14 13  2  0  0  0  0
 14 15  1  0  0  0  0
 15 10  2  0  0  0  0
 16 17  1  0  0  0  0
 17 18  1  0  0  0  0
 18 19  2  0  0  0  0
 20 19  1  0  0  0  0
 21 20  2  0  0  0  0
 22 17  2  0  0  0  0
 22 21  1  0  0  0  0
 23 24  1  0  0  0  0
 23 13  1  0  0  0  0
 25 14  1  0  0  0  0
 26 25  2  0  0  0  0
 27 26  1  0  0  0  0
 28 27  2  0  0  0  0
 28 29  1  0  0  0  0
 29 30  2  0  0  0  0
 30 25  1  0  0  0  0
M  END
>  <TORSDO>
F 6

$$$$
