C:\Qe-CaDD\Project\Data\Stage_6_Molecular_Dynamics\ligands_top\out_22349_EGFR_extracted.pdbqt
 OpenBabel01082506443D

 25 26  0  0  1  0  0  0  0  0999 V2000
   24.3130    3.3260   51.7630 N   0  0  0  0  0  0  0  0  0  0  0  0
   23.4600    3.8440   52.0660 H   0  0  0  0  0  0  0  0  0  0  0  0
   25.4450    3.8510   51.1540 N   0  0  0  0  0  0  0  0  0  0  0  0
   25.3550    4.1370   49.7670 C   0  0  0  0  0  0  0  0  0  0  0  0
   24.2990    3.9260   49.1150 O   0  0  0  0  0  0  0  0  0  0  0  0
   26.2460    3.9760   51.7980 H   0  0  0  0  0  0  0  0  0  0  0  0
   26.5580    4.6840   49.1660 C   0  0  0  0  0  0  0  0  0  0  0  0
   27.5710    5.1340   48.6840 C   0  0  0  0  0  0  0  0  0  0  0  0
   28.8150    5.6600   48.1060 C   0  0  0  0  0  2  0  0  0  0  0  0
   28.5100    6.9630   47.6030 N   0  0  0  0  0  0  0  0  0  0  0  0
   28.1830    7.9170   48.6220 C   0  0  0  0  0  1  0  0  0  0  0  0
   29.6640    7.4530   46.8730 C   0  0  0  0  0  2  0  0  0  0  0  0
   30.8930    6.6540   47.2260 C   0  0  0  0  0  1  0  0  0  0  0  0
   24.0420    1.9770   52.1170 C   0  0  0  0  0  0  0  0  0  0  0  0
   24.6750    1.3520   53.1040 C   0  0  0  0  0  0  0  0  0  0  0  0
   25.7210    1.9670   53.9460 C   0  0  0  0  0  1  0  0  0  0  0  0
   24.1810   -0.0500   53.2250 C   0  0  1  0  0  3  0  0  0  0  0  0
   24.6480   -0.7630   54.3590 N   0  0  0  0  0  0  0  0  0  0  0  0
   22.7070   -0.0720   53.3600 C   0  0  1  0  0  3  0  0  0  0  0  0
   23.7070   -1.1980   55.1110 C   0  0  0  0  0  3  0  0  0  0  0  0
   22.3860   -0.8170   54.5690 C   0  0  0  0  0  0  0  0  0  0  0  0
   21.2060   -1.0360   54.9760 N   0  0  0  0  0  0  0  0  0  0  0  0
   20.3640   -0.6940   54.4720 H   0  0  0  0  0  0  0  0  0  0  0  0
   22.0770    0.5860   52.3920 C   0  0  0  0  0  2  0  0  0  0  0  0
   22.9940    1.2190   51.3610 C   0  0  0  0  0  2  0  0  0  0  0  0
  1  2  1  0  0  0  0
  1 14  1  0  0  0  0
  3  1  1  0  0  0  0
  3  6  1  0  0  0  0
  4  3  1  0  0  0  0
  5  4  2  0  0  0  0
  7  4  1  0  0  0  0
  8  7  3  0  0  0  0
  9  8  1  0  0  0  0
 10  9  1  0  0  0  0
 10 11  1  0  0  0  0
 12 13  1  0  0  0  0
 12 10  1  0  0  0  0
 14 15  2  0  0  0  0
 15 16  1  0  0  0  0
 17 15  1  1  0  0  0
 17 19  1  0  0  0  0
 17 18  1  0  0  0  0
 18 20  2  0  0  0  0
 19 24  1  1  0  0  0
 19 21  1  0  0  0  0
 21 22  2  0  0  0  0
 21 20  1  0  0  0  0
 23 22  1  0  0  0  0
 25 14  1  0  0  0  0
 25 24  1  0  0  0  0
M  END
>  <TORSDO>
F 6

$$$$
