C:\Qe-CaDD\Project\Data\Stage_6_Molecular_Dynamics\ligands_top\out_12015_EGFR_extracted.pdbqt
 OpenBabel01082506443D

 22 23  0  0  0  0  0  0  0  0999 V2000
   20.2850    1.4820   52.2430 C   0  0  0  0  0  1  0  0  0  0  0  0
   21.2290    1.1100   53.0950 C   0  0  0  0  0  0  0  0  0  0  0  0
   20.7010    0.4700   54.3280 C   0  0  0  0  0  2  0  0  0  0  0  0
   21.3530   -0.6040   54.8200 C   0  0  0  0  0  3  0  0  0  0  0  0
   22.5410   -1.3780   54.4290 C   0  0  0  0  0  3  0  0  0  0  0  0
   23.7430   -0.6430   53.9960 C   0  0  0  0  0  3  0  0  0  0  0  0
   23.5970    0.5660   53.1840 C   0  0  0  0  0  0  0  0  0  0  0  0
   22.6590    1.3850   52.7230 C   0  0  0  0  0  0  0  0  0  0  0  0
   24.9100    1.1260   52.9690 C   0  0  0  0  0  3  0  0  0  0  0  0
   26.1980    1.1660   53.1990 C   0  0  0  0  0  0  0  0  0  0  0  0
   26.6270    0.1640   54.1520 C   0  0  0  0  0  2  0  0  0  0  0  0
   27.3530    1.9310   52.7660 C   0  0  0  0  0  0  0  0  0  0  0  0
   27.7360    0.2200   54.8270 C   0  0  0  0  0  2  0  0  0  0  0  0
   28.8260    0.5930   54.2190 C   0  0  0  0  0  2  0  0  0  0  0  0
   28.5470    1.6420   53.2550 C   0  0  0  0  0  3  0  0  0  0  0  0
   26.9870    2.9410   51.8210 N   0  0  0  0  0  0  0  0  0  0  0  0
   26.7970    3.8990   52.1510 H   0  0  0  0  0  0  0  0  0  0  0  0
   26.8820    2.6940   50.5160 O   0  0  0  0  0  0  0  0  0  0  0  0
   26.5570    3.7970   49.7570 C   0  0  0  0  0  1  0  0  0  0  0  0
   22.7060    2.4650   51.7720 C   0  0  0  0  0  3  0  0  0  0  0  0
   23.2150    2.2230   50.3940 C   0  0  0  0  0  1  0  0  0  0  0  0
   23.1830    3.8070   52.2790 C   0  0  0  0  0  1  0  0  0  0  0  0
  1  2  1  0  0  0  0
  2  3  1  0  0  0  0
  3  4  1  0  0  0  0
  5  4  2  0  0  0  0
  6  5  1  0  0  0  0
  7  6  2  0  0  0  0
  8  2  2  0  0  0  0
  8  7  1  0  0  0  0
  9  7  1  0  0  0  0
  9 10  2  0  0  0  0
 10 11  1  0  0  0  0
 11 13  1  0  0  0  0
 12 10  1  0  0  0  0
 12 15  2  0  0  0  0
 14 13  1  0  0  0  0
 15 14  1  0  0  0  0
 16 17  1  0  0  0  0
 16 12  1  0  0  0  0
 18 16  1  0  0  0  0
 19 18  1  0  0  0  0
 20 22  1  0  0  0  0
 20  8  1  0  0  0  0
 21 20  1  0  0  0  0
M  END
>  <TORSDO>
F 4

$$$$
