C:\Qe-CaDD\Project\Data\Stage_6_Molecular_Dynamics\ligands_top\out_21902_EGFR_extracted.pdbqt
 OpenBabel01082506443D

 29 32  0  0  1  0  0  0  0  0999 V2000
   27.3960    1.3980   53.2370 C   0  0  0  0  0  0  0  0  0  0  0  0
   26.9490    0.5350   54.2110 C   0  0  0  0  0  3  0  0  0  0  0  0
   25.6700   -0.0100   54.3110 C   0  0  0  0  0  0  0  0  0  0  0  0
   25.3670   -0.8450   55.3330 N   0  0  0  0  0  0  0  0  0  0  0  0
   24.0930   -1.3480   55.3930 C   0  0  0  0  0  3  0  0  0  0  0  0
   23.1430   -1.0020   54.4280 C   0  0  0  0  0  0  0  0  0  0  0  0
   21.8080   -1.5480   54.5240 C   0  0  0  0  0  0  0  0  0  0  0  0
   20.7490   -2.0010   54.6070 N   0  0  0  0  0  0  0  0  0  0  0  0
   23.4450   -0.1530   53.3820 C   0  0  0  0  0  0  0  0  0  0  0  0
   24.7290    0.3170   53.3670 C   0  0  0  0  0  0  0  0  0  0  0  0
   25.2410    1.1660   52.4430 C   0  0  0  0  0  3  0  0  0  0  0  0
   26.4740    1.7410   52.2810 C   0  0  0  0  0  0  0  0  0  0  0  0
   26.7910    2.6350   51.2190 N   0  0  0  0  0  4  0  0  0  0  0  0
   26.6110    3.5470   50.1710 C   0  0  1  0  0  3  0  0  0  0  0  0
   25.5520    3.1160   50.7440 O   0  0  0  0  0  0  0  0  0  0  0  0
   25.5200    4.1530   49.5410 C   0  0  0  0  0  0  0  0  0  0  0  0
   24.6200    4.6370   49.0110 C   0  0  0  0  0  0  0  0  0  0  0  0
   23.5260    5.2120   48.3480 C   0  0  0  0  0  2  0  0  0  0  0  0
   22.2180    4.4540   48.6100 C   0  0  1  0  0  3  0  0  0  0  0  0
   20.7830    5.1340   47.5430 Br  0  0  0  0  0  0  0  0  0  0  0  0
   22.3890    3.0200   48.4270 C   0  0  0  0  0  3  0  0  0  0  0  0
   22.3760    2.2020   49.4530 C   0  0  0  0  0  3  0  0  0  0  0  0
   22.2210    2.2470   50.8920 C   0  0  0  0  0  3  0  0  0  0  0  0
   22.2200    1.4800   51.9660 C   0  0  0  0  0  3  0  0  0  0  0  0
   22.3620    0.1650   52.4770 N   0  0  0  0  0  0  0  0  0  0  0  0
   27.8580    2.6930   51.0600 H   0  0  0  0  0  0  0  0  0  0  0  0
   21.6630   -0.5330   52.1860 H   0  0  0  0  0  0  0  0  0  0  0  0
   28.6580    1.9450   53.1310 O   0  0  0  0  0  0  0  0  0  0  0  0
   29.5610    2.2120   54.1590 C   0  0  0  0  0  1  0  0  0  0  0  0
  1  2  1  0  0  0  0
  2  3  2  0  0  0  0
  3  4  1  0  0  0  0
  4  5  2  0  0  0  0
  6  7  1  0  0  0  0
  6  5  1  0  0  0  0
  7  8  3  0  0  0  0
  9  6  2  0  0  0  0
 10  9  1  0  0  0  0
 10  3  1  0  0  0  0
 11 10  2  0  0  0  0
 12 11  1  0  0  0  0
 12  1  2  0  0  0  0
 13 12  1  0  0  0  0
 14 16  1  1  0  0  0
 14 15  1  0  0  0  0
 14 13  1  0  0  0  0
 15 13  1  0  0  0  0
 17 16  3  0  0  0  0
 18 19  1  0  0  0  0
 18 17  1  0  0  0  0
 19 20  1  6  0  0  0
 21 19  1  0  0  0  0
 21 22  2  0  0  0  0
 22 23  1  0  0  0  0
 23 24  2  0  0  0  0
 24 25  1  0  0  0  0
 25  9  1  0  0  0  0
 26 13  1  0  0  0  0
 27 25  1  0  0  0  0
 28  1  1  0  0  0  0
 28 29  1  0  0  0  0
M  END
>  <TORSDO>
F 1

$$$$
