C:\Qe-CaDD\Project\Data\Stage_6_Molecular_Dynamics\ligands_top\out_20788_EGFR_extracted.pdbqt
 OpenBabel01082506443D

 25 26  0  0  0  0  0  0  0  0999 V2000
   24.3980    2.5200   52.0700 C   0  0  0  0  0  0  0  0  0  0  0  0
   24.7550    3.3780   51.1000 N   0  0  0  0  0  0  0  0  0  0  0  0
   26.0050    3.3320   50.5530 C   0  0  0  0  0  3  0  0  0  0  0  0
   26.8900    2.3970   51.0090 N   0  0  0  0  0  0  0  0  0  0  0  0
   26.5150    1.5450   51.9830 C   0  0  0  0  0  0  0  0  0  0  0  0
   27.4740    0.6260   52.3880 C   0  0  0  0  0  3  0  0  0  0  0  0
   27.1010   -0.2540   53.3870 C   0  0  0  0  0  0  0  0  0  0  0  0
   25.8450   -0.2310   53.9580 C   0  0  0  0  0  0  0  0  0  0  0  0
   24.8950    0.6850   53.5510 C   0  0  0  0  0  3  0  0  0  0  0  0
   25.2620    1.5620   52.5570 C   0  0  0  0  0  0  0  0  0  0  0  0
   23.0850    2.6460   52.5740 N   0  0  0  0  0  4  0  0  0  0  0  0
   22.6890    3.1960   53.3370 H   0  0  0  0  0  0  0  0  0  0  0  0
   22.0320    1.9030   51.9720 C   0  0  0  0  0  0  0  0  0  0  0  0
   20.9140    1.6600   52.6770 C   0  0  0  0  0  2  0  0  0  0  0  0
   22.0750    1.3550   50.5730 C   0  0  0  0  0  1  0  0  0  0  0  0
   19.8330    0.8990   52.0660 C   0  0  0  0  0  3  0  0  0  0  0  0
   19.3620   -0.1570   52.6860 C   0  0  0  0  0  0  0  0  0  0  0  0
   20.1140   -0.2330   53.8500 O   0  0  0  0  0  0  0  0  0  0  0  0
   20.8280   -1.3910   54.2200 C   0  0  0  0  0  1  0  0  0  0  0  0
   18.3530   -0.9690   52.2420 O   0  0  0  0  0  0  0  0  0  0  0  0
   17.2460   -1.2610   53.0700 C   0  0  0  0  0  1  0  0  0  0  0  0
   25.5440   -1.1330   54.9430 O   0  0  0  0  0  0  0  0  0  0  0  0
   24.2810   -1.2960   55.5170 C   0  0  0  0  0  1  0  0  0  0  0  0
   28.0310   -1.1950   53.8270 O   0  0  0  0  0  0  0  0  0  0  0  0
   29.3980   -0.8160   53.7740 C   0  0  0  0  0  1  0  0  0  0  0  0
  1 10  1  0  0  0  0
  1 11  1  0  0  0  0
  2  1  2  0  0  0  0
  3  4  2  0  0  0  0
  3  2  1  0  0  0  0
  4  5  1  0  0  0  0
  5  6  2  0  0  0  0
  5 10  1  0  0  0  0
  6  7  1  0  0  0  0
  7 24  1  0  0  0  0
  7  8  2  0  0  0  0
  8 22  1  0  0  0  0
  9  8  1  0  0  0  0
 10  9  2  0  0  0  0
 11 12  1  0  0  0  0
 13 11  2  0  0  0  0
 13 14  1  0  0  0  0
 15 13  1  0  0  0  0
 16 14  1  0  0  0  0
 16 17  2  0  0  0  0
 17 18  1  0  0  0  0
 18 19  1  0  0  0  0
 20 17  1  0  0  0  0
 20 21  1  0  0  0  0
 22 23  1  0  0  0  0
 25 24  1  0  0  0  0
M  END
>  <TORSDO>
F 7

$$$$
