C:\Qe-CaDD\Project\Data\Stage_6_Molecular_Dynamics\ligands_top\out_16650_EGFR_extracted.pdbqt
 OpenBabel01082506443D

 25 26  0  0  1  0  0  0  0  0999 V2000
   20.3170    4.3230   51.2050 C   0  0  0  0  0  1  0  0  0  0  0  0
   20.8330    2.8830   51.0470 C   0  0  1  0  0  3  0  0  0  0  0  0
   21.9150    2.6510   51.9920 N   0  0  0  0  0  0  0  0  0  0  0  0
   23.0160    3.5690   51.7530 C   0  0  0  0  0  2  0  0  0  0  0  0
   24.1000    3.2990   52.7690 C   0  0  0  0  0  2  0  0  0  0  0  0
   24.5900    1.9430   52.6910 N   0  0  2  0  0  0  0  0  0  0  0  0
   25.3740    1.5910   53.8300 C   0  0  0  0  0  2  0  0  0  0  0  0
   26.1900    0.3440   53.6660 C   0  0  1  0  0  3  0  0  0  0  0  0
   25.4890   -0.8650   54.1760 C   0  0  0  0  0  2  0  0  0  0  0  0
   24.5120   -0.6120   54.9760 N   0  0  0  0  0  2  0  0  0  0  0  0
   23.7020   -1.5750   55.5840 C   0  0  0  0  0  2  0  0  0  0  0  0
   22.4880   -1.4340   55.1730 N   0  0  0  0  0  2  0  0  0  0  0  0
   22.0820   -0.1630   54.0150 S   0  0  0  0  0  0  0  0  0  0  0  0
   20.3810   -0.4740   53.4860 C   0  0  1  0  0  3  0  0  0  0  0  0
   19.3530   -0.1290   52.7480 C   0  0  0  0  0  2  0  0  0  0  0  0
   19.9450    1.0340   52.1010 C   0  0  0  0  0  3  0  0  0  0  0  0
   19.6820    2.0110   51.2100 C   0  0  0  0  0  0  0  0  0  0  0  0
   18.8550    2.6570   50.3210 F   0  0  0  0  0  0  0  0  0  0  0  0
   26.5900    0.0880   52.2330 C   0  0  0  0  0  2  0  0  0  0  0  0
   26.4950    1.4680   51.5650 C   0  0  0  0  0  2  0  0  0  0  0  0
   25.1320    1.7330   51.5120 O   0  0  0  0  0  0  0  0  0  0  0  0
   22.3060    1.7050   51.6950 H   0  0  0  0  0  0  0  0  0  0  0  0
   20.4310   -1.6000   54.3910 N   0  0  0  0  0  0  0  0  0  0  0  0
   21.0620   -2.2460   54.9500 H   0  0  0  0  0  0  0  0  0  0  0  0
   19.8940   -2.3210   54.9290 H   0  0  0  0  0  0  0  0  0  0  0  0
  2  1  1  1  0  0  0
  2 17  1  0  0  0  0
  2  3  1  0  0  0  0
  4  3  1  0  0  0  0
  4  5  1  0  0  0  0
  6  5  1  1  0  0  0
  6  7  1  0  0  0  0
  8 19  1  6  0  0  0
  8  7  1  0  0  0  0
  8  9  1  0  0  0  0
  9 10  1  0  0  0  0
 10 11  1  0  0  0  0
 12 11  1  0  0  0  0
 13 12  1  0  0  0  0
 14 13  1  0  0  0  0
 14 23  1  6  0  0  0
 15 14  1  0  0  0  0
 16 15  1  0  0  0  0
 17 16  2  0  0  0  0
 18 17  1  0  0  0  0
 20 19  1  0  0  0  0
 21 20  1  0  0  0  0
 21  6  1  0  0  0  0
 22  3  1  0  0  0  0
 23 25  1  0  0  0  0
 23 24  1  0  0  0  0
M  END
>  <TORSDO>
F 1

$$$$
