C:\Qe-CaDD\Project\Data\Stage_6_Molecular_Dynamics\ligands_top\out_16832_EGFR_extracted.pdbqt
 OpenBabel01082506443D

 28 34  0  0  1  0  0  0  0  0999 V2000
   27.1780    1.3080   53.9960 C   0  0  1  0  0  3  0  0  0  0  0  0
   26.0230    0.7120   54.1370 C   0  0  0  0  0  2  0  0  0  0  0  0
   24.6990    0.1240   54.1290 C   0  0  0  0  0  2  0  0  0  0  0  0
   23.9520    0.2640   52.8290 C   0  0  1  0  0  3  0  0  0  0  0  0
   24.4080    0.6240   51.6740 N   0  0  0  0  0  2  0  0  0  0  0  0
   25.3030    1.6720   51.4650 C   0  0  2  0  0  3  0  0  0  0  0  0
   26.1100    2.6390   51.1210 C   0  0  2  0  0  3  0  0  0  0  0  0
   26.1670    3.5530   49.9630 C   0  0  0  0  0  2  0  0  0  0  0  0
   26.0870    4.9330   50.1770 N   0  0  0  0  0  0  0  0  0  0  0  0
   24.5900    5.6750   50.5810 S   0  0  0  0  0  1  0  0  0  0  0  0
   23.2920    4.4940   50.9330 C   0  0  2  0  0  0  0  0  0  0  0  0
   23.5920    5.2500   52.0180 C   0  0  0  0  0  2  0  0  0  0  0  0
   22.9160    4.1220   52.2710 N   0  0  2  0  0  0  0  0  0  0  0  0
   22.5520    3.2790   51.3380 C   0  0  2  0  0  0  0  0  0  0  0  0
   22.2180    2.4070   52.3880 C   0  0  0  0  0  3  0  0  0  0  0  0
   21.8650    1.3370   51.6130 C   0  0  0  0  0  0  0  0  0  0  0  0
   21.7920    1.0530   50.2820 C   0  0  1  0  0  3  0  0  0  0  0  0
   22.0810    1.8100   49.1820 C   0  0  0  0  0  2  0  0  0  0  0  0
   22.3830    2.7190   50.1260 C   0  0  1  0  0  0  0  0  0  0  0  0
   23.0690    3.8520   49.7590 C   0  0  0  0  0  2  0  0  0  0  0  0
   21.5940    0.0120   52.1420 N   0  0  0  0  0  0  0  0  0  0  0  0
   22.5520   -0.1600   53.1850 C   0  0  0  0  0  2  0  0  0  0  0  0
   26.4990    2.0490   52.3400 N   0  0  2  0  0  0  0  0  0  0  0  0
   27.6110    2.1610   52.9040 C   0  0  0  0  0  2  0  0  0  0  0  0
   26.5330    5.4680   49.4000 H   0  0  0  0  0  0  0  0  0  0  0  0
   20.9220   -0.7310   51.9360 H   0  0  0  0  0  0  0  0  0  0  0  0
   28.4080    1.5080   54.5880 O   0  0  0  0  0  0  0  0  0  0  0  0
   29.6130    0.8890   54.1990 C   0  0  0  0  0  1  0  0  0  0  0  0
  1  2  1  0  0  0  0
  1 27  1  1  0  0  0
  3  2  1  0  0  0  0
  4 22  1  6  0  0  0
  4  3  1  0  0  0  0
  5  4  1  0  0  0  0
  6  5  1  6  0  0  0
  6 23  1  0  0  0  0
  7  8  1  6  0  0  0
  7  6  1  0  0  0  0
  7 23  1  0  0  0  0
  8  9  1  0  0  0  0
  9 10  1  0  0  0  0
 11 20  1  6  0  0  0
 11 14  1  0  0  0  0
 11 12  1  0  0  0  0
 11 13  1  0  0  0  0
 13 12  1  1  0  0  0
 14 13  1  0  0  0  0
 14 15  1  1  0  0  0
 16 21  1  0  0  0  0
 16 15  2  0  0  0  0
 17 18  1  6  0  0  0
 17 16  1  0  0  0  0
 19 18  1  6  0  0  0
 19 17  1  0  0  0  0
 19 14  1  0  0  0  0
 20 19  1  0  0  0  0
 21 22  1  0  0  0  0
 23 24  1  6  0  0  0
 24  1  1  0  0  0  0
 25  9  1  0  0  0  0
 26 21  1  0  0  0  0
 28 27  1  0  0  0  0
M  END
>  <TORSDO>
F 1

$$$$
