C:\Qe-CaDD\Project\Data\Stage_6_Molecular_Dynamics\ligands_top\out_22668_EGFR_extracted.pdbqt
 OpenBabel01082506443D

 22 23  0  0  1  0  0  0  0  0999 V2000
   25.4570    4.1760   49.9420 C   0  0  0  0  0  0  0  0  0  0  0  0
   26.5090    4.4360   49.4100 C   0  0  0  0  0  0  0  0  0  0  0  0
   27.7360    4.7630   48.7860 C   0  0  0  0  0  0  0  0  0  0  0  0
   28.7270    5.0470   48.2690 N   0  0  0  0  0  0  0  0  0  0  0  0
   24.1560    3.8800   50.5920 C   0  0  1  0  0  3  0  0  0  0  0  0
   23.0520    4.4250   49.6840 C   0  0  0  0  0  1  0  0  0  0  0  0
   24.0300    2.4730   50.7890 N   0  0  0  0  0  0  0  0  0  0  0  0
   23.9010    1.8550   52.0660 C   0  0  0  0  0  0  0  0  0  0  0  0
   23.9220    2.7880   52.9360 O   0  0  0  0  0  0  0  0  0  0  0  0
   24.0280    1.8140   49.9730 H   0  0  0  0  0  0  0  0  0  0  0  0
   23.7680    0.4590   52.3960 C   0  0  0  0  0  2  0  0  0  0  0  0
   23.8510   -0.1890   53.5310 C   0  0  0  0  0  0  0  0  0  0  0  0
   22.5060   -0.5990   53.9880 C   0  0  0  0  0  3  0  0  0  0  0  0
   22.5690   -1.3070   55.2550 N   0  0  0  0  0  0  0  0  0  0  0  0
   23.7170   -1.4870   55.7940 C   0  0  0  0  0  3  0  0  0  0  0  0
   24.9620   -1.0570   55.2720 N   0  0  0  0  0  0  0  0  0  0  0  0
   25.1230   -0.4150   54.1690 C   0  0  0  0  0  0  0  0  0  0  0  0
   26.4080    0.0000   53.6750 C   0  0  0  0  0  0  0  0  0  0  0  0
   27.5110   -0.1780   54.4230 C   0  0  0  0  0  2  0  0  0  0  0  0
   28.3600    0.4010   53.4290 C   0  0  0  0  0  2  0  0  0  0  0  0
   27.2820    0.5770   52.6980 C   0  0  0  0  0  0  0  0  0  0  0  0
   27.0460    1.0950   51.4840 F   0  0  0  0  0  0  0  0  0  0  0  0
  1  5  1  0  0  0  0
  2  1  3  0  0  0  0
  3  2  1  0  0  0  0
  4  3  3  0  0  0  0
  5  6  1  6  0  0  0
  5  7  1  0  0  0  0
  7  8  1  0  0  0  0
  8 11  1  0  0  0  0
  8  9  2  0  0  0  0
 10  7  1  0  0  0  0
 11 12  1  0  0  0  0
 12 13  2  0  0  0  0
 12 17  1  0  0  0  0
 13 14  1  0  0  0  0
 14 15  2  0  0  0  0
 16 15  1  0  0  0  0
 17 16  2  0  0  0  0
 18 17  1  0  0  0  0
 18 19  1  0  0  0  0
 20 19  1  0  0  0  0
 21 20  1  0  0  0  0
 21 18  2  0  0  0  0
 22 21  1  0  0  0  0
M  END
>  <TORSDO>
F 5

$$$$
