C:\Qe-CaDD\Project\Data\Stage_6_Molecular_Dynamics\ligands_top\out_20673_EGFR_extracted.pdbqt
 OpenBabel01082506443D

 30 32  0  0  1  0  0  0  0  0999 V2000
   25.5860    2.9650   51.7270 C   0  0  0  0  0  0  0  0  0  0  0  0
   26.8070    2.4330   51.9520 C   0  0  0  0  0  3  0  0  0  0  0  0
   26.9440    1.8850   53.3630 C   0  0  1  0  0  3  0  0  0  0  0  0
   25.6200    2.1940   53.8960 C   0  0  0  0  0  3  0  0  0  0  0  0
   24.8330    2.8050   52.9840 C   0  0  0  0  0  3  0  0  0  0  0  0
   27.2480    0.4520   53.2910 C   0  0  0  0  0  0  0  0  0  0  0  0
   26.5510   -0.7200   53.1600 C   0  0  0  0  0  0  0  0  0  0  0  0
   25.0940   -0.5370   53.0360 C   0  0  0  0  0  1  0  0  0  0  0  0
   27.1160   -1.9250   53.1480 N   0  0  0  0  0  0  0  0  0  0  0  0
   28.4330   -2.1300   53.2620 C   0  0  0  0  0  0  0  0  0  0  0  0
   29.1800   -1.0320   53.3940 N   0  0  0  0  0  0  0  0  0  0  0  0
   28.6210    0.1930   53.4090 C   0  0  0  0  0  0  0  0  0  0  0  0
   28.8140   -3.4900   53.2230 N   0  0  0  0  0  0  0  0  0  0  0  0
   29.8060   -3.4650   53.5620 H   0  0  0  0  0  0  0  0  0  0  0  0
   28.2090   -4.2850   52.9220 H   0  0  0  0  0  0  0  0  0  0  0  0
   29.7230    1.1110   53.5850 N   0  0  0  0  0  0  0  0  0  0  0  0
   29.6960    1.9150   54.2470 H   0  0  0  0  0  0  0  0  0  0  0  0
   30.4520    0.7550   52.9230 H   0  0  0  0  0  0  0  0  0  0  0  0
   25.0080    3.5790   50.5870 O   0  0  0  0  0  0  0  0  0  0  0  0
   25.8120    3.5050   49.3990 C   0  0  0  0  0  2  0  0  0  0  0  0
   26.4520    4.7950   49.1110 C   0  0  0  0  0  0  0  0  0  0  0  0
   27.7280    4.7250   48.5940 C   0  0  0  0  0  3  0  0  0  0  0  0
   28.4540    5.8740   48.2740 C   0  0  0  0  0  3  0  0  0  0  0  0
   27.8620    7.1240   48.4870 C   0  0  0  0  0  0  0  0  0  0  0  0
   26.5800    7.1520   49.0060 C   0  0  0  0  0  3  0  0  0  0  0  0
   25.8580    6.0220   49.3250 C   0  0  0  0  0  3  0  0  0  0  0  0
   28.6260    8.2120   48.1530 O   0  0  0  0  0  0  0  0  0  0  0  0
   28.9230    9.1700   49.1530 C   0  0  0  0  0  2  0  0  0  0  0  0
   30.4170    9.1440   49.4190 C   0  0  0  0  0  2  0  0  0  0  0  0
   31.1770    8.9520   48.1230 C   0  0  0  0  0  1  0  0  0  0  0  0
  1  2  2  0  0  0  0
  1  5  1  0  0  0  0
  2  3  1  0  0  0  0
  3  6  1  6  0  0  0
  3  4  1  0  0  0  0
  5  4  2  0  0  0  0
  6 12  1  0  0  0  0
  7  6  2  0  0  0  0
  8  7  1  0  0  0  0
  9  7  1  0  0  0  0
  9 10  2  0  0  0  0
 10 11  1  0  0  0  0
 11 12  2  0  0  0  0
 12 16  1  0  0  0  0
 13 10  1  0  0  0  0
 13 14  1  0  0  0  0
 15 13  1  0  0  0  0
 16 17  1  0  0  0  0
 18 16  1  0  0  0  0
 19  1  1  0  0  0  0
 20 19  1  0  0  0  0
 21 26  1  0  0  0  0
 21 20  1  0  0  0  0
 22 21  2  0  0  0  0
 23 24  2  0  0  0  0
 23 22  1  0  0  0  0
 24 25  1  0  0  0  0
 25 26  2  0  0  0  0
 27 24  1  0  0  0  0
 27 28  1  0  0  0  0
 28 29  1  0  0  0  0
 30 29  1  0  0  0  0
M  END
>  <TORSDO>
F 9

$$$$
