C:\Qe-CaDD\Project\Data\Stage_6_Molecular_Dynamics\ligands_top\out_21451_EGFR_extracted.pdbqt
 OpenBabel01082506443D

 29 30  0  0  1  0  0  0  0  0999 V2000
   24.6320    0.6450   53.1210 C   0  0  2  0  0  3  0  0  0  0  0  0
   24.4620    1.8630   52.5750 C   0  0  0  0  0  2  0  0  0  0  0  0
   23.3540    2.6720   52.0280 C   0  0  0  0  0  0  0  0  0  0  0  0
   22.0660    2.3760   51.7910 C   0  0  0  0  0  0  0  0  0  0  0  0
   21.7600    3.6700   51.2590 N   0  0  0  0  0  2  0  0  0  0  0  0
   21.0710    3.7090   50.0910 C   0  0  0  0  0  2  0  0  0  0  0  0
   21.0420    5.2100   50.0450 C   0  0  0  0  0  2  0  0  0  0  0  0
   22.5190    5.5910   49.6000 C   0  0  0  0  0  2  0  0  0  0  0  0
   22.9000    6.8930   49.9910 N   0  0  0  0  0  2  0  0  0  0  0  0
   23.6890    6.8480   51.1260 N   0  0  0  0  0  2  0  0  0  0  0  0
   23.8360    5.4440   51.4780 N   0  0  0  0  0  2  0  0  0  0  0  0
   23.2030    4.9660   52.4570 C   0  0  0  0  0  2  0  0  0  0  0  0
   24.0130    3.9270   51.8560 O   0  0  0  0  0  0  0  0  0  0  0  0
   21.2440    1.2790   51.8750 N   0  0  0  0  0  0  0  0  0  0  0  0
   20.3660    0.2160   52.1740 C   0  0  0  0  0  2  0  0  0  0  0  0
   20.9930   -0.7250   53.1380 C   0  0  0  0  0  2  0  0  0  0  0  0
   21.5670   -1.6680   53.9780 C   0  0  0  0  0  2  0  0  0  0  0  0
   21.9090   -0.9510   55.1430 N   0  0  0  0  0  0  0  0  0  0  0  0
   23.3770   -0.7810   54.8760 C   0  0  0  0  0  2  0  0  0  0  0  0
   23.4080   -0.0450   53.5770 C   0  0  0  0  0  2  0  0  0  0  0  0
   21.6660    1.2030   50.8940 H   0  0  0  0  0  0  0  0  0  0  0  0
   20.9110   -1.0030   55.4530 H   0  0  0  0  0  0  0  0  0  0  0  0
   25.9100    0.1090   53.5150 N   0  0  0  0  0  0  0  0  0  0  0  0
   26.3040   -1.0710   52.7710 C   0  0  0  0  0  1  0  0  0  0  0  0
   26.8070    0.6990   54.4590 C   0  0  0  0  0  2  0  0  0  0  0  0
   28.0200   -0.1590   54.7600 C   0  0  0  0  0  2  0  0  0  0  0  0
   29.2250    0.6340   54.4230 N   0  0  0  0  0  0  0  0  0  0  0  0
   30.0190   -0.1270   53.4700 C   0  0  0  0  0  1  0  0  0  0  0  0
   28.7910    1.8720   53.7730 C   0  0  0  0  0  1  0  0  0  0  0  0
  1 23  1  1  0  0  0
  1 20  1  0  0  0  0
  2  1  1  0  0  0  0
  3  2  1  0  0  0  0
  4 14  1  0  0  0  0
  4  3  2  0  0  0  0
  5  4  1  0  0  0  0
  6  5  1  0  0  0  0
  7  6  1  0  0  0  0
  8  9  1  0  0  0  0
  8  7  1  0  0  0  0
  9 10  1  0  0  0  0
 10 11  1  0  0  0  0
 11 12  1  0  0  0  0
 13  3  1  0  0  0  0
 13 12  1  0  0  0  0
 14 15  1  0  0  0  0
 15 16  1  0  0  0  0
 16 17  1  0  0  0  0
 17 18  1  0  0  0  0
 18 22  1  0  0  0  0
 19 18  1  0  0  0  0
 20 19  1  0  0  0  0
 21 14  1  0  0  0  0
 23 25  1  0  0  0  0
 24 23  1  0  0  0  0
 25 26  1  0  0  0  0
 27 26  1  0  0  0  0
 28 27  1  0  0  0  0
 29 27  1  0  0  0  0
M  END
>  <TORSDO>
F 4

$$$$
