C:\Qe-CaDD\Project\Data\Stage_6_Molecular_Dynamics\ligands_top\out_22907_EGFR_extracted.pdbqt
 OpenBabel01082506443D

 24 26  0  0  0  0  0  0  0  0999 V2000
   24.6840    0.2350   53.3110 N   0  0  0  0  0  0  0  0  0  0  0  0
   23.8430   -0.6670   54.0590 C   0  0  0  0  0  3  0  0  0  0  0  0
   22.5460   -0.8090   53.8030 C   0  0  0  0  0  3  0  0  0  0  0  0
   21.9770   -0.0130   52.7260 C   0  0  0  0  0  0  0  0  0  0  0  0
   22.7480    0.8100   52.0470 C   0  0  0  0  0  3  0  0  0  0  0  0
   24.1370    0.9930   52.2840 N   0  0  0  0  0  0  0  0  0  0  0  0
   24.9010    1.9050   51.5530 C   0  0  0  0  0  0  0  0  0  0  0  0
   26.2370    2.1810   51.4520 C   0  0  0  0  0  3  0  0  0  0  0  0
   26.7930    3.1670   50.6730 C   0  0  0  0  0  3  0  0  0  0  0  0
   25.9930    3.9760   49.9090 C   0  0  0  0  0  0  0  0  0  0  0  0
   24.6400    3.7600   49.9560 C   0  0  0  0  0  0  0  0  0  0  0  0
   26.3470    5.0280   49.0530 N   0  0  0  0  0  0  0  0  0  0  0  0
   24.1260    2.7560   50.7550 C   0  0  0  0  0  3  0  0  0  0  0  0
   24.0570    4.7740   49.0380 C   0  0  0  0  0  2  0  0  0  0  0  0
   25.1240    5.8160   48.8680 C   0  0  0  0  0  2  0  0  0  0  0  0
   27.6310    5.3250   48.4480 C   0  0  0  0  0  1  0  0  0  0  0  0
   25.9770    0.1950   53.8030 N   0  0  0  0  0  0  0  0  0  0  0  0
   27.1080   -0.6270   53.7570 C   0  0  0  0  0  0  0  0  0  0  0  0
   27.0660   -1.7050   53.0870 O   0  0  0  0  0  0  0  0  0  0  0  0
   25.9410    1.1120   54.3430 H   0  0  0  0  0  0  0  0  0  0  0  0
   28.2760   -0.1070   54.5400 C   0  0  0  0  0  2  0  0  0  0  0  0
   29.5510   -0.5330   53.8600 C   0  0  0  0  0  1  0  0  0  0  0  0
   20.6230   -0.1520   52.4490 O   0  0  0  0  0  0  0  0  0  0  0  0
   19.6550   -0.5230   53.4140 C   0  0  0  0  0  1  0  0  0  0  0  0
  1 17  1  0  0  0  0
  1  2  1  0  0  0  0
  3  2  2  0  0  0  0
  4  3  1  0  0  0  0
  5  6  1  0  0  0  0
  5  4  2  0  0  0  0
  6  1  1  0  0  0  0
  7  6  1  0  0  0  0
  8  7  1  0  0  0  0
  9  8  2  0  0  0  0
 10 11  2  0  0  0  0
 10  9  1  0  0  0  0
 11 13  1  0  0  0  0
 12 10  1  0  0  0  0
 13  7  2  0  0  0  0
 14 11  1  0  0  0  0
 15 14  1  0  0  0  0
 15 12  1  0  0  0  0
 16 12  1  0  0  0  0
 17 20  1  0  0  0  0
 18 17  1  0  0  0  0
 18 21  1  0  0  0  0
 19 18  2  0  0  0  0
 22 21  1  0  0  0  0
 23  4  1  0  0  0  0
 23 24  1  0  0  0  0
M  END
>  <TORSDO>
F 4

$$$$
