C:\Qe-CaDD\Project\Data\Stage_6_Molecular_Dynamics\ligands_top\out_16362_EGFR_extracted.pdbqt
 OpenBabel01082506443D

 25 24  0  0  0  0  0  0  0  0999 V2000
   24.9970    1.2600   52.2800 C   0  0  0  0  0  0  0  0  0  0  0  0
   25.5340    2.3690   51.7420 C   0  0  0  0  0  3  0  0  0  0  0  0
   24.4630    3.3810   51.6370 C   0  0  0  0  0  0  0  0  0  0  0  0
   23.3460    2.8480   52.1070 C   0  0  0  0  0  3  0  0  0  0  0  0
   23.5460    1.4650   52.5640 C   0  0  0  0  0  2  0  0  0  0  0  0
   25.5850    0.0220   52.5880 O   0  0  0  0  0  0  0  0  0  0  0  0
   25.3910   -0.5560   53.8560 C   0  0  0  0  0  2  0  0  0  0  0  0
   26.5560   -0.2360   54.4530 C   0  0  0  0  0  2  0  0  0  0  0  0
   27.8190    0.4730   54.1570 C   0  0  0  0  0  2  0  0  0  0  0  0
   29.0260    0.1880   53.6170 C   0  0  0  0  0  2  0  0  0  0  0  0
   28.7330   -1.2090   53.3590 C   0  0  0  0  0  3  0  0  0  0  0  0
   29.4620   -2.3030   53.2910 C   0  0  0  0  0  2  0  0  0  0  0  0
   28.4110   -3.2540   52.9960 N   0  0  0  0  0  1  0  0  0  0  0  0
   28.1260   -4.2720   52.9720 H   0  0  0  0  0  0  0  0  0  0  0  0
   28.1510   -4.2860   52.9820 H   0  0  0  0  0 15  0  0  0  0  0  0
   24.7380    4.6710   51.0970 N   0  0  0  0  0  0  0  0  0  0  0  0
   25.0580    5.5340   51.6130 H   0  0  0  0  0  0  0  0  0  0  0  0
   24.5560    4.8160   49.6620 C   0  0  0  0  0  2  0  0  0  0  0  0
   25.8360    5.3240   49.1000 C   0  0  0  0  0  0  0  0  0  0  0  0
   25.9360    6.6040   48.5690 C   0  0  0  0  0  3  0  0  0  0  0  0
   27.1360    7.0300   48.0610 C   0  0  0  0  0  3  0  0  0  0  0  0
   28.2830    6.2530   48.0390 C   0  0  0  0  0  0  0  0  0  0  0  0
   29.8190    6.7870   47.3940 Cl  0  0  0  0  0  0  0  0  0  0  0  0
   28.2010    4.9700   48.5650 C   0  0  0  0  0  3  0  0  0  0  0  0
   26.9850    4.5610   49.0710 C   0  0  0  0  0  3  0  0  0  0  0  0
  1  5  1  0  0  0  0
  1  6  1  0  0  0  0
  2  1  2  0  0  0  0
  3  2  1  0  0  0  0
  3  4  2  0  0  0  0
  4  5  1  0  0  0  0
  6  7  1  0  0  0  0
  7  8  1  0  0  0  0
  9  8  1  0  0  0  0
 10  9  1  0  0  0  0
 11 10  1  0  0  0  0
 12 11  2  0  0  0  0
 14 13  1  0  0  0  0
 16 17  1  0  0  0  0
 16  3  1  0  0  0  0
 18 16  1  0  0  0  0
 19 18  1  0  0  0  0
 20 19  2  0  0  0  0
 21 20  1  0  0  0  0
 22 21  2  0  0  0  0
 22 24  1  0  0  0  0
 23 22  1  0  0  0  0
 24 25  2  0  0  0  0
 25 19  1  0  0  0  0
M  END
>  <TORSDO>
F 8

$$$$
