C:\Qe-CaDD\Project\Data\Stage_6_Molecular_Dynamics\ligands_top\out_12464_EGFR_extracted.pdbqt
 OpenBabel01082506443D

 28 31  0  0  0  0  0  0  0  0999 V2000
   23.8600    1.8820   51.9210 C   0  0  0  0  0  0  0  0  0  0  0  0
   23.7000    1.1160   53.0390 C   0  0  0  0  0  2  0  0  0  0  0  0
   22.5650    0.2590   53.5070 C   0  0  0  0  0  0  0  0  0  0  0  0
   23.3360   -0.4040   54.3870 N   0  0  0  0  0  0  0  0  0  0  0  0
   22.9050   -1.4300   55.1830 C   0  0  0  0  0  3  0  0  0  0  0  0
   21.6230   -1.8230   55.0970 N   0  0  0  0  0  0  0  0  0  0  0  0
   20.8500   -1.1650   54.2200 C   0  0  0  0  0  0  0  0  0  0  0  0
   21.2090   -0.1350   53.4010 C   0  0  0  0  0  0  0  0  0  0  0  0
   20.2800    0.5960   52.4660 C   0  0  0  0  0  0  0  0  0  0  0  0
   20.8030    1.0880   51.3560 O   0  0  0  0  0  0  0  0  0  0  0  0
   21.4980    0.4300   50.4190 C   0  0  0  0  0  2  0  0  0  0  0  0
   21.9520    1.5470   49.4290 C   0  0  0  0  0  2  0  0  0  0  0  0
   22.6540    2.5030   49.9800 O   0  0  0  0  0  0  0  0  0  0  0  0
   23.7620    2.6370   50.6160 C   0  0  0  0  0  3  0  0  0  0  0  0
   18.9850   -0.0800   52.3750 C   0  0  0  0  0  0  0  0  0  0  0  0
   18.1270    0.4590   51.4080 C   0  0  0  0  0  2  0  0  0  0  0  0
   16.8520   -0.1010   51.3000 C   0  0  0  0  0  0  0  0  0  0  0  0
   15.9370    0.3400   50.3990 F   0  0  0  0  0  0  0  0  0  0  0  0
   16.4290   -1.1410   52.0980 C   0  0  0  0  0  0  0  0  0  0  0  0
   14.8240   -1.8320   51.9520 Cl  0  0  0  0  0  0  0  0  0  0  0  0
   17.2730   -1.6860   53.0630 C   0  0  0  0  0  3  0  0  0  0  0  0
   18.5240   -1.1170   53.1480 C   0  0  0  0  0  0  0  0  0  0  0  0
   19.5160   -1.5970   54.0430 N   0  0  0  0  0  0  0  0  0  0  0  0
   19.1850   -2.4010   54.6600 H   0  0  0  0  0  0  0  0  0  0  0  0
   25.1390    2.1890   52.4580 O   0  0  0  0  0  0  0  0  0  0  0  0
   26.0800    1.2470   52.8780 C   0  0  0  0  0  3  0  0  0  0  0  0
   27.1970    1.9860   53.5950 C   0  0  0  0  0  1  0  0  0  0  0  0
   26.6740    0.4090   51.7680 C   0  0  0  0  0  1  0  0  0  0  0  0
  1 25  1  0  0  0  0
  1  2  1  0  0  0  0
  2  3  1  0  0  0  0
  3  4  1  0  0  0  0
  4  5  2  0  0  0  0
  6  5  1  0  0  0  0
  7  6  2  0  0  0  0
  8  3  2  0  0  0  0
  8  7  1  0  0  0  0
  9  8  1  0  0  0  0
 10  9  1  0  0  0  0
 11 10  1  0  0  0  0
 12 13  1  0  0  0  0
 12 11  1  0  0  0  0
 13 14  1  0  0  0  0
 14  1  2  0  0  0  0
 15  9  2  0  0  0  0
 15 22  1  0  0  0  0
 16 15  1  0  0  0  0
 17 16  1  0  0  0  0
 17 19  2  0  0  0  0
 18 17  1  0  0  0  0
 19 21  1  0  0  0  0
 20 19  1  0  0  0  0
 21 22  2  0  0  0  0
 22 23  1  0  0  0  0
 23  7  1  0  0  0  0
 23 24  1  0  0  0  0
 25 26  1  0  0  0  0
 26 27  1  0  0  0  0
 28 26  1  0  0  0  0
M  END
>  <TORSDO>
F 2

$$$$
