C:\Qe-CaDD\Project\Data\Stage_6_Molecular_Dynamics\ligands_top\out_18594_EGFR_extracted.pdbqt
 OpenBabel01082506443D

 26 27  0  0  1  0  0  0  0  0999 V2000
   26.2660   -0.0870   53.5430 C   0  0  1  0  0  3  0  0  0  0  0  0
   27.2370   -0.3340   54.3740 C   0  0  0  0  0  2  0  0  0  0  0  0
   27.8900    0.5730   54.9580 N   0  0  0  0  0  2  0  0  0  0  0  0
   28.6000    1.7510   54.6530 N   0  0  0  0  0  0  0  0  0  0  0  0
   28.6500    2.4500   53.4090 C   0  0  0  0  0  3  0  0  0  0  0  0
   27.9590    2.4750   52.3090 N   0  0  0  0  0  0  0  0  0  0  0  0
   26.7860    1.7400   51.9130 C   0  0  0  0  0  0  0  0  0  0  0  0
   26.0440    0.7090   52.3400 C   0  0  0  0  0  3  0  0  0  0  0  0
   29.1460    2.1300   55.4450 H   0  0  0  0  0  0  0  0  0  0  0  0
   26.3090    2.3170   50.7040 N   0  0  0  0  0  0  0  0  0  0  0  0
   26.7590    1.8200   49.9320 H   0  0  0  0  0  0  0  0  0  0  0  0
   25.3670    3.3880   51.0580 C   0  0  1  0  0  3  0  0  0  0  0  0
   25.4660    4.5640   50.1010 C   0  0  0  0  0  1  0  0  0  0  0  0
   23.9730    2.9020   51.1680 C   0  0  0  0  0  0  0  0  0  0  0  0
   23.3730    2.1760   50.1360 C   0  0  0  0  0  3  0  0  0  0  0  0
   22.0870    1.6780   50.1350 C   0  0  0  0  0  3  0  0  0  0  0  0
   21.3390    1.9220   51.2480 C   0  0  0  0  0  3  0  0  0  0  0  0
   21.8540    2.6330   52.3190 C   0  0  0  0  0  3  0  0  0  0  0  0
   23.1570    3.1110   52.2630 C   0  0  0  0  0  3  0  0  0  0  0  0
   25.0350   -0.7940   53.8800 C   0  0  0  0  0  3  0  0  0  0  0  0
   23.8980   -0.3960   53.3340 C   0  0  0  0  0  3  0  0  0  0  0  0
   22.4990   -0.8870   53.4610 C   0  0  0  0  0  2  0  0  0  0  0  0
   21.8930   -0.5090   54.7920 C   0  0  0  0  0  2  0  0  0  0  0  0
   20.5450    0.0090   54.6780 N   0  0  0  0  0  0  0  0  0  0  0  0
   19.8790   -0.5780   53.5530 C   0  0  0  0  0  1  0  0  0  0  0  0
   20.5150    1.0300   54.7340 H   0  0  0  0  0  0  0  0  0  0  0  0
  1 20  1  6  0  0  0
  1  2  1  0  0  0  0
  2  3  1  0  0  0  0
  4  3  1  0  0  0  0
  4  9  1  0  0  0  0
  5  4  1  0  0  0  0
  6  5  2  0  0  0  0
  7  6  1  0  0  0  0
  7  8  2  0  0  0  0
  8  1  1  0  0  0  0
 10 12  1  0  0  0  0
 10  7  1  0  0  0  0
 11 10  1  0  0  0  0
 12 13  1  6  0  0  0
 12 14  1  0  0  0  0
 14 19  1  0  0  0  0
 15 14  2  0  0  0  0
 16 15  1  0  0  0  0
 16 17  2  0  0  0  0
 17 18  1  0  0  0  0
 19 18  2  0  0  0  0
 21 22  1  0  0  0  0
 21 20  2  0  0  0  0
 22 23  1  0  0  0  0
 24 26  1  0  0  0  0
 24 23  1  0  0  0  0
 25 24  1  0  0  0  0
M  END
>  <TORSDO>
F 7

$$$$
