C:\Qe-CaDD\Project\Data\Stage_6_Molecular_Dynamics\ligands_top\out_16532_EGFR_extracted.pdbqt
 OpenBabel01082506443D

 29 32  0  0  1  0  0  0  0  0999 V2000
   22.8070    0.6230   52.5080 C   0  0  0  0  0  0  0  0  0  0  0  0
   21.4350    0.5140   52.7250 C   0  0  0  0  0  3  0  0  0  0  0  0
   21.2110   -0.2190   53.8630 C   0  0  0  0  0  3  0  0  0  0  0  0
   22.4260   -0.5410   54.3160 N   0  0  0  0  0  0  0  0  0  0  0  0
   22.6370   -1.2650   55.4290 N   0  0  0  0  0  0  0  0  0  0  0  0
   23.8920   -1.5350   55.7990 C   0  0  0  0  0  3  0  0  0  0  0  0
   24.8870   -1.0740   55.0490 N   0  0  0  0  0  0  0  0  0  0  0  0
   24.6950   -0.3560   53.9450 C   0  0  0  0  0  0  0  0  0  0  0  0
   23.4200   -0.0540   53.5270 C   0  0  0  0  0  0  0  0  0  0  0  0
   23.4820    1.3320   51.4060 C   0  0  0  0  0  2  0  0  0  0  0  0
   23.0650    2.7290   51.4520 N   0  0  0  0  0  0  0  0  0  0  0  0
   23.8390    3.5490   52.3310 C   0  0  0  0  0  2  0  0  0  0  0  0
   23.0060    4.7720   52.6500 C   0  0  0  0  0  2  0  0  0  0  0  0
   22.8450    5.5350   51.3270 C   0  0  1  0  0  3  0  0  0  0  0  0
   22.1480    4.6360   50.3530 C   0  0  0  0  0  2  0  0  0  0  0  0
   22.8440    3.3040   50.1600 C   0  0  0  0  0  2  0  0  0  0  0  0
   21.9880    6.6920   51.5180 N   0  0  0  0  0  0  0  0  0  0  0  0
   21.0460    6.4310   51.1530 H   0  0  0  0  0  0  0  0  0  0  0  0
   22.3190    7.5530   51.0730 H   0  0  0  0  0  0  0  0  0  0  0  0
   25.7710    0.1060   53.1630 N   0  0  0  0  0  0  0  0  0  0  0  0
   25.6610    0.6430   52.2970 H   0  0  0  0  0  0  0  0  0  0  0  0
   27.1660   -0.0530   53.3360 C   0  0  0  0  0  0  0  0  0  0  0  0
   27.7820   -1.2490   53.0470 C   0  0  0  0  0  3  0  0  0  0  0  0
   29.1470   -1.4750   53.1880 C   0  0  0  0  0  3  0  0  0  0  0  0
   29.9700   -0.4900   53.6330 C   0  0  0  0  0  3  0  0  0  0  0  0
   29.4010    0.7230   53.9350 C   0  0  0  0  0  3  0  0  0  0  0  0
   28.0510    0.9000   53.7810 C   0  0  0  0  0  0  0  0  0  0  0  0
   27.5290    2.1650   54.1070 O   0  0  0  0  0  0  0  0  0  0  0  0
   28.1320    2.8470   54.5230 H   0  0  0  0  0  0  0  0  0  0  0  0
  1  2  1  0  0  0  0
  1  9  2  0  0  0  0
  2  3  2  0  0  0  0
  3  4  1  0  0  0  0
  4  5  1  0  0  0  0
  5  6  2  0  0  0  0
  7  6  1  0  0  0  0
  8  7  2  0  0  0  0
  9  8  1  0  0  0  0
  9  4  1  0  0  0  0
 10 11  1  0  0  0  0
 10  1  1  0  0  0  0
 11 12  1  0  0  0  0
 12 13  1  0  0  0  0
 14 17  1  1  0  0  0
 14 13  1  0  0  0  0
 15 14  1  0  0  0  0
 16 15  1  0  0  0  0
 16 11  1  0  0  0  0
 18 17  1  0  0  0  0
 19 17  1  0  0  0  0
 20 22  1  0  0  0  0
 20  8  1  0  0  0  0
 21 20  1  0  0  0  0
 22 27  1  0  0  0  0
 23 24  1  0  0  0  0
 23 22  2  0  0  0  0
 24 25  2  0  0  0  0
 25 26  1  0  0  0  0
 27 26  2  0  0  0  0
 27 28  1  0  0  0  0
 28 29  1  0  0  0  0
M  END
>  <TORSDO>
F 6

$$$$
