C:\Qe-CaDD\Project\Data\Stage_6_Molecular_Dynamics\ligands_top\out_11561_EGFR_extracted.pdbqt
 OpenBabel01082506443D

 23 26  0  0  1  0  0  0  0  0999 V2000
   18.6210   -0.9570   53.1900 C   0  0  0  0  0  0  0  0  0  0  0  0
   19.7130   -1.3320   53.8190 C   0  0  0  0  0  3  0  0  0  0  0  0
   20.8020   -0.5240   53.3290 C   0  0  0  0  0  0  0  0  0  0  0  0
   21.9940   -0.3990   53.7850 N   0  0  0  0  0  2  0  0  0  0  0  0
   22.3990   -1.0910   54.9190 C   0  0  0  0  0  2  0  0  0  0  0  0
   23.5990   -1.0380   54.7900 N   0  0  0  0  0  0  0  0  0  0  0  0
   24.5720   -0.5580   53.9540 C   0  0  0  0  0  0  0  0  0  0  0  0
   25.8870   -0.4880   54.5200 N   0  0  0  0  0  2  0  0  0  0  0  0
   26.8590    0.2460   54.2680 C   0  0  0  0  0  0  0  0  0  0  0  0
   28.0820    0.2010   54.8840 C   0  0  0  0  0  3  0  0  0  0  0  0
   29.0920    1.0840   54.5820 C   0  0  0  0  0  3  0  0  0  0  0  0
   28.8640    2.0390   53.6330 C   0  0  0  0  0  3  0  0  0  0  0  0
   27.6380    2.0860   53.0160 C   0  0  0  0  0  3  0  0  0  0  0  0
   26.6000    1.1860   53.3230 C   0  0  0  0  0  0  0  0  0  0  0  0
   25.4660    1.2990   52.7690 N   0  0  0  0  0  2  0  0  0  0  0  0
   24.3070    0.5270   53.0140 C   0  0  0  0  0  0  0  0  0  0  0  0
   23.2750    1.0550   52.3560 C   0  0  0  0  0  0  0  0  0  0  0  0
   21.8980    1.2110   51.9330 C   0  0  0  0  0  3  0  0  0  0  0  0
   20.8210    0.5330   52.3350 C   0  0  1  0  0  3  0  0  0  0  0  0
   19.5720    0.7510   51.8310 O   0  0  0  0  0  0  0  0  0  0  0  0
   18.4070    0.0660   52.1660 C   0  0  0  0  0  3  0  0  0  0  0  0
   17.5410   -1.7090   53.6280 O   0  0  0  0  0  0  0  0  0  0  0  0
   17.5490   -3.1010   53.5770 C   0  0  0  0  0  1  0  0  0  0  0  0
  1 22  1  0  0  0  0
  1  2  1  0  0  0  0
  3  4  1  0  0  0  0
  3  2  2  0  0  0  0
  4  5  1  0  0  0  0
  6  5  1  0  0  0  0
  7  8  1  0  0  0  0
  7  6  2  0  0  0  0
  9  8  1  0  0  0  0
  9 10  1  0  0  0  0
 11 10  2  0  0  0  0
 12 11  1  0  0  0  0
 13 14  1  0  0  0  0
 13 12  2  0  0  0  0
 14  9  2  0  0  0  0
 15 16  1  0  0  0  0
 15 14  1  0  0  0  0
 16  7  1  0  0  0  0
 17 16  2  0  0  0  0
 18 17  2  0  0  0  0
 19 18  1  6  0  0  0
 19  3  1  0  0  0  0
 20 21  1  0  0  0  0
 20 19  1  0  0  0  0
 21  1  2  0  0  0  0
 23 22  1  0  0  0  0
M  END
>  <TORSDO>
F 1

$$$$
