C:\Qe-CaDD\Project\Data\Stage_6_Molecular_Dynamics\ligands_top\out_12243_EGFR_extracted.pdbqt
 OpenBabel01082506443D

 21 22  0  0  1  0  0  0  0  0999 V2000
   22.5300    4.3060   48.1800 C   0  0  0  0  0  1  0  0  0  0  0  0
   23.6370    3.8970   49.0460 C   0  0  0  0  0  0  0  0  0  0  0  0
   24.5350    3.5490   49.7680 C   0  0  0  0  0  0  0  0  0  0  0  0
   25.6210    3.1490   50.6140 C   0  0  0  0  0  0  0  0  0  0  0  0
   26.8310    3.2750   50.2840 O   0  0  0  0  0  0  0  0  0  0  0  0
   25.1650    2.5570   51.9530 C   0  0  2  0  0  3  0  0  0  0  0  0
   26.3690    2.0830   52.6640 C   0  0  0  0  0  2  0  0  0  0  0  0
   27.2400    1.2830   53.3380 C   0  0  0  0  0  0  0  0  0  0  0  0
   28.5470    1.8890   53.6820 C   0  0  0  0  0  3  0  0  0  0  0  0
   26.9610   -0.1310   53.7050 C   0  0  0  0  0  0  0  0  0  0  0  0
   29.4790    0.8880   54.0530 N   0  0  0  0  0  0  0  0  0  0  0  0
   29.2240   -0.3310   54.2570 C   0  0  0  0  0  3  0  0  0  0  0  0
   27.9010   -0.9000   54.1100 N   0  0  0  0  0  0  0  0  0  0  0  0
   25.5640   -0.1470   53.6550 N   0  0  0  0  0  0  0  0  0  0  0  0
   24.8560   -0.7890   54.5600 C   0  0  0  0  0  3  0  0  0  0  0  0
   23.4060   -0.9720   54.7810 C   0  0  0  0  0  3  0  0  0  0  0  0
   22.3540   -0.4770   54.1360 C   0  0  0  0  0  3  0  0  0  0  0  0
   22.1240    0.4300   52.9730 C   0  0  0  0  0  0  0  0  0  0  0  0
   20.1760    0.6330   52.7140 Br  0  0  0  0  0  0  0  0  0  0  0  0
   23.3890    0.7730   52.5360 C   0  0  0  0  0  3  0  0  0  0  0  0
   24.1690    1.5220   51.5720 C   0  0  0  0  0  2  0  0  0  0  0  0
  1  2  1  0  0  0  0
  2  3  3  0  0  0  0
  3  4  1  0  0  0  0
  5  4  2  0  0  0  0
  6  4  1  6  0  0  0
  6  7  1  0  0  0  0
  7  8  1  0  0  0  0
  8  9  2  0  0  0  0
  8 10  1  0  0  0  0
  9 11  1  0  0  0  0
 10 13  2  0  0  0  0
 11 12  2  0  0  0  0
 13 12  1  0  0  0  0
 14 10  1  0  0  0  0
 14 15  2  0  0  0  0
 15 16  1  0  0  0  0
 17 16  2  0  0  0  0
 18 17  1  0  0  0  0
 19 18  1  0  0  0  0
 20 18  2  0  0  0  0
 21  6  1  0  0  0  0
 21 20  1  0  0  0  0
M  END
>  <TORSDO>
F 2

$$$$
