C:\Qe-CaDD\Project\Data\Stage_6_Molecular_Dynamics\ligands_top\out_22654_EGFR_extracted.pdbqt
 OpenBabel01082506443D

 34 37  0  0  1  0  0  0  0  0999 V2000
   22.8550    1.4190   51.8190 C   0  0  0  0  0  0  0  0  0  0  0  0
   23.8450    0.8080   52.5530 C   0  0  0  0  0  3  0  0  0  0  0  0
   23.5520   -0.0080   53.6000 C   0  0  0  0  0  0  0  0  0  0  0  0
   24.6380   -0.5410   54.2560 C   0  0  0  0  0  0  0  0  0  0  0  0
   24.3680   -1.3360   55.3090 N   0  0  0  0  0  0  0  0  0  0  0  0
   23.0780   -1.5820   55.6830 C   0  0  0  0  0  3  0  0  0  0  0  0
   22.0360   -1.0340   55.0020 N   0  0  0  0  0  0  0  0  0  0  0  0
   22.2400   -0.2310   53.9430 C   0  0  0  0  0  0  0  0  0  0  0  0
   21.2510    0.3830   53.2060 C   0  0  0  0  0  3  0  0  0  0  0  0
   21.5760    1.1840   52.1730 N   0  0  0  0  0  0  0  0  0  0  0  0
   23.1720    2.2730   50.7330 N   0  0  0  0  0  0  0  0  0  0  0  0
   22.6870    2.1360   49.4230 C   0  0  0  0  0  0  0  0  0  0  0  0
   21.8870    1.1710   49.1480 O   0  0  0  0  0  0  0  0  0  0  0  0
   23.8290    3.0920   50.9040 H   0  0  0  0  0  0  0  0  0  0  0  0
   23.0130    3.0130   48.3150 C   0  0  0  0  0  2  0  0  0  0  0  0
   22.6000    4.4490   48.4600 C   0  0  0  0  0  2  0  0  0  0  0  0
   23.8180    5.2080   48.9320 C   0  0  0  0  0  2  0  0  0  0  0  0
   23.5790    5.6900   50.2680 N   0  0  0  0  0  0  0  0  0  0  0  0
   24.3860    6.8350   50.6190 C   0  0  1  0  0  3  0  0  0  0  0  0
   23.9480    8.1380   50.0100 C   0  0  0  0  0  2  0  0  0  0  0  0
   22.4850    8.2890   49.7840 C   0  0  0  0  0  2  0  0  0  0  0  0
   21.7830    7.3490   50.7240 C   0  0  0  0  0  2  0  0  0  0  0  0
   22.1730    5.9350   50.5220 C   0  0  0  0  0  2  0  0  0  0  0  0
   24.4470    6.9300   52.0600 N   0  0  0  0  0  0  0  0  0  0  0  0
   24.9940    6.1120   52.4050 H   0  0  0  0  0  0  0  0  0  0  0  0
   23.4600    6.9140   52.4400 H   0  0  0  0  0  0  0  0  0  0  0  0
   26.0420   -0.3810   53.9990 C   0  0  0  0  0  0  0  0  0  0  0  0
   26.6220   -1.4290   53.2740 C   0  0  0  0  0  3  0  0  0  0  0  0
   27.9710   -1.4610   52.9060 C   0  0  0  0  0  3  0  0  0  0  0  0
   28.7690   -0.4000   53.2820 C   0  0  0  0  0  0  0  0  0  0  0  0
   30.0830   -0.4080   52.9340 F   0  0  0  0  0  0  0  0  0  0  0  0
   28.2180    0.6410   53.9960 C   0  0  0  0  0  0  0  0  0  0  0  0
   29.2130    2.0060   54.4930 Cl  0  0  0  0  0  0  0  0  0  0  0  0
   26.8830    0.6500   54.3470 C   0  0  0  0  0  3  0  0  0  0  0  0
  1 10  2  0  0  0  0
  1  2  1  0  0  0  0
  2  3  2  0  0  0  0
  3  8  1  0  0  0  0
  3  4  1  0  0  0  0
  4  5  2  0  0  0  0
  5  6  1  0  0  0  0
  7  6  2  0  0  0  0
  8  7  1  0  0  0  0
  9  8  2  0  0  0  0
 10  9  1  0  0  0  0
 11 14  1  0  0  0  0
 11  1  1  0  0  0  0
 12 11  1  0  0  0  0
 13 12  2  0  0  0  0
 15 16  1  0  0  0  0
 15 12  1  0  0  0  0
 16 17  1  0  0  0  0
 17 18  1  0  0  0  0
 18 23  1  0  0  0  0
 18 19  1  0  0  0  0
 19 24  1  1  0  0  0
 20 19  1  0  0  0  0
 21 20  1  0  0  0  0
 21 22  1  0  0  0  0
 23 22  1  0  0  0  0
 24 25  1  0  0  0  0
 24 26  1  0  0  0  0
 27  4  1  0  0  0  0
 27 34  1  0  0  0  0
 28 27  2  0  0  0  0
 29 28  1  0  0  0  0
 29 30  2  0  0  0  0
 30 32  1  0  0  0  0
 31 30  1  0  0  0  0
 32 34  2  0  0  0  0
 32 33  1  0  0  0  0
M  END
>  <TORSDO>
F 7

$$$$
