C:\Qe-CaDD\Project\Data\Stage_6_Molecular_Dynamics\ligands_top\out_11463_EGFR_extracted.pdbqt
 OpenBabel01082506443D

 25 27  0  0  1  0  0  0  0  0999 V2000
   25.1730    5.0650   50.2240 N   0  0  0  0  0  1  0  0  0  0  0  0
   24.3680    6.2320   50.6100 C   0  0  0  0  0  1  0  0  0  0  0  0
   23.0970    6.3940   50.7600 N   0  0  1  0  0  4  0  0  0  0  0  0
   22.4950    7.6360   50.5520 C   0  0  0  0  0  2  0  0  0  0  0  0
   21.5670    6.6910   50.9070 N   0  0  2  0  0  0  0  0  0  0  0  0
   21.9230    5.3960   51.1680 C   0  0  2  0  0  0  0  0  0  0  0  0
   20.8640    4.7200   51.6130 C   0  0  0  0  0  2  0  0  0  0  0  0
   21.3740    3.5810   52.1460 C   0  0  0  0  0  0  0  0  0  0  0  0
   22.6680    3.2280   52.2320 C   0  0  0  0  0  0  0  0  0  0  0  0
   23.1580    4.2830   51.6270 C   0  0  1  0  0  3  0  0  0  0  0  0
   23.2320    5.5690   50.9380 C   0  0  2  0  0  3  0  0  0  0  0  0
   20.5430    2.5210   52.6720 O   0  0  0  0  0  0  0  0  0  0  0  0
   20.2010    1.7060   51.5510 O   0  0  0  0  0  0  0  0  0  0  0  0
   21.1370    0.7580   51.3140 C   0  0  0  0  0  2  0  0  0  0  0  0
   21.6040    0.6360   49.9030 C   0  0  0  0  0  2  0  0  0  0  0  0
   22.0640    1.9210   49.2290 C   0  0  1  0  0  3  0  0  0  0  0  0
   21.3690    2.2360   48.0590 C   0  0  0  0  0  2  0  0  0  0  0  0
   22.2380    2.8930   48.5260 C   0  0  0  0  0  0  0  0  0  0  0  0
   23.1740    3.5830   49.0470 S   0  0  0  0  0  0  0  0  0  0  0  0
   23.1780    3.5850   49.0470 C   0  0  0  0  0  1  0  0  0  0  0  0
   24.1580    4.3230   49.5680 H   0  0  0  0  0  0  0  0  0  0  0  0
   26.1030    4.0160   49.9190 C   0  0  0  0  0  2  0  0  0  0  0  0
   27.2090    4.3230   49.0130 C   0  0  0  0  0  1  0  0  0  0  0  0
   23.2360    2.1420   52.7790 O   0  0  0  0  0  0  0  0  0  0  0  0
   24.4540    1.5340   52.6720 C   0  0  0  0  0  1  0  0  0  0  0  0
  3  2  1  6  0  0  0
  3  5  1  0  0  0  0
  3 11  1  0  0  0  0
  4  3  1  0  0  0  0
  5  4  1  1  0  0  0
  5  6  1  0  0  0  0
  6  7  1  6  0  0  0
  6 10  1  0  0  0  0
  7  8  1  0  0  0  0
  8  9  2  0  0  0  0
  8 12  1  0  0  0  0
  9 24  1  0  0  0  0
 10  9  1  6  0  0  0
 11  6  1  0  0  0  0
 11 10  1  0  0  0  0
 13 12  1  0  0  0  0
 14 13  1  0  0  0  0
 15 14  1  0  0  0  0
 16 15  1  0  0  0  0
 17 18  1  0  0  0  0
 17 16  1  0  0  0  0
 18 19  2  0  0  0  0
 18 16  1  0  0  0  0
 20 21  1  0  0  0  0
 22  1  1  0  0  0  0
 23 22  1  0  0  0  0
 25 24  1  0  0  0  0
M  END
>  <TORSDO>
F 2

$$$$
