C:\Qe-CaDD\Project\Data\Stage_6_Molecular_Dynamics\ligands_top\out_21462_EGFR_extracted.pdbqt
 OpenBabel01082506443D

 33 37  0  0  1  0  0  0  0  0999 V2000
   21.9820    0.8000   51.9310 C   0  0  0  0  0  0  0  0  0  0  0  0
   22.2640    1.6830   50.9140 C   0  0  0  0  0  3  0  0  0  0  0  0
   23.3550    2.4930   51.0290 C   0  0  0  0  0  0  0  0  0  0  0  0
   24.1440    2.4140   52.1430 C   0  0  1  0  0  0  0  0  0  0  0  0
   23.7870    1.4800   53.1520 C   0  0  0  0  0  2  0  0  0  0  0  0
   22.7000    0.6360   53.0940 C   0  0  0  0  0  0  0  0  0  0  0  0
   22.4290   -0.3130   54.1750 C   0  0  1  0  0  3  0  0  0  0  0  0
   21.5240   -1.4540   53.7120 C   0  0  0  0  0  1  0  0  0  0  0  0
   23.5990   -0.7930   54.8080 N   0  0  0  0  0  2  0  0  0  0  0  0
   24.8030   -0.9000   54.5290 C   0  0  0  0  0  2  0  0  0  0  0  0
   26.0780   -0.8450   53.8280 C   0  0  0  0  0  0  0  0  0  0  0  0
   26.3770   -1.9140   53.0210 C   0  0  0  0  0  3  0  0  0  0  0  0
   27.5950   -1.6770   52.4190 C   0  0  0  0  0  3  0  0  0  0  0  0
   27.9150   -0.4460   52.9440 C   0  0  0  0  0  3  0  0  0  0  0  0
   27.0340    0.1020   53.8020 N   0  0  0  0  0  0  0  0  0  0  0  0
   27.1120    1.3050   54.5010 N   0  0  0  0  0  2  0  0  0  0  0  0
   27.8190    2.2340   54.0010 C   0  0  0  0  0  2  0  0  0  0  0  0
   27.9150    2.3240   52.6790 C   0  0  0  0  0  2  0  0  0  0  0  0
   26.5000    2.1540   52.3500 C   0  0  1  0  0  3  0  0  0  0  0  0
   25.5620    1.4850   51.8750 O   0  0  0  0  0  0  0  0  0  0  0  0
   25.3760    3.0590   52.5720 N   0  0  0  0  0  0  0  0  0  0  0  0
   24.7930    3.8770   52.8250 H   0  0  0  0  0  0  0  0  0  0  0  0
   23.9920    3.5190   50.2870 N   0  0  0  0  0  0  0  0  0  0  0  0
   24.9590    3.4780   49.2160 C   0  0  0  0  0  2  0  0  0  0  0  0
   26.0290    4.5460   49.4990 C   0  0  0  0  0  2  0  0  0  0  0  0
   25.3690    5.8760   49.2040 C   0  0  1  0  0  3  0  0  0  0  0  0
   23.9530    5.9220   49.7020 C   0  0  0  0  0  2  0  0  0  0  0  0
   23.6020    4.8390   50.6730 C   0  0  0  0  0  2  0  0  0  0  0  0
   26.0850    7.0030   49.7060 N   0  0  0  0  0  0  0  0  0  0  0  0
   27.1820    7.4040   48.8660 C   0  0  0  0  0  1  0  0  0  0  0  0
   25.2990    8.1350   50.0740 C   0  0  0  0  0  1  0  0  0  0  0  0
   20.8540    0.0260   51.7140 O   0  0  0  0  0  0  0  0  0  0  0  0
   19.6170    0.4720   51.2580 C   0  0  0  0  0  1  0  0  0  0  0  0
  1  6  2  0  0  0  0
  2  3  2  0  0  0  0
  2  1  1  0  0  0  0
  3  4  1  0  0  0  0
  4 21  1  0  0  0  0
  4  5  1  1  0  0  0
  6  5  1  0  0  0  0
  6  7  1  0  0  0  0
  7  8  1  6  0  0  0
  7  9  1  0  0  0  0
 10  9  1  0  0  0  0
 11 10  1  0  0  0  0
 12 11  2  0  0  0  0
 13 14  2  0  0  0  0
 13 12  1  0  0  0  0
 14 15  1  0  0  0  0
 15 11  1  0  0  0  0
 15 16  1  0  0  0  0
 17 16  1  0  0  0  0
 18 17  1  0  0  0  0
 19 21  1  0  0  0  0
 19 18  1  1  0  0  0
 20  4  1  0  0  0  0
 20 19  1  0  0  0  0
 21 22  1  0  0  0  0
 23 28  1  0  0  0  0
 23  3  1  0  0  0  0
 24 25  1  0  0  0  0
 24 23  1  0  0  0  0
 26 25  1  0  0  0  0
 26 27  1  0  0  0  0
 26 29  1  1  0  0  0
 27 28  1  0  0  0  0
 29 31  1  0  0  0  0
 30 29  1  0  0  0  0
 32  1  1  0  0  0  0
 33 32  1  0  0  0  0
M  END
>  <TORSDO>
F 3

$$$$
