C:\Qe-CaDD\Project\Data\Stage_6_Molecular_Dynamics\ligands_top\out_11837_EGFR_extracted.pdbqt
 OpenBabel01082506443D

 25 28  0  0  1  0  0  0  0  0999 V2000
   24.9160    1.5540   52.7600 C   0  0  0  0  0  0  0  0  0  0  0  0
   24.0690    0.9510   51.9510 C   0  0  0  0  0  3  0  0  0  0  0  0
   22.8540    1.4060   51.3030 C   0  0  0  0  0  3  0  0  0  0  0  0
   22.4750    2.6630   51.5380 C   0  0  0  0  0  2  0  0  0  0  0  0
   23.3310    3.3720   52.4040 N   0  0  0  0  0  0  0  0  0  0  0  0
   24.5300    2.9750   53.0100 C   0  0  0  0  0  3  0  0  0  0  0  0
   22.8570    4.7180   52.6980 C   0  0  0  0  0  2  0  0  0  0  0  0
   23.3930    5.7030   51.7280 C   0  0  0  0  0  0  0  0  0  0  0  0
   24.2750    6.1210   50.7820 C   0  0  0  0  0  0  0  0  0  0  0  0
   23.2330    7.0070   51.1580 N   0  0  0  0  0  0  0  0  0  0  0  0
   22.6960    7.9010   51.1160 H   0  0  0  0  0  0  0  0  0  0  0  0
   25.4550    5.8030   49.9870 C   0  0  0  0  0  0  0  0  0  0  0  0
   26.2170    6.7140   49.2890 C   0  0  0  0  0  3  0  0  0  0  0  0
   27.3360    6.2830   48.5680 C   0  0  0  0  0  3  0  0  0  0  0  0
   27.6820    4.9490   48.5510 C   0  0  0  0  0  3  0  0  0  0  0  0
   26.9550    3.9680   49.2360 C   0  0  0  0  0  3  0  0  0  0  0  0
   25.8560    4.4750   49.9300 C   0  0  0  0  0  3  0  0  0  0  0  0
   26.1120    1.1080   53.4040 C   0  0  2  0  0  3  0  0  0  0  0  0
   26.4400    1.9270   54.3440 O   0  0  0  0  0  1  0  0  0  0  0  0
   27.0500    0.0200   53.3080 C   0  0  0  0  0  0  0  0  0  0  0  0
   26.8550   -1.2390   52.8000 C   0  0  0  0  0  3  0  0  0  0  0  0
   27.7280   -2.2880   52.6980 C   0  0  0  0  0  3  0  0  0  0  0  0
   28.9850   -2.0130   53.1870 C   0  0  0  0  0  3  0  0  0  0  0  0
   29.3270   -0.7940   53.7280 C   0  0  0  0  0  3  0  0  0  0  0  0
   28.3520    0.1510   53.7610 C   0  0  0  0  0  3  0  0  0  0  0  0
  1  6  2  0  0  0  0
  1 18  1  0  0  0  0
  2  1  1  0  0  0  0
  3  4  1  0  0  0  0
  3  2  2  0  0  0  0
  4  5  1  0  0  0  0
  5  7  1  0  0  0  0
  5  6  1  0  0  0  0
  8  7  1  0  0  0  0
  9 10  1  0  0  0  0
  9  8  2  0  0  0  0
 10  8  1  0  0  0  0
 11 10  1  0  0  0  0
 12  9  1  0  0  0  0
 13 12  2  0  0  0  0
 14 13  1  0  0  0  0
 15 14  2  0  0  0  0
 15 16  1  0  0  0  0
 16 17  2  0  0  0  0
 17 12  1  0  0  0  0
 18 19  1  6  0  0  0
 20 18  1  0  0  0  0
 20 25  1  0  0  0  0
 21 20  2  0  0  0  0
 22 21  1  0  0  0  0
 22 23  2  0  0  0  0
 23 24  1  0  0  0  0
 24 25  2  0  0  0  0
M  END
>  <TORSDO>
F 5

$$$$
