C:\Qe-CaDD\Project\Data\Stage_6_Molecular_Dynamics\ligands_top\out_22334_EGFR_extracted.pdbqt
 OpenBabel01082506443D

 25 27  0  0  1  0  0  0  0  0999 V2000
   23.5970    0.7540   53.1290 C   0  0  0  0  0  0  0  0  0  0  0  0
   23.5720    1.9960   52.6500 C   0  0  0  0  0  3  0  0  0  0  0  0
   22.6620    2.8900   51.8900 C   0  0  0  0  0  0  0  0  0  0  0  0
   21.4060    2.1500   51.5800 C   0  0  0  0  0  3  0  0  0  0  0  0
   21.4960    0.7830   52.1380 C   0  0  0  0  0  3  0  0  0  0  0  0
   22.3440    0.0310   52.8170 C   0  0  0  0  0  0  0  0  0  0  0  0
   24.5780    0.0850   53.8370 O   0  0  0  0  0  0  0  0  0  0  0  0
   25.3570   -0.9590   53.2690 C   0  0  0  0  0  2  0  0  0  0  0  0
   26.3490   -0.3870   52.3160 C   0  0  0  0  0  2  0  0  0  0  0  0
   27.3190    0.4910   52.9070 N   0  0  0  0  0  0  0  0  0  0  0  0
   27.6500    1.8530   52.7300 C   0  0  0  0  0  0  0  0  0  0  0  0
   26.9530    2.4160   51.7610 C   0  0  0  0  0  2  0  0  0  0  0  0
   28.6620    2.5170   53.5580 C   0  0  0  0  0  2  0  0  0  0  0  0
   28.9180    1.8240   54.7400 O   0  0  0  0  0  0  0  0  0  0  0  0
   29.2000    0.5000   54.5110 C   0  0  0  0  0  2  0  0  0  0  0  0
   28.0680   -0.2820   53.8840 C   0  0  0  0  0  2  0  0  0  0  0  0
   22.0720   -1.2680   53.1810 O   0  0  0  0  0  0  0  0  0  0  0  0
   21.5230   -1.6290   54.4370 C   0  0  0  0  0  1  0  0  0  0  0  0
   23.3260    3.4800   50.7540 N   0  0  0  0  0  0  0  0  0  0  0  0
   22.3860    3.8220   49.7340 C   0  0  0  0  0  2  0  0  0  0  0  0
   23.1090    4.2570   48.4790 C   0  0  0  0  0  2  0  0  0  0  0  0
   23.9960    5.2140   48.8270 C   0  0  0  0  0  2  0  0  0  0  0  0
   24.2060    5.7320   50.2060 C   0  0  0  0  0  2  0  0  0  0  0  0
   24.0400    4.6540   51.2230 C   0  0  1  0  0  3  0  0  0  0  0  0
   23.3400    5.2350   52.2920 F   0  0  0  0  0  0  0  0  0  0  0  0
  1  7  1  0  0  0  0
  2  1  2  0  0  0  0
  3  2  1  0  0  0  0
  4  3  2  0  0  0  0
  4  5  1  0  0  0  0
  5  6  2  0  0  0  0
  6  1  1  0  0  0  0
  6 17  1  0  0  0  0
  8  7  1  0  0  0  0
  9 10  1  0  0  0  0
  9  8  1  0  0  0  0
 10 16  1  0  0  0  0
 11 10  1  0  0  0  0
 11 13  1  0  0  0  0
 12 11  2  0  0  0  0
 13 14  1  0  0  0  0
 15 14  1  0  0  0  0
 16 15  1  0  0  0  0
 17 18  1  0  0  0  0
 19 24  1  0  0  0  0
 19  3  1  0  0  0  0
 20 19  1  0  0  0  0
 21 22  1  0  0  0  0
 21 20  1  0  0  0  0
 22 23  1  0  0  0  0
 23 24  1  0  0  0  0
 24 25  1  1  0  0  0
M  END
>  <TORSDO>
F 6

$$$$
