C:\Qe-CaDD\Project\Data\Stage_6_Molecular_Dynamics\ligands_top\out_12090_EGFR_extracted.pdbqt
 OpenBabel01082506443D

 24 27  0  0  1  0  0  0  0  0999 V2000
   20.3390   -0.4740   53.3260 C   0  0  0  0  0  2  0  0  0  0  0  0
   21.0190    0.2770   52.4880 C   0  0  1  0  0  3  0  0  0  0  0  0
   20.8080    1.1810   51.3010 C   0  0  0  0  0  2  0  0  0  0  0  0
   21.3480    0.5490   50.0640 C   0  0  0  0  0  2  0  0  0  0  0  0
   21.6640    1.4410   48.8920 C   0  0  0  0  0  2  0  0  0  0  0  0
   22.7500    2.3240   49.2380 N   0  0  0  0  0  0  0  0  0  0  0  0
   23.8120    3.2040   49.5920 C   0  0  0  0  0  0  0  0  0  0  0  0
   22.9980    3.7880   50.3930 O   0  0  0  0  0  0  0  0  0  0  0  0
   25.1560    3.5730   49.4110 N   0  0  0  0  0  0  0  0  0  0  0  0
   26.1640    3.2140   50.0740 C   0  0  0  0  0  3  0  0  0  0  0  0
   26.3510    2.3380   51.2120 C   0  0  0  0  0  0  0  0  0  0  0  0
   27.1010    1.7240   52.1490 C   0  0  1  0  0  3  0  0  0  0  0  0
   27.4100    0.8710   53.2850 C   0  0  0  0  0  3  0  0  0  0  0  0
   26.6440    0.1020   54.0660 C   0  0  0  0  0  0  0  0  0  0  0  0
   25.4460   -0.6140   54.6810 C   0  0  0  0  0  2  0  0  0  0  0  0
   24.3110   -0.3370   54.0730 O   0  0  0  0  0  0  0  0  0  0  0  0
   23.0670   -0.7810   54.3190 C   0  0  0  0  0  2  0  0  0  0  0  0
   22.1180   -0.1590   53.3050 C   0  0  2  0  0  0  0  0  0  0  0  0
   23.1050    0.4980   52.7290 C   0  0  0  0  0  2  0  0  0  0  0  0
   24.1190    1.2520   52.0390 C   0  0  0  0  0  2  0  0  0  0  0  0
   25.4310    1.5690   51.9470 C   0  0  0  0  0  0  0  0  0  0  0  0
   23.5080    1.9420   48.5870 H   0  0  0  0  0  0  0  0  0  0  0  0
   27.6500   -0.4090   54.9380 O   0  0  0  0  0  0  0  0  0  0  0  0
   28.8670    0.1590   54.9630 F   0  0  0  0  0  0  0  0  0  0  0  0
  2  3  1  1  0  0  0
  2 18  1  0  0  0  0
  2  1  1  0  0  0  0
  4  3  1  0  0  0  0
  5  6  1  0  0  0  0
  5  4  1  0  0  0  0
  6  7  1  0  0  0  0
  7  8  2  0  0  0  0
  9  7  1  0  0  0  0
  9 10  2  0  0  0  0
 10 11  1  0  0  0  0
 11 21  2  0  0  0  0
 11 12  1  0  0  0  0
 12 13  1  1  0  0  0
 13 14  2  0  0  0  0
 14 15  1  0  0  0  0
 14 23  1  0  0  0  0
 16 17  1  0  0  0  0
 16 15  1  0  0  0  0
 18 19  1  1  0  0  0
 18  1  1  0  0  0  0
 18 17  1  0  0  0  0
 20 19  1  0  0  0  0
 21 20  1  0  0  0  0
 21 12  1  0  0  0  0
 22  6  1  0  0  0  0
 23 24  1  0  0  0  0
M  END
>  <TORSDO>
F 1

$$$$
