C:\Qe-CaDD\Project\Data\Stage_6_Molecular_Dynamics\ligands_top\out_15684_EGFR_extracted.pdbqt
 OpenBabel01082506443D

 34 38  0  0  1  0  0  0  0  0999 V2000
   21.7830    3.8990   51.0990 C   0  0  1  0  0  0  0  0  0  0  0  0
   20.5970    3.7920   51.9510 C   0  0  0  0  0  1  0  0  0  0  0  0
   21.3030    3.9980   49.6220 N   0  0  0  0  0  2  0  0  0  0  0  0
   21.8620    4.7260   48.7590 C   0  0  0  0  0  2  0  0  0  0  0  0
   22.6440    5.6260   47.9180 C   0  0  0  0  0  3  0  0  0  0  0  0
   23.6970    6.4690   48.0680 C   0  0  0  0  0  3  0  0  0  0  0  0
   24.3740    6.6810   49.3500 O   0  0  0  0  0  0  0  0  0  0  0  0
   23.7210    5.8150   50.3120 C   0  0  1  0  0  0  0  0  0  0  0  0
   22.5150    6.4170   50.4160 C   0  0  0  0  0  3  0  0  0  0  0  0
   21.5690    5.8030   51.2070 C   0  0  0  0  0  3  0  0  0  0  0  0
   22.7150    5.0500   51.2340 C   0  0  2  0  0  0  0  0  0  0  0  0
   23.9440    4.6760   50.9850 N   0  0  0  0  0  4  0  0  0  0  0  0
   24.5270    3.8120   51.9460 C   0  0  2  0  0  3  0  0  0  0  0  0
   23.5060    4.5470   52.4430 C   0  0  0  0  0  2  0  0  0  0  0  0
   24.9300    5.1970   50.2200 C   0  0  0  0  0  0  0  0  0  0  0  0
   25.9980    4.7510   50.0680 O   0  0  0  0  0  0  0  0  0  0  0  0
   25.5900    2.9390   51.7510 N   0  0  0  0  0  0  0  0  0  0  0  0
   26.1730    3.0680   50.9020 H   0  0  0  0  0  0  0  0  0  0  0  0
   25.6680    2.0030   52.8010 C   0  0  1  0  0  3  0  0  0  0  0  0
   25.5910    0.5750   52.4130 C   0  0  0  0  0  3  0  0  0  0  0  0
   26.6710   -0.1060   52.8330 C   0  0  0  0  0  0  0  0  0  0  0  0
   27.1430   -1.8050   52.6760 Cl  0  0  0  0  0  0  0  0  0  0  0  0
   27.5730    0.8210   53.5470 C   0  0  0  0  0  0  0  0  0  0  0  0
   26.9830    2.0140   53.5160 C   0  0  0  0  0  3  0  0  0  0  0  0
   28.8820    0.5430   54.1970 C   0  0  0  0  0  0  0  0  0  0  0  0
   29.7600    0.0340   53.2710 F   0  0  0  0  0  0  0  0  0  0  0  0
   29.4420    1.7700   54.5930 F   0  0  0  0  0  0  0  0  0  0  0  0
   28.7210   -0.2350   55.3080 F   0  0  0  0  0  0  0  0  0  0  0  0
   22.4030    2.5450   50.9630 C   0  0  2  0  0  3  0  0  0  0  0  0
   21.8090    1.9180   49.6460 C   0  0  0  0  0  3  0  0  0  0  0  0
   21.3430    0.6480   49.6760 C   0  0  0  0  0  2  0  0  0  0  0  0
   22.0760    1.5490   51.9700 N   0  0  0  0  0  0  0  0  0  0  0  0
   22.9510    1.4030   52.5360 H   0  0  0  0  0  0  0  0  0  0  0  0
   21.7890    0.6240   51.5460 H   0  0  0  0  0  0  0  0  0  0  0  0
  1 11  1  0  0  0  0
  1  2  1  1  0  0  0
  3  1  1  0  0  0  0
  4  3  1  0  0  0  0
  5  6  2  0  0  0  0
  5  4  1  0  0  0  0
  6  7  1  0  0  0  0
  7  8  1  0  0  0  0
  8  9  1  1  0  0  0
  8 12  1  0  0  0  0
  9 10  2  0  0  0  0
 11 10  1  6  0  0  0
 11 14  1  0  0  0  0
 12 11  1  0  0  0  0
 12 13  1  0  0  0  0
 13 17  1  1  0  0  0
 13 14  1  0  0  0  0
 15  8  1  0  0  0  0
 15 12  1  0  0  0  0
 16 15  2  0  0  0  0
 18 17  1  0  0  0  0
 19 17  1  6  0  0  0
 19 24  1  0  0  0  0
 20 19  1  0  0  0  0
 20 21  2  0  0  0  0
 21 23  1  0  0  0  0
 22 21  1  0  0  0  0
 23 25  1  0  0  0  0
 24 23  2  0  0  0  0
 25 27  1  0  0  0  0
 25 28  1  0  0  0  0
 26 25  1  0  0  0  0
 29 30  1  6  0  0  0
 29  1  1  0  0  0  0
 29 32  1  0  0  0  0
 30 31  2  0  0  0  0
 32 33  1  0  0  0  0
 34 32  1  0  0  0  0
M  END
>  <TORSDO>
F 7

$$$$
