C:\Qe-CaDD\Project\Data\Stage_6_Molecular_Dynamics\ligands_top\out_22671_EGFR_extracted.pdbqt
 OpenBabel01082506443D

 30 31  0  0  0  0  0  0  0  0999 V2000
   23.9890    0.2720   53.4370 C   0  0  0  0  0  0  0  0  0  0  0  0
   24.5610   -0.5740   54.3560 C   0  0  0  0  0  3  0  0  0  0  0  0
   25.8830   -0.5800   54.7170 C   0  0  0  0  0  3  0  0  0  0  0  0
   26.7560    0.3150   54.1420 C   0  0  0  0  0  0  0  0  0  0  0  0
   28.0600    0.3850   54.4300 N   0  0  0  0  0  0  0  0  0  0  0  0
   28.8470    1.3020   53.8130 C   0  0  0  0  0  3  0  0  0  0  0  0
   28.3650    2.1640   52.9020 N   0  0  0  0  0  0  0  0  0  0  0  0
   27.0570    2.1040   52.6050 C   0  0  0  0  0  0  0  0  0  0  0  0
   26.2150    1.1880   53.2060 C   0  0  0  0  0  0  0  0  0  0  0  0
   24.8820    1.1590   52.8750 C   0  0  0  0  0  3  0  0  0  0  0  0
   22.6330    0.3120   53.0450 N   0  0  0  0  0  0  0  0  0  0  0  0
   21.4640   -0.0060   53.7820 C   0  0  0  0  0  0  0  0  0  0  0  0
   21.6410   -0.3820   54.9630 O   0  0  0  0  0  0  0  0  0  0  0  0
   22.4450    0.6240   52.0510 H   0  0  0  0  0  0  0  0  0  0  0  0
   20.1560    0.1180   53.1410 C   0  0  0  0  0  2  0  0  0  0  0  0
   20.2500    0.2440   51.6490 C   0  0  0  0  0  2  0  0  0  0  0  0
   19.7590    1.5940   51.2150 C   0  0  0  0  0  2  0  0  0  0  0  0
   20.8340    2.3480   50.6190 N   0  0  0  0  0  0  0  0  0  0  0  0
   21.7790    1.5520   49.9400 C   0  0  0  0  0  2  0  0  0  0  0  0
   21.5290    1.3940   48.4600 C   0  0  0  0  0  2  0  0  0  0  0  0
   22.4860    2.1900   47.6190 C   0  0  0  0  0  1  0  0  0  0  0  0
   21.3990    3.3030   51.5420 C   0  0  0  0  0  2  0  0  0  0  0  0
   22.7710    3.7100   51.0590 C   0  0  0  0  0  1  0  0  0  0  0  0
   26.5850    3.0440   51.6310 N   0  0  0  0  0  0  0  0  0  0  0  0
   26.2520    3.8220   52.2320 H   0  0  0  0  0  0  0  0  0  0  0  0
   26.5470    3.0010   50.2120 C   0  0  0  0  0  3  0  0  0  0  0  0
   26.3570    3.9260   49.3050 C   0  0  0  0  0  3  0  0  0  0  0  0
   26.1090    5.3770   49.4080 C   0  0  0  0  0  2  0  0  0  0  0  0
   27.0580    6.1650   48.5230 C   0  0  0  0  0  2  0  0  0  0  0  0
   28.6120    5.3580   48.3030 Cl  0  0  0  0  0  0  0  0  0  0  0  0
  1  2  1  0  0  0  0
  2  3  2  0  0  0  0
  4  5  1  0  0  0  0
  4  3  1  0  0  0  0
  6  5  2  0  0  0  0
  7  6  1  0  0  0  0
  8  7  2  0  0  0  0
  8  9  1  0  0  0  0
  9  4  2  0  0  0  0
 10  9  1  0  0  0  0
 10  1  2  0  0  0  0
 11  1  1  0  0  0  0
 11 12  1  0  0  0  0
 12 13  2  0  0  0  0
 14 11  1  0  0  0  0
 15 12  1  0  0  0  0
 16 15  1  0  0  0  0
 17 16  1  0  0  0  0
 18 17  1  0  0  0  0
 18 22  1  0  0  0  0
 19 18  1  0  0  0  0
 20 19  1  0  0  0  0
 21 20  1  0  0  0  0
 23 22  1  0  0  0  0
 24 25  1  0  0  0  0
 24  8  1  0  0  0  0
 26 24  1  0  0  0  0
 27 28  1  0  0  0  0
 27 26  2  0  0  0  0
 29 28  1  0  0  0  0
 30 29  1  0  0  0  0
M  END
>  <TORSDO>
F 12

$$$$
