C:\Qe-CaDD\Project\Data\Stage_6_Molecular_Dynamics\ligands_top\out_17492_EGFR_extracted.pdbqt
 OpenBabel01082506443D

 27 29  0  0  1  0  0  0  0  0999 V2000
   23.3620    2.0220   50.4800 C   0  0  1  0  0  3  0  0  0  0  0  0
   23.7290    3.1290   49.5580 C   0  0  0  0  0  2  0  0  0  0  0  0
   24.9640    3.6820   50.1440 C   0  0  2  0  0  3  0  0  0  0  0  0
   25.1250    3.2150   51.3350 N   0  0  0  0  0  2  0  0  0  0  0  0
   24.1040    2.3540   51.6820 N   0  0  0  0  0  0  0  0  0  0  0  0
   23.9890    1.9830   53.0750 C   0  0  0  0  0  2  0  0  0  0  0  0
   25.3410    0.8410   53.5210 S   0  0  2  0  0  3  0  0  0  0  0  0
   26.8480    1.3960   53.8600 C   0  0  2  0  0  3  0  0  0  0  0  0
   27.7340    0.2710   54.1940 C   0  0  2  0  0  3  0  0  0  0  0  0
   29.0970    0.8190   54.5360 C   0  0  0  0  0  1  0  0  0  0  0  0
   27.8570   -0.7040   53.0460 C   0  0  0  0  0  2  0  0  0  0  0  0
   26.5850   -1.3510   52.6870 C   0  0  0  0  0  2  0  0  0  0  0  0
   25.3560   -0.8460   52.8130 C   0  0  0  0  0  2  0  0  0  0  0  0
   27.2950    2.7220   53.8600 N   0  0  0  0  0  0  0  0  0  0  0  0
   27.9330    3.0160   54.6520 H   0  0  0  0  0  0  0  0  0  0  0  0
   27.7020    3.6580   53.9940 H   0  0  0  0  0  0  0  0  0  0  0  0
   21.9710    1.9680   50.8260 N   0  0  0  0  0  0  0  0  0  0  0  0
   21.3870    0.6680   50.7250 C   0  0  0  0  0  1  0  0  0  0  0  0
   21.7020    2.5040   51.6590 H   0  0  0  0  0  0  0  0  0  0  0  0
   25.8570    4.6270   49.4450 C   0  0  0  0  0  0  0  0  0  0  0  0
   25.4200    5.8940   49.0770 C   0  0  0  0  0  3  0  0  0  0  0  0
   26.3080    6.7210   48.4280 C   0  0  0  0  0  3  0  0  0  0  0  0
   27.5990    6.3370   48.1340 C   0  0  0  0  0  0  0  0  0  0  0  0
   28.0460    5.0870   48.4910 C   0  0  0  0  0  3  0  0  0  0  0  0
   27.1490    4.2470   49.1490 C   0  0  0  0  0  3  0  0  0  0  0  0
   28.5330    7.1220   47.4870 O   0  0  0  0  0  0  0  0  0  0  0  0
   29.9070    6.7970   47.5250 C   0  0  0  0  0  1  0  0  0  0  0  0
  1 17  1  1  0  0  0
  1  5  1  0  0  0  0
  2  3  1  0  0  0  0
  2  1  1  0  0  0  0
  3 20  1  1  0  0  0
  3  4  1  0  0  0  0
  4  5  1  0  0  0  0
  5  6  1  0  0  0  0
  7  6  1  6  0  0  0
  7  8  1  0  0  0  0
  8 14  1  1  0  0  0
  8  9  1  0  0  0  0
  9 10  1  6  0  0  0
 11  9  1  0  0  0  0
 12 13  1  0  0  0  0
 12 11  1  0  0  0  0
 13  7  1  0  0  0  0
 14 16  1  0  0  0  0
 14 15  1  0  0  0  0
 17 19  1  0  0  0  0
 18 17  1  0  0  0  0
 21 20  2  0  0  0  0
 22 21  1  0  0  0  0
 23 22  2  0  0  0  0
 23 24  1  0  0  0  0
 24 25  2  0  0  0  0
 25 20  1  0  0  0  0
 26 27  1  0  0  0  0
 26 23  1  0  0  0  0
M  END
>  <TORSDO>
F 6

$$$$
