C:\Qe-CaDD\Project\Data\Stage_6_Molecular_Dynamics\ligands_top\out_22183_EGFR_extracted.pdbqt
 OpenBabel01082506443D

 21 24  0  0  1  0  0  0  0  0999 V2000
   27.9570   -3.1350   52.8620 N   0  0  0  0  0  0  0  0  0  0  0  0
   27.3920   -2.2610   52.3930 C   0  0  0  0  0  0  0  0  0  0  0  0
   26.7090   -1.1840   51.7950 C   0  0  0  0  0  3  0  0  0  0  0  0
   27.0090    0.0280   52.1190 C   0  0  0  0  0  0  0  0  0  0  0  0
   26.3880    1.3680   51.5830 C   0  0  0  0  0  2  0  0  0  0  0  0
   26.3820    2.3640   52.5570 C   0  0  0  0  0  2  0  0  0  0  0  0
   27.1780    2.4140   53.8260 N   0  0  0  0  0  0  0  0  0  0  0  0
   28.3700    1.7940   54.2610 C   0  0  1  0  0  0  0  0  0  0  0  0
   28.3280    0.6450   55.2590 C   0  0  0  0  0  2  0  0  0  0  0  0
   27.4450   -0.0600   54.5740 C   0  0  1  0  0  3  0  0  0  0  0  0
   28.0410    0.3330   53.2390 C   0  0  1  0  0  0  0  0  0  0  0  0
   29.1300    1.0950   53.2070 C   0  0  0  0  0  2  0  0  0  0  0  0
   26.6390    3.1010   54.4380 H   0  0  0  0  0  0  0  0  0  0  0  0
   26.3650   -0.8820   54.8800 O   0  0  0  0  0  0  0  0  0  0  0  0
   25.2760   -0.3810   55.6540 C   0  0  0  0  0  2  0  0  0  0  0  0
   24.0320   -0.6490   54.9340 C   0  0  0  0  0  0  0  0  0  0  0  0
   23.8070   -0.1020   53.6900 C   0  0  0  0  0  3  0  0  0  0  0  0
   22.6590   -0.3200   52.9690 C   0  0  0  0  0  3  0  0  0  0  0  0
   21.6500   -1.1140   53.4610 C   0  0  0  0  0  3  0  0  0  0  0  0
   21.8500   -1.6750   54.7100 C   0  0  0  0  0  3  0  0  0  0  0  0
   23.0100   -1.4490   55.4270 C   0  0  0  0  0  3  0  0  0  0  0  0
  2  1  3  0  0  0  0
  3  4  2  0  0  0  0
  3  2  1  0  0  0  0
  4 11  1  0  0  0  0
  5  4  1  0  0  0  0
  5  6  1  0  0  0  0
  6  7  1  0  0  0  0
  7  8  1  0  0  0  0
  7 13  1  0  0  0  0
  8 12  1  6  0  0  0
  8  9  1  0  0  0  0
 10 14  1  1  0  0  0
 10  9  1  0  0  0  0
 11 12  1  6  0  0  0
 11  8  1  0  0  0  0
 11 10  1  0  0  0  0
 14 15  1  0  0  0  0
 16 21  1  0  0  0  0
 16 15  1  0  0  0  0
 17 16  2  0  0  0  0
 18 19  2  0  0  0  0
 18 17  1  0  0  0  0
 19 20  1  0  0  0  0
 20 21  2  0  0  0  0
M  END
>  <TORSDO>
F 3

$$$$
