C:\Qe-CaDD\Project\Data\Stage_6_Molecular_Dynamics\ligands_top\out_12125_EGFR_extracted.pdbqt
 OpenBabel01082506443D

 27 28  0  0  1  0  0  0  0  0999 V2000
   20.5330    2.9560   51.5050 C   0  0  0  0  0  0  0  0  0  0  0  0
   21.1430    2.5030   52.5960 C   0  0  0  0  0  2  0  0  0  0  0  0
   21.5570    1.3180   52.5800 C   0  0  1  0  0  0  0  0  0  0  0  0
   21.3880    0.3280   51.5920 C   0  0  0  0  0  2  0  0  0  0  0  0
   22.2260   -0.3130   52.3470 C   0  0  2  0  0  3  0  0  0  0  0  0
   22.9550    0.2600   53.8550 S   0  0  1  0  0  3  0  0  0  0  0  0
   24.4720   -0.7150   54.1740 C   0  0  0  0  0  2  0  0  0  0  0  0
   25.4650   -0.5300   53.0560 C   0  0  1  0  0  3  0  0  0  0  0  0
   25.4100    0.6760   52.2450 C   0  0  0  0  0  2  0  0  0  0  0  0
   26.2910    1.5970   51.7420 C   0  0  0  0  0  2  0  0  0  0  0  0
   25.5930    2.6530   50.9030 C   0  0  0  0  0  2  0  0  0  0  0  0
   24.4380    3.0180   50.5590 C   0  0  2  0  0  3  0  0  0  0  0  0
   24.4490    4.0890   49.6850 C   0  0  0  0  0  0  0  0  0  0  0  0
   24.4590    5.0320   48.8940 N   0  0  0  0  0  0  0  0  0  0  0  0
   22.9970    3.0600   50.7350 C   0  0  0  0  0  1  0  0  0  0  0  0
   23.6860    2.5360   51.6030 O   0  0  0  0  0  0  0  0  0  0  0  0
   21.6320    3.1950   50.7010 N   0  0  0  0  0  0  0  0  0  0  0  0
   22.0560    3.4500   49.8180 H   0  0  0  0  0  0  0  0  0  0  0  0
   19.4470    3.1950   50.5760 C   0  0  0  0  0  2  0  0  0  0  0  0
   18.8990    4.3210   49.9440 C   0  0  0  0  0  1  0  0  0  0  0  0
   26.8160   -1.0080   53.4950 C   0  0  2  0  0  3  0  0  0  0  0  0
   27.3520   -2.0010   52.9120 C   0  0  0  0  0  2  0  0  0  0  0  0
   28.0270   -3.1820   52.6270 O   0  0  0  0  0  0  0  0  0  0  0  0
   29.0260   -3.1030   52.2560 H   0  0  0  0  0  0  0  0  0  0  0  0
   27.2830   -0.2400   54.5340 O   0  0  0  0  0  0  0  0  0  0  0  0
   28.6980   -0.0450   54.6730 C   0  0  0  0  0  2  0  0  0  0  0  0
   29.0730    1.2790   54.1720 C   0  0  0  0  0  1  0  0  0  0  0  0
  1  2  1  0  0  0  0
  3  2  1  6  0  0  0
  3  6  1  0  0  0  0
  4  3  1  0  0  0  0
  5  4  1  1  0  0  0
  5  3  1  0  0  0  0
  5  6  1  0  0  0  0
  6  7  1  6  0  0  0
  8  9  1  1  0  0  0
  8 21  1  0  0  0  0
  8  7  1  0  0  0  0
 10  9  1  0  0  0  0
 11 10  1  0  0  0  0
 12 13  1  1  0  0  0
 12 11  1  0  0  0  0
 12 16  1  0  0  0  0
 14 13  3  0  0  0  0
 15 16  1  0  0  0  0
 17  1  2  0  0  0  0
 18 17  1  0  0  0  0
 19  1  1  0  0  0  0
 20 19  1  0  0  0  0
 21 22  1  1  0  0  0
 21 25  1  0  0  0  0
 23 22  1  0  0  0  0
 24 23  1  0  0  0  0
 25 26  1  0  0  0  0
 27 26  1  0  0  0  0
M  END
>  <TORSDO>
F 6

$$$$
