C:\Qe-CaDD\Project\Data\Stage_6_Molecular_Dynamics\ligands_top\out_16930_EGFR_extracted.pdbqt
 OpenBabel01082506443D

 20 23  0  0  1  0  0  0  0  0999 V2000
   23.0890    0.8920   52.2120 C   0  0  1  0  0  3  0  0  0  0  0  0
   22.0850    1.9760   52.6100 C   0  0  2  0  0  0  0  0  0  0  0  0
   20.8870    1.5010   52.9120 C   0  0  0  0  0  3  0  0  0  0  0  0
   20.4570    0.6800   51.6900 C   0  0  0  0  0  0  0  0  0  0  0  0
   21.2480    0.5460   50.5590 C   0  0  0  0  0  2  0  0  0  0  0  0
   22.4720    1.3250   50.8400 C   0  0  2  0  0  0  0  0  0  0  0  0
   23.5050    2.1080   50.9300 N   0  0  0  0  0  2  0  0  0  0  0  0
   23.2300    2.8610   52.3010 C   0  0  0  0  0  2  0  0  0  0  0  0
   24.4870    0.9740   52.3530 C   0  0  0  0  0  2  0  0  0  0  0  0
   25.0410   -0.3530   52.7800 N   0  0  0  0  0  0  0  0  0  0  0  0
   26.3710   -0.4910   52.1930 C   0  0  0  0  0  2  0  0  0  0  0  0
   27.3400   -1.0790   53.1900 C   0  0  0  0  0  2  0  0  0  0  0  0
   27.6400   -0.0370   54.1230 N   0  0  0  0  0  0  0  0  0  0  0  0
   28.9360    0.4340   54.3270 C   0  0  0  0  0  0  0  0  0  0  0  0
   26.4170    0.3630   54.7190 C   0  0  0  0  0  2  0  0  0  0  0  0
   30.0680   -0.1340   53.5530 C   0  0  0  0  0  1  0  0  0  0  0  0
   29.1070    1.3590   55.1890 O   0  0  0  0  0  0  0  0  0  0  0  0
   25.1770   -0.3460   54.2400 C   0  0  0  0  0  2  0  0  0  0  0  0
   19.1320    0.0130   51.6960 C   0  0  0  0  0  2  0  0  0  0  0  0
   19.1130   -0.8190   52.7970 F   0  0  0  0  0  0  0  0  0  0  0  0
  1  9  1  6  0  0  0
  1  2  1  0  0  0  0
  2  8  1  1  0  0  0
  2  3  1  0  0  0  0
  4 19  1  0  0  0  0
  4  3  2  0  0  0  0
  5  4  1  0  0  0  0
  6  5  1  6  0  0  0
  6  7  1  0  0  0  0
  6  1  1  0  0  0  0
  6  2  1  0  0  0  0
  7  8  1  0  0  0  0
  9 10  1  0  0  0  0
 10 18  1  0  0  0  0
 11 10  1  0  0  0  0
 11 12  1  0  0  0  0
 12 13  1  0  0  0  0
 13 14  1  0  0  0  0
 13 15  1  0  0  0  0
 14 17  2  0  0  0  0
 16 14  1  0  0  0  0
 18 15  1  0  0  0  0
 19 20  1  0  0  0  0
M  END
>  <TORSDO>
F 3

$$$$
