C:\Qe-CaDD\Project\Data\Stage_6_Molecular_Dynamics\ligands_top\out_12146_EGFR_extracted.pdbqt
 OpenBabel01082506443D

 22 23  0  0  1  0  0  0  0  0999 V2000
   24.6930    2.6770   51.9310 C   0  0  0  0  0  0  0  0  0  0  0  0
   25.7280    2.1450   52.5360 C   0  0  0  0  0  3  0  0  0  0  0  0
   24.8720    3.2800   50.7020 O   0  0  0  0  0  0  0  0  0  0  0  0
   24.5450    4.6260   50.4420 C   0  0  0  0  0  1  0  0  0  0  0  0
   23.3260    2.6530   52.5330 C   0  0  0  0  0  2  0  0  0  0  0  0
   22.5220    1.6400   51.8950 N   0  0  0  0  0  0  0  0  0  0  0  0
   23.1550    1.1330   51.2320 H   0  0  0  0  0  0  0  0  0  0  0  0
   22.0290    0.7190   52.8530 C   0  0  0  0  0  3  0  0  0  0  0  0
   22.9650   -0.4090   53.1980 C   0  0  0  0  0  2  0  0  0  0  0  0
   22.4550   -0.9290   54.5520 C   0  0  0  0  0  2  0  0  0  0  0  0
   21.1220   -1.5530   54.3090 C   0  0  0  0  0  2  0  0  0  0  0  0
   20.1420   -0.5950   53.6680 C   0  0  0  0  0  2  0  0  0  0  0  0
   20.7170    0.0760   52.4500 C   0  0  0  0  0  2  0  0  0  0  0  0
   27.1340    2.0560   52.1380 C   0  0  0  0  0  2  0  0  0  0  0  0
   28.0660    2.4030   53.2340 C   0  0  0  0  0  3  0  0  0  0  0  0
   28.9620    1.7280   53.9740 C   0  0  0  0  0  0  0  0  0  0  0  0
   29.7450    2.3090   54.9850 O   0  0  0  0  0  0  0  0  0  0  0  0
   30.0600    1.6790   55.7350 H   0  0  0  0  0  0  0  0  0  0  0  0
   29.1780    0.2830   53.7540 C   0  0  2  0  0  3  0  0  0  0  0  0
   30.1940   -0.5330   53.4320 C   0  0  0  0  0  2  0  0  0  0  0  0
   29.3130   -1.6920   53.4880 C   0  0  0  0  0  2  0  0  0  0  0  0
   28.3490   -0.8920   53.7950 N   0  0  0  0  0  2  0  0  0  0  0  0
  1  5  1  0  0  0  0
  1  2  2  0  0  0  0
  3  1  1  0  0  0  0
  4  3  1  0  0  0  0
  6  5  1  0  0  0  0
  6  8  1  0  0  0  0
  7  6  1  0  0  0  0
  8  9  1  0  0  0  0
  9 10  1  0  0  0  0
 11 10  1  0  0  0  0
 12 11  1  0  0  0  0
 13  8  1  0  0  0  0
 13 12  1  0  0  0  0
 14  2  1  0  0  0  0
 14 15  1  0  0  0  0
 15 16  2  0  0  0  0
 16 17  1  0  0  0  0
 17 18  1  0  0  0  0
 19 22  1  0  0  0  0
 19 16  1  6  0  0  0
 20 21  1  0  0  0  0
 20 19  1  0  0  0  0
 21 22  1  0  0  0  0
M  END
>  <TORSDO>
F 8

$$$$
