C:\Qe-CaDD\Project\Data\Stage_6_Molecular_Dynamics\ligands_top\out_11389_EGFR_extracted.pdbqt
 OpenBabel01082506443D

 29 33  0  0  1  0  0  0  0  0999 V2000
   23.4160    1.3340   52.0710 C   0  0  1  0  0  3  0  0  0  0  0  0
   22.9750    1.9040   50.8240 C   0  0  2  0  0  3  0  0  0  0  0  0
   22.1070    0.8830   51.1850 C   0  0  1  0  0  3  0  0  0  0  0  0
   21.9110   -0.1580   52.2830 C   0  0  0  0  0  2  0  0  0  0  0  0
   22.1440   -0.8920   53.4170 C   0  0  0  0  0  2  0  0  0  0  0  0
   23.1860   -0.9860   54.5190 N   0  0  0  0  0  0  0  0  0  0  0  0
   24.6250   -0.8210   55.0710 C   0  0  0  0  0  1  0  0  0  0  0  0
   23.7830   -0.7720   54.1760 O   0  0  0  0  0  0  0  0  0  0  0  0
   25.6620   -0.3440   54.0170 C   0  0  0  0  0  3  0  0  0  0  0  0
   26.2850   -1.3060   53.2550 C   0  0  0  0  0  3  0  0  0  0  0  0
   26.8430   -0.9200   52.0060 C   0  0  0  0  0  3  0  0  0  0  0  0
   26.6820    0.4470   51.6690 C   0  0  0  0  0  3  0  0  0  0  0  0
   26.0280    1.2640   52.5570 C   0  0  0  0  0  0  0  0  0  0  0  0
   25.4730    0.9990   53.7970 C   0  0  0  0  0  3  0  0  0  0  0  0
   25.6510    2.3840   51.6390 C   0  0  0  0  0  2  0  0  0  0  0  0
   24.3940    2.5460   50.9920 C   0  0  2  0  0  0  0  0  0  0  0  0
   22.5730   -1.3430   55.3820 H   0  0  0  0  0  0  0  0  0  0  0  0
   24.2360    3.7370   50.2020 C   0  0  0  0  0  0  0  0  0  0  0  0
   23.1680    4.4120   49.8150 N   0  0  0  0  0  0  0  0  0  0  0  0
   23.1360    5.5250   49.0840 C   0  0  0  0  0  3  0  0  0  0  0  0
   24.3390    6.0350   48.6800 C   0  0  0  0  0  3  0  0  0  0  0  0
   25.4980    5.4060   49.0300 C   0  0  0  0  0  0  0  0  0  0  0  0
   25.3340    4.3360   49.7450 N   0  0  0  0  0  0  0  0  0  0  0  0
   26.8070    5.8920   48.6210 C   0  0  0  0  0  0  0  0  0  0  0  0
   27.8870    5.0360   48.5710 C   0  0  0  0  0  3  0  0  0  0  0  0
   29.1400    5.4870   48.1840 C   0  0  0  0  0  3  0  0  0  0  0  0
   29.3430    6.8270   47.8330 C   0  0  0  0  0  3  0  0  0  0  0  0
   28.2720    7.6570   47.8860 N   0  0  0  0  0  0  0  0  0  0  0  0
   27.0730    7.1880   48.2650 C   0  0  0  0  0  3  0  0  0  0  0  0
  2 16  1  0  0  0  0
  2  3  1  0  0  0  0
  2  1  1  0  0  0  0
  3  1  1  0  0  0  0
  3  4  1  0  0  0  0
  4  5  1  0  0  0  0
  5  6  1  0  0  0  0
  6 17  1  0  0  0  0
  8  6  1  0  0  0  0
  8  7  1  0  0  0  0
 10  9  2  0  0  0  0
 11 10  1  0  0  0  0
 12 11  2  0  0  0  0
 12 13  1  0  0  0  0
 13 14  2  0  0  0  0
 14  9  1  0  0  0  0
 15 13  1  0  0  0  0
 16 15  1  0  0  0  0
 16  1  1  0  0  0  0
 18 16  1  0  0  0  0
 19 18  2  0  0  0  0
 20 19  1  0  0  0  0
 21 22  1  0  0  0  0
 21 20  2  0  0  0  0
 22 23  2  0  0  0  0
 23 18  1  0  0  0  0
 24 22  1  0  0  0  0
 25 24  1  0  0  0  0
 26 25  2  0  0  0  0
 27 28  2  0  0  0  0
 27 26  1  0  0  0  0
 28 29  1  0  0  0  0
 29 24  2  0  0  0  0
M  END
>  <TORSDO>
F 2

$$$$
