C:\Qe-CaDD\Project\Data\Stage_6_Molecular_Dynamics\ligands_top\out_16294_EGFR_extracted.pdbqt
 OpenBabel01082506443D

 30 33  0  0  1  0  0  0  0  0999 V2000
   21.9310    0.4380   52.2310 C   0  0  2  0  0  3  0  0  0  0  0  0
   20.5050    0.0310   52.5130 C   0  0  0  0  0  0  0  0  0  0  0  0
   19.2480    0.3370   51.7450 C   0  0  0  0  0  1  0  0  0  0  0  0
   20.4370   -0.7120   53.6330 C   0  0  0  0  0  3  0  0  0  0  0  0
   21.7660   -0.8840   54.2130 C   0  0  0  0  0  0  0  0  0  0  0  0
   22.1880   -1.5330   55.3040 N   0  0  0  0  0  0  0  0  0  0  0  0
   23.4880   -1.5600   55.6520 C   0  0  0  0  0  3  0  0  0  0  0  0
   24.3560   -0.9070   54.8590 N   0  0  0  0  0  0  0  0  0  0  0  0
   23.9650   -0.2440   53.7550 C   0  0  0  0  0  0  0  0  0  0  0  0
   22.6280   -0.2040   53.3780 C   0  0  0  0  0  0  0  0  0  0  0  0
   22.0790    1.7850   52.1830 O   0  0  0  0  0  0  0  0  0  0  0  0
   22.3140    2.3890   50.9970 C   0  0  0  0  0  2  0  0  0  0  0  0
   23.7100    2.3640   50.4670 C   0  0  0  0  0  2  0  0  0  0  0  0
   24.2210    3.7210   50.4860 N   0  0  0  0  0  0  0  0  0  0  0  0
   25.4880    4.0320   49.9280 C   0  0  0  0  0  0  0  0  0  0  0  0
   26.4480    3.1200   49.8120 C   0  0  0  0  0  2  0  0  0  0  0  0
   25.8680    5.3890   49.4240 C   0  0  0  0  0  2  0  0  0  0  0  0
   24.7470    6.2340   49.6020 O   0  0  0  0  0  0  0  0  0  0  0  0
   24.3410    6.0840   50.9070 C   0  0  0  0  0  2  0  0  0  0  0  0
   23.4900    4.8340   51.0680 C   0  0  0  0  0  2  0  0  0  0  0  0
   24.9570    0.4180   52.9750 N   0  0  0  0  0  0  0  0  0  0  0  0
   24.5330    1.0580   52.2830 H   0  0  0  0  0  0  0  0  0  0  0  0
   26.3620    0.1840   53.1690 C   0  0  0  0  0  0  0  0  0  0  0  0
   26.8070   -1.0540   52.7660 C   0  0  0  0  0  3  0  0  0  0  0  0
   28.1610   -1.2690   52.9590 C   0  0  0  0  0  3  0  0  0  0  0  0
   29.0250   -0.3190   53.5150 C   0  0  0  0  0  0  0  0  0  0  0  0
   30.3430   -0.5440   53.6930 F   0  0  0  0  0  0  0  0  0  0  0  0
   28.4360    0.8810   53.8720 C   0  0  0  0  0  0  0  0  0  0  0  0
   29.5040    2.0800   54.5730 Cl  0  0  0  0  0  0  0  0  0  0  0  0
   27.0960    1.2080   53.7270 C   0  0  0  0  0  3  0  0  0  0  0  0
  1 11  1  1  0  0  0
  1  2  1  0  0  0  0
  1 10  1  0  0  0  0
  2  4  2  0  0  0  0
  3  2  1  0  0  0  0
  4  5  1  0  0  0  0
  5  6  1  0  0  0  0
  6  7  2  0  0  0  0
  8  7  1  0  0  0  0
  9  8  2  0  0  0  0
 10  9  1  0  0  0  0
 10  5  2  0  0  0  0
 12 11  1  0  0  0  0
 13 14  1  0  0  0  0
 13 12  1  0  0  0  0
 14 20  1  0  0  0  0
 15 14  1  0  0  0  0
 16 15  2  0  0  0  0
 17 18  1  0  0  0  0
 17 15  1  0  0  0  0
 18 19  1  0  0  0  0
 19 20  1  0  0  0  0
 21 23  1  0  0  0  0
 21  9  1  0  0  0  0
 22 21  1  0  0  0  0
 23 30  1  0  0  0  0
 24 25  1  0  0  0  0
 24 23  2  0  0  0  0
 25 26  2  0  0  0  0
 26 27  1  0  0  0  0
 26 28  1  0  0  0  0
 28 29  1  0  0  0  0
 30 28  2  0  0  0  0
M  END
>  <TORSDO>
F 6

$$$$
