C:\Qe-CaDD\Project\Data\Stage_6_Molecular_Dynamics\ligands_top\out_10067_EGFR_extracted.pdbqt
 OpenBabel01082506443D

 22 23  0  0  1  0  0  0  0  0999 V2000
   24.4220    1.6130   51.8900 C   0  0  2  0  0  3  0  0  0  0  0  0
   24.4550    3.0290   51.6320 O   0  0  0  0  0  0  0  0  0  0  0  0
   23.4880    3.3230   50.6640 C   0  0  0  0  0  1  0  0  0  0  0  0
   23.3540    1.4080   52.8810 C   0  0  0  0  0  2  0  0  0  0  0  0
   22.6310    0.2020   52.8370 N   0  0  0  0  0  0  0  0  0  0  0  0
   21.4650    0.0520   52.0920 C   0  0  0  0  0  1  0  0  0  0  0  0
   23.0590   -0.8950   53.6030 C   0  0  0  0  0  2  0  0  0  0  0  0
   22.2210   -1.2620   54.8030 C   0  0  0  0  0  0  0  0  0  0  0  0
   21.6530   -0.0860   55.2930 F   0  0  0  0  0  0  0  0  0  0  0  0
   21.1760   -2.0990   54.4440 F   0  0  0  0  0  0  0  0  0  0  0  0
   22.9260   -1.8510   55.8380 O   0  0  0  0  0  0  0  0  0  0  0  0
   22.4040   -1.8430   56.6530 H   0  0  0  0  0  0  0  0  0  0  0  0
   25.8060    1.3360   52.4360 C   0  0  1  0  0  3  0  0  0  0  0  0
   26.0060    1.9930   53.7920 C   0  0  0  0  0  1  0  0  0  0  0  0
   26.1460   -0.0440   52.4650 N   0  0  0  0  0  0  0  0  0  0  0  0
   25.2930   -0.6460   52.2060 H   0  0  0  0  0  0  0  0  0  0  0  0
   27.2700   -0.8640   52.7410 C   0  0  2  0  0  3  0  0  0  0  0  0
   27.4210   -2.2320   52.6940 C   0  0  0  0  0  3  0  0  0  0  0  0
   28.6430   -2.7290   53.0660 C   0  0  0  0  0  3  0  0  0  0  0  0
   29.3650   -1.6090   53.3860 C   0  0  1  0  0  3  0  0  0  0  0  0
   29.8590   -0.3040   53.6420 C   0  0  0  0  0  2  0  0  0  0  0  0
   28.5270   -0.4450   53.1880 C   0  0  2  0  0  3  0  0  0  0  0  0
  1 13  1  0  0  0  0
  1  4  1  1  0  0  0
  2  1  1  0  0  0  0
  3  2  1  0  0  0  0
  5  4  1  0  0  0  0
  5  7  1  0  0  0  0
  6  5  1  0  0  0  0
  7  8  1  0  0  0  0
  8  9  1  0  0  0  0
  8 11  1  0  0  0  0
 10  8  1  0  0  0  0
 11 12  1  0  0  0  0
 13 15  1  0  0  0  0
 13 14  1  1  0  0  0
 16 15  1  0  0  0  0
 17 15  1  1  0  0  0
 17 22  1  0  0  0  0
 18 17  1  0  0  0  0
 18 19  2  0  0  0  0
 20 19  1  6  0  0  0
 20 21  1  0  0  0  0
 22 20  1  0  0  0  0
 22 21  1  1  0  0  0
M  END
>  <TORSDO>
F 9

$$$$
