C:\Qe-CaDD\Project\Data\Stage_6_Molecular_Dynamics\ligands_top\out_20250_EGFR_extracted.pdbqt
 OpenBabel01082506443D

 27 29  0  0  0  0  0  0  0  0999 V2000
   23.5110    0.2900   53.3800 C   0  0  0  0  0  0  0  0  0  0  0  0
   23.3240    1.2410   52.4850 C   0  0  0  0  0  0  0  0  0  0  0  0
   24.4540    1.6230   51.6960 C   0  0  0  0  0  0  0  0  0  0  0  0
   24.2680    2.5750   50.8010 C   0  0  0  0  0  3  0  0  0  0  0  0
   22.3840    3.0480   50.9950 P   0  0  0  0  0  0  0  0  0  0  0  0
   22.0550    1.9020   52.2710 C   0  0  0  0  0  0  0  0  0  0  0  0
   25.7290    0.9530   51.9180 C   0  0  0  0  0  3  0  0  0  0  0  0
   25.8860    0.0100   52.8160 C   0  0  0  0  0  0  0  0  0  0  0  0
   24.7730   -0.4330   53.6590 C   0  0  0  0  0  2  0  0  0  0  0  0
   20.8050    1.7370   52.8820 N   0  0  0  0  0  0  0  0  0  0  0  0
   20.8000    2.2360   53.8000 H   0  0  0  0  0  0  0  0  0  0  0  0
   19.7270    1.0180   52.3540 C   0  0  0  0  0  0  0  0  0  0  0  0
   19.1180    1.4700   51.2100 C   0  0  0  0  0  3  0  0  0  0  0  0
   18.0520    0.6880   50.7590 C   0  0  0  0  0  3  0  0  0  0  0  0
   17.5970   -0.4590   51.3680 C   0  0  0  0  0  0  0  0  0  0  0  0
   16.5590   -1.1620   50.8700 F   0  0  0  0  0  0  0  0  0  0  0  0
   18.2650   -0.8430   52.5140 C   0  0  0  0  0  0  0  0  0  0  0  0
   17.7660   -2.2950   53.3730 Cl  0  0  0  0  0  0  0  0  0  0  0  0
   19.3390   -0.1160   53.0290 C   0  0  0  0  0  3  0  0  0  0  0  0
   22.5340   -0.1950   54.2190 O   0  0  0  0  0  0  0  0  0  0  0  0
   22.7750   -1.2900   55.0800 C   0  0  0  0  0  1  0  0  0  0  0  0
   27.1110   -0.7660   53.1620 C   0  0  0  0  0  2  0  0  0  0  0  0
   27.5630   -0.5730   54.5040 N   0  0  0  0  0  0  0  0  0  0  0  0
   26.9680    0.0440   55.0650 H   0  0  0  0  0  0  0  0  0  0  0  0
   28.9530   -0.1300   54.4930 C   0  0  0  0  0  3  0  0  0  0  0  0
   29.7580   -0.9230   53.5080 C   0  0  0  0  0  1  0  0  0  0  0  0
   29.0490    1.3320   54.0990 C   0  0  0  0  0  1  0  0  0  0  0  0
  1  9  1  0  0  0  0
  1 20  1  0  0  0  0
  2  1  2  0  0  0  0
  3  7  1  0  0  0  0
  3  2  1  0  0  0  0
  4  5  1  0  0  0  0
  4  3  2  0  0  0  0
  5  6  2  0  0  0  0
  6  2  1  0  0  0  0
  6 10  1  0  0  0  0
  7  8  2  0  0  0  0
  8 22  1  0  0  0  0
  8  9  1  0  0  0  0
 10 11  1  0  0  0  0
 12 10  1  0  0  0  0
 12 19  1  0  0  0  0
 13 12  2  0  0  0  0
 14 13  1  0  0  0  0
 14 15  2  0  0  0  0
 15 17  1  0  0  0  0
 16 15  1  0  0  0  0
 17 19  2  0  0  0  0
 17 18  1  0  0  0  0
 20 21  1  0  0  0  0
 22 23  1  0  0  0  0
 23 24  1  0  0  0  0
 25 23  1  0  0  0  0
 26 25  1  0  0  0  0
 27 25  1  0  0  0  0
M  END
>  <TORSDO>
F 6

$$$$
