C:\Qe-CaDD\Project\Data\Stage_6_Molecular_Dynamics\ligands_top\out_12422_EGFR_extracted.pdbqt
 OpenBabel01082506443D

 31 34  0  0  1  0  0  0  0  0999 V2000
   25.9250   -0.0500   52.9820 C   0  0  0  0  0  0  0  0  0  0  0  0
   26.5560   -1.2410   52.6320 C   0  0  0  0  0  3  0  0  0  0  0  0
   27.8700   -1.5410   52.8540 C   0  0  0  0  0  3  0  0  0  0  0  0
   28.6710   -0.6050   53.4760 C   0  0  0  0  0  0  0  0  0  0  0  0
   30.0890   -1.0220   53.6680 C   0  0  0  0  0  1  0  0  0  0  0  0
   28.0960    0.5900   53.8430 C   0  0  0  0  0  0  0  0  0  0  0  0
   28.9820    1.5220   54.4880 C   0  0  0  0  0  0  0  0  0  0  0  0
   29.7000    2.2900   55.0060 N   0  0  0  0  0  0  0  0  0  0  0  0
   26.7820    0.8500   53.6040 C   0  0  0  0  0  3  0  0  0  0  0  0
   24.5500    0.1990   52.7150 N   0  0  0  0  0  0  0  0  0  0  0  0
   24.4160    0.7760   51.8670 H   0  0  0  0  0  0  0  0  0  0  0  0
   23.4440   -0.2750   53.4330 C   0  0  0  0  0  0  0  0  0  0  0  0
   23.7230   -0.9130   54.5940 N   0  0  0  0  0  0  0  0  0  0  0  0
   22.7260   -1.4010   55.3350 C   0  0  0  0  0  3  0  0  0  0  0  0
   21.4150   -1.2820   54.9630 N   0  0  0  0  0  0  0  0  0  0  0  0
   21.0660   -0.6650   53.8310 C   0  0  0  0  0  0  0  0  0  0  0  0
   19.7580   -0.4960   53.3940 C   0  0  0  0  0  3  0  0  0  0  0  0
   22.1170   -0.1680   53.0830 C   0  0  0  0  0  0  0  0  0  0  0  0
   19.4420    0.1700   52.2010 C   0  0  0  0  0  0  0  0  0  0  0  0
   20.5210    0.6500   51.4890 C   0  0  0  0  0  0  0  0  0  0  0  0
   21.8190    0.4870   51.9150 C   0  0  0  0  0  0  0  0  0  0  0  0
   20.1860    1.3000   50.3300 O   0  0  0  0  0  0  0  0  0  0  0  0
   22.7680    1.0220   51.0980 O   0  0  0  0  0  0  0  0  0  0  0  0
   22.4350    2.1030   50.2540 C   0  0  0  0  0  2  0  0  0  0  0  0
   21.1720    1.7670   49.4490 C   0  0  0  0  0  2  0  0  0  0  0  0
   18.1050    0.1930   52.0040 O   0  0  0  0  0  0  0  0  0  0  0  0
   17.2310   -0.7230   51.4640 C   0  0  1  0  0  3  0  0  0  0  0  0
   16.0940   -1.1410   52.3850 C   0  0  0  0  0  1  0  0  0  0  0  0
   16.6340   -0.1910   49.8570 S   0  0  0  0  0  0  0  0  0  0  0  0
   16.7760    1.5970   49.6170 C   0  0  0  0  0  2  0  0  0  0  0  0
   15.6970    2.3160   50.4350 C   0  0  0  0  0  1  0  0  0  0  0  0
  1  9  1  0  0  0  0
  2  3  1  0  0  0  0
  2  1  2  0  0  0  0
  3  4  2  0  0  0  0
  4  5  1  0  0  0  0
  4  6  1  0  0  0  0
  6  7  1  0  0  0  0
  7  8  3  0  0  0  0
  9  6  2  0  0  0  0
 10  1  1  0  0  0  0
 10 12  1  0  0  0  0
 11 10  1  0  0  0  0
 12 13  1  0  0  0  0
 13 14  2  0  0  0  0
 15 14  1  0  0  0  0
 16 15  2  0  0  0  0
 17 16  1  0  0  0  0
 18 12  2  0  0  0  0
 18 16  1  0  0  0  0
 19 17  2  0  0  0  0
 20 21  2  0  0  0  0
 20 19  1  0  0  0  0
 21 18  1  0  0  0  0
 22 20  1  0  0  0  0
 23 21  1  0  0  0  0
 24 23  1  0  0  0  0
 25 24  1  0  0  0  0
 25 22  1  0  0  0  0
 26 19  1  0  0  0  0
 27 26  1  0  0  0  0
 27 28  1  1  0  0  0
 29 27  1  0  0  0  0
 30 29  1  0  0  0  0
 30 31  1  0  0  0  0
M  END
>  <TORSDO>
F 6

$$$$
