C:\Qe-CaDD\Project\Data\Stage_6_Molecular_Dynamics\ligands_top\out_16588_EGFR_extracted.pdbqt
 OpenBabel01082506443D

 27 29  0  0  1  0  0  0  0  0999 V2000
   27.2210    0.7860   53.5560 C   0  0  1  0  0  3  0  0  0  0  0  0
   26.6720   -0.5930   53.0380 C   0  0  0  0  0  2  0  0  0  0  0  0
   25.3020   -0.3410   53.0750 C   0  0  0  0  0  2  0  0  0  0  0  0
   23.9760   -0.6290   52.8980 N   0  0  0  0  0  0  0  0  0  0  0  0
   23.3950    0.6450   53.4340 C   0  0  0  0  0  2  0  0  0  0  0  0
   24.0580    1.8270   52.7440 C   0  0  0  0  0  0  0  0  0  0  0  0
   23.5270    1.9640   51.5660 C   0  0  0  0  0  0  0  0  0  0  0  0
   22.5080    1.0190   51.1890 N   0  0  0  0  0  0  0  0  0  0  0  0
   21.9430    1.1550   49.9380 N   0  0  0  0  0  0  0  0  0  0  0  0
   22.2400    2.0440   49.0800 C   0  0  0  0  0  3  0  0  0  0  0  0
   23.2360    3.0230   49.3680 N   0  0  0  0  0  0  0  0  0  0  0  0
   23.7940    2.9370   50.5300 C   0  0  0  0  0  0  0  0  0  0  0  0
   25.1830    2.4480   53.4530 C   0  0  0  0  0  2  0  0  0  0  0  0
   26.5330    1.9840   53.0030 C   0  0  0  0  0  2  0  0  0  0  0  0
   23.5320   -1.4120   53.3720 H   0  0  0  0  0  0  0  0  0  0  0  0
   22.0790    0.2070   51.6260 H   0  0  0  0  0  0  0  0  0  0  0  0
   24.7340    3.9490   50.7770 N   0  0  0  0  0  0  0  0  0  0  0  0
   24.6580    4.2980   51.7520 H   0  0  0  0  0  0  0  0  0  0  0  0
   25.6960    4.5340   49.9840 C   0  0  0  0  0  0  0  0  0  0  0  0
   25.5700    5.9030   49.6870 C   0  0  0  0  0  3  0  0  0  0  0  0
   26.4380    6.6410   48.9220 C   0  0  0  0  0  3  0  0  0  0  0  0
   27.5420    6.0780   48.3620 C   0  0  0  0  0  3  0  0  0  0  0  0
   27.7330    4.7310   48.6110 C   0  0  0  0  0  3  0  0  0  0  0  0
   26.8260    4.0170   49.3960 C   0  0  0  0  0  3  0  0  0  0  0  0
   27.3460    0.7860   54.9630 N   0  0  0  0  0  0  0  0  0  0  0  0
   27.0170    1.7050   55.3330 H   0  0  0  0  0  0  0  0  0  0  0  0
   26.7530    0.0530   55.3980 H   0  0  0  0  0  0  0  0  0  0  0  0
  1 25  1  1  0  0  0
  2  3  1  0  0  0  0
  2  1  1  0  0  0  0
  4  3  1  0  0  0  0
  4 15  1  0  0  0  0
  4  5  1  0  0  0  0
  6  5  1  0  0  0  0
  6 13  1  0  0  0  0
  7  6  2  0  0  0  0
  8  7  1  0  0  0  0
  8 16  1  0  0  0  0
  9  8  1  0  0  0  0
 10 11  1  0  0  0  0
 10  9  2  0  0  0  0
 11 12  2  0  0  0  0
 12 17  1  0  0  0  0
 12  7  1  0  0  0  0
 14 13  1  0  0  0  0
 14  1  1  0  0  0  0
 17 18  1  0  0  0  0
 19 17  1  0  0  0  0
 20 19  1  0  0  0  0
 21 20  2  0  0  0  0
 22 23  2  0  0  0  0
 22 21  1  0  0  0  0
 23 24  1  0  0  0  0
 24 19  2  0  0  0  0
 25 26  1  0  0  0  0
 25 27  1  0  0  0  0
M  END
>  <TORSDO>
F 3

$$$$
