C:\Qe-CaDD\Project\Data\Stage_6_Molecular_Dynamics\ligands_top\out_20766_EGFR_extracted.pdbqt
 OpenBabel01082506443D

 23 24  0  0  1  0  0  0  0  0999 V2000
   24.8530    0.7640   53.3390 C   0  0  0  0  0  0  0  0  0  0  0  0
   23.6160    0.1950   53.5590 C   0  0  0  0  0  3  0  0  0  0  0  0
   23.3610   -0.7810   54.4520 N   0  0  0  0  0  0  0  0  0  0  0  0
   24.3830   -1.2600   55.2060 C   0  0  0  0  0  3  0  0  0  0  0  0
   25.5970   -0.7200   55.0080 N   0  0  0  0  0  0  0  0  0  0  0  0
   25.8640    0.2490   54.1270 C   0  0  0  0  0  0  0  0  0  0  0  0
   27.1870    0.7440   54.0040 N   0  0  0  0  0  0  0  0  0  0  0  0
   27.6170    1.5480   54.4950 H   0  0  0  0  0  0  0  0  0  0  0  0
   28.0990    0.1140   53.1170 C   0  0  1  0  0  3  0  0  0  0  0  0
   29.4560   -0.0930   53.7420 C   0  0  0  0  0  3  0  0  0  0  0  0
   29.7980   -1.3710   53.8070 C   0  0  0  0  0  3  0  0  0  0  0  0
   28.7050   -2.1490   53.2300 C   0  0  0  0  0  0  0  0  0  0  0  0
   27.7510   -1.3140   52.8430 C   0  0  0  0  0  3  0  0  0  0  0  0
   28.6750   -3.5320   53.1110 O   0  0  0  0  0  0  0  0  0  0  0  0
   29.2060   -4.0330   52.3960 H   0  0  0  0  0  0  0  0  0  0  0  0
   25.0060    1.8160   52.3390 C   0  0  2  0  0  3  0  0  0  0  0  0
   23.7100    2.2630   51.7200 C   0  0  0  0  0  0  0  0  0  0  0  0
   23.1370    3.4420   52.0210 C   0  0  0  0  0  3  0  0  0  0  0  0
   23.4550    4.5830   52.9050 C   0  0  0  0  0  1  0  0  0  0  0  0
   23.0880    1.4150   50.7990 O   0  0  0  0  0  0  0  0  0  0  0  0
   22.1580    1.8710   49.8410 C   0  0  0  0  0  1  0  0  0  0  0  0
   25.9460    1.5240   51.3630 O   0  0  0  0  0  0  0  0  0  0  0  0
   26.5340    2.6270   50.8060 C   0  0  0  0  0  1  0  0  0  0  0  0
  1  2  2  0  0  0  0
  1  6  1  0  0  0  0
  2  3  1  0  0  0  0
  3  4  2  0  0  0  0
  5  4  1  0  0  0  0
  6  5  2  0  0  0  0
  7  6  1  0  0  0  0
  7  8  1  0  0  0  0
  9 10  1  0  0  0  0
  9  7  1  1  0  0  0
 10 11  2  0  0  0  0
 12 11  1  0  0  0  0
 13  9  1  0  0  0  0
 13 12  2  0  0  0  0
 14 12  1  0  0  0  0
 15 14  1  0  0  0  0
 16 22  1  6  0  0  0
 16  1  1  0  0  0  0
 17 18  2  0  0  0  0
 17 16  1  0  0  0  0
 18 19  1  0  0  0  0
 20 17  1  0  0  0  0
 21 20  1  0  0  0  0
 23 22  1  0  0  0  0
M  END
>  <TORSDO>
F 7

$$$$
