C:\Qe-CaDD\Project\Data\Stage_6_Molecular_Dynamics\ligands_top\out_12023_EGFR_extracted.pdbqt
 OpenBabel01082506443D

 21 22  0  0  1  0  0  0  0  0999 V2000
   25.5460    0.4230   53.9610 C   0  0  2  0  0  3  0  0  0  0  0  0
   26.0710   -0.0410   55.2290 C   0  0  0  0  0  0  0  0  0  0  0  0
   27.2460    0.3910   55.4860 O   0  0  0  0  0  0  0  0  0  0  0  0
   25.1200   -0.8700   55.8650 N   0  0  0  0  0  0  0  0  0  0  0  0
   24.0060   -0.9210   55.0050 C   0  0  0  0  0  0  0  0  0  0  0  0
   22.8690   -1.6460   55.2940 C   0  0  0  0  0  3  0  0  0  0  0  0
   21.8140   -1.6610   54.4060 C   0  0  0  0  0  3  0  0  0  0  0  0
   21.9290   -0.9400   53.2390 C   0  0  0  0  0  3  0  0  0  0  0  0
   23.0910   -0.2410   53.0180 C   0  0  0  0  0  3  0  0  0  0  0  0
   24.1910   -0.1660   53.8390 C   0  0  0  0  0  0  0  0  0  0  0  0
   25.3510   -1.2840   56.7870 H   0  0  0  0  0  0  0  0  0  0  0  0
   26.3990    0.1590   52.7950 C   0  0  0  0  0  0  0  0  0  0  0  0
   26.6270    0.9720   51.7660 C   0  0  0  0  0  3  0  0  0  0  0  0
   27.1400   -1.1250   52.7960 C   0  0  0  0  0  3  0  0  0  0  0  0
   28.3720   -1.4560   53.0260 C   0  0  0  0  0  0  0  0  0  0  0  0
   28.9370   -2.8460   52.9710 C   0  0  0  0  0  1  0  0  0  0  0  0
   29.8230   -0.5480   53.5070 Cl  0  0  0  0  0  0  0  0  0  0  0  0
   26.3350    2.2340   51.1240 C   0  0  0  0  0  2  0  0  0  0  0  0
   24.8650    2.5220   50.8920 C   0  0  0  0  0  3  0  0  0  0  0  0
   24.6220    3.2930   49.6360 C   0  0  0  0  0  1  0  0  0  0  0  0
   24.3640    3.3050   52.0860 C   0  0  0  0  0  1  0  0  0  0  0  0
  1 12  1  6  0  0  0
  1  2  1  0  0  0  0
  2  3  2  0  0  0  0
  2  4  1  0  0  0  0
  4 11  1  0  0  0  0
  5  6  1  0  0  0  0
  5  4  1  0  0  0  0
  7  6  2  0  0  0  0
  8  7  1  0  0  0  0
  9  8  2  0  0  0  0
  9 10  1  0  0  0  0
 10  1  1  0  0  0  0
 10  5  2  0  0  0  0
 12 14  1  0  0  0  0
 13 12  2  0  0  0  0
 14 15  2  0  0  0  0
 15 17  1  0  0  0  0
 16 15  1  0  0  0  0
 18 13  1  0  0  0  0
 19 18  1  0  0  0  0
 19 21  1  0  0  0  0
 20 19  1  0  0  0  0
M  END
>  <TORSDO>
F 4

$$$$
