C:\Qe-CaDD\Project\Data\Stage_6_Molecular_Dynamics\ligands_top\out_10829_EGFR_extracted.pdbqt
 OpenBabel01082506443D

 25 27  0  0  0  0  0  0  0  0999 V2000
   21.8980    0.5130   52.0710 C   0  0  0  0  0  0  0  0  0  0  0  0
   20.5460    0.3360   52.1440 N   0  0  0  0  0  0  0  0  0  0  0  0
   20.0130   -0.3500   53.1950 C   0  0  0  0  0  3  0  0  0  0  0  0
   20.7530   -0.8810   54.1950 N   0  0  0  0  0  0  0  0  0  0  0  0
   22.0760   -0.7020   54.1140 C   0  0  0  0  0  0  0  0  0  0  0  0
   22.9870   -1.1890   55.0530 C   0  0  0  0  0  3  0  0  0  0  0  0
   24.3530   -0.9960   54.9420 C   0  0  0  0  0  0  0  0  0  0  0  0
   24.8730   -0.2920   53.8590 C   0  0  0  0  0  0  0  0  0  0  0  0
   24.0060    0.2040   52.9090 C   0  0  0  0  0  3  0  0  0  0  0  0
   22.6710   -0.0190   53.0770 C   0  0  0  0  0  0  0  0  0  0  0  0
   22.2390    1.2820   50.9200 N   0  0  0  0  0  0  0  0  0  0  0  0
   21.4790    0.7860   49.8000 C   0  0  0  0  0  2  0  0  0  0  0  0
   21.6150    1.3130   48.5920 C   0  0  0  0  0  3  0  0  0  0  0  0
   22.5310    2.4140   48.3250 C   0  0  0  0  0  3  0  0  0  0  0  0
   23.1960    2.8220   49.3940 C   0  0  0  0  0  0  0  0  0  0  0  0
   24.1660    3.9350   49.2800 C   0  0  0  0  0  1  0  0  0  0  0  0
   23.1760    2.3780   50.7990 C   0  0  0  0  0  0  0  0  0  0  0  0
   22.7820    3.5160   51.7340 C   0  0  0  0  0  1  0  0  0  0  0  0
   26.3450   -0.1120   53.7820 C   0  0  0  0  0  2  0  0  0  0  0  0
   26.9130    0.5300   54.9270 N   0  0  0  0  0  0  0  0  0  0  0  0
   27.7150    1.1210   54.6580 H   0  0  0  0  0  0  0  0  0  0  0  0
   26.1750    1.1620   55.3350 H   0  0  0  0  0  0  0  0  0  0  0  0
   25.2170   -1.4900   55.8860 O   0  0  0  0  0  0  0  0  0  0  0  0
   25.2130   -1.2260   57.1840 O   0  0  0  0  0  0  0  0  0  0  0  0
   25.8690   -0.5730   57.4790 H   0  0  0  0  0  0  0  0  0  0  0  0
  1  2  2  0  0  0  0
  1 10  1  0  0  0  0
  2  3  1  0  0  0  0
  3  4  2  0  0  0  0
  5  4  1  0  0  0  0
  5  6  1  0  0  0  0
  7  6  2  0  0  0  0
  7 23  1  0  0  0  0
  8  7  1  0  0  0  0
  9 10  1  0  0  0  0
  9  8  2  0  0  0  0
 10  5  2  0  0  0  0
 11  1  1  0  0  0  0
 12 11  1  0  0  0  0
 13 12  1  0  0  0  0
 14 13  2  0  0  0  0
 14 15  1  0  0  0  0
 15 17  2  0  0  0  0
 16 15  1  0  0  0  0
 17 11  1  0  0  0  0
 17 18  1  0  0  0  0
 19  8  1  0  0  0  0
 19 20  1  0  0  0  0
 20 22  1  0  0  0  0
 21 20  1  0  0  0  0
 23 24  1  0  0  0  0
 24 25  1  0  0  0  0
M  END
>  <TORSDO>
F 5

$$$$
