C:\Qe-CaDD\Project\Data\Stage_6_Molecular_Dynamics\ligands_top\out_22650_EGFR_extracted.pdbqt
 OpenBabel01082506443D

 34 36  0  0  0  0  0  0  0  0999 V2000
   22.3520    3.2410   47.4750 N   0  0  0  0  0  0  0  0  0  0  0  0
   22.3010    2.6440   48.4570 C   0  0  0  0  0  0  0  0  0  0  0  0
   22.2450    1.9110   49.6880 C   0  0  0  0  0  0  0  0  0  0  0  0
   21.4240    0.8810   49.8930 N   0  0  0  0  0  0  0  0  0  0  0  0
   21.3870    0.2090   51.0480 C   0  0  0  0  0  3  0  0  0  0  0  0
   22.1840    0.5440   52.0720 N   0  0  0  0  0  0  0  0  0  0  0  0
   23.0630    1.5700   51.9950 C   0  0  0  0  0  0  0  0  0  0  0  0
   23.0310    2.1960   50.7790 C   0  0  0  0  0  0  0  0  0  0  0  0
   23.9380    3.3010   50.5480 C   0  0  0  0  0  2  0  0  0  0  0  0
   25.1250    3.7530   50.3770 C   0  0  0  0  0  2  0  0  0  0  0  0
   26.4510    3.9550   50.0100 N   0  0  0  0  0  0  0  0  0  0  0  0
   26.6620    4.9780   49.0460 C   0  0  0  0  0  0  0  0  0  0  0  0
   25.6170    5.5390   48.6830 O   0  0  0  0  0  0  0  0  0  0  0  0
   27.2120    3.3820   50.4290 H   0  0  0  0  0  0  0  0  0  0  0  0
   27.9800    5.2790   48.5830 C   0  0  0  0  0  0  0  0  0  0  0  0
   29.0810    5.5130   48.1880 C   0  0  0  0  0  0  0  0  0  0  0  0
   30.4370    5.7770   47.7090 C   0  0  0  0  0  2  0  0  0  0  0  0
   31.4570    5.7320   48.8230 C   0  0  0  0  0  2  0  0  0  0  0  0
   32.5480    4.8610   48.5890 N   0  0  0  0  0  0  0  0  0  0  0  0
   33.7580    5.6040   48.3920 C   0  0  0  0  0  2  0  0  0  0  0  0
   34.6710    4.9490   47.3750 C   0  0  0  0  0  2  0  0  0  0  0  0
   34.6880    3.4480   47.4800 C   0  0  0  0  0  2  0  0  0  0  0  0
   33.2920    2.8520   47.4090 C   0  0  0  0  0  2  0  0  0  0  0  0
   32.2510    3.9620   47.5090 C   0  0  0  0  0  2  0  0  0  0  0  0
   23.8640    1.8520   53.1200 N   0  0  0  0  0  0  0  0  0  0  0  0
   23.5930    2.4270   53.9570 H   0  0  0  0  0  0  0  0  0  0  0  0
   25.1930    1.2890   53.1150 C   0  0  0  0  0  0  0  0  0  0  0  0
   25.3700   -0.0390   52.7810 C   0  0  0  0  0  3  0  0  0  0  0  0
   26.6180   -0.6680   52.7390 C   0  0  0  0  0  3  0  0  0  0  0  0
   27.7320    0.1160   53.0570 C   0  0  0  0  0  0  0  0  0  0  0  0
   28.9760   -0.4290   53.0370 F   0  0  0  0  0  0  0  0  0  0  0  0
   27.5280    1.4380   53.3860 C   0  0  0  0  0  0  0  0  0  0  0  0
   28.8810    2.4750   53.7910 Cl  0  0  0  0  0  0  0  0  0  0  0  0
   26.3120    2.0560   53.4280 C   0  0  0  0  0  3  0  0  0  0  0  0
  1  2  3  0  0  0  0
  2  3  1  0  0  0  0
  3  4  2  0  0  0  0
  3  8  1  0  0  0  0
  4  5  1  0  0  0  0
  5  6  2  0  0  0  0
  7  6  1  0  0  0  0
  7 25  1  0  0  0  0
  8  7  2  0  0  0  0
  9  8  1  0  0  0  0
 10  9  1  0  0  0  0
 11 10  1  0  0  0  0
 11 14  1  0  0  0  0
 12 11  1  0  0  0  0
 13 12  2  0  0  0  0
 15 12  1  0  0  0  0
 16 15  3  0  0  0  0
 17 16  1  0  0  0  0
 17 18  1  0  0  0  0
 19 18  1  0  0  0  0
 20 19  1  0  0  0  0
 21 22  1  0  0  0  0
 21 20  1  0  0  0  0
 23 22  1  0  0  0  0
 23 24  1  0  0  0  0
 24 19  1  0  0  0  0
 25 26  1  0  0  0  0
 27 25  1  0  0  0  0
 27 34  1  0  0  0  0
 28 27  2  0  0  0  0
 29 28  1  0  0  0  0
 29 30  2  0  0  0  0
 30 32  1  0  0  0  0
 31 30  1  0  0  0  0
 32 34  2  0  0  0  0
 32 33  1  0  0  0  0
M  END
>  <TORSDO>
F 9

$$$$
