C:\Qe-CaDD\Project\Data\Stage_6_Molecular_Dynamics\ligands_top\out_21832_EGFR_extracted.pdbqt
 OpenBabel01082506443D

 25 27  0  0  0  0  0  0  0  0999 V2000
   19.1530    0.6670   50.8230 N   0  0  0  0  0  0  0  0  0  0  0  0
   19.9010    0.3140   51.6440 C   0  0  0  0  0  0  0  0  0  0  0  0
   20.8330   -0.1010   52.6430 C   0  0  0  0  0  0  0  0  0  0  0  0
   20.3880   -0.6930   53.8230 C   0  0  0  0  0  3  0  0  0  0  0  0
   21.2460   -1.0960   54.7870 N   0  0  0  0  0  0  0  0  0  0  0  0
   22.5870   -0.9530   54.6710 C   0  0  0  0  0  0  0  0  0  0  0  0
   23.4330   -1.3780   55.6770 C   0  0  0  0  0  3  0  0  0  0  0  0
   24.8070   -1.2000   55.4920 C   0  0  0  0  0  3  0  0  0  0  0  0
   25.2860   -0.6130   54.3250 C   0  0  0  0  0  0  0  0  0  0  0  0
   24.4270   -0.1930   53.3300 C   0  0  0  0  0  3  0  0  0  0  0  0
   23.0710   -0.3720   53.5170 C   0  0  0  0  0  0  0  0  0  0  0  0
   22.2080    0.0450   52.5240 C   0  0  0  0  0  0  0  0  0  0  0  0
   22.6270    0.6550   51.3040 N   0  0  0  0  0  0  0  0  0  0  0  0
   22.6710    0.2200   50.3580 H   0  0  0  0  0  0  0  0  0  0  0  0
   23.0280    2.0090   51.3990 C   0  0  0  0  0  0  0  0  0  0  0  0
   22.4080    2.9010   52.2290 C   0  0  0  0  0  3  0  0  0  0  0  0
   22.7470    4.2140   52.3630 C   0  0  0  0  0  3  0  0  0  0  0  0
   23.7960    4.6810   51.6050 C   0  0  0  0  0  3  0  0  0  0  0  0
   24.4770    3.8520   50.7430 C   0  0  0  0  0  0  0  0  0  0  0  0
   25.9290    4.5360   49.7070 Br  0  0  0  0  0  0  0  0  0  0  0  0
   24.0810    2.5390   50.6580 C   0  0  0  0  0  3  0  0  0  0  0  0
   26.7130   -0.4640   54.2100 N   0  0  0  0  0  2  0  0  0  0  0  0
   27.2110    0.6850   53.9120 C   0  0  0  0  0  0  0  0  0  0  0  0
   27.8870    1.6630   53.4330 C   0  0  0  0  0  0  0  0  0  0  0  0
   28.5220    2.5870   52.8800 O   0  0  0  0  0  1  0  0  0  0  0  0
  1  2  3  0  0  0  0
  2  3  1  0  0  0  0
  3  4  1  0  0  0  0
  4  5  2  0  0  0  0
  6  5  1  0  0  0  0
  6  7  1  0  0  0  0
  8  7  2  0  0  0  0
  9  8  1  0  0  0  0
 10 11  1  0  0  0  0
 10  9  2  0  0  0  0
 11  6  2  0  0  0  0
 12  3  2  0  0  0  0
 12 11  1  0  0  0  0
 13 15  1  0  0  0  0
 13 12  1  0  0  0  0
 14 13  1  0  0  0  0
 15 16  1  0  0  0  0
 16 17  2  0  0  0  0
 18 17  1  0  0  0  0
 19 18  2  0  0  0  0
 20 19  1  0  0  0  0
 21 19  1  0  0  0  0
 21 15  2  0  0  0  0
 22  9  1  0  0  0  0
 23 22  1  0  0  0  0
 24 23  3  0  0  0  0
 25 24  1  0  0  0  0
M  END
>  <TORSDO>
F 4

$$$$
