C:\Qe-CaDD\Project\Data\Stage_6_Molecular_Dynamics\ligands_top\out_11901_EGFR_extracted.pdbqt
 OpenBabel01082506443D

 30 35  0  0  1  0  0  0  0  0999 V2000
   24.2500    2.3350   50.9720 C   0  0  2  0  0  3  0  0  0  0  0  0
   24.1240    1.3490   51.9770 C   0  0  0  0  0  0  0  0  0  0  0  0
   22.9020    1.2690   52.6680 C   0  0  0  0  0  3  0  0  0  0  0  0
   22.1040    2.1990   52.1900 C   0  0  2  0  0  0  0  0  0  0  0  0
   20.7970    2.3310   52.4600 C   0  0  2  0  0  0  0  0  0  0  0  0
   20.2720    1.1200   52.9460 C   0  0  0  0  0  2  0  0  0  0  0  0
   20.4320    0.4010   51.7010 C   0  0  0  0  0  2  0  0  0  0  0  0
   21.1710    0.6370   50.5140 C   0  0  0  0  0  2  0  0  0  0  0  0
   21.4350    1.5780   49.4910 C   0  0  0  0  0  2  0  0  0  0  0  0
   21.9900    2.8110   49.0980 C   0  0  1  0  0  3  0  0  0  0  0  0
   21.2920    3.7780   47.6230 Br  0  0  0  0  0  0  0  0  0  0  0  0
   23.0740    3.6100   49.6150 C   0  0  0  0  0  2  0  0  0  0  0  0
   23.0790    3.0210   50.9110 C   0  0  2  0  0  0  0  0  0  0  0  0
   21.8210    3.2070   51.3850 C   0  0  2  0  0  0  0  0  0  0  0  0
   20.8980    4.0160   50.9670 N   0  0  0  0  0  0  0  0  0  0  0  0
   19.6260    3.9930   51.3840 C   0  0  0  0  0  3  0  0  0  0  0  0
   19.6080    2.9410   52.2890 N   0  0  0  0  0  2  0  0  0  0  0  0
   25.1410    0.4650   52.3150 N   0  0  0  0  0  0  0  0  0  0  0  0
   26.0440    0.8210   53.3550 C   0  0  0  0  0  0  0  0  0  0  0  0
   25.7590    1.9660   53.8420 O   0  0  0  0  0  0  0  0  0  0  0  0
   25.2210   -0.4400   51.8000 H   0  0  0  0  0  0  0  0  0  0  0  0
   27.1420   -0.0630   53.7650 C   0  0  1  0  0  3  0  0  0  0  0  0
   27.1480   -1.4060   53.0680 C   0  0  0  0  0  2  0  0  0  0  0  0
   28.4630   -1.8720   53.3390 O   0  0  0  0  0  0  0  0  0  0  0  0
   29.2850   -0.7580   53.6070 C   0  0  0  0  0  0  0  0  0  0  0  0
   30.5140   -0.9540   53.8970 O   0  0  0  0  0  0  0  0  0  0  0  0
   28.4580    0.4160   53.4740 N   0  0  0  0  0  0  0  0  0  0  0  0
   28.9430    1.3110   53.2140 H   0  0  0  0  0  0  0  0  0  0  0  0
   25.4010    2.5110   50.2170 O   0  0  0  0  0  0  0  0  0  0  0  0
   26.5160    3.2770   50.6060 C   0  0  0  0  0  1  0  0  0  0  0  0
  1 29  1  6  0  0  0
  1  2  1  0  0  0  0
  2 18  1  0  0  0  0
  2  3  2  0  0  0  0
  4  5  1  0  0  0  0
  4  3  1  1  0  0  0
  5  6  1  6  0  0  0
  7  6  1  0  0  0  0
  8  7  1  0  0  0  0
  9  8  1  0  0  0  0
 10 11  1  1  0  0  0
 10  9  1  0  0  0  0
 10 12  1  0  0  0  0
 13 12  1  6  0  0  0
 13  1  1  0  0  0  0
 13 14  1  0  0  0  0
 13  4  1  0  0  0  0
 14 15  1  1  0  0  0
 14  4  1  0  0  0  0
 14  5  1  0  0  0  0
 15 16  2  0  0  0  0
 16 17  1  0  0  0  0
 17  5  1  0  0  0  0
 18 19  1  0  0  0  0
 19 20  2  0  0  0  0
 21 18  1  0  0  0  0
 22 19  1  6  0  0  0
 23 24  1  0  0  0  0
 23 22  1  0  0  0  0
 24 25  1  0  0  0  0
 25 26  2  0  0  0  0
 27 25  1  0  0  0  0
 27 22  1  0  0  0  0
 28 27  1  0  0  0  0
 29 30  1  0  0  0  0
M  END
>  <TORSDO>
F 3

$$$$
