C:\Qe-CaDD\Project\Data\Stage_6_Molecular_Dynamics\ligands_top\out_12456_EGFR_extracted.pdbqt
 OpenBabel01082506443D

 28 31  0  0  0  0  0  0  0  0999 V2000
   21.6350    3.9310   45.2100 C   0  0  0  0  0  3  0  0  0  0  0  0
   21.2830    4.4550   46.2370 C   0  0  0  0  0  0  0  0  0  0  0  0
   20.8830    5.0850   47.4670 C   0  0  0  0  0  2  0  0  0  0  0  0
   20.7680    4.3880   48.5850 C   0  0  0  0  0  0  0  0  0  0  0  0
   21.0510    2.9600   48.5680 C   0  0  0  0  0  3  0  0  0  0  0  0
   20.9270    2.2830   49.7070 C   0  0  0  0  0  3  0  0  0  0  0  0
   20.5180    2.8800   51.0090 C   0  0  0  0  0  0  0  0  0  0  0  0
   20.2650    4.3260   50.8770 C   0  0  0  0  0  3  0  0  0  0  0  0
   20.3610    5.0710   49.8040 C   0  0  0  0  0  3  0  0  0  0  0  0
   21.5660    2.6090   51.9500 N   0  0  0  0  0  2  0  0  0  0  0  0
   22.6650    1.4380   51.7730 P   0  0  0  0  0  2  0  0  0  0  0  0
   24.3990    1.9910   51.5170 C   0  0  0  0  0  0  0  0  0  0  0  0
   24.6720    2.9720   50.6230 N   0  0  0  0  0  0  0  0  0  0  0  0
   25.9490    3.3590   50.4520 C   0  0  0  0  0  3  0  0  0  0  0  0
   26.9670    2.7910   51.1530 N   0  0  0  0  0  0  0  0  0  0  0  0
   26.6730    1.8140   52.0380 C   0  0  0  0  0  0  0  0  0  0  0  0
   27.6980    1.2410   52.7450 C   0  0  0  0  0  3  0  0  0  0  0  0
   25.3870    1.3760   52.2560 C   0  0  0  0  0  0  0  0  0  0  0  0
   27.4950    0.2390   53.6680 C   0  0  0  0  0  0  0  0  0  0  0  0
   26.2030   -0.2110   53.8950 C   0  0  0  0  0  0  0  0  0  0  0  0
   25.1540    0.3710   53.1770 C   0  0  0  0  0  0  0  0  0  0  0  0
   25.7740   -1.1990   54.7710 O   0  0  0  0  0  0  0  0  0  0  0  0
   23.8060    0.0370   53.2870 O   0  0  0  0  0  0  0  0  0  0  0  0
   23.4000   -0.8880   54.2890 C   0  0  0  0  0  2  0  0  0  0  0  0
   24.4810   -1.0970   55.3180 C   0  0  0  0  0  2  0  0  0  0  0  0
   28.4300   -0.4170   54.4380 O   0  0  0  0  0  0  0  0  0  0  0  0
   29.5920   -1.0510   53.8930 C   0  0  0  0  0  2  0  0  0  0  0  0
   29.2300   -2.3720   53.2610 C   0  0  0  0  0  1  0  0  0  0  0  0
  1  2  3  0  0  0  0
  2  3  1  0  0  0  0
  3  4  1  0  0  0  0
  4  9  1  0  0  0  0
  5  4  2  0  0  0  0
  5  6  1  0  0  0  0
  6  7  2  0  0  0  0
  7 10  1  0  0  0  0
  8  7  1  0  0  0  0
  9  8  2  0  0  0  0
 11 10  1  0  0  0  0
 12 11  1  0  0  0  0
 12 18  1  0  0  0  0
 13 12  2  0  0  0  0
 14 13  1  0  0  0  0
 14 15  2  0  0  0  0
 15 16  1  0  0  0  0
 16 18  2  0  0  0  0
 16 17  1  0  0  0  0
 17 19  2  0  0  0  0
 18 21  1  0  0  0  0
 19 20  1  0  0  0  0
 19 26  1  0  0  0  0
 20 22  1  0  0  0  0
 21 23  1  0  0  0  0
 21 20  2  0  0  0  0
 22 25  1  0  0  0  0
 23 24  1  0  0  0  0
 24 25  1  0  0  0  0
 27 26  1  0  0  0  0
 28 27  1  0  0  0  0
M  END
>  <TORSDO>
F 5

$$$$
