C:\Qe-CaDD\Project\Data\Stage_6_Molecular_Dynamics\ligands_top\out_10585_EGFR_extracted.pdbqt
 OpenBabel01082506443D

 32 35  0  0  1  0  0  0  0  0999 V2000
   23.7760    1.0000   52.9340 C   0  0  0  0  0  1  0  0  0  0  0  0
   24.6040    2.2760   53.0500 C   0  0  2  0  0  3  0  0  0  0  0  0
   23.7080    3.3440   52.8570 O   0  0  0  0  0  0  0  0  0  0  0  0
   23.8030    4.2280   51.8270 C   0  0  0  0  0  0  0  0  0  0  0  0
   22.8560    5.1980   51.7800 N   0  0  0  0  0  0  0  0  0  0  0  0
   22.8520    6.1230   50.8100 C   0  0  0  0  0  2  0  0  0  0  0  0
   23.8270    6.0310   49.9020 N   0  0  0  0  0  0  0  0  0  0  0  0
   24.7890    5.1300   49.8620 C   0  0  0  0  0  0  0  0  0  0  0  0
   24.7770    4.1910   50.8630 C   0  0  1  0  0  3  0  0  0  0  0  0
   25.7210    3.1090   51.0310 C   0  0  0  0  0  3  0  0  0  0  0  0
   25.6750    2.2050   52.0260 C   0  0  0  0  0  0  0  0  0  0  0  0
   26.6990    1.2190   52.0240 N   0  0  0  0  0  0  0  0  0  0  0  0
   27.6380    1.7200   52.0050 H   0  0  0  0  0  0  0  0  0  0  0  0
   26.8130   -0.2240   52.0310 C   0  0  0  0  0  2  0  0  0  0  0  0
   27.0680   -0.8250   53.3720 C   0  0  1  0  0  3  0  0  0  0  0  0
   28.0140   -1.9120   53.3440 N   0  0  0  0  0  0  0  0  0  0  0  0
   29.3870   -1.5560   53.3980 C   0  0  0  0  0  2  0  0  0  0  0  0
   27.8480   -2.5500   52.5250 H   0  0  0  0  0  0  0  0  0  0  0  0
   29.7160   -0.1170   53.5520 C   0  0  0  0  0  2  0  0  0  0  0  0
   28.7980    0.6230   54.2890 O   0  0  0  0  0  0  0  0  0  0  0  0
   27.4990    0.1760   54.3650 C   0  0  0  0  0  0  0  0  0  0  0  0
   26.6780    0.5900   55.2470 O   0  0  0  0  0  0  0  0  0  0  0  0
   25.8090    5.0510   48.8870 N   0  0  0  0  0  0  0  0  0  0  0  0
   25.8010    4.3260   48.1460 H   0  0  0  0  0  0  0  0  0  0  0  0
   26.9700    5.8450   48.6910 C   0  0  0  0  0  0  0  0  0  0  0  0
   27.0540    7.2180   48.7550 C   0  0  0  0  0  3  0  0  0  0  0  0
   28.2070    7.9330   48.5570 C   0  0  0  0  0  3  0  0  0  0  0  0
   29.3880    7.2830   48.2720 C   0  0  0  0  0  0  0  0  0  0  0  0
   30.4610    8.0730   48.0940 F   0  0  0  0  0  0  0  0  0  0  0  0
   29.3410    5.9090   48.1990 C   0  0  0  0  0  0  0  0  0  0  0  0
   30.8980    5.1590   47.8290 Cl  0  0  0  0  0  0  0  0  0  0  0  0
   28.1640    5.2210   48.4040 C   0  0  0  0  0  3  0  0  0  0  0  0
  2  1  1  6  0  0  0
  3  2  1  0  0  0  0
  4  3  1  0  0  0  0
  5  4  2  0  0  0  0
  6  5  1  0  0  0  0
  7  6  1  0  0  0  0
  8  7  2  0  0  0  0
  8  9  1  0  0  0  0
  9 10  1  1  0  0  0
  9  4  1  0  0  0  0
 10 11  2  0  0  0  0
 11  2  1  0  0  0  0
 12 11  1  0  0  0  0
 12 14  1  0  0  0  0
 13 12  1  0  0  0  0
 15 14  1  6  0  0  0
 15 21  1  0  0  0  0
 16 15  1  0  0  0  0
 16 17  1  0  0  0  0
 17 19  1  0  0  0  0
 18 16  1  0  0  0  0
 19 20  1  0  0  0  0
 20 21  1  0  0  0  0
 21 22  2  0  0  0  0
 23  8  1  0  0  0  0
 24 23  1  0  0  0  0
 25 26  1  0  0  0  0
 25 23  1  0  0  0  0
 27 26  2  0  0  0  0
 28 27  1  0  0  0  0
 29 28  1  0  0  0  0
 30 28  2  0  0  0  0
 30 32  1  0  0  0  0
 31 30  1  0  0  0  0
 32 25  2  0  0  0  0
M  END
>  <TORSDO>
F 5

$$$$
