C:\Qe-CaDD\Project\Data\Stage_6_Molecular_Dynamics\ligands_top\out_20192_EGFR_extracted.pdbqt
 OpenBabel01082506443D

 21 22  0  0  1  0  0  0  0  0999 V2000
   26.0390    4.8200   49.1360 C   0  0  0  0  0  0  0  0  0  0  0  0
   24.7730    5.2330   48.9990 C   0  0  0  0  0  3  0  0  0  0  0  0
   23.5510    4.5650   49.4580 C   0  0  0  0  0  3  0  0  0  0  0  0
   23.4480    3.6750   50.3940 N   0  0  0  0  0  0  0  0  0  0  0  0
   24.3900    3.0530   51.2660 C   0  0  2  0  0  0  0  0  0  0  0  0
   24.5010    3.7420   52.4570 F   0  0  0  0  0  0  0  0  0  0  0  0
   25.7330    2.8800   50.6780 C   0  0  0  0  0  3  0  0  0  0  0  0
   26.4650    3.5720   49.7970 C   0  0  0  0  0  3  0  0  0  0  0  0
   23.7180    1.4000   51.6890 S   0  0  0  0  0  0  0  0  0  0  0  0
   24.3330    0.8960   53.2770 N   0  0  0  0  0  0  0  0  0  0  0  0
   23.8330    0.9360   54.1920 H   0  0  0  0  0  0  0  0  0  0  0  0
   25.6580    0.3800   53.3010 C   0  0  0  0  0  0  0  0  0  0  0  0
   25.9780   -0.8800   52.8380 C   0  0  0  0  0  3  0  0  0  0  0  0
   27.2230   -1.4660   52.8200 C   0  0  0  0  0  3  0  0  0  0  0  0
   28.2750   -0.7080   53.3240 C   0  0  0  0  0  3  0  0  0  0  0  0
   28.0280    0.5570   53.8030 C   0  0  0  0  0  0  0  0  0  0  0  0
   29.3310    1.5480   54.4490 Cl  0  0  0  0  0  0  0  0  0  0  0  0
   26.7460    1.0860   53.7900 C   0  0  0  0  0  3  0  0  0  0  0  0
   27.1740    5.6250   48.6080 C   0  0  0  0  0  2  0  0  0  0  0  0
   28.3100    4.7880   48.5840 O   0  0  0  0  0  0  0  0  0  0  0  0
   29.4160    5.5800   48.2040 C   0  0  0  0  0  1  0  0  0  0  0  0
  1  8  1  0  0  0  0
  2  1  2  0  0  0  0
  2  3  1  0  0  0  0
  3  4  2  0  0  0  0
  4  5  1  0  0  0  0
  5  9  1  0  0  0  0
  5  6  1  1  0  0  0
  7  5  1  0  0  0  0
  8  7  2  0  0  0  0
  9 10  1  0  0  0  0
 10 12  1  0  0  0  0
 10 11  1  0  0  0  0
 12 18  1  0  0  0  0
 13 12  2  0  0  0  0
 14 13  1  0  0  0  0
 14 15  2  0  0  0  0
 15 16  1  0  0  0  0
 16 17  1  0  0  0  0
 18 16  2  0  0  0  0
 19  1  1  0  0  0  0
 20 19  1  0  0  0  0
 21 20  1  0  0  0  0
M  END
>  <TORSDO>
F 5

$$$$
