C:\Qe-CaDD\Project\Data\Stage_6_Molecular_Dynamics\ligands_top\out_16416_EGFR_extracted.pdbqt
 OpenBabel01082506443D

 21 24  0  0  0  0  0  0  0  0999 V2000
   22.9020    1.4610   51.1220 C   0  0  0  0  0  3  0  0  0  0  0  0
   21.6370    1.2100   51.0760 N   0  0  0  0  0  0  0  0  0  0  0  0
   20.8300    0.4260   51.9480 C   0  0  0  0  0  0  0  0  0  0  0  0
   19.4820    0.3630   51.6180 C   0  0  0  0  0  3  0  0  0  0  0  0
   18.6240   -0.4110   52.4070 C   0  0  0  0  0  3  0  0  0  0  0  0
   19.0830   -1.1210   53.5160 C   0  0  0  0  0  3  0  0  0  0  0  0
   20.4190   -1.0790   53.8720 C   0  0  0  0  0  0  0  0  0  0  0  0
   21.1760   -1.6050   54.8180 O   0  0  0  0  0  0  0  0  0  0  0  0
   22.4260   -1.2330   54.6960 C   0  0  0  0  0  3  0  0  0  0  0  0
   22.4800   -0.4090   53.5980 C   0  0  0  0  0  0  0  0  0  0  0  0
   21.2160   -0.2990   53.0560 C   0  0  0  0  0  0  0  0  0  0  0  0
   23.7420    0.1890   53.2010 C   0  0  0  0  0  0  0  0  0  0  0  0
   23.8530    0.9850   52.1220 C   0  0  0  0  0  3  0  0  0  0  0  0
   25.0130   -0.0130   53.9150 C   0  0  0  0  0  2  0  0  0  0  0  0
   26.0920    0.9680   53.6270 C   0  0  0  0  0  2  0  0  0  0  0  0
   27.4420    0.2960   53.5540 C   0  0  0  0  0  0  0  0  0  0  0  0
   28.6190    0.9530   53.8440 C   0  0  0  0  0  3  0  0  0  0  0  0
   29.7960    0.2190   53.7390 C   0  0  0  0  0  3  0  0  0  0  0  0
   29.8150   -1.1170   53.3570 C   0  0  0  0  0  3  0  0  0  0  0  0
   28.6170   -1.7680   53.0660 C   0  0  0  0  0  3  0  0  0  0  0  0
   27.4560   -1.0300   53.1750 C   0  0  0  0  0  3  0  0  0  0  0  0
  1 13  1  0  0  0  0
  2  1  2  0  0  0  0
  2  3  1  0  0  0  0
  3 11  1  0  0  0  0
  4  3  2  0  0  0  0
  4  5  1  0  0  0  0
  5  6  2  0  0  0  0
  6  7  1  0  0  0  0
  7  8  1  0  0  0  0
  9  8  1  0  0  0  0
 10  9  2  0  0  0  0
 11 10  1  0  0  0  0
 11  7  2  0  0  0  0
 12 10  1  0  0  0  0
 12 14  1  0  0  0  0
 13 12  2  0  0  0  0
 15 14  1  0  0  0  0
 16 15  1  0  0  0  0
 16 17  1  0  0  0  0
 18 17  2  0  0  0  0
 19 18  1  0  0  0  0
 20 21  1  0  0  0  0
 20 19  2  0  0  0  0
 21 16  2  0  0  0  0
M  END
>  <TORSDO>
F 3

$$$$
