C:\Qe-CaDD\Project\Data\Stage_6_Molecular_Dynamics\ligands_top\out_14079_EGFR_extracted.pdbqt
 OpenBabel01082506443D

 28 31  0  0  1  0  0  0  0  0999 V2000
   22.2320    4.5680   50.4590 C   0  0  0  0  0  1  0  0  0  0  0  0
   23.1170    5.4860   51.1280 N   0  0  0  0  0  0  0  0  0  0  0  0
   23.7030    5.4650   52.4310 N   0  0  0  0  0  0  0  0  0  0  0  0
   23.7530    4.0980   52.8980 C   0  0  0  0  0  2  0  0  0  0  0  0
   24.5780    3.2560   51.9280 C   0  0  0  0  0  0  0  0  0  0  0  0
   25.0210    3.9770   51.0270 N   0  0  0  0  0  0  0  0  0  0  0  0
   25.7850    3.9560   49.8790 C   0  0  0  0  0  2  0  0  0  0  0  0
   25.8440    5.2480   49.0990 C   0  0  0  0  0  2  0  0  0  0  0  0
   24.5880    5.7680   48.6080 C   0  0  2  0  0  3  0  0  0  0  0  0
   23.3030    5.7680   48.2030 C   0  0  1  0  0  3  0  0  0  0  0  0
   23.2160    7.0470   49.0020 C   0  0  1  0  0  3  0  0  0  0  0  0
   23.5230    6.6630   50.3980 C   0  0  0  0  0  0  0  0  0  0  0  0
   24.2550    7.5930   50.8840 O   0  0  0  0  0  0  0  0  0  0  0  0
   24.5040    7.1870   48.3200 N   0  0  1  0  0  4  0  0  0  0  0  0
   25.4630    8.0650   47.6310 C   0  0  0  0  0  1  0  0  0  0  0  0
   24.6450    5.9130   52.4170 H   0  0  0  0  0  0  0  0  0  0  0  0
   24.7700    1.8560   52.0940 N   0  0  0  0  0  0  0  0  0  0  0  0
   24.0450    1.2580   51.5910 H   0  0  0  0  0  0  0  0  0  0  0  0
   25.8920    1.4610   52.9040 C   0  0  0  0  0  3  0  0  0  0  0  0
   25.4730    0.6760   54.1010 C   0  0  0  0  0  2  0  0  0  0  0  0
   26.6050   -0.0880   54.7380 C   0  0  0  0  0  2  0  0  0  0  0  0
   27.3650   -0.8570   53.7890 N   0  0  0  0  0  0  0  0  0  0  0  0
   26.7790   -0.8190   52.4780 C   0  0  0  0  0  2  0  0  0  0  0  0
   26.8340    0.6400   52.0120 C   0  0  0  0  0  2  0  0  0  0  0  0
   29.0600   -0.2730   53.6380 P   0  0  0  0  0  0  0  0  0  0  0  0
   29.4860   -0.1390   52.2770 H   0  0  0  0  0  0  0  0  0  0  0  0
   29.2300    1.2700   54.6150 C   0  0  0  0  0  3  0  0  0  0  0  0
   29.0160    2.4390   54.3450 O   0  0  0  0  0  0  0  0  0  0  0  0
  1  2  1  0  0  0  0
  2  3  1  0  0  0  0
  3  4  1  0  0  0  0
  5 17  1  0  0  0  0
  5  4  1  0  0  0  0
  6  5  2  0  0  0  0
  7  6  1  0  0  0  0
  8  7  1  0  0  0  0
  9  8  1  6  0  0  0
 10 14  1  0  0  0  0
 10  9  1  0  0  0  0
 10 11  1  0  0  0  0
 11 12  1  0  0  0  0
 12 13  2  0  0  0  0
 12  2  1  0  0  0  0
 14  9  1  0  0  0  0
 14 11  1  0  0  0  0
 15 14  1  0  0  0  0
 16  3  1  0  0  0  0
 17 19  1  0  0  0  0
 18 17  1  0  0  0  0
 19 20  1  0  0  0  0
 20 21  1  0  0  0  0
 22 21  1  0  0  0  0
 23 22  1  0  0  0  0
 24 23  1  0  0  0  0
 24 19  1  0  0  0  0
 25 22  1  0  0  0  0
 25 27  1  0  0  0  0
 26 25  1  0  0  0  0
 28 27  2  0  0  0  0
M  END
>  <TORSDO>
F 4

$$$$
