C:\Qe-CaDD\Project\Data\Stage_6_Molecular_Dynamics\ligands_top\out_15637_EGFR_extracted.pdbqt
 OpenBabel01082506443D

 29 32  0  0  1  0  0  0  0  0999 V2000
   24.7310    0.7080   52.6580 C   0  0  0  0  0  0  0  0  0  0  0  0
   24.5550    1.6390   51.7020 N   0  0  0  0  0  0  0  0  0  0  0  0
   25.6150    2.4210   51.6130 N   0  0  0  0  0  0  0  0  0  0  0  0
   26.5310    2.0160   52.5270 C   0  0  0  0  0  0  0  0  0  0  0  0
   27.7790    2.3860   52.9260 N   0  0  0  0  0  0  0  0  0  0  0  0
   28.4180    1.7200   53.9140 C   0  0  0  0  0  3  0  0  0  0  0  0
   27.8670    0.6670   54.5510 N   0  0  0  0  0  0  0  0  0  0  0  0
   26.6170    0.2370   54.2050 C   0  0  0  0  0  0  0  0  0  0  0  0
   25.9740    0.9320   53.1890 C   0  0  0  0  0  0  0  0  0  0  0  0
   25.9510    3.5570   50.7740 C   0  0  2  0  0  3  0  0  0  0  0  0
   24.6880    4.2710   50.3580 C   0  0  0  0  0  2  0  0  0  0  0  0
   24.9240    5.1010   49.0870 C   0  0  0  0  0  2  0  0  0  0  0  0
   26.3300    5.6170   49.1170 C   0  0  1  0  0  3  0  0  0  0  0  0
   27.2690    4.4440   48.9350 C   0  0  0  0  0  2  0  0  0  0  0  0
   26.6610    3.1670   49.5240 C   0  0  0  0  0  2  0  0  0  0  0  0
   26.6250    6.5800   48.1290 N   0  0  0  0  0  0  0  0  0  0  0  0
   25.6960    7.6360   47.9360 C   0  0  0  0  0  2  0  0  0  0  0  0
   26.2440    8.9760   47.6050 C   0  0  0  0  0  2  0  0  0  0  0  0
   27.5480    9.2700   48.1010 N   0  0  0  0  0  0  0  0  0  0  0  0
   27.6270   10.3440   49.0450 C   0  0  0  0  0  1  0  0  0  0  0  0
   28.3390    8.1640   48.5100 C   0  0  0  0  0  2  0  0  0  0  0  0
   27.9630    6.8630   47.8440 C   0  0  0  0  0  2  0  0  0  0  0  0
   23.7300   -0.3000   52.9870 C   0  0  0  0  0  3  0  0  0  0  0  0
   22.4810    0.1050   53.1450 C   0  0  0  0  0  3  0  0  0  0  0  0
   22.0810    1.5000   53.0010 C   0  0  0  0  0  3  0  0  0  0  0  0
   20.8940    1.9610   52.5710 C   0  0  0  0  0  2  0  0  0  0  0  0
   25.9830   -0.8670   54.8380 N   0  0  0  0  0  0  0  0  0  0  0  0
   25.0790   -0.4820   55.2240 H   0  0  0  0  0  0  0  0  0  0  0  0
   26.4080   -1.8230   54.8630 H   0  0  0  0  0  0  0  0  0  0  0  0
  1 23  1  0  0  0  0
  1  9  1  0  0  0  0
  2  1  2  0  0  0  0
  3  2  1  0  0  0  0
  3  4  1  0  0  0  0
  4  5  2  0  0  0  0
  4  9  1  0  0  0  0
  5  6  1  0  0  0  0
  6  7  2  0  0  0  0
  8  7  1  0  0  0  0
  8 27  1  0  0  0  0
  9  8  2  0  0  0  0
 10 15  1  6  0  0  0
 10  3  1  0  0  0  0
 11 10  1  0  0  0  0
 12 13  1  0  0  0  0
 12 11  1  0  0  0  0
 13 16  1  6  0  0  0
 14 13  1  0  0  0  0
 14 15  1  0  0  0  0
 17 16  1  0  0  0  0
 18 17  1  0  0  0  0
 18 19  1  0  0  0  0
 19 21  1  0  0  0  0
 19 20  1  0  0  0  0
 22 16  1  0  0  0  0
 22 21  1  0  0  0  0
 23 24  2  0  0  0  0
 25 24  1  0  0  0  0
 26 25  2  0  0  0  0
 27 29  1  0  0  0  0
 27 28  1  0  0  0  0
M  END
>  <TORSDO>
F 5

$$$$
