C:\Qe-CaDD\Project\Data\Stage_6_Molecular_Dynamics\ligands_top\out_10866_EGFR_extracted.pdbqt
 OpenBabel01082506443D

 20 22  0  0  1  0  0  0  0  0999 V2000
   25.6650   -0.4190   54.2210 C   0  0  1  0  0  3  0  0  0  0  0  0
   26.5410    0.6340   54.4660 C   0  0  0  0  0  2  0  0  0  0  0  0
   26.9420    1.8050   53.8320 C   0  0  0  0  0  2  0  0  0  0  0  0
   27.4910    2.0920   52.5800 C   0  0  0  0  0  2  0  0  0  0  0  0
   26.5550    2.8080   51.8670 N   0  0  0  0  0  2  0  0  0  0  0  0
   25.5490    2.0230   51.4150 C   0  0  0  0  0  2  0  0  0  0  0  0
   25.0970    0.9220   52.0780 N   0  0  0  0  0  2  0  0  0  0  0  0
   23.8280    0.6340   52.2860 C   0  0  0  0  0  0  0  0  0  0  0  0
   23.4290   -0.1480   53.3140 C   0  0  0  0  0  0  0  0  0  0  0  0
   24.3170   -0.7010   54.2170 C   0  0  0  0  0  2  0  0  0  0  0  0
   22.0530   -0.2970   53.3130 C   0  0  0  0  0  0  0  0  0  0  0  0
   21.1420   -0.9660   54.1060 C   0  0  0  0  0  3  0  0  0  0  0  0
   19.7970   -0.8930   53.8010 C   0  0  0  0  0  3  0  0  0  0  0  0
   19.3920   -0.1500   52.7070 C   0  0  0  0  0  3  0  0  0  0  0  0
   20.2630    0.5370   51.8830 C   0  0  0  0  0  3  0  0  0  0  0  0
   21.6010    0.4440   52.2150 C   0  0  0  0  0  0  0  0  0  0  0  0
   22.6940    0.9820   51.6320 N   0  0  0  0  0  0  0  0  0  0  0  0
   22.7050    1.8400   50.4380 C   0  0  0  0  0  1  0  0  0  0  0  0
   26.4540   -1.4930   53.8780 O   0  0  0  0  0  0  0  0  0  0  0  0
   27.1660   -1.6870   52.7030 C   0  0  0  0  0  1  0  0  0  0  0  0
  1 19  1  6  0  0  0
  1  2  1  0  0  0  0
  3  2  1  0  0  0  0
  4  3  1  0  0  0  0
  5  4  1  0  0  0  0
  6  5  1  0  0  0  0
  6  7  1  0  0  0  0
  7  8  1  0  0  0  0
  8  9  2  0  0  0  0
  9 10  1  0  0  0  0
 10  1  1  0  0  0  0
 11  9  1  0  0  0  0
 11 12  1  0  0  0  0
 13 12  2  0  0  0  0
 14 13  1  0  0  0  0
 15 16  1  0  0  0  0
 15 14  2  0  0  0  0
 16 11  2  0  0  0  0
 17 16  1  0  0  0  0
 17  8  1  0  0  0  0
 18 17  1  0  0  0  0
 20 19  1  0  0  0  0
M  END
>  <TORSDO>
F 1

$$$$
