C:\Qe-CaDD\Project\Data\Stage_6_Molecular_Dynamics\ligands_top\out_16385_EGFR_extracted.pdbqt
 OpenBabel01082506443D

 21 23  0  0  0  0  0  0  0  0999 V2000
   25.9200   -0.1580   53.7960 C   0  0  0  0  0  0  0  0  0  0  0  0
   25.7270    1.1130   54.1980 C   0  0  0  0  0  3  0  0  0  0  0  0
   26.2760    2.4870   54.0860 C   0  0  0  0  0  3  0  0  0  0  0  0
   27.5030    2.7780   53.7850 N   0  0  0  0  0  0  0  0  0  0  0  0
   28.7580    2.2270   53.4640 C   0  0  0  0  0  2  0  0  0  0  0  0
   28.8360    1.0030   52.8990 O   0  0  0  0  0  0  0  0  0  0  0  0
   28.3270   -0.0380   53.6270 C   0  0  0  0  0  0  0  0  0  0  0  0
   29.3570   -1.0840   53.7760 C   0  0  0  0  0  3  0  0  0  0  0  0
   29.3670   -2.3500   53.4010 C   0  0  0  0  0  3  0  0  0  0  0  0
   28.1270   -2.7760   52.7150 C   0  0  0  0  0  3  0  0  0  0  0  0
   27.1370   -1.9110   52.5300 C   0  0  0  0  0  3  0  0  0  0  0  0
   27.0690   -0.5110   52.9230 C   0  0  0  0  0  0  0  0  0  0  0  0
   24.8550   -1.0210   54.3880 C   0  0  0  0  0  2  0  0  0  0  0  0
   23.4990   -0.7470   53.9220 C   0  0  0  0  0  0  0  0  0  0  0  0
   22.5660   -1.2410   54.8500 C   0  0  0  0  0  3  0  0  0  0  0  0
   21.1850   -1.1370   54.6510 C   0  0  0  0  0  3  0  0  0  0  0  0
   20.6890   -0.5340   53.5160 C   0  0  0  0  0  0  0  0  0  0  0  0
   21.5940   -0.0460   52.6000 C   0  0  0  0  0  3  0  0  0  0  0  0
   22.9450   -0.1570   52.8130 C   0  0  0  0  0  3  0  0  0  0  0  0
   19.3230   -0.4260   53.3110 O   0  0  0  0  0  0  0  0  0  0  0  0
   18.8640   -0.1140   52.0130 C   0  0  0  0  0  1  0  0  0  0  0  0
  1  2  2  0  0  0  0
  1 13  1  0  0  0  0
  3  2  1  0  0  0  0
  4  3  2  0  0  0  0
  5  4  1  0  0  0  0
  6  5  1  0  0  0  0
  6  7  1  0  0  0  0
  7  8  1  0  0  0  0
  9  8  2  0  0  0  0
 10  9  1  0  0  0  0
 11 10  2  0  0  0  0
 11 12  1  0  0  0  0
 12  7  2  3  0  0  0
 12  1  1  0  0  0  0
 14 13  1  0  0  0  0
 14 15  1  0  0  0  0
 16 15  2  0  0  0  0
 17 16  1  0  0  0  0
 18 19  1  0  0  0  0
 18 17  2  0  0  0  0
 19 14  2  0  0  0  0
 20 17  1  0  0  0  0
 21 20  1  0  0  0  0
M  END
>  <TORSDO>
F 3

$$$$
