C:\Qe-CaDD\Project\Data\Stage_6_Molecular_Dynamics\ligands_top\out_12393_EGFR_extracted.pdbqt
 OpenBabel01082506443D

 22 25  0  0  1  0  0  0  0  0999 V2000
   28.2220    7.9780   47.4910 C   0  0  0  0  0  3  0  0  0  0  0  0
   27.4160    7.1980   47.9330 C   0  0  0  0  0  0  0  0  0  0  0  0
   26.4500    6.2690   48.4410 C   0  0  0  0  0  0  0  0  0  0  0  0
   25.1130    6.5960   48.3960 C   0  0  0  0  0  3  0  0  0  0  0  0
   24.2080    5.6830   48.8900 C   0  0  0  0  0  3  0  0  0  0  0  0
   24.6740    4.4970   49.4000 C   0  0  0  0  0  3  0  0  0  0  0  0
   25.9850    4.1160   49.4730 C   0  0  0  0  0  0  0  0  0  0  0  0
   26.8520    5.0610   48.9670 C   0  0  0  0  0  3  0  0  0  0  0  0
   26.5670    2.9360   49.9790 N   0  0  0  0  0  0  0  0  0  0  0  0
   27.0450    2.2550   49.3670 H   0  0  0  0  0  0  0  0  0  0  0  0
   26.5730    2.5420   51.3330 C   0  0  0  0  0  0  0  0  0  0  0  0
   27.6660    2.4880   52.0060 N   0  0  0  0  0  0  0  0  0  0  0  0
   27.7160    2.1100   53.3720 C   0  0  0  0  0  3  0  0  0  0  0  0
   26.6660    1.7990   54.0880 N   0  0  0  0  0  0  0  0  0  0  0  0
   25.3520    1.8390   53.5010 C   0  0  0  0  0  0  0  0  0  0  0  0
   25.4020    2.0360   52.0330 C   0  0  0  0  0  0  0  0  0  0  0  0
   24.5560    0.6180   53.6060 C   0  0  2  0  0  3  0  0  0  0  0  0
   24.1930    1.6460   51.5930 C   0  0  0  0  0  2  0  0  0  0  0  0
   23.4170    1.2190   52.8030 C   0  0  1  0  0  3  0  0  0  0  0  0
   22.5070    0.0520   52.5330 C   0  0  0  0  0  2  0  0  0  0  0  0
   22.9950   -0.8970   53.4530 O   0  0  0  0  0  0  0  0  0  0  0  0
   24.2310   -0.6110   53.9470 C   0  0  0  0  0  2  0  0  0  0  0  0
  1  2  3  0  0  0  0
  2  3  1  0  0  0  0
  3  8  1  0  0  0  0
  4  3  2  0  0  0  0
  4  5  1  0  0  0  0
  5  6  2  0  0  0  0
  6  7  1  0  0  0  0
  7  9  1  0  0  0  0
  8  7  2  0  0  0  0
  9 11  1  0  0  0  0
 10  9  1  0  0  0  0
 11 12  2  0  0  0  0
 11 16  1  0  0  0  0
 12 13  1  0  0  0  0
 13 14  2  0  0  0  0
 15 17  1  0  0  0  0
 15 14  1  0  0  0  0
 16 15  2  0  0  0  0
 17 22  1  1  0  0  0
 18 16  1  0  0  0  0
 19 18  1  6  0  0  0
 19 17  1  0  0  0  0
 20 19  1  0  0  0  0
 20 21  1  0  0  0  0
 21 22  1  0  0  0  0
M  END
>  <TORSDO>
F 2

$$$$
