C:\Qe-CaDD\Project\Data\Stage_6_Molecular_Dynamics\ligands_top\out_15532_EGFR_extracted.pdbqt
 OpenBabel01082506443D

 25 26  0  0  1  0  0  0  0  0999 V2000
   26.6310    1.8590   51.8760 C   0  0  2  0  0  3  0  0  0  0  0  0
   25.5820    2.0520   52.9060 C   0  0  0  0  0  2  0  0  0  0  0  0
   25.3440    0.9130   53.7380 N   0  0  0  0  0  0  0  0  0  0  0  0
   26.2280    0.2530   54.7070 C   0  0  0  0  0  2  0  0  0  0  0  0
   27.0490   -0.6660   53.9790 N   0  0  0  0  0  0  0  0  0  0  0  0
   28.2960   -0.6470   53.7790 C   0  0  0  0  0  0  0  0  0  0  0  0
   29.9710   -0.8840   53.3410 Cl  0  0  0  0  0  0  0  0  0  0  0  0
   28.8610    0.5410   54.3690 N   0  0  0  0  0  0  0  0  0  0  0  0
   28.6020    1.6660   53.7340 C   0  0  0  0  0  3  0  0  0  0  0  0
   27.9110    2.0870   52.6020 N   0  0  0  0  0  0  0  0  0  0  0  0
   28.6620    2.7690   52.2690 H   0  0  0  0  0  0  0  0  0  0  0  0
   24.0530    0.2590   53.6680 C   0  0  0  0  0  0  0  0  0  0  0  0
   23.6950   -0.7650   54.5570 C   0  0  0  0  0  3  0  0  0  0  0  0
   22.4970   -1.4270   54.5750 C   0  0  0  0  0  3  0  0  0  0  0  0
   21.5530   -1.0630   53.6430 C   0  0  0  0  0  3  0  0  0  0  0  0
   21.8100   -0.0560   52.7170 C   0  0  0  0  0  0  0  0  0  0  0  0
   23.0360    0.5420   52.7820 C   0  0  0  0  0  3  0  0  0  0  0  0
   20.8050    0.3400   51.7230 C   0  0  0  0  0  0  0  0  0  0  0  0
   19.6130   -0.3540   51.9630 F   0  0  0  0  0  0  0  0  0  0  0  0
   21.2520    0.0080   50.4770 F   0  0  0  0  0  0  0  0  0  0  0  0
   20.5320    1.7430   51.8170 N   0  0  0  0  0  0  0  0  0  0  0  0
   20.1780    2.0440   53.0840 F   0  0  0  0  0  0  0  0  0  0  0  0
   19.8670    2.0920   51.1190 H   0  0  0  0  0  0  0  0  0  0  0  0
   26.7100    2.9420   50.8190 C   0  0  0  0  0  2  0  0  0  0  0  0
   25.4140    3.3620   50.2590 C   0  0  0  0  0  1  0  0  0  0  0  0
  1 24  1  6  0  0  0
  1 10  1  0  0  0  0
  1  2  1  0  0  0  0
  2  3  1  0  0  0  0
  3  4  1  0  0  0  0
  5  4  1  0  0  0  0
  6  5  2  0  0  0  0
  6  8  1  0  0  0  0
  7  6  1  0  0  0  0
  9  8  2  0  0  0  0
 10  9  1  0  0  0  0
 11 10  1  0  0  0  0
 12  3  1  0  0  0  0
 12 13  1  0  0  0  0
 13 14  2  0  0  0  0
 15 14  1  0  0  0  0
 16 17  1  0  0  0  0
 16 15  2  0  0  0  0
 17 12  2  0  0  0  0
 18 21  1  0  0  0  0
 18 19  1  0  0  0  0
 18 16  1  0  0  0  0
 20 18  1  0  0  0  0
 21 22  1  0  0  0  0
 23 21  1  0  0  0  0
 25 24  1  0  0  0  0
M  END
>  <TORSDO>
F 4

$$$$
