C:\Qe-CaDD\Project\Data\Stage_6_Molecular_Dynamics\ligands_top\out_21607_EGFR_extracted.pdbqt
 OpenBabel01082506443D

 21 22  0  0  0  0  0  0  0  0999 V2000
   24.9420    2.7260   51.8000 C   0  0  0  0  0  0  0  0  0  0  0  0
   26.2550    2.4360   51.9930 C   0  0  0  0  0  0  0  0  0  0  0  0
   27.1280    2.1350   53.1380 C   0  0  0  0  0  2  0  0  0  0  0  0
   27.7780    0.8240   53.1740 C   0  0  0  0  0  0  0  0  0  0  0  0
   29.1350    0.8830   53.5310 C   0  0  0  0  0  3  0  0  0  0  0  0
   30.0050   -0.1740   53.6690 C   0  0  0  0  0  3  0  0  0  0  0  0
   29.5320   -1.4500   53.4410 C   0  0  0  0  0  3  0  0  0  0  0  0
   28.2060   -1.5690   53.0870 C   0  0  0  0  0  3  0  0  0  0  0  0
   27.3740   -0.4890   52.9590 C   0  0  0  0  0  0  0  0  0  0  0  0
   25.9640   -0.7550   52.5430 C   0  0  0  0  0  2  0  0  0  0  0  0
   25.2170    0.2700   53.0840 O   0  0  0  0  0  0  0  0  0  0  0  0
   23.9060    0.3050   52.6210 C   0  0  0  0  0  2  0  0  0  0  0  0
   23.2460    1.5650   53.1920 C   0  0  0  0  0  2  0  0  0  0  0  0
   24.2430    2.7110   53.1010 C   0  0  0  0  0  2  0  0  0  0  0  0
   24.4350    2.9770   50.4580 C   0  0  0  0  0  2  0  0  0  0  0  0
   23.8810    4.3410   50.2020 C   0  0  0  0  0  2  0  0  0  0  0  0
   24.7180    5.4430   50.3780 N   0  0  0  0  0  0  0  0  0  0  0  0
   24.2880    6.5810   51.0800 C   0  0  0  0  0  1  0  0  0  0  0  0
   25.8260    5.5910   49.5040 C   0  0  0  0  0  1  0  0  0  0  0  0
   27.0290    2.4030   50.8130 O   0  0  0  0  0  0  0  0  0  0  0  0
   26.7720    1.8400   50.0220 H   0  0  0  0  0  0  0  0  0  0  0  0
  1  2  2  0  0  0  0
  1 14  1  0  0  0  0
  2  3  1  0  0  0  0
  3  4  1  0  0  0  0
  4  5  1  0  0  0  0
  5  6  2  0  0  0  0
  7  6  1  0  0  0  0
  8  7  2  0  0  0  0
  9  8  1  0  0  0  0
  9  4  2  0  0  0  0
 10  9  1  0  0  0  0
 10 11  1  0  0  0  0
 12 11  1  0  0  0  0
 12 13  1  0  0  0  0
 14 13  1  0  0  0  0
 15  1  1  0  0  0  0
 16 17  1  0  0  0  0
 16 15  1  0  0  0  0
 17 18  1  0  0  0  0
 19 17  1  0  0  0  0
 20  2  1  0  0  0  0
 21 20  1  0  0  0  0
M  END
>  <TORSDO>
F 4

$$$$
