C:\Qe-CaDD\Project\Data\Stage_6_Molecular_Dynamics\ligands_top\out_16357_EGFR_extracted.pdbqt
 OpenBabel01082506443D

 21 25  0  0  1  0  0  0  0  0999 V2000
   21.7080   -2.0370   54.2740 Cl  0  0  0  0  0  0  0  0  0  0  0  0
   22.5020   -0.6320   53.5550 C   0  0  0  0  0  0  0  0  0  0  0  0
   21.8600   -0.2300   52.4380 C   0  0  0  0  0  3  0  0  0  0  0  0
   22.1900    0.9110   51.5250 C   0  0  0  0  0  2  0  0  0  0  0  0
   23.0000    1.8630   52.1480 O   0  0  0  0  0  0  0  0  0  0  0  0
   24.3380    1.5010   52.0660 C   0  0  1  0  0  3  0  0  0  0  0  0
   25.2030    2.7130   52.2160 C   0  0  0  0  0  2  0  0  0  0  0  0
   26.5510    2.7310   52.0700 N   0  0  0  0  0  0  0  0  0  0  0  0
   27.5590    2.2520   52.8470 C   0  0  0  0  0  3  0  0  0  0  0  0
   27.7090    0.7590   52.9150 C   0  0  0  0  0  0  0  0  0  0  0  0
   28.7820    0.4650   53.6790 C   0  0  0  0  0  3  0  0  0  0  0  0
   29.2810   -0.8790   54.0310 C   0  0  0  0  0  3  0  0  0  0  0  0
   28.4900   -1.7120   53.5060 N   0  0  0  0  0  0  0  0  0  0  0  0
   27.3570   -1.6650   52.7530 C   0  0  0  0  0  0  0  0  0  0  0  0
   26.1880   -1.2820   53.7640 O   0  0  0  0  0  0  0  0  0  0  0  0
   25.7740   -0.1490   52.7900 C   0  0  2  0  0  0  0  0  0  0  0  0
   24.6450    0.4360   53.0130 C   0  0  2  0  0  3  0  0  0  0  0  0
   23.7360    0.0430   54.1060 C   0  0  0  0  0  2  0  0  0  0  0  0
   26.3920    0.5450   51.5100 C   0  0  0  0  0  2  0  0  0  0  0  0
   26.9340   -0.3480   52.1490 C   0  0  1  0  0  0  0  0  0  0  0  0
   26.9480    3.2130   51.2110 H   0  0  0  0  0  0  0  0  0  0  0  0
  2 18  1  0  0  0  0
  2  1  1  0  0  0  0
  3  2  2  0  0  0  0
  4  5  1  0  0  0  0
  4  3  1  0  0  0  0
  6  5  1  0  0  0  0
  6  7  1  1  0  0  0
  6 17  1  0  0  0  0
  8  7  1  0  0  0  0
  8  9  1  0  0  0  0
  9 10  2  0  0  0  0
 10 11  1  0  0  0  0
 11 12  2  0  0  0  0
 13 12  1  0  0  0  0
 14 13  2  3  0  0  0
 14 15  1  0  0  0  0
 16 19  1  6  0  0  0
 16 17  1  0  0  0  0
 16 15  1  0  0  0  0
 17 18  1  6  0  0  0
 20 19  1  6  0  0  0
 20 14  1  0  0  0  0
 20 16  1  0  0  0  0
 20 10  1  0  0  0  0
 21  8  1  0  0  0  0
M  END
>  <TORSDO>
F 0

$$$$
