C:\Qe-CaDD\Project\Data\Stage_6_Molecular_Dynamics\ligands_top\out_14082_EGFR_extracted.pdbqt
 OpenBabel01082506443D

 30 30  0  0  0  0  0  0  0  0999 V2000
   21.5300    2.4890   52.1100 C   0  0  0  0  0  0  0  0  0  0  0  0
   21.2680    3.8130   52.2840 C   0  0  0  0  0  3  0  0  0  0  0  0
   22.3670    4.6410   52.2150 C   0  0  0  0  0  3  0  0  0  0  0  0
   23.6290    4.2320   51.9960 N   0  0  0  0  0  0  0  0  0  0  0  0
   23.8480    2.9220   51.8310 C   0  0  0  0  0  0  0  0  0  0  0  0
   22.7960    2.0960   51.8930 N   0  0  0  0  0  0  0  0  0  0  0  0
   20.5370    1.4210   52.1400 C   0  0  0  0  0  0  0  0  0  0  0  0
   20.1380    0.5600   53.1560 C   0  0  0  0  0  0  0  0  0  0  0  0
   19.1530   -0.2820   52.6780 C   0  0  0  0  0  0  0  0  0  0  0  0
   18.9700    0.0760   51.3930 N   0  0  0  0  0  0  0  0  0  0  0  0
   19.7770    1.0750   51.0640 N   0  0  0  0  0  0  0  0  0  0  0  0
   19.8180    1.6900   49.7310 C   0  0  0  0  0  1  0  0  0  0  0  0
   20.7070    0.5850   54.5080 C   0  0  0  0  0  2  0  0  0  0  0  0
   21.8540   -0.3870   54.6960 C   0  0  0  0  0  1  0  0  0  0  0  0
   18.4590   -1.3340   53.4110 C   0  0  0  0  0  3  0  0  0  0  0  0
   17.0770   -1.1590   53.7130 N   0  0  0  0  0  1  0  0  0  0  0  0
   16.9340   -0.3240   54.3530 H   0  0  0  0  0 15  0  0  0  0  0  0
   16.9150   -0.3360   54.3460 H   0  0  0  0  0  0  0  0  0  0  0  0
   19.1340   -2.3570   53.7440 O   0  0  0  0  0  0  0  0  0  0  0  0
   25.1620    2.4300   51.5960 N   0  0  0  0  0  0  0  0  0  0  0  0
   25.6260    2.6850   50.6750 H   0  0  0  0  0  0  0  0  0  0  0  0
   25.8450    1.6130   52.5630 C   0  0  0  0  0  3  0  0  0  0  0  0
   27.2910    2.0620   52.6430 C   0  0  0  0  0  2  0  0  0  0  0  0
   28.1410    1.2090   53.5270 C   0  0  0  0  0  2  0  0  0  0  0  0
   27.8830   -0.1960   53.4500 N   0  0  0  0  0  0  0  0  0  0  0  0
   28.9060   -1.1710   53.4740 C   0  0  0  0  0  0  0  0  0  0  0  0
   26.4990   -0.6060   53.3430 C   0  0  0  0  0  2  0  0  0  0  0  0
   30.3250   -0.8180   53.5800 C   0  0  0  0  0  1  0  0  0  0  0  0
   28.6700   -2.4220   53.4050 O   0  0  0  0  0  0  0  0  0  0  0  0
   25.9010    0.1390   52.1630 C   0  0  0  0  0  2  0  0  0  0  0  0
  1  7  1  0  0  0  0
  1  2  1  0  0  0  0
  3  2  2  0  0  0  0
  4  3  1  0  0  0  0
  5  6  1  0  0  0  0
  5  4  2  0  0  0  0
  6  1  2  0  0  0  0
  7  8  2  0  0  0  0
  8 13  1  0  0  0  0
  9  8  1  0  0  0  0
  9 15  1  0  0  0  0
 10  9  2  0  0  0  0
 11 10  1  0  0  0  0
 11  7  1  0  0  0  0
 12 11  1  0  0  0  0
 13 14  1  0  0  0  0
 15 19  2  0  0  0  0
 16 18  1  0  0  0  0
 20  5  1  0  0  0  0
 20 22  1  0  0  0  0
 21 20  1  0  0  0  0
 22 23  1  0  0  0  0
 23 24  1  0  0  0  0
 25 26  1  0  0  0  0
 25 24  1  0  0  0  0
 26 28  1  0  0  0  0
 27 25  1  0  0  0  0
 29 26  2  0  0  0  0
 30 22  1  0  0  0  0
 30 27  1  0  0  0  0
M  END
>  <TORSDO>
F 5

$$$$
