C:\Qe-CaDD\Project\Data\Stage_6_Molecular_Dynamics\ligands_top\out_1852_EGFR_extracted.pdbqt
 OpenBabel01082506443D

 30 33  0  0  1  0  0  0  0  0999 V2000
   22.6030    6.3640   49.6160 C   0  0  0  0  0  1  0  0  0  0  0  0
   23.4350    5.1700   50.0890 C   0  0  0  0  0  0  0  0  0  0  0  0
   24.6120    5.0500   49.5950 C   0  0  0  0  0  0  0  0  0  0  0  0
   25.9400    4.8050   49.1150 C   0  0  0  0  0  3  0  0  0  0  0  0
   26.6750    3.7180   49.5110 C   0  0  0  0  0  2  0  0  0  0  0  0
   25.9220    2.9610   50.3950 N   0  0  0  0  0  0  0  0  0  0  0  0
   25.8490    2.4680   51.6590 C   0  0  0  0  0  0  0  0  0  0  0  0
   26.6520    1.4380   51.4330 N   0  0  0  0  0  2  0  0  0  0  0  0
   26.3290    0.2490   52.3140 C   0  0  0  0  0  2  0  0  0  0  0  0
   25.0310    0.7130   52.9650 C   0  0  0  0  0  0  0  0  0  0  0  0
   23.8070    0.3080   52.5710 C   0  0  0  0  0  3  0  0  0  0  0  0
   22.3860    0.4440   52.8450 C   0  0  1  0  0  3  0  0  0  0  0  0
   21.5120    1.1040   51.8000 C   0  0  1  0  0  0  0  0  0  0  0  0
   20.0670    0.8530   52.3570 C   0  0  0  0  0  1  0  0  0  0  0  0
   21.4840    2.5160   51.7940 N   0  0  1  0  0  0  0  0  0  0  0  0
   22.1130    3.1940   52.8410 C   0  0  0  0  0  2  0  0  0  0  0  0
   23.3940    3.6040   52.0850 C   0  0  2  0  0  3  0  0  0  0  0  0
   24.4430    3.8430   52.8810 O   0  0  0  0  0  0  0  0  0  0  0  0
   25.2380    2.6370   53.0040 C   0  0  0  0  0  0  0  0  0  0  0  0
   25.5230    1.7200   53.9550 C   0  0  0  0  0  2  0  0  0  0  0  0
   22.7190    4.4310   51.0970 C   0  0  2  0  0  3  0  0  0  0  0  0
   21.7880    3.2770   50.6030 C   0  0  0  0  0  2  0  0  0  0  0  0
   25.1140    2.6940   49.7200 H   0  0  0  0  0  0  0  0  0  0  0  0
   21.8980   -0.9890   52.9090 C   0  0  0  0  0  3  0  0  0  0  0  0
   21.7600   -1.6740   54.0040 C   0  0  0  0  0  3  0  0  0  0  0  0
   22.0800   -1.0540   55.2350 N   0  0  0  0  0  0  0  0  0  0  0  0
   22.1210   -0.4290   56.0600 H   0  0  0  0  0  0  0  0  0  0  0  0
   21.5300   -0.2080   55.4550 H   0  0  0  0  0  0  0  0  0  0  0  0
   21.5380    0.4340   50.6120 O   0  0  0  0  0  0  0  0  0  0  0  0
   20.7630   -0.1340   50.4030 H   0  0  0  0  0  0  0  0  0  0  0  0
  1  2  1  0  0  0  0
  2 21  1  0  0  0  0
  3  2  2  0  0  0  0
  4  5  1  0  0  0  0
  4  3  2  0  0  0  0
  5  6  1  0  0  0  0
  6  7  1  0  0  0  0
  7 19  2  0  0  0  0
  8  7  1  0  0  0  0
  8  9  1  0  0  0  0
  9 10  1  0  0  0  0
 10 20  1  0  0  0  0
 11 12  1  0  0  0  0
 11 10  2  0  0  0  0
 12 24  1  6  0  0  0
 13 14  1  1  0  0  0
 13 12  1  0  0  0  0
 15 22  1  6  0  0  0
 15 13  1  0  0  0  0
 15 16  1  0  0  0  0
 17 16  1  1  0  0  0
 17 18  1  0  0  0  0
 18 19  1  0  0  0  0
 19 20  1  0  0  0  0
 21 22  1  6  0  0  0
 21 17  1  0  0  0  0
 23  6  1  0  0  0  0
 24 25  2  0  0  0  0
 25 26  1  0  0  0  0
 26 28  1  0  0  0  0
 26 27  1  0  0  0  0
 29 13  1  0  0  0  0
 30 29  1  0  0  0  0
M  END
>  <TORSDO>
F 3

$$$$
