C:\Qe-CaDD\Project\Data\Stage_6_Molecular_Dynamics\ligands_top\out_14403_EGFR_extracted.pdbqt
 OpenBabel01082506443D

 22 23  0  0  0  0  0  0  0  0999 V2000
   25.6010    1.7250   52.9180 C   0  0  0  0  0  0  0  0  0  0  0  0
   25.2110    0.4160   52.7470 C   0  0  0  0  0  3  0  0  0  0  0  0
   26.0530   -0.6720   52.8200 C   0  0  0  0  0  3  0  0  0  0  0  0
   27.3850   -0.4270   53.0860 C   0  0  0  0  0  0  0  0  0  0  0  0
   28.2110   -1.5460   53.1540 C   0  0  0  0  0  0  0  0  0  0  0  0
   27.7750   -2.7070   52.9860 O   0  0  0  0  0  0  0  0  0  0  0  0
   29.5500   -1.3570   53.4180 C   0  0  0  0  0  3  0  0  0  0  0  0
   29.9250   -0.0290   53.5870 C   0  0  0  0  0  3  0  0  0  0  0  0
   29.1090    1.0050   53.5140 O   0  0  0  0  0  0  0  0  0  0  0  0
   27.8270    0.8680   53.2670 C   0  0  0  0  0  0  0  0  0  0  0  0
   26.9420    1.9230   53.1820 C   0  0  0  0  0  3  0  0  0  0  0  0
   24.7040    2.7860   52.8320 O   0  0  0  0  0  0  0  0  0  0  0  0
   24.6010    3.3590   51.5210 C   0  0  0  0  0  2  0  0  0  0  0  0
   23.4240    2.8900   50.7820 C   0  0  0  0  0  0  0  0  0  0  0  0
   23.5240    3.2060   49.5760 O   0  0  0  0  0  0  0  0  0  0  0  0
   22.4160    2.2160   51.4020 O   0  0  0  0  0  0  0  0  0  0  0  0
   21.9610    0.9880   50.8720 C   0  0  0  0  0  2  0  0  0  0  0  0
   21.6200    0.0750   52.0080 C   0  0  0  0  0  2  0  0  0  0  0  0
   21.1870    0.9450   53.1710 C   0  0  0  0  0  2  0  0  0  0  0  0
   21.2360    0.1030   54.4130 C   0  0  0  0  0  2  0  0  0  0  0  0
   22.1170   -1.1340   54.1950 C   0  0  0  0  0  2  0  0  0  0  0  0
   23.0050   -1.3740   55.3930 C   0  0  0  0  0  1  0  0  0  0  0  0
  1 11  1  0  0  0  0
  2  3  1  0  0  0  0
  2  1  2  0  0  0  0
  3  4  2  0  0  0  0
  4  5  1  0  0  0  0
  4 10  1  0  0  0  0
  5  7  1  0  0  0  0
  6  5  2  0  0  0  0
  7  8  2  0  0  0  0
  9  8  1  0  0  0  0
 10  9  1  0  0  0  0
 11 10  2  0  0  0  0
 12  1  1  0  0  0  0
 13 12  1  0  0  0  0
 14 16  1  0  0  0  0
 14 13  1  0  0  0  0
 15 14  2  0  0  0  0
 17 16  1  0  0  0  0
 17 18  1  0  0  0  0
 18 19  1  0  0  0  0
 19 20  1  0  0  0  0
 21 20  1  0  0  0  0
 21 22  1  0  0  0  0
M  END
>  <TORSDO>
F 9

$$$$
