C:\Qe-CaDD\Project\Data\Stage_6_Molecular_Dynamics\ligands_top\out_10554_EGFR_extracted.pdbqt
 OpenBabel01082506443D

 22 24  0  0  1  0  0  0  0  0999 V2000
   22.5680    2.0990   49.9380 C   0  0  0  0  0  0  0  0  0  0  0  0
   22.4340    1.1260   50.7630 N   0  0  0  0  0  2  0  0  0  0  0  0
   23.0630    1.2480   52.0100 C   0  0  0  0  0  2  0  0  0  0  0  0
   23.7460    1.4410   53.0810 N   0  0  0  0  0  2  0  0  0  0  0  0
   24.9660    2.2190   53.0120 C   0  0  1  0  0  3  0  0  0  0  0  0
   25.9970    1.6940   53.9410 C   0  0  0  0  0  3  0  0  0  0  0  0
   27.0040    0.9180   53.5510 C   0  0  0  0  0  0  0  0  0  0  0  0
   28.2970    0.2790   54.8030 Br  0  0  0  0  0  0  0  0  0  0  0  0
   27.0630    0.5840   52.1070 C   0  0  0  0  0  2  0  0  0  0  0  0
   26.4920    1.6230   51.2070 C   0  0  0  0  0  2  0  0  0  0  0  0
   25.3770    2.3380   51.6710 N   0  0  2  0  0  0  0  0  0  0  0  0
   25.4460    3.6750   51.3250 N   0  0  0  0  0  0  0  0  0  0  0  0
   24.5400    4.0880   50.2950 C   0  0  2  0  0  3  0  0  0  0  0  0
   24.0880    5.5010   50.6060 C   0  0  0  0  0  2  0  0  0  0  0  0
   23.7480    5.6410   51.9540 O   0  0  0  0  0  0  0  0  0  0  0  0
   22.4770    5.0540   52.1750 C   0  0  0  0  0  2  0  0  0  0  0  0
   22.3030    3.9520   51.1570 C   0  0  0  0  0  0  0  0  0  0  0  0
   21.0960    3.5410   50.9910 O   0  0  0  0  0  0  0  0  0  0  0  0
   23.3090    3.2920   50.3390 N   0  0  0  0  0  0  0  0  0  0  0  0
   26.4020    4.0270   51.2140 H   0  0  0  0  0  0  0  0  0  0  0  0
   22.3020    2.7110   48.6510 C   0  0  0  0  0  0  0  0  0  0  0  0
   22.3440    2.8090   47.4050 O   0  0  0  0  0  0  0  0  0  0  0  0
  1 19  1  0  0  0  0
  1  2  1  0  0  0  0
  2  3  1  0  0  0  0
  3  4  1  0  0  0  0
  5  4  1  0  0  0  0
  5  6  1  1  0  0  0
  7  6  2  0  0  0  0
  7  8  1  0  0  0  0
  9  7  1  0  0  0  0
 10  9  1  0  0  0  0
 11 10  1  1  0  0  0
 11  5  1  0  0  0  0
 12 11  1  0  0  0  0
 13 19  1  0  0  0  0
 13 14  1  1  0  0  0
 13 12  1  0  0  0  0
 14 15  1  0  0  0  0
 15 16  1  0  0  0  0
 17 16  1  0  0  0  0
 18 17  2  0  0  0  0
 19 17  1  0  0  0  0
 20 12  1  0  0  0  0
 21  1  2  0  0  0  0
 22 21  2  0  0  0  0
M  END
>  <TORSDO>
F 1

$$$$
