C:\Qe-CaDD\Project\Data\Stage_6_Molecular_Dynamics\ligands_top\out_22420_EGFR_extracted.pdbqt
 OpenBabel01082506443D

 31 34  0  0  1  0  0  0  0  0999 V2000
   20.3680   -0.9880   53.7320 C   0  0  2  0  0  3  0  0  0  0  0  0
   19.8750   -0.1380   52.8740 C   0  0  0  0  0  3  0  0  0  0  0  0
   18.5150   -0.2700   52.3830 C   0  0  0  0  0  0  0  0  0  0  0  0
   17.6740   -1.2820   52.7860 C   0  0  0  0  0  0  0  0  0  0  0  0
   16.4130   -1.3580   52.2800 N   0  0  0  0  0  0  0  0  0  0  0  0
   16.0070   -0.4400   51.3870 C   0  0  0  0  0  3  0  0  0  0  0  0
   16.8100    0.5780   50.9620 N   0  0  0  0  0  0  0  0  0  0  0  0
   18.0710    0.6430   51.4790 C   0  0  0  0  0  0  0  0  0  0  0  0
   18.1140   -2.2990   53.7730 C   0  0  0  0  0  3  0  0  0  0  0  0
   19.4770   -2.0210   54.1360 N   0  0  0  0  0  0  0  0  0  0  0  0
   19.8320   -2.7420   54.8290 H   0  0  0  0  0  0  0  0  0  0  0  0
   21.7270   -0.9400   54.2860 C   0  0  0  0  0  0  0  0  0  0  0  0
   21.9700   -1.6510   55.2860 O   0  0  0  0  0  0  0  0  0  0  0  0
   22.6970   -0.0850   53.6540 C   0  0  0  0  0  0  0  0  0  0  0  0
   23.5260    0.6220   53.1320 C   0  0  0  0  0  0  0  0  0  0  0  0
   24.5390    1.4610   52.5210 C   0  0  0  0  0  2  0  0  0  0  0  0
   25.7100    1.6020   53.4550 C   0  0  0  0  0  2  0  0  0  0  0  0
   26.2310    0.2610   53.6880 N   0  0  0  0  0  0  0  0  0  0  0  0
   27.0350   -0.1940   52.5980 C   0  0  0  0  0  2  0  0  0  0  0  0
   28.0260   -1.2460   53.0300 C   0  0  0  0  0  2  0  0  0  0  0  0
   28.9290   -0.7440   54.0180 N   0  0  0  0  0  0  0  0  0  0  0  0
   30.1190   -0.1390   53.4510 C   0  0  0  0  0  1  0  0  0  0  0  0
   28.3440    0.1970   54.9350 C   0  0  0  0  0  2  0  0  0  0  0  0
   26.8510    0.1360   54.9850 C   0  0  0  0  0  2  0  0  0  0  0  0
   18.7990    1.7610   50.9490 N   0  0  0  0  0  0  0  0  0  0  0  0
   19.0230    1.7850   49.4970 C   0  0  0  0  0  2  0  0  0  0  0  0
   20.4390    1.2850   49.3340 C   0  0  0  0  0  2  0  0  0  0  0  0
   21.2160    2.0470   50.0940 C   0  0  1  0  0  3  0  0  0  0  0  0
   22.5440    1.7050   50.0480 F   0  0  0  0  0  0  0  0  0  0  0  0
   20.8040    3.1880   50.9540 C   0  0  0  0  0  2  0  0  0  0  0  0
   19.4250    2.9620   51.5250 C   0  0  0  0  0  2  0  0  0  0  0  0
  1 10  1  0  0  0  0
  1 12  1  1  0  0  0
  2  1  1  0  0  0  0
  3  4  1  0  0  0  0
  3  2  2  0  0  0  0
  4  9  2  0  0  0  0
  5  4  1  0  0  0  0
  6  5  2  0  0  0  0
  7  6  1  0  0  0  0
  7  8  2  0  0  0  0
  8  3  1  0  0  0  0
  9 10  1  0  0  0  0
 10 11  1  0  0  0  0
 12 13  2  0  0  0  0
 14 12  1  0  0  0  0
 15 14  3  0  0  0  0
 16 15  1  0  0  0  0
 16 17  1  0  0  0  0
 17 18  1  0  0  0  0
 18 24  1  0  0  0  0
 19 20  1  0  0  0  0
 19 18  1  0  0  0  0
 20 21  1  0  0  0  0
 21 23  1  0  0  0  0
 22 21  1  0  0  0  0
 23 24  1  0  0  0  0
 25  8  1  0  0  0  0
 25 31  1  0  0  0  0
 26 25  1  0  0  0  0
 27 26  1  0  0  0  0
 27 28  1  0  0  0  0
 28 29  1  6  0  0  0
 28 30  1  0  0  0  0
 30 31  1  0  0  0  0
M  END
>  <TORSDO>
F 6

$$$$
