C:\Qe-CaDD\Project\Data\Stage_6_Molecular_Dynamics\ligands_top\out_18178_EGFR_extracted.pdbqt
 OpenBabel01082506443D

 31 33  0  0  1  0  0  0  0  0999 V2000
   23.2580    4.2300   50.9360 C   0  0  0  0  0  0  0  0  0  0  0  0
   23.8410    3.6360   52.1240 C   0  0  0  0  0  3  0  0  0  0  0  0
   25.1270    3.3470   52.1740 C   0  0  2  0  0  3  0  0  0  0  0  0
   25.9930    3.6010   51.0770 N   0  0  0  0  0  0  0  0  0  0  0  0
   25.4400    4.1710   49.9310 N   0  0  0  0  0  0  0  0  0  0  0  0
   24.1860    4.4630   49.8570 C   0  0  0  0  0  0  0  0  0  0  0  0
   23.7240    5.0650   48.5920 C   0  0  0  0  0  1  0  0  0  0  0  0
   27.0110    3.3960   51.0540 H   0  0  0  0  0  0  0  0  0  0  0  0
   21.9730    4.4930   50.9850 C   0  0  2  0  0  3  0  0  0  0  0  0
   21.5350    5.6950   51.4690 O   0  0  0  0  0  0  0  0  0  0  0  0
   21.5790    6.9360   50.8530 C   0  0  0  0  0  1  0  0  0  0  0  0
   20.6830    3.8700   50.6690 C   0  0  0  0  0  2  0  0  0  0  0  0
   20.7680    2.4800   50.6390 O   0  0  0  0  0  0  0  0  0  0  0  0
   20.1650    1.9720   51.7650 C   0  0  0  0  0  2  0  0  0  0  0  0
   21.0920    1.1850   52.6650 C   0  0  0  0  0  3  0  0  0  0  0  0
   20.1700    0.4050   53.6150 C   0  0  0  0  0  2  0  0  0  0  0  0
   21.0720   -0.0410   54.7510 C   0  0  0  0  0  2  0  0  0  0  0  0
   22.4170   -0.2880   54.2790 N   0  0  0  0  0  0  0  0  0  0  0  0
   22.9720   -1.3060   55.1660 C   0  0  0  0  0  1  0  0  0  0  0  0
   22.4850   -0.7810   52.9360 C   0  0  0  0  0  2  0  0  0  0  0  0
   22.0280    0.2790   51.9470 C   0  0  0  0  0  2  0  0  0  0  0  0
   25.8030    2.7640   53.2860 N   0  0  0  0  0  0  0  0  0  0  0  0
   25.6180    3.3670   54.1230 H   0  0  0  0  0  0  0  0  0  0  0  0
   26.5750    1.5950   53.2630 C   0  0  0  0  0  0  0  0  0  0  0  0
   25.9840    0.4110   52.9610 C   0  0  0  0  0  3  0  0  0  0  0  0
   26.7620   -0.7390   52.9420 C   0  0  0  0  0  3  0  0  0  0  0  0
   28.1310   -0.6840   53.2280 C   0  0  0  0  0  0  0  0  0  0  0  0
   29.1870   -2.2670   53.1980 Br  0  0  0  0  0  0  0  0  0  0  0  0
   28.6870    0.5590   53.5310 C   0  0  0  0  0  3  0  0  0  0  0  0
   27.9070    1.7200   53.5520 C   0  0  0  0  0  0  0  0  0  0  0  0
   28.5100    2.8960   53.8540 F   0  0  0  0  0  0  0  0  0  0  0  0
  1  9  1  0  0  0  0
  1  2  2  0  0  0  0
  2  3  1  0  0  0  0
  3 22  1  6  0  0  0
  4  3  1  0  0  0  0
  5  4  1  0  0  0  0
  6  5  2  0  0  0  0
  6  1  1  0  0  0  0
  7  6  1  0  0  0  0
  8  4  1  0  0  0  0
  9 12  1  1  0  0  0
  9 10  1  0  0  0  0
 11 10  1  0  0  0  0
 13 12  1  0  0  0  0
 13 14  1  0  0  0  0
 14 15  1  0  0  0  0
 15 16  1  0  0  0  0
 16 17  1  0  0  0  0
 18 17  1  0  0  0  0
 18 19  1  0  0  0  0
 20 18  1  0  0  0  0
 21 15  1  0  0  0  0
 21 20  1  0  0  0  0
 22 23  1  0  0  0  0
 24 22  1  0  0  0  0
 24 30  1  0  0  0  0
 25 24  2  0  0  0  0
 26 25  1  0  0  0  0
 26 27  2  0  0  0  0
 27 29  1  0  0  0  0
 28 27  1  0  0  0  0
 29 30  2  0  0  0  0
 30 31  1  0  0  0  0
M  END
>  <TORSDO>
F 8

$$$$
