C:\Qe-CaDD\Project\Data\Stage_6_Molecular_Dynamics\ligands_top\out_22940_EGFR_extracted.pdbqt
 OpenBabel01082506443D

 23 24  0  0  0  0  0  0  0  0999 V2000
   20.2630   -0.6860   53.6150 C   0  0  0  0  0  0  0  0  0  0  0  0
   20.7140    0.2060   52.6690 C   0  0  0  0  0  3  0  0  0  0  0  0
   22.0610    0.4880   52.6610 C   0  0  0  0  0  3  0  0  0  0  0  0
   22.8980   -0.1120   53.5730 C   0  0  0  0  0  0  0  0  0  0  0  0
   22.4870   -1.0170   54.5450 C   0  0  0  0  0  0  0  0  0  0  0  0
   23.6000   -1.3960   55.2640 C   0  0  0  0  0  3  0  0  0  0  0  0
   24.6380   -0.7480   54.7490 N   0  0  0  0  0  0  0  0  0  0  0  0
   24.2430    0.0190   53.7460 N   0  0  0  0  0  0  0  0  0  0  0  0
   21.1260   -1.2900   54.5360 C   0  0  0  0  0  3  0  0  0  0  0  0
   25.1300    0.8480   52.9640 C   0  0  0  0  0  2  0  0  0  0  0  0
   26.0780   -0.0940   52.2220 C   0  0  0  0  0  2  0  0  0  0  0  0
   27.4020    0.0120   52.7500 C   0  0  0  0  0  2  0  0  0  0  0  0
   28.3870   -0.3490   53.1580 C   0  0  0  0  0  0  0  0  0  0  0  0
   27.6970   -1.5330   52.9180 C   0  0  0  0  0  1  0  0  0  0  0  0
   29.3040   -0.7070   53.5390 C   0  0  0  0  0  0  0  0  0  0  0  0
   30.2790   -1.1120   53.9400 C   0  0  0  0  0  1  0  0  0  0  0  0
   29.1790   -2.0390   53.2420 C   0  0  0  0  0  1  0  0  0  0  0  0
   18.9420   -1.1370   53.8280 N   0  0  0  0  0  0  0  0  0  0  0  0
   18.9630   -1.2110   54.8870 H   0  0  0  0  0  0  0  0  0  0  0  0
   17.6920   -1.5150   53.3380 C   0  0  0  0  0  0  0  0  0  0  0  0
   17.7890   -2.7990   53.6860 C   0  0  0  0  0  2  0  0  0  0  0  0
   16.6930   -0.7520   52.6830 N   0  0  0  0  0  0  0  0  0  0  0  0
   16.7370   -0.4190   51.4370 C   0  0  0  0  0  2  0  0  0  0  0  0
  1 18  1  0  0  0  0
  1  9  1  0  0  0  0
  2  1  2  0  0  0  0
  3  2  1  0  0  0  0
  3  4  2  0  0  0  0
  4  8  1  0  0  0  0
  4  5  1  0  0  0  0
  5  6  1  0  0  0  0
  7  6  2  0  0  0  0
  8  7  1  0  0  0  0
  9  5  2  0  0  0  0
 10  8  1  0  0  0  0
 11 12  1  0  0  0  0
 11 10  1  0  0  0  0
 12 13  1  0  0  0  0
 13 15  2  0  0  0  0
 14 13  1  0  0  0  0
 15 16  1  0  0  0  0
 17 15  1  0  0  0  0
 18 19  1  0  0  0  0
 20 21  2  0  0  0  0
 20 18  1  0  0  0  0
 22 20  1  0  0  0  0
 23 22  2  0  0  0  0
M  END
>  <TORSDO>
F 8

$$$$
