C:\Qe-CaDD\Project\Data\Stage_6_Molecular_Dynamics\ligands_top\out_22802_EGFR_extracted.pdbqt
 OpenBabel01082506443D

 23 25  0  0  1  0  0  0  0  0999 V2000
   22.7590    0.2920   52.5650 C   0  0  0  0  0  0  0  0  0  0  0  0
   23.7890    0.9880   52.2110 C   0  0  0  0  0  0  0  0  0  0  0  0
   23.6780    2.0540   51.2340 C   0  0  0  0  0  0  0  0  0  0  0  0
   24.2690    2.6960   50.2600 C   0  0  0  0  0  3  0  0  0  0  0  0
   23.6030    3.8010   49.5750 C   0  0  0  0  0  2  0  0  0  0  0  0
   22.2230    3.5640   49.1380 C   0  0  2  0  0  3  0  0  0  0  0  0
   21.7560    3.9390   47.7510 C   0  0  0  0  0  1  0  0  0  0  0  0
   21.2790    3.0090   49.9150 C   0  0  0  0  0  2  0  0  0  0  0  0
   21.9070    2.5750   51.5940 P   0  0  1  0  0  0  0  0  0  0  0  0
   21.5220    0.8120   51.9890 N   0  0  0  0  0  0  0  0  0  0  0  0
   20.1660    0.5140   51.6180 C   0  0  0  0  0  1  0  0  0  0  0  0
   25.0770    0.6500   52.7660 C   0  0  0  0  0  0  0  0  0  0  0  0
   25.2700    0.7530   53.9720 O   0  0  0  0  0  0  0  0  0  0  0  0
   26.2390    0.1970   52.1550 N   0  0  0  0  0  0  0  0  0  0  0  0
   26.1630    0.1160   51.1170 H   0  0  0  0  0  0  0  0  0  0  0  0
   27.4840   -0.1350   52.7050 C   0  0  0  0  0  0  0  0  0  0  0  0
   28.4710    0.6740   53.1930 C   0  0  0  0  0  3  0  0  0  0  0  0
   29.6790    0.2810   53.7220 C   0  0  0  0  0  3  0  0  0  0  0  0
   29.9440   -1.0680   53.7760 C   0  0  0  0  0  3  0  0  0  0  0  0
   29.0070   -1.9600   53.3080 C   0  0  0  0  0  3  0  0  0  0  0  0
   27.8370   -1.4620   52.8010 C   0  0  0  0  0  3  0  0  0  0  0  0
   22.1400   -1.0370   53.5210 S   0  0  0  0  0  0  0  0  0  0  0  0
   22.7400   -1.2790   55.1560 C   0  0  0  0  0  1  0  0  0  0  0  0
  1 22  1  0  0  0  0
  2  1  2  0  0  0  0
  2 12  1  0  0  0  0
  3  9  1  0  0  0  0
  3  2  1  0  0  0  0
  4  3  2  0  0  0  0
  5  4  1  0  0  0  0
  6  7  1  1  0  0  0
  6  5  1  0  0  0  0
  6  8  1  0  0  0  0
  9  8  1  6  0  0  0
  9 10  1  0  0  0  0
 10  1  1  0  0  0  0
 11 10  1  0  0  0  0
 12 13  2  0  0  0  0
 14 16  1  0  0  0  0
 14 12  1  0  0  0  0
 15 14  1  0  0  0  0
 16 21  2  0  0  0  0
 16 17  1  0  0  0  0
 17 18  2  0  0  0  0
 18 19  1  0  0  0  0
 20 19  2  0  0  0  0
 21 20  1  0  0  0  0
 22 23  1  0  0  0  0
M  END
>  <TORSDO>
F 3

$$$$
