C:\Qe-CaDD\Project\Data\Stage_6_Molecular_Dynamics\ligands_top\out_12333_EGFR_extracted.pdbqt
 OpenBabel01082506443D

 30 32  0  0  1  0  0  0  0  0999 V2000
   25.5850    0.3530   52.7140 C   0  0  0  0  0  0  0  0  0  0  0  0
   24.2890    0.6090   52.6060 C   0  0  0  0  0  3  0  0  0  0  0  0
   23.2480    0.1190   53.5340 C   0  0  0  0  0  0  0  0  0  0  0  0
   23.8370   -0.7070   54.6200 C   0  0  0  0  0  0  0  0  0  0  0  0
   23.0330   -1.2050   55.5160 C   0  0  0  0  0  2  0  0  0  0  0  0
   21.8940   -1.5820   55.0420 N   0  0  0  0  0  2  0  0  0  0  0  0
   21.7510   -1.7570   53.6070 C   0  0  0  0  0  2  0  0  0  0  0  0
   22.1590   -0.5690   52.8680 N   0  0  0  0  0  0  0  0  0  0  0  0
   25.2700   -0.9630   54.6990 C   0  0  0  0  0  3  0  0  0  0  0  0
   26.1050   -0.4650   53.8020 C   0  0  0  0  0  0  0  0  0  0  0  0
   26.2540    0.9730   51.6730 O   0  0  0  0  0  0  0  0  0  0  0  0
   26.6700    2.3000   51.6270 C   0  0  0  0  0  2  0  0  0  0  0  0
   26.4320    2.9490   50.2790 C   0  0  0  0  0  2  0  0  0  0  0  0
   25.5570    4.1390   50.4410 C   0  0  0  0  0  2  0  0  0  0  0  0
   24.1650    3.9180   50.2410 N   0  0  0  0  0  0  0  0  0  0  0  0
   23.1240    4.3340   51.1570 C   0  0  0  0  0  0  0  0  0  0  0  0
   23.5040    4.6440   52.3870 C   0  0  0  0  0  2  0  0  0  0  0  0
   21.7810    4.3200   50.4690 C   0  0  0  0  0  2  0  0  0  0  0  0
   21.9910    4.9350   49.2390 O   0  0  0  0  0  0  0  0  0  0  0  0
   22.7460    4.1830   48.3620 C   0  0  0  0  0  2  0  0  0  0  0  0
   23.6940    3.2350   49.0540 C   0  0  0  0  0  2  0  0  0  0  0  0
   27.4810   -0.6310   53.7610 O   0  0  0  0  0  0  0  0  0  0  0  0
   28.2830    0.0710   54.6870 C   0  0  0  0  0  1  0  0  0  0  0  0
   21.0000    0.2760   52.7030 C   0  0  1  0  0  3  0  0  0  0  0  0
   20.9910    0.9830   51.4030 C   0  0  0  0  0  3  0  0  0  0  0  0
   21.3640    0.5790   50.1930 C   0  0  0  0  0  3  0  0  0  0  0  0
   21.3440    0.7260   48.8500 F   0  0  0  0  0  0  0  0  0  0  0  0
   19.7470   -0.4390   52.9960 C   0  0  0  0  0  2  0  0  0  0  0  0
   18.5190   -0.4040   52.4410 C   0  0  0  0  0  2  0  0  0  0  0  0
   17.1770   -0.5190   51.2900 Cl  0  0  0  0  0  0  0  0  0  0  0  0
  1 10  1  0  0  0  0
  2  1  2  0  0  0  0
  2  3  1  0  0  0  0
  3  4  2  0  0  0  0
  4  9  1  0  0  0  0
  4  5  1  0  0  0  0
  6  5  1  0  0  0  0
  7  6  1  0  0  0  0
  8  3  1  0  0  0  0
  8  7  1  0  0  0  0
 10  9  2  0  0  0  0
 11  1  1  0  0  0  0
 12 11  1  0  0  0  0
 13 14  1  0  0  0  0
 13 12  1  0  0  0  0
 15 14  1  0  0  0  0
 15 16  1  0  0  0  0
 16 17  2  0  0  0  0
 18 16  1  0  0  0  0
 19 18  1  0  0  0  0
 20 21  1  0  0  0  0
 20 19  1  0  0  0  0
 21 15  1  0  0  0  0
 22 10  1  0  0  0  0
 22 23  1  0  0  0  0
 24 25  1  6  0  0  0
 24  8  1  0  0  0  0
 24 28  1  0  0  0  0
 26 25  2  0  0  0  0
 27 26  1  0  0  0  0
 29 28  1  0  0  0  0
 30 29  1  0  0  0  0
M  END
>  <TORSDO>
F 11

$$$$
