C:\Qe-CaDD\Project\Data\Stage_6_Molecular_Dynamics\ligands_top\out_22413_EGFR_extracted.pdbqt
 OpenBabel01082506443D

 26 26  0  0  0  0  0  0  0  0999 V2000
   20.8490    5.1390   49.1730 N   0  0  0  0  0  0  0  0  0  0  0  0
   20.9470    4.1260   50.0750 C   0  0  0  0  0  0  0  0  0  0  0  0
   21.0500    3.2770   50.8370 C   0  0  0  0  0  0  0  0  0  0  0  0
   21.2020    2.2260   51.7860 C   0  0  0  0  0  2  0  0  0  0  0  0
   19.9810    2.0480   52.5420 N   0  0  0  0  0  0  0  0  0  0  0  0
   20.1980    1.0410   53.5430 C   0  0  0  0  0  2  0  0  0  0  0  0
   20.3620   -0.3630   53.0130 C   0  0  0  0  0  2  0  0  0  0  0  0
   20.6550   -1.3410   54.1300 C   0  0  0  0  0  2  0  0  0  0  0  0
   21.8230   -1.0320   54.9520 C   0  0  0  0  0  2  0  0  0  0  0  0
   23.2020   -1.0710   54.4480 C   0  0  0  0  0  2  0  0  0  0  0  0
   23.6340   -0.2570   53.3110 C   0  0  0  0  0  2  0  0  0  0  0  0
   25.1530   -0.4170   53.1030 C   0  0  0  0  0  2  0  0  0  0  0  0
   25.9310    0.1170   54.2190 C   0  0  0  0  0  3  0  0  0  0  0  0
   26.8520    1.0980   54.3240 C   0  0  0  0  0  3  0  0  0  0  0  0
   27.5030    2.0630   53.4500 C   0  0  0  0  0  3  0  0  0  0  0  0
   27.4900    2.4210   52.1740 C   0  0  0  0  0  3  0  0  0  0  0  0
   26.8210    2.0400   50.9900 N   0  0  0  0  0  0  0  0  0  0  0  0
   26.3650    2.8940   50.1530 C   0  0  0  0  0  3  0  0  0  0  0  0
   26.3570    4.3230   50.1040 N   0  0  0  0  0  2  0  0  0  0  0  0
   25.2280    4.9240   49.9960 C   0  0  0  0  0  2  0  0  0  0  0  0
   24.2530    5.9890   49.8830 C   0  0  0  0  0  2  0  0  0  0  0  0
   23.1400    5.3890   49.8160 N   0  0  0  0  0  2  0  0  0  0  0  0
   21.8570    6.0070   49.6940 C   0  0  0  0  0  2  0  0  0  0  0  0
   19.7090    2.9170   53.0530 H   0  0  0  0  0  0  0  0  0  0  0  0
   19.8960    4.3110   48.6880 O   0  0  0  0  0  0  0  0  0  0  0  0
   19.3490    3.9200   49.4300 H   0  0  0  0  0  0  0  0  0  0  0  0
  1 23  1  0  0  0  0
  1  2  1  0  0  0  0
  2  3  3  0  0  0  0
  3  4  1  0  0  0  0
  4  5  1  0  0  0  0
  5 24  1  0  0  0  0
  5  6  1  0  0  0  0
  7  6  1  0  0  0  0
  7  8  1  0  0  0  0
  8  9  1  0  0  0  0
 10  9  1  0  0  0  0
 11 10  1  0  0  0  0
 12 11  1  0  0  0  0
 12 13  1  0  0  0  0
 13 14  2  0  0  0  0
 15 14  1  0  0  0  0
 16 15  2  0  0  0  0
 17 16  1  0  0  0  0
 18 17  2  0  0  0  0
 19 18  1  0  0  0  0
 20 19  1  0  0  0  0
 21 20  1  0  0  0  0
 22 21  1  0  0  0  0
 23 22  1  0  0  0  0
 25  1  1  0  0  0  0
 25 26  1  0  0  0  0
M  END
>  <TORSDO>
F 1

$$$$
