C:\Qe-CaDD\Project\Data\Stage_6_Molecular_Dynamics\ligands_top\out_18116_EGFR_extracted.pdbqt
 OpenBabel01082506443D

 27 29  0  0  0  0  0  0  0  0999 V2000
   22.8290    1.2070   51.9840 N   0  0  0  0  0  0  0  0  0  0  0  0
   23.7720    0.7240   52.7760 N   0  0  0  0  0  0  0  0  0  0  0  0
   24.9660    1.2780   52.5230 C   0  0  0  0  0  0  0  0  0  0  0  0
   24.6890    2.1620   51.4910 C   0  0  0  0  0  0  0  0  0  0  0  0
   25.4690    3.0440   50.7660 C   0  0  0  0  0  0  0  0  0  0  0  0
   24.9920    3.8300   49.7830 N   0  0  0  0  0  0  0  0  0  0  0  0
   23.6640    3.7680   49.4690 C   0  0  0  0  0  3  0  0  0  0  0  0
   22.8870    2.9170   50.1620 N   0  0  0  0  0  0  0  0  0  0  0  0
   23.3550    2.1360   51.1350 C   0  0  0  0  0  0  0  0  0  0  0  0
   26.2910    1.1070   53.0910 C   0  0  0  0  0  2  0  0  0  0  0  0
   26.9450   -0.0430   53.0670 C   0  0  0  0  0  0  0  0  0  0  0  0
   26.3850   -1.2450   52.4630 C   0  0  0  0  0  3  0  0  0  0  0  0
   28.2710   -0.1500   53.6540 C   0  0  0  0  0  0  0  0  0  0  0  0
   27.1130   -2.3640   52.4820 C   0  0  0  0  0  3  0  0  0  0  0  0
   28.4390   -2.3490   53.1050 C   0  0  0  0  0  0  0  0  0  0  0  0
   29.0060   -1.1690   53.2500 C   0  0  0  0  0  3  0  0  0  0  0  0
   29.0860   -3.5180   53.5300 O   0  0  0  0  0  0  0  0  0  0  0  0
   29.2520   -3.6440   54.5170 H   0  0  0  0  0  0  0  0  0  0  0  0
   28.6910    0.8150   54.6010 N   0  0  0  0  0  0  0  0  0  0  0  0
   29.4870    2.0070   54.8180 C   0  0  0  0  0  1  0  0  0  0  0  0
   28.2500    0.5810   55.5360 H   0  0  0  0  0  0  0  0  0  0  0  0
   21.4480    0.8030   52.0210 C   0  0  0  0  0  2  0  0  0  0  0  0
   21.2410   -0.2780   53.0620 C   0  0  0  0  0  2  0  0  0  0  0  0
   20.7210    0.2990   54.3470 C   0  0  0  0  0  1  0  0  0  0  0  0
   26.8580    3.1830   51.0190 N   0  0  0  0  0  0  0  0  0  0  0  0
   27.8310    3.2730   50.6790 H   0  0  0  0  0  0  0  0  0  0  0  0
   27.2710    3.2390   51.9970 H   0  0  0  0  0  0  0  0  0  0  0  0
  1 22  1  0  0  0  0
  1  2  1  0  0  0  0
  3  2  2  0  0  0  0
  3 10  1  0  0  0  0
  4  3  1  0  0  0  0
  5 25  1  0  0  0  0
  5  4  2  0  0  0  0
  6  5  1  0  0  0  0
  7  6  2  0  0  0  0
  7  8  1  0  0  0  0
  8  9  2  0  0  0  0
  9  4  1  0  0  0  0
  9  1  1  0  0  0  0
 11 10  1  0  0  0  0
 11 13  1  0  0  0  0
 12 14  1  0  0  0  0
 12 11  2  0  0  0  0
 13 19  1  0  0  0  0
 14 15  2  0  0  0  0
 15 16  1  0  0  0  0
 15 17  1  0  0  0  0
 16 13  2  0  0  0  0
 17 18  1  0  0  0  0
 19 20  1  0  0  0  0
 19 21  1  0  0  0  0
 22 23  1  0  0  0  0
 23 24  1  0  0  0  0
 25 27  1  0  0  0  0
 26 25  1  0  0  0  0
M  END
>  <TORSDO>
F 6

$$$$
