C:\Qe-CaDD\Project\Data\Stage_6_Molecular_Dynamics\ligands_top\out_13594_EGFR_extracted.pdbqt
 OpenBabel01082506443D

 26 27  0  0  1  0  0  0  0  0999 V2000
   23.1740    4.8710   51.5310 C   0  0  0  0  0  1  0  0  0  0  0  0
   22.0570    3.9620   51.8600 C   0  0  2  0  0  3  0  0  0  0  0  0
   20.8000    3.9800   52.2830 C   0  0  0  0  0  2  0  0  0  0  0  0
   20.6330    2.6300   52.2310 C   0  0  2  0  0  3  0  0  0  0  0  0
   20.3250    1.6050   53.1590 N   0  0  0  0  0  2  0  0  0  0  0  0
   20.8230    0.1020   53.4880 C   0  0  0  0  0  2  0  0  0  0  0  0
   19.5720   -0.3670   53.3140 N   0  0  0  0  0  2  0  0  0  0  0  0
   19.1740   -1.5760   53.7010 C   0  0  0  0  0  1  0  0  0  0  0  0
   19.7680   -0.3540   53.3670 N   0  0  0  0  0  1  0  0  0  0  0  0
   21.0380   -0.2040   53.6730 C   0  0  1  0  0  0  0  0  0  0  0  0
   22.1970    0.3670   52.7380 C   0  0  2  0  0  3  0  0  0  0  0  0
   23.5920    0.1690   52.8990 C   0  0  0  0  0  3  0  0  0  0  0  0
   24.2440   -0.5370   53.8870 C   0  0  0  0  0  0  0  0  0  0  0  0
   25.3890   -0.9840   54.3870 N   0  0  0  0  0  0  0  0  0  0  0  0
   26.4220   -0.6220   53.5080 C   0  0  0  0  0  0  0  0  0  0  0  0
   27.7530   -0.9910   53.8170 N   0  0  0  0  0  0  0  0  0  0  0  0
   26.5940   -0.0180   52.4250 O   0  0  0  0  0  0  0  0  0  0  0  0
   23.1440   -0.9070   54.5580 C   0  0  0  0  0  3  0  0  0  0  0  0
   22.0190   -0.5380   54.0950 C   0  0  0  0  0  3  0  0  0  0  0  0
   22.5260    1.3300   51.5190 C   0  0  1  0  0  3  0  0  0  0  0  0
   21.6560    0.9120   49.8990 Br  0  0  0  0  0  0  0  0  0  0  0  0
   22.1950    2.6380   52.1290 C   0  0  1  0  0  3  0  0  0  0  0  0
   19.5440    2.1140   53.7330 H   0  0  0  0  0  0  0  0  0  0  0  0
   25.6000   -1.5060   55.2470 H   0  0  0  0  0  0  0  0  0  0  0  0
   28.4090   -1.6170   53.3050 H   0  0  0  0  0  0  0  0  0  0  0  0
   28.4650   -0.7920   54.5820 H   0  0  0  0  0  0  0  0  0  0  0  0
  2  1  1  1  0  0  0
  2 22  1  0  0  0  0
  2  3  1  0  0  0  0
  4  3  1  0  0  0  0
  4  5  1  1  0  0  0
  5 23  1  0  0  0  0
  7 10  1  0  0  0  0
  7  8  1  0  0  0  0
  9  6  1  0  0  0  0
 10  6  1  1  0  0  0
 10 19  1  0  0  0  0
 11 20  1  1  0  0  0
 11 12  1  0  0  0  0
 11 10  1  0  0  0  0
 12 13  2  0  0  0  0
 13 14  1  0  0  0  0
 13 18  1  0  0  0  0
 14 24  1  0  0  0  0
 15 16  1  0  0  0  0
 15 14  1  0  0  0  0
 16 26  1  0  0  0  0
 17 15  2  0  0  0  0
 19 18  2  0  0  0  0
 20 21  1  6  0  0  0
 22 20  1  6  0  0  0
 22  4  1  0  0  0  0
 25 16  1  0  0  0  0
M  END
>  <TORSDO>
F 1

$$$$
