C:\Qe-CaDD\Project\Data\Stage_6_Molecular_Dynamics\ligands_top\out_22810_EGFR_extracted.pdbqt
 OpenBabel01082506443D

 20 21  0  0  0  0  0  0  0  0999 V2000
   22.0670   -1.0720   54.7590 C   0  0  0  0  0  3  0  0  0  0  0  0
   22.7540   -0.3780   53.9130 C   0  0  0  0  0  0  0  0  0  0  0  0
   23.4970    0.2820   53.0760 C   0  0  0  0  0  0  0  0  0  0  0  0
   24.8500    0.2400   53.0550 C   0  0  0  0  0  0  0  0  0  0  0  0
   25.1690    1.1020   51.9940 C   0  0  0  0  0  0  0  0  0  0  0  0
   23.9790    1.6080   51.4450 C   0  0  0  0  0  0  0  0  0  0  0  0
   22.9740    1.0640   52.1560 N   0  0  0  0  0  0  0  0  0  0  0  0
   21.6000    1.3500   51.8860 C   0  0  0  0  0  1  0  0  0  0  0  0
   25.6910   -0.4350   53.8280 C   0  0  0  0  0  2  0  0  0  0  0  0
   26.4180    0.1640   54.9720 C   0  0  0  0  0  1  0  0  0  0  0  0
   26.5450    1.4040   51.5570 C   0  0  0  0  0  3  0  0  0  0  0  0
   27.2240    2.3880   51.9480 O   0  0  0  0  0  0  0  0  0  0  0  0
   24.0230    2.7470   50.0660 S   0  0  0  0  0  0  0  0  0  0  0  0
   24.3820    4.6770   50.8230 S   0  0  0  0  0  0  0  0  0  0  0  0
   25.6810    5.4430   49.8750 C   0  0  0  0  0  0  0  0  0  0  0  0
   25.9170    6.7690   49.5870 C   0  0  0  0  0  3  0  0  0  0  0  0
   27.0050    7.1110   48.8140 C   0  0  0  0  0  3  0  0  0  0  0  0
   27.8890    6.1860   48.3010 C   0  0  0  0  0  3  0  0  0  0  0  0
   27.6550    4.8580   48.5880 C   0  0  0  0  0  3  0  0  0  0  0  0
   26.5590    4.4750   49.3690 C   0  0  0  0  0  3  0  0  0  0  0  0
  2  1  3  0  0  0  0
  3  2  1  0  0  0  0
  4  3  2  0  0  0  0
  4  9  1  0  0  0  0
  5  4  1  0  0  0  0
  6  5  2  0  0  0  0
  6  7  1  0  0  0  0
  7  3  1  0  0  0  0
  8  7  1  0  0  0  0
  9 10  1  0  0  0  0
 11 12  2  0  0  0  0
 11  5  1  0  0  0  0
 13 14  1  0  0  0  0
 13  6  1  0  0  0  0
 15 14  1  0  0  0  0
 16 15  1  0  0  0  0
 17 16  2  0  0  0  0
 18 19  2  0  0  0  0
 18 17  1  0  0  0  0
 19 20  1  0  0  0  0
 20 15  2  0  0  0  0
M  END
>  <TORSDO>
F 5

$$$$
