C:\Qe-CaDD\Project\Data\Stage_6_Molecular_Dynamics\ligands_top\out_11883_EGFR_extracted.pdbqt
 OpenBabel01082506443D

 23 25  0  0  1  0  0  0  0  0999 V2000
   22.5530   -1.6420   55.4500 O   0  0  0  0  0  1  0  0  0  0  0  0
   22.8660   -0.7510   54.5700 C   0  0  0  0  0  0  0  0  0  0  0  0
   24.2910   -0.9650   54.4210 C   0  0  0  0  0  3  0  0  0  0  0  0
   25.4820   -0.7230   53.9300 C   0  0  0  0  0  0  0  0  0  0  0  0
   26.5620   -0.1240   53.1550 C   0  0  0  0  0  3  0  0  0  0  0  0
   27.0400    0.7520   52.2910 C   0  0  0  0  0  2  0  0  0  0  0  0
   26.1430    1.7570   51.6530 C   0  0  0  0  0  2  0  0  0  0  0  0
   24.8570    1.6430   52.0690 O   0  0  0  0  0  0  0  0  0  0  0  0
   24.0360    2.5790   51.4860 C   0  0  1  0  0  0  0  0  0  0  0  0
   23.6950    3.6120   52.5100 C   0  0  0  0  0  2  0  0  0  0  0  0
   23.4300    4.8950   52.3380 C   0  0  0  0  0  3  0  0  0  0  0  0
   23.9570    5.4490   51.2890 C   0  0  0  0  0  3  0  0  0  0  0  0
   24.6240    4.6400   50.2570 C   0  0  0  0  0  3  0  0  0  0  0  0
   24.6480    3.3010   50.3700 C   0  0  0  0  0  3  0  0  0  0  0  0
   22.7850    1.8610   51.0500 C   0  0  0  0  0  0  0  0  0  0  0  0
   22.5450    1.8720   49.6930 C   0  0  0  0  0  3  0  0  0  0  0  0
   21.4760    1.3130   49.0360 C   0  0  0  0  0  3  0  0  0  0  0  0
   20.5270    0.6680   49.7980 C   0  0  0  0  0  3  0  0  0  0  0  0
   20.7800    0.6640   51.1720 C   0  0  0  0  0  3  0  0  0  0  0  0
   21.8840    1.2420   51.8270 C   0  0  0  0  0  0  0  0  0  0  0  0
   21.6740    0.9470   53.1910 N   0  0  0  0  0  0  0  0  0  0  0  0
   21.6580   -0.0480   54.2260 C   0  0  0  0  0  3  0  0  0  0  0  0
   21.4210    1.9430   53.3150 H   0  0  0  0  0  0  0  0  0  0  0  0
  2  1  1  0  0  0  0
  3  2  1  0  0  0  0
  4  3  2  0  0  0  0
  5  4  2  0  0  0  0
  6  5  1  0  0  0  0
  7  8  1  0  0  0  0
  7  6  1  0  0  0  0
  9 14  1  6  0  0  0
  9  8  1  0  0  0  0
  9 10  1  0  0  0  0
 11 10  1  0  0  0  0
 12 11  2  0  0  0  0
 13 14  2  0  0  0  0
 13 12  1  0  0  0  0
 15  9  1  0  0  0  0
 15 20  1  0  0  0  0
 16 15  2  0  0  0  0
 17 16  1  0  0  0  0
 17 18  2  0  0  0  0
 18 19  1  0  0  0  0
 19 20  2  0  0  0  0
 20 21  1  0  0  0  0
 21 23  1  0  0  0  0
 21 22  1  0  0  0  0
 22  2  2  0  0  0  0
M  END
>  <TORSDO>
F 0

$$$$
