C:\Qe-CaDD\Project\Data\Stage_6_Molecular_Dynamics\ligands_top\out_20668_EGFR_extracted.pdbqt
 OpenBabel01082506443D

 28 30  0  0  1  0  0  0  0  0999 V2000
   22.3830    2.2080   51.3130 C   0  0  0  0  0  0  0  0  0  0  0  0
   21.5140    3.2530   51.5550 C   0  0  0  0  0  3  0  0  0  0  0  0
   21.9570    4.4160   52.0620 N   0  0  0  0  0  0  0  0  0  0  0  0
   23.2510    4.6040   52.3500 C   0  0  0  0  0  0  0  0  0  0  0  0
   24.0710    3.5820   52.1080 N   0  0  0  0  0  0  0  0  0  0  0  0
   23.7340    2.4070   51.6140 C   0  0  0  0  0  0  0  0  0  0  0  0
   24.6370    1.3640   51.3680 N   0  0  0  0  0  0  0  0  0  0  0  0
   24.5760    0.8660   50.4280 H   0  0  0  0  0  0  0  0  0  0  0  0
   25.6830    0.7980   52.1470 C   0  0  0  0  0  0  0  0  0  0  0  0
   25.6030   -0.4430   52.7970 C   0  0  0  0  0  3  0  0  0  0  0  0
   26.6750   -0.9040   53.5260 C   0  0  0  0  0  3  0  0  0  0  0  0
   27.8560   -0.2030   53.6600 C   0  0  0  0  0  0  0  0  0  0  0  0
   27.9530    1.0180   53.0290 C   0  0  0  0  0  3  0  0  0  0  0  0
   26.8740    1.4720   52.3020 C   0  0  0  0  0  3  0  0  0  0  0  0
   28.8840   -0.7470   54.4150 O   0  0  0  0  0  0  0  0  0  0  0  0
   30.0270   -1.2190   53.7220 C   0  0  0  0  0  1  0  0  0  0  0  0
   21.8290    0.9390   50.7650 C   0  0  0  0  0  2  0  0  0  0  0  0
   20.8650    0.3040   51.6990 C   0  0  0  0  0  0  0  0  0  0  0  0
   21.5550   -0.3420   52.8250 C   0  0  0  0  0  3  0  0  0  0  0  0
   20.8770   -0.9760   53.7910 C   0  0  2  0  0  3  0  0  0  0  0  0
   19.5090   -1.0130   53.7120 O   0  0  0  0  0  0  0  0  0  0  0  0
   18.7350   -0.4310   52.6840 C   0  0  0  0  0  3  0  0  0  0  0  0
   19.5380    0.2430   51.6630 C   0  0  0  0  0  3  0  0  0  0  0  0
   21.5170   -1.5950   54.8700 O   0  0  0  0  0  0  0  0  0  0  0  0
   22.8590   -1.2280   55.2130 C   0  0  0  0  0  1  0  0  0  0  0  0
   23.8260    5.7990   52.8900 N   0  0  0  0  0  0  0  0  0  0  0  0
   23.4350    6.5510   53.4980 H   0  0  0  0  0  0  0  0  0  0  0  0
   24.8370    5.9990   52.6540 H   0  0  0  0  0  0  0  0  0  0  0  0
  1  2  2  0  0  0  0
  1  6  1  0  0  0  0
  2  3  1  0  0  0  0
  3  4  2  0  0  0  0
  4 26  1  0  0  0  0
  5  4  1  0  0  0  0
  6  5  2  0  0  0  0
  7  6  1  0  0  0  0
  7  9  1  0  0  0  0
  8  7  1  0  0  0  0
  9 14  2  0  0  0  0
  9 10  1  0  0  0  0
 10 11  2  0  0  0  0
 11 12  1  0  0  0  0
 12 15  1  0  0  0  0
 13 12  2  0  0  0  0
 14 13  1  0  0  0  0
 16 15  1  0  0  0  0
 17  1  1  0  0  0  0
 17 18  1  0  0  0  0
 18 19  2  0  0  0  0
 19 20  1  0  0  0  0
 20 24  1  1  0  0  0
 21 20  1  0  0  0  0
 22 21  1  0  0  0  0
 23 18  1  0  0  0  0
 23 22  2  0  0  0  0
 24 25  1  0  0  0  0
 26 27  1  0  0  0  0
 28 26  1  0  0  0  0
M  END
>  <TORSDO>
F 7

$$$$
