C:\Qe-CaDD\Project\Data\Stage_6_Molecular_Dynamics\ligands_top\out_21760_EGFR_extracted.pdbqt
 OpenBabel01082506443D

 33 35  0  0  1  0  0  0  0  0999 V2000
   23.8530    3.5460   51.4520 C   0  0  1  0  0  0  0  0  0  0  0  0
   23.0700    4.0430   50.3050 C   0  0  0  0  0  0  0  0  0  0  0  0
   23.2060    5.4910   50.1820 C   0  0  0  0  0  0  0  0  0  0  0  0
   23.3070    6.6610   50.0650 N   0  0  0  0  0  0  0  0  0  0  0  0
   22.2960    3.4750   49.3980 C   0  0  0  0  0  3  0  0  0  0  0  0
   22.1390    2.0440   49.4990 N   0  0  0  0  0  0  0  0  0  0  0  0
   22.7740    1.4380   50.4710 C   0  0  0  0  0  3  0  0  0  0  0  0
   23.6460    2.0700   51.4860 C   0  0  0  0  0  0  0  0  0  0  0  0
   24.1750    1.2620   52.3830 C   0  0  0  0  0  3  0  0  0  0  0  0
   25.2630    3.8570   51.3840 N   0  0  0  0  0  0  0  0  0  0  0  0
   25.6750    4.4870   52.1380 H   0  0  0  0  0  0  0  0  0  0  0  0
   26.1570    3.4090   50.4100 C   0  0  0  0  0  3  0  0  0  0  0  0
   26.7860    3.8690   49.3430 C   0  0  0  0  0  3  0  0  0  0  0  0
   26.6160    5.2350   48.8960 C   0  0  0  0  0  3  0  0  0  0  0  0
   27.6180    5.9630   48.3790 C   0  0  0  0  0  0  0  0  0  0  0  0
   28.9730    5.3920   48.2380 C   0  0  0  0  0  1  0  0  0  0  0  0
   27.3680    7.3400   47.9500 C   0  0  0  0  0  0  0  0  0  0  0  0
   26.1900    7.6860   47.4690 C   0  0  0  0  0  2  0  0  0  0  0  0
   28.2590    8.3360   47.9990 F   0  0  0  0  0  0  0  0  0  0  0  0
   23.2100    4.1260   52.6950 C   0  0  0  0  0  2  0  0  0  0  0  0
   24.1400    4.8290   53.4590 O   0  0  0  0  0  0  0  0  0  0  0  0
   23.9200    5.7940   53.4750 H   0  0  0  0  0  0  0  0  0  0  0  0
   24.4190   -0.0310   52.9940 C   0  0  0  0  0  2  0  0  0  0  0  0
   25.8500   -0.4180   53.1350 C   0  0  0  0  0  0  0  0  0  0  0  0
   26.7270    0.3720   53.7370 C   0  0  2  0  0  3  0  0  0  0  0  0
   26.6730    1.7030   54.3940 C   0  0  0  0  0  2  0  0  0  0  0  0
   28.0710   -0.1090   53.8060 N   0  0  0  0  0  0  0  0  0  0  0  0
   27.6260    2.5920   53.9550 O   0  0  0  0  0  0  0  0  0  0  0  0
   28.9040    2.1080   53.8630 C   0  0  0  0  0  2  0  0  0  0  0  0
   28.9880    0.7540   54.5290 C   0  0  0  0  0  2  0  0  0  0  0  0
   28.6030   -1.3300   53.2470 C   0  0  0  0  0  3  0  0  0  0  0  0
   27.5630   -2.1520   52.5930 C   0  0  0  0  0  3  0  0  0  0  0  0
   26.3380   -1.6740   52.5810 C   0  0  0  0  0  3  0  0  0  0  0  0
  1  8  1  0  0  0  0
  1 20  1  1  0  0  0
  2  1  1  0  0  0  0
  3  2  1  0  0  0  0
  4  3  3  0  0  0  0
  5  6  1  0  0  0  0
  5  2  2  0  0  0  0
  6  7  2  0  0  0  0
  7  8  1  0  0  0  0
  8  9  2  0  0  0  0
  9 23  1  0  0  0  0
 10  1  1  0  0  0  0
 10 11  1  0  0  0  0
 12 10  1  0  0  0  0
 13 12  2  0  0  0  0
 14 13  1  0  0  0  0
 15 14  2  0  0  0  0
 16 15  1  0  0  0  0
 17 19  1  0  0  0  0
 17 15  1  0  0  0  0
 18 17  2  0  0  0  0
 20 21  1  0  0  0  0
 21 22  1  0  0  0  0
 23 24  1  0  0  0  0
 24 25  1  0  0  0  0
 25 27  1  0  0  0  0
 25 26  1  6  0  0  0
 27 30  1  0  0  0  0
 28 26  1  0  0  0  0
 29 28  1  0  0  0  0
 29 30  1  0  0  0  0
 31 27  1  0  0  0  0
 32 31  2  0  0  0  0
 33 32  1  0  0  0  0
 33 24  2  0  0  0  0
M  END
>  <TORSDO>
F 8

$$$$
