C:\Qe-CaDD\Project\Data\Stage_6_Molecular_Dynamics\ligands_top\out_12362_EGFR_extracted.pdbqt
 OpenBabel01082506443D

 35 39  0  0  1  0  0  0  0  0999 V2000
   24.4400    8.5080   49.5960 C   0  0  0  0  0  1  0  0  0  0  0  0
   23.5170    7.7150   50.5220 C   0  0  2  0  0  3  0  0  0  0  0  0
   23.9590    6.3310   50.3770 N   0  0  0  0  0  0  0  0  0  0  0  0
   23.0080    5.7330   49.4380 C   0  0  1  0  0  3  0  0  0  0  0  0
   23.5040    4.1520   48.7880 S   0  0  0  0  0  0  0  0  0  0  0  0
   24.3310    3.1930   50.0310 C   0  0  0  0  0  0  0  0  0  0  0  0
   25.7150    3.3870   49.9430 C   0  0  0  0  0  3  0  0  0  0  0  0
   26.6190    2.7220   50.7810 C   0  0  0  0  0  3  0  0  0  0  0  0
   26.0920    1.8550   51.7150 C   0  0  0  0  0  0  0  0  0  0  0  0
   26.9490    1.1890   52.5320 N   0  0  0  0  0  0  0  0  0  0  0  0
   26.4350    0.3400   53.4270 C   0  0  0  0  0  3  0  0  0  0  0  0
   25.0740    0.1350   53.5270 C   0  0  0  0  0  0  0  0  0  0  0  0
   24.1920    0.8040   52.7030 C   0  0  0  0  0  0  0  0  0  0  0  0
   24.7260    1.6780   51.7850 C   0  0  0  0  0  0  0  0  0  0  0  0
   23.8290    2.3210   50.9750 C   0  0  0  0  0  0  0  0  0  0  0  0
   22.4390    2.1920   51.0560 N   0  0  0  0  0  0  0  0  0  0  0  0
   21.5130    2.2720   49.9790 N   0  0  0  0  0  0  0  0  0  0  0  0
   21.6020    3.6390   50.0740 N   0  0  0  0  0  2  0  0  0  0  0  0
   20.8550    4.5730   49.7310 C   0  0  0  0  0  2  0  0  0  0  0  0
   21.6960    5.6850   50.1970 C   0  0  2  0  0  3  0  0  0  0  0  0
   21.0650    7.0400   49.9580 C   0  0  0  0  0  2  0  0  0  0  0  0
   22.0880    7.9070   50.1570 C   0  0  1  0  0  3  0  0  0  0  0  0
   21.9120    9.2550   50.0330 F   0  0  0  0  0  0  0  0  0  0  0  0
   22.8770    0.4770   52.9380 O   0  0  0  0  0  0  0  0  0  0  0  0
   22.5250   -0.8040   53.4200 C   0  0  0  0  0  2  0  0  0  0  0  0
   23.2680   -1.0870   54.7020 C   0  0  0  0  0  0  0  0  0  0  0  0
   22.8500   -1.4920   55.7940 O   0  0  0  0  0  0  0  0  0  0  0  0
   24.6760   -0.8150   54.5380 N   0  0  0  0  0  0  0  0  0  0  0  0
   23.8290    5.8730   51.3070 H   0  0  0  0  0  0  0  0  0  0  0  0
   22.0030    2.0390   51.9840 H   0  0  0  0  0  0  0  0  0  0  0  0
   25.4000   -1.2950   55.1400 H   0  0  0  0  0  0  0  0  0  0  0  0
   21.1840    0.9150   49.6070 C   0  0  0  0  0  2  0  0  0  0  0  0
   20.6020    0.1680   50.6960 N   0  0  0  0  0  0  0  0  0  0  0  0
   20.7260    0.5960   51.6170 H   0  0  0  0  0  0  0  0  0  0  0  0
   20.8380   -0.8440   50.6880 H   0  0  0  0  0  0  0  0  0  0  0  0
  2  1  1  6  0  0  0
  3  2  1  0  0  0  0
  3 29  1  0  0  0  0
  4  5  1  1  0  0  0
  4 20  1  0  0  0  0
  4  3  1  0  0  0  0
  5  6  1  0  0  0  0
  6 15  1  0  0  0  0
  7  6  2  0  0  0  0
  7  8  1  0  0  0  0
  8  9  2  0  0  0  0
  9 14  1  0  0  0  0
  9 10  1  0  0  0  0
 10 11  2  0  0  0  0
 11 12  1  0  0  0  0
 12 28  1  0  0  0  0
 13 24  1  0  0  0  0
 13 12  2  0  0  0  0
 14 13  1  0  0  0  0
 15 16  1  0  0  0  0
 15 14  2  0  0  0  0
 16 30  1  0  0  0  0
 17 18  1  0  0  0  0
 17 16  1  0  0  0  0
 19 18  1  0  0  0  0
 20 19  1  6  0  0  0
 21 22  1  0  0  0  0
 21 20  1  0  0  0  0
 22 23  1  1  0  0  0
 22  2  1  0  0  0  0
 24 25  1  0  0  0  0
 25 26  1  0  0  0  0
 26 27  2  0  0  0  0
 28 26  1  0  0  0  0
 28 31  1  0  0  0  0
 32 17  1  0  0  0  0
 32 33  1  0  0  0  0
 33 34  1  0  0  0  0
 35 33  1  0  0  0  0
M  END
>  <TORSDO>
F 2

$$$$
