C:\Qe-CaDD\Project\Data\Stage_6_Molecular_Dynamics\ligands_top\out_16985_EGFR_extracted.pdbqt
 OpenBabel01082506443D

 24 26  0  0  1  0  0  0  0  0999 V2000
   26.5730    0.1490   54.1890 C   0  0  0  0  0  0  0  0  0  0  0  0
   25.4310   -0.5840   53.8750 C   0  0  0  0  0  3  0  0  0  0  0  0
   24.3110    0.0720   53.3700 C   0  0  0  0  0  0  0  0  0  0  0  0
   23.2060   -0.6610   53.0690 N   0  0  0  0  0  0  0  0  0  0  0  0
   22.1030   -0.0570   52.5780 C   0  0  0  0  0  3  0  0  0  0  0  0
   22.1260    1.2840   52.3960 N   0  0  0  0  0  0  0  0  0  0  0  0
   23.2280    1.9950   52.6990 C   0  0  0  0  0  0  0  0  0  0  0  0
   24.3640    1.4380   53.1950 C   0  0  0  0  0  0  0  0  0  0  0  0
   25.4750    2.1930   53.4960 C   0  0  0  0  0  3  0  0  0  0  0  0
   26.5730    1.5230   53.9940 C   0  0  0  0  0  0  0  0  0  0  0  0
   23.1150    3.3910   52.4590 N   0  0  0  0  0  0  0  0  0  0  0  0
   22.6710    4.1550   53.0110 H   0  0  0  0  0  0  0  0  0  0  0  0
   23.6670    3.9860   51.2880 C   0  0  0  0  0  0  0  0  0  0  0  0
   23.9470    5.2720   51.1490 C   0  0  0  0  0  2  0  0  0  0  0  0
   25.0010    5.6410   50.4510 C   0  0  2  0  0  3  0  0  0  0  0  0
   25.5760    6.8380   50.6790 F   0  0  0  0  0  0  0  0  0  0  0  0
   25.4870    4.6800   49.4370 C   0  0  2  0  0  3  0  0  0  0  0  0
   27.0890    4.9330   48.7750 Cl  0  0  0  0  0  0  0  0  0  0  0  0
   24.6860    3.6880   49.0890 C   0  0  0  0  0  2  0  0  0  0  0  0
   23.9820    3.1810   50.0880 C   0  0  0  0  0  3  0  0  0  0  0  0
   27.7290    2.2210   54.3190 O   0  0  0  0  0  0  0  0  0  0  0  0
   28.6630    2.5630   53.3020 C   0  0  0  0  0  1  0  0  0  0  0  0
   27.7120   -0.4800   54.6970 O   0  0  0  0  0  0  0  0  0  0  0  0
   28.6020   -1.0400   53.7300 C   0  0  0  0  0  1  0  0  0  0  0  0
  1 23  1  0  0  0  0
  2  1  2  0  0  0  0
  3  2  1  0  0  0  0
  4  3  2  0  0  0  0
  5  4  1  0  0  0  0
  6  5  2  0  0  0  0
  6  7  1  0  0  0  0
  7  8  2  0  0  0  0
  8  3  1  0  0  0  0
  8  9  1  0  0  0  0
  9 10  2  0  0  0  0
 10  1  1  0  0  0  0
 10 21  1  0  0  0  0
 11  7  1  0  0  0  0
 11 12  1  0  0  0  0
 13 11  1  0  0  0  0
 14 13  1  0  0  0  0
 15 16  1  6  0  0  0
 15 14  1  0  0  0  0
 17 18  1  6  0  0  0
 17 15  1  0  0  0  0
 19 17  1  0  0  0  0
 19 20  1  0  0  0  0
 20 13  2  0  0  0  0
 22 21  1  0  0  0  0
 24 23  1  0  0  0  0
M  END
>  <TORSDO>
F 4

$$$$
