C:\Qe-CaDD\Project\Data\Stage_6_Molecular_Dynamics\ligands_top\out_12029_EGFR_extracted.pdbqt
 OpenBabel01082506443D

 25 27  0  0  0  0  0  0  0  0999 V2000
   23.7870   -0.3280   53.8730 C   0  0  0  0  0  0  0  0  0  0  0  0
   23.6610    0.5980   52.8950 C   0  0  0  0  0  3  0  0  0  0  0  0
   24.7800    1.3770   52.5610 C   0  0  0  0  0  0  0  0  0  0  0  0
   25.9240    1.1110   53.2830 C   0  0  0  0  0  3  0  0  0  0  0  0
   26.0810    0.1680   54.2890 C   0  0  0  0  0  0  0  0  0  0  0  0
   24.9600   -0.5710   54.5830 C   0  0  0  0  0  0  0  0  0  0  0  0
   24.6610    2.3750   51.5120 C   0  0  0  0  0  3  0  0  0  0  0  0
   24.1690    3.5840   51.7110 C   0  0  0  0  0  0  0  0  0  0  0  0
   23.6400    4.2690   52.8970 C   0  0  0  0  0  2  0  0  0  0  0  0
   24.0430    4.5900   50.6370 C   0  0  0  0  0  0  0  0  0  0  0  0
   23.9380    5.6790   52.5970 N   0  0  0  0  0  0  0  0  0  0  0  0
   23.9040    5.8510   51.2000 C   0  0  0  0  0  0  0  0  0  0  0  0
   24.1450    6.4410   53.3050 H   0  0  0  0  0  0  0  0  0  0  0  0
   23.7660    6.9830   50.4260 C   0  0  0  0  0  3  0  0  0  0  0  0
   23.7750    6.7860   49.0400 C   0  0  0  0  0  3  0  0  0  0  0  0
   23.9090    5.5680   48.4260 C   0  0  0  0  0  3  0  0  0  0  0  0
   24.0420    4.4900   49.2610 C   0  0  0  0  0  3  0  0  0  0  0  0
   22.5760   -1.1350   54.1850 C   0  0  0  0  0  2  0  0  0  0  0  0
   21.1530   -0.1300   54.6050 S   0  0  0  0  0  0  0  0  0  0  0  0
   19.8440   -0.4770   53.3900 C   0  0  0  0  0  1  0  0  0  0  0  0
   27.4130    0.0930   54.9070 C   0  0  0  0  0  2  0  0  0  0  0  0
   28.7250    0.5330   53.7860 S   0  0  0  0  0  0  0  0  0  0  0  0
   29.9010   -0.8050   53.5680 C   0  0  0  0  0  1  0  0  0  0  0  0
   25.0650   -1.5250   55.5780 O   0  0  0  0  0  0  0  0  0  0  0  0
   24.2250   -1.7730   56.1090 H   0  0  0  0  0  0  0  0  0  0  0  0
  1 18  1  0  0  0  0
  1  6  1  0  0  0  0
  2  1  2  0  0  0  0
  3  2  1  0  0  0  0
  3  4  2  0  0  0  0
  4  5  1  0  0  0  0
  5  6  2  0  0  0  0
  5 21  1  0  0  0  0
  6 24  1  0  0  0  0
  7  8  2  0  0  0  0
  7  3  1  0  0  0  0
  8  9  1  0  0  0  0
 10 12  1  0  0  0  0
 10  8  1  0  0  0  0
 11  9  1  0  0  0  0
 11 13  1  0  0  0  0
 12 11  1  0  0  0  0
 14 12  2  0  0  0  0
 15 14  1  0  0  0  0
 16 15  2  0  0  0  0
 16 17  1  0  0  0  0
 17 10  2  0  0  0  0
 18 19  1  0  0  0  0
 20 19  1  0  0  0  0
 22 21  1  0  0  0  0
 23 22  1  0  0  0  0
 24 25  1  0  0  0  0
M  END
>  <TORSDO>
F 6

$$$$
