C:\Qe-CaDD\Project\Data\Stage_6_Molecular_Dynamics\ligands_top\out_21372_EGFR_extracted.pdbqt
 OpenBabel01082506443D

 27 29  0  0  1  0  0  0  0  0999 V2000
   22.5170    0.6340   52.8330 S   0  0  0  0  0  5  0  0  0  0  0  0
   21.4980   -0.1670   51.8410 O   0  0  0  0  0  1  0  0  0  0  0  0
   23.8260   -0.3130   53.4620 N   0  0  0  0  0  0  0  0  0  0  0  0
   25.1520    0.1300   53.6820 C   0  0  0  0  0  0  0  0  0  0  0  0
   25.6920    1.2030   54.3310 C   0  0  0  0  0  2  0  0  0  0  0  0
   26.8760    1.9820   53.7600 C   0  0  0  0  0  2  0  0  0  0  0  0
   27.1360    1.2200   52.4070 C   0  0  1  0  0  3  0  0  0  0  0  0
   27.4660   -0.1670   53.0330 C   0  0  0  0  0  2  0  0  0  0  0  0
   26.2100   -0.6520   52.9490 C   0  0  0  0  0  0  0  0  0  0  0  0
   25.7470    1.0090   51.8480 C   0  0  0  0  0  3  0  0  0  0  0  0
   24.6890    1.7380   51.9930 C   0  0  0  0  0  0  0  0  0  0  0  0
   24.3460    2.9660   52.6440 C   0  0  0  0  0  0  0  0  0  0  0  0
   24.0890    3.9580   53.1740 N   0  0  0  0  0  0  0  0  0  0  0  0
   23.3830    1.0200   51.6020 C   0  0  2  0  0  3  0  0  0  0  0  0
   22.4260    1.9590   53.1650 H   0  0  0  0  0  0  0  0  0  0  0  0
   23.8390   -1.3330   53.7660 H   0  0  0  0  0  0  0  0  0  0  0  0
   22.7740    1.9670   50.6310 C   0  0  0  0  0  0  0  0  0  0  0  0
   23.2860    2.3700   49.4190 C   0  0  0  0  0  3  0  0  0  0  0  0
   22.6930    3.2460   48.5380 C   0  0  0  0  0  3  0  0  0  0  0  0
   21.4710    3.7850   48.8760 C   0  0  0  0  0  3  0  0  0  0  0  0
   20.8520    3.4600   50.0630 C   0  0  0  0  0  0  0  0  0  0  0  0
   19.1630    4.1710   50.5900 Br  0  0  0  0  0  0  0  0  0  0  0  0
   21.5380    2.5760   50.8650 C   0  0  0  0  0  3  0  0  0  0  0  0
   21.7240    0.1650   54.1020 C   0  0  0  0  0  3  0  0  0  0  0  0
   21.8520   -0.8710   54.9450 C   0  0  0  0  0  2  0  0  0  0  0  0
   26.7380   -1.6620   52.1650 O   0  0  0  0  0  0  0  0  0  0  0  0
   27.7550   -2.5320   52.6560 C   0  0  0  0  0  1  0  0  0  0  0  0
  1 15  1  0  0  0  0
  1  3  1  0  0  0  0
  1 24  1  0  0  0  0
  2  1  1  0  0  0  0
  3  4  1  0  0  0  0
  3 16  1  0  0  0  0
  4  5  1  0  0  0  0
  6  5  1  0  0  0  0
  7 10  1  6  0  0  0
  7  8  1  0  0  0  0
  7  6  1  0  0  0  0
  9  8  1  0  0  0  0
  9  4  2  0  0  0  0
 10 11  2  0  0  0  0
 11 12  1  0  0  0  0
 12 13  3  0  0  0  0
 14 17  1  6  0  0  0
 14 11  1  0  0  0  0
 14  1  1  0  0  0  0
 17 23  1  0  0  0  0
 18 17  2  0  0  0  0
 19 20  2  0  0  0  0
 19 18  1  0  0  0  0
 20 21  1  0  0  0  0
 21 22  1  0  0  0  0
 21 23  2  0  0  0  0
 24 25  2  0  0  0  0
 26 27  1  0  0  0  0
 26  9  1  0  0  0  0
M  END
>  <TORSDO>
F 3

$$$$
