C:\Qe-CaDD\Project\Data\Stage_6_Molecular_Dynamics\ligands_top\out_11881_EGFR_extracted.pdbqt
 OpenBabel01082506443D

 28 30  0  0  1  0  0  0  0  0999 V2000
   25.1250    0.4070   53.4000 C   0  0  1  0  0  3  0  0  0  0  0  0
   24.0240    1.4190   53.3330 C   0  0  0  0  0  2  0  0  0  0  0  0
   24.1180    2.4420   52.4980 C   0  0  1  0  0  3  0  0  0  0  0  0
   23.6780    3.7640   52.9390 C   0  0  0  0  0  2  0  0  0  0  0  0
   22.7930    4.5300   52.1450 N   0  0  0  0  0  0  0  0  0  0  0  0
   21.8900    5.3120   51.3350 C   0  0  0  0  0  0  0  0  0  0  0  0
   20.9370    4.5610   51.5870 O   0  0  0  0  0  0  0  0  0  0  0  0
   21.9790    6.5230   50.4800 C   0  0  0  0  0  3  0  0  0  0  0  0
   22.9320    7.2720   49.9620 C   0  0  0  0  0  3  0  0  0  0  0  0
   24.4450    7.4140   49.8380 C   0  0  0  0  0  2  0  0  0  0  0  0
   25.0370    6.0820   50.2350 C   0  0  0  0  0  3  0  0  0  0  0  0
   25.8330    5.3050   49.5130 C   0  0  0  0  0  3  0  0  0  0  0  0
   26.6290    4.0780   49.3040 C   0  0  0  0  0  3  0  0  0  0  0  0
   26.7620    3.0250   50.0890 C   0  0  0  0  0  3  0  0  0  0  0  0
   26.1940    2.6670   51.4090 C   0  0  1  0  0  3  0  0  0  0  0  0
   24.6990    2.4590   51.1280 C   0  0  0  0  0  2  0  0  0  0  0  0
   26.7590    1.6420   52.0680 O   0  0  0  0  0  0  0  0  0  0  0  0
   26.0830    0.4590   52.2380 C   0  0  1  0  0  3  0  0  0  0  0  0
   23.2580    5.4270   52.0280 H   0  0  0  0  0  0  0  0  0  0  0  0
   27.1580   -0.5510   52.5810 C   0  0  0  0  0  0  0  0  0  0  0  0
   27.0770   -1.9200   52.4780 C   0  0  0  0  0  3  0  0  0  0  0  0
   28.1490   -2.7060   52.8400 C   0  0  0  0  0  3  0  0  0  0  0  0
   29.3340   -2.1830   53.3140 C   0  0  0  0  0  3  0  0  0  0  0  0
   29.4270   -0.8110   53.4220 C   0  0  0  0  0  3  0  0  0  0  0  0
   28.3440   -0.0380   53.0560 C   0  0  0  0  0  3  0  0  0  0  0  0
   25.9380    0.6350   54.6000 N   0  0  0  0  0  0  0  0  0  0  0  0
   25.8950   -0.1840   55.2430 H   0  0  0  0  0  0  0  0  0  0  0  0
   26.8960    0.8790   54.2810 H   0  0  0  0  0  0  0  0  0  0  0  0
  1 26  1  1  0  0  0
  2  1  1  0  0  0  0
  3 16  1  1  0  0  0
  3  4  1  0  0  0  0
  3  2  1  0  0  0  0
  5  4  1  0  0  0  0
  6  7  2  0  0  0  0
  6  5  1  0  0  0  0
  8  6  1  0  0  0  0
  9  8  2  0  0  0  0
 10  9  1  0  0  0  0
 10 11  1  0  0  0  0
 12 11  2  0  0  0  0
 13 12  1  0  0  0  0
 13 14  2  0  0  0  0
 15 14  1  6  0  0  0
 15 17  1  0  0  0  0
 16 15  1  0  0  0  0
 17 18  1  0  0  0  0
 18 20  1  1  0  0  0
 18  1  1  0  0  0  0
 19  5  1  0  0  0  0
 20 25  1  0  0  0  0
 21 20  2  0  0  0  0
 21 22  1  0  0  0  0
 22 23  2  0  0  0  0
 23 24  1  0  0  0  0
 25 24  2  0  0  0  0
 26 27  1  0  0  0  0
 28 26  1  0  0  0  0
M  END
>  <TORSDO>
F 2

$$$$
