C:\Qe-CaDD\Project\Data\Stage_6_Molecular_Dynamics\ligands_top\out_17753_EGFR_extracted.pdbqt
 OpenBabel01082506443D

 31 34  0  0  1  0  0  0  0  0999 V2000
   22.1520    2.5380   50.7710 C   0  0  0  0  0  0  0  0  0  0  0  0
   23.2580    2.3550   51.5330 C   0  0  0  0  0  0  0  0  0  0  0  0
   24.2690    3.8120   51.6950 Cl  0  0  0  0  0  0  0  0  0  0  0  0
   23.8510    1.2830   52.3030 C   0  0  0  0  0  0  0  0  0  0  0  0
   25.1410    1.0770   52.5320 N   0  0  0  0  0  0  0  0  0  0  0  0
   25.4070    0.0470   53.2900 N   0  0  0  0  0  0  0  0  0  0  0  0
   24.2730   -0.5700   53.6620 C   0  0  0  0  0  3  0  0  0  0  0  0
   23.3820    0.2010   53.0490 C   0  0  0  0  0  0  0  0  0  0  0  0
   21.9500   -0.0370   53.0630 C   0  0  0  0  0  0  0  0  0  0  0  0
   21.0820   -0.4550   54.0290 C   0  0  0  0  0  3  0  0  0  0  0  0
   19.7840   -0.5310   53.7470 N   0  0  0  0  0  0  0  0  0  0  0  0
   19.3080   -0.2110   52.5500 C   0  0  0  0  0  0  0  0  0  0  0  0
   19.9610    0.2330   51.4110 C   0  0  0  0  0  0  0  0  0  0  0  0
   21.2720    0.2360   51.9190 C   0  0  0  0  0  3  0  0  0  0  0  0
   20.6030    0.6720   50.2860 O   0  0  0  0  0  0  0  0  0  0  0  0
   20.8580    2.0800   50.0970 C   0  0  2  0  0  3  0  0  0  0  0  0
   20.9810    2.2610   48.6340 C   0  0  0  0  0  1  0  0  0  0  0  0
   26.7660   -0.2860   53.6480 C   0  0  1  0  0  3  0  0  0  0  0  0
   27.5110   -1.1050   52.6280 C   0  0  0  0  0  2  0  0  0  0  0  0
   28.7160   -1.6820   53.3470 C   0  0  0  0  0  2  0  0  0  0  0  0
   29.4840   -0.7510   54.0990 N   0  0  0  0  0  0  0  0  0  0  0  0
   29.4850    0.6030   53.6420 C   0  0  0  0  0  2  0  0  0  0  0  0
   30.4760   -1.1280   54.1670 H   0  0  0  0  0  0  0  0  0  0  0  0
   27.7760    1.2440   53.8210 S   0  0  0  0  0  0  0  0  0  0  0  0
   22.1190    3.9140   50.2910 C   0  0  0  0  0  0  0  0  0  0  0  0
   22.4940    4.9600   49.5810 C   0  0  0  0  0  3  0  0  0  0  0  0
   23.4380    5.0900   48.4250 C   0  0  0  0  0  1  0  0  0  0  0  0
   21.1440    5.1570   51.1190 Cl  0  0  0  0  0  0  0  0  0  0  0  0
   18.0460   -0.1590   51.8630 N   0  0  0  0  0  0  0  0  0  0  0  0
   17.5220    0.6180   51.4060 H   0  0  0  0  0  0  0  0  0  0  0  0
   17.3520   -0.9210   51.6630 H   0  0  0  0  0  0  0  0  0  0  0  0
  1  2  2  0  0  0  0
  2  3  1  0  0  0  0
  2  4  1  0  0  0  0
  4  5  2  0  0  0  0
  4  8  1  0  0  0  0
  5  6  1  0  0  0  0
  6 18  1  0  0  0  0
  6  7  1  0  0  0  0
  8  9  1  0  0  0  0
  8  7  2  0  0  0  0
  9 10  1  0  0  0  0
 11 10  2  0  0  0  0
 12 11  1  0  0  0  0
 13 14  1  0  0  0  0
 13 12  2  0  0  0  0
 14  9  2  0  0  0  0
 15 13  1  0  0  0  0
 16 17  1  6  0  0  0
 16 15  1  0  0  0  0
 16  1  1  0  0  0  0
 18 19  1  6  0  0  0
 18 24  1  0  0  0  0
 19 20  1  0  0  0  0
 20 21  1  0  0  0  0
 21 23  1  0  0  0  0
 22 24  1  0  0  0  0
 22 21  1  0  0  0  0
 25  1  1  0  0  0  0
 25 28  1  0  0  0  0
 26 25  2  0  0  0  0
 27 26  1  0  0  0  0
 29 12  1  0  0  0  0
 30 29  1  0  0  0  0
 31 29  1  0  0  0  0
M  END
>  <TORSDO>
F 3

$$$$
