C:\Qe-CaDD\Project\Data\Stage_6_Molecular_Dynamics\ligands_top\out_17743_EGFR_extracted.pdbqt
 OpenBabel01082506443D

 29 30  0  0  1  0  0  0  0  0999 V2000
   23.2920   -0.3920   53.0560 N   0  0  0  0  0  0  0  0  0  0  0  0
   24.5750    0.1090   52.6630 C   0  0  0  0  0  0  0  0  0  0  0  0
   24.5250    1.2240   52.1000 N   0  0  0  0  0  0  0  0  0  0  0  0
   25.7370   -0.6280   52.9170 N   0  0  0  0  0  0  0  0  0  0  0  0
   23.2800   -1.0880   53.8650 H   0  0  0  0  0  0  0  0  0  0  0  0
   25.6250   -1.6860   52.9380 H   0  0  0  0  0  0  0  0  0  0  0  0
   22.0080   -0.1080   52.5210 C   0  0  0  0  0  0  0  0  0  0  0  0
   21.7660    0.5320   51.3280 C   0  0  0  0  0  3  0  0  0  0  0  0
   20.5220    0.8000   50.8070 C   0  0  0  0  0  0  0  0  0  0  0  0
   19.3950    0.4170   51.4990 C   0  0  0  0  0  0  0  0  0  0  0  0
   19.5940   -0.2270   52.7000 C   0  0  0  0  0  0  0  0  0  0  0  0
   20.8470   -0.4850   53.2030 C   0  0  0  0  0  0  0  0  0  0  0  0
   20.9790   -1.1950   54.5250 C   0  0  0  0  0  1  0  0  0  0  0  0
   20.3340    1.4500   49.5950 O   0  0  0  0  0  0  0  0  0  0  0  0
   21.3640    1.3410   48.6320 C   0  0  0  0  0  1  0  0  0  0  0  0
   18.1200    0.6410   51.0620 O   0  0  0  0  0  0  0  0  0  0  0  0
   17.3790   -0.1260   50.1640 C   0  0  0  0  0  1  0  0  0  0  0  0
   18.5080   -0.6390   53.4500 O   0  0  0  0  0  0  0  0  0  0  0  0
   17.8890   -1.8820   53.3380 C   0  0  0  0  0  1  0  0  0  0  0  0
   25.5970    1.9600   51.6080 C   0  0  0  0  0  2  0  0  0  0  0  0
   25.0140    2.6940   50.6690 C   0  0  0  0  0  2  0  0  0  0  0  0
   24.4180    3.0240   49.5220 F   0  0  0  0  0  0  0  0  0  0  0  0
   27.0240   -0.0530   53.1520 C   0  0  1  0  0  3  0  0  0  0  0  0
   27.0180    0.5640   54.5450 C   0  0  0  0  0  2  0  0  0  0  0  0
   28.1570    1.3660   54.5890 O   0  0  0  0  0  0  0  0  0  0  0  0
   29.3210    0.6450   54.5330 C   0  0  0  0  0  2  0  0  0  0  0  0
   29.3690   -0.4620   53.5430 C   0  0  0  0  0  2  0  0  0  0  0  0
   28.0920   -1.1020   53.2180 C   0  0  0  0  0  0  0  0  0  0  0  0
   27.9450   -2.3190   53.0320 O   0  0  0  0  0  0  0  0  0  0  0  0
  1  5  1  0  0  0  0
  2  4  1  0  0  0  0
  2  1  1  0  0  0  0
  3  2  2  0  0  0  0
  4  6  1  0  0  0  0
  7  1  1  0  0  0  0
  7 12  1  0  0  0  0
  8  7  2  0  0  0  0
  9  8  1  0  0  0  0
  9 10  2  0  0  0  0
 10 11  1  0  0  0  0
 11 12  2  0  0  0  0
 11 18  1  0  0  0  0
 12 13  1  0  0  0  0
 14  9  1  0  0  0  0
 15 14  1  0  0  0  0
 16 10  1  0  0  0  0
 17 16  1  0  0  0  0
 19 18  1  0  0  0  0
 20  3  1  0  0  0  0
 21 20  1  0  0  0  0
 22 21  1  0  0  0  0
 23  4  1  1  0  0  0
 23 28  1  0  0  0  0
 23 24  1  0  0  0  0
 24 25  1  0  0  0  0
 26 25  1  0  0  0  0
 27 26  1  0  0  0  0
 28 27  1  0  0  0  0
 29 28  2  0  0  0  0
M  END
>  <TORSDO>
F 7

$$$$
