C:\Qe-CaDD\Project\Data\Stage_6_Molecular_Dynamics\ligands_top\out_1108_EGFR_extracted.pdbqt
 OpenBabel01082506443D

 25 26  0  0  1  0  0  0  0  0999 V2000
   24.8440    1.3420   52.8080 C   0  0  2  0  0  3  0  0  0  0  0  0
   24.4860    2.7030   52.9200 C   0  0  0  0  0  0  0  0  0  0  0  0
   24.1680    3.8370   53.0010 C   0  0  0  0  0  3  0  0  0  0  0  0
   23.7700    5.1760   53.0800 N   0  0  0  0  0  2  0  0  0  0  0  0
   23.8220    4.8160   51.6530 C   0  0  2  0  0  3  0  0  0  0  0  0
   23.9460    4.5210   50.3460 C   0  0  2  0  0  3  0  0  0  0  0  0
   22.8920    3.7220   49.7070 N   0  0  0  0  0  0  0  0  0  0  0  0
   22.6930    2.5140   50.2150 C   0  0  0  0  0  3  0  0  0  0  0  0
   23.0450    1.3570   51.2590 C   0  0  1  0  0  3  0  0  0  0  0  0
   23.6040    0.5110   52.2750 C   0  0  0  0  0  2  0  0  0  0  0  0
   21.7710    1.1080   50.5250 O   0  0  0  0  0  0  0  0  0  0  0  0
   20.7550    2.0060   51.2480 C   0  0  0  0  0  2  0  0  0  0  0  0
   21.1660    3.1360   51.6150 N   0  0  0  0  0  2  0  0  0  0  0  0
   21.9440    4.5420   51.9850 P   0  0  0  0  0  0  0  0  0  0  0  0
   23.9400    4.7440   53.9850 H   0  0  0  0  0  0  0  0  0  0  0  0
   21.2640    5.7220   51.4880 H   0  0  0  0  0  0  0  0  0  0  0  0
   25.1990    4.9240   49.6920 C   0  0  0  0  0  0  0  0  0  0  0  0
   26.2450    4.0150   49.5630 C   0  0  0  0  0  3  0  0  0  0  0  0
   27.4410    4.3580   48.9580 C   0  0  0  0  0  3  0  0  0  0  0  0
   27.5930    5.6360   48.4700 C   0  0  0  0  0  3  0  0  0  0  0  0
   26.5690    6.5560   48.5840 C   0  0  0  0  0  0  0  0  0  0  0  0
   26.7430    8.3340   47.9240 Br  0  0  0  0  0  0  0  0  0  0  0  0
   25.3760    6.2010   49.1940 C   0  0  0  0  0  3  0  0  0  0  0  0
   25.0410    0.7860   54.0600 O   0  0  0  0  0  0  0  0  0  0  0  0
   25.5790   -0.4850   53.8880 C   0  0  0  0  0  1  0  0  0  0  0  0
  1 10  1  1  0  0  0
  1  2  1  0  0  0  0
  1 24  1  0  0  0  0
  2  3  3  0  0  0  0
  4 15  1  0  0  0  0
  5 14  1  0  0  0  0
  5  4  1  6  0  0  0
  6 17  1  1  0  0  0
  6  5  1  0  0  0  0
  7  8  2  0  0  0  0
  7  6  1  0  0  0  0
  8  9  1  0  0  0  0
  9 10  1  1  0  0  0
 11 12  1  0  0  0  0
 11  9  1  0  0  0  0
 12 13  1  0  0  0  0
 13 14  1  0  0  0  0
 16 14  1  0  0  0  0
 18 17  1  0  0  0  0
 19 18  2  0  0  0  0
 20 21  2  0  0  0  0
 20 19  1  0  0  0  0
 21 23  1  0  0  0  0
 22 21  1  0  0  0  0
 23 17  2  0  0  0  0
 25 24  1  0  0  0  0
M  END
>  <TORSDO>
F 2

$$$$
