C:\Qe-CaDD\Project\Data\Stage_6_Molecular_Dynamics\ligands_top\out_21455_EGFR_extracted.pdbqt
 OpenBabel01082506443D

 23 24  0  0  1  0  0  0  0  0999 V2000
   23.8590   -0.0320   53.5370 C   0  0  2  0  0  3  0  0  0  0  0  0
   24.3970    1.0380   52.7550 N   0  0  0  0  0  0  0  0  0  0  0  0
   23.8270    1.6350   51.7840 C   0  0  0  0  0  3  0  0  0  0  0  0
   24.5750    2.7080   51.1270 C   0  0  0  0  0  0  0  0  0  0  0  0
   24.0970    3.4060   50.1080 C   0  0  0  0  0  3  0  0  0  0  0  0
   25.8860    3.0930   51.5300 N   0  0  0  0  0  0  0  0  0  0  0  0
   27.1950    2.6080   51.5340 N   0  0  0  0  0  0  0  0  0  0  0  0
   27.7650    2.1280   52.5880 C   0  0  0  0  0  3  0  0  0  0  0  0
   27.4820    1.8820   53.9580 N   0  0  0  0  0  0  0  0  0  0  0  0
   26.9850    0.6110   54.3730 C   0  0  2  0  0  3  0  0  0  0  0  0
   27.2360   -0.5810   53.8100 C   0  0  1  0  0  3  0  0  0  0  0  0
   25.9980   -1.0180   53.0670 C   0  0  0  0  0  2  0  0  0  0  0  0
   24.8550   -0.9950   53.9450 N   0  0  1  0  0  0  0  0  0  0  0  0
   25.2080   -0.8090   55.3320 C   0  0  0  0  0  2  0  0  0  0  0  0
   26.0680    0.4110   55.5520 C   0  0  0  0  0  2  0  0  0  0  0  0
   25.9740    4.0340   51.9760 H   0  0  0  0  0  0  0  0  0  0  0  0
   27.6100    2.5810   54.7290 H   0  0  0  0  0  0  0  0  0  0  0  0
   24.7770    4.4900   49.3980 C   0  0  0  0  0  2  0  0  0  0  0  0
   23.6640    5.4310   48.3660 Cl  0  0  0  0  0  0  0  0  0  0  0  0
   22.7720   -0.8200   52.7920 C   0  0  0  0  0  2  0  0  0  0  0  0
   21.6880   -1.2410   53.7600 C   0  0  0  0  0  1  0  0  0  0  0  0
   28.5440   -0.8770   54.1720 O   0  0  0  0  0  0  0  0  0  0  0  0
   29.6210   -1.0450   53.3080 C   0  0  0  0  0  1  0  0  0  0  0  0
  1 20  1  6  0  0  0
  1 13  1  0  0  0  0
  2  1  1  0  0  0  0
  3  2  2  0  0  0  0
  4  6  1  0  0  0  0
  4  3  1  0  0  0  0
  5  4  2  0  0  0  0
  6  7  1  0  0  0  0
  6 16  1  0  0  0  0
  7  8  2  0  0  0  0
  8  9  1  0  0  0  0
  9 10  1  0  0  0  0
  9 17  1  0  0  0  0
 10 15  1  6  0  0  0
 11 22  1  6  0  0  0
 11 10  1  0  0  0  0
 12 11  1  0  0  0  0
 13 12  1  6  0  0  0
 13 14  1  0  0  0  0
 14 15  1  0  0  0  0
 18  5  1  0  0  0  0
 19 18  1  0  0  0  0
 20 21  1  0  0  0  0
 23 22  1  0  0  0  0
M  END
>  <TORSDO>
F 3

$$$$
