C:\Qe-CaDD\Project\Data\Stage_6_Molecular_Dynamics\ligands_top\out_22964_EGFR_extracted.pdbqt
 OpenBabel01082506443D

 27 28  0  0  1  0  0  0  0  0999 V2000
   26.9880    1.3480   52.2040 C   0  0  2  0  0  3  0  0  0  0  0  0
   26.1780    2.1740   51.2250 C   0  0  0  0  0  3  0  0  0  0  0  0
   25.0290    2.9280   51.1180 C   0  0  0  0  0  0  0  0  0  0  0  0
   23.7580    3.5080   51.7760 C   0  0  0  0  0  2  0  0  0  0  0  0
   22.7450    2.5770   51.1390 C   0  0  1  0  0  3  0  0  0  0  0  0
   22.5640    2.9100   49.8430 C   0  0  0  0  0  2  0  0  0  0  0  0
   23.7300    3.2900   48.9940 C   0  0  0  0  0  2  0  0  0  0  0  0
   24.9190    3.2480   49.6630 C   0  0  2  0  0  3  0  0  0  0  0  0
   26.1550    3.4480   49.1310 F   0  0  0  0  0  0  0  0  0  0  0  0
   22.0110    1.4420   51.6090 N   0  0  0  0  0  0  0  0  0  0  0  0
   22.2560    0.5100   52.6560 C   0  0  0  0  0  0  0  0  0  0  0  0
   21.2500   -0.0740   53.3160 N   0  0  0  0  0  0  0  0  0  0  0  0
   21.4430   -0.9030   54.3590 C   0  0  0  0  0  3  0  0  0  0  0  0
   22.6760   -1.2130   54.8240 N   0  0  0  0  0  0  0  0  0  0  0  0
   23.7460   -0.6450   54.1870 C   0  0  0  0  0  0  0  0  0  0  0  0
   25.0330   -0.9150   54.6680 C   0  0  0  0  0  3  0  0  0  0  0  0
   26.1450   -0.3490   54.0980 C   0  0  0  0  0  0  0  0  0  0  0  0
   27.8270   -0.5400   54.5410 Cl  0  0  0  0  0  0  0  0  0  0  0  0
   26.0790    0.5050   53.0350 C   0  0  0  0  0  0  0  0  0  0  0  0
   24.7360    0.5770   52.7870 C   0  0  0  0  0  3  0  0  0  0  0  0
   23.4880    0.1940   53.1250 C   0  0  0  0  0  0  0  0  0  0  0  0
   21.1200    1.2330   51.1150 H   0  0  0  0  0  0  0  0  0  0  0  0
   27.8670    2.2310   52.9710 C   0  0  0  0  0  3  0  0  0  0  0  0
   27.1430    2.8360   54.0370 N   0  0  0  0  0  1  0  0  0  0  0  0
   27.0080    2.8460   55.0880 H   0  0  0  0  0 15  0  0  0  0  0  0
   26.9950    2.8610   55.0750 H   0  0  0  0  0  0  0  0  0  0  0  0
   29.0210    2.7130   53.1170 O   0  0  0  0  0  0  0  0  0  0  0  0
  1 23  1  1  0  0  0
  1 19  1  0  0  0  0
  2  1  1  0  0  0  0
  3  2  2  0  0  0  0
  3  4  1  0  0  0  0
  5  6  1  6  0  0  0
  5 10  1  0  0  0  0
  5  4  1  0  0  0  0
  7  8  1  0  0  0  0
  7  6  1  0  0  0  0
  8  9  1  6  0  0  0
  8  3  1  0  0  0  0
 10 11  1  0  0  0  0
 11 21  2  0  0  0  0
 11 12  1  0  0  0  0
 12 13  2  0  0  0  0
 13 14  1  0  0  0  0
 15 16  1  0  0  0  0
 15 14  2  0  0  0  0
 17 18  1  0  0  0  0
 17 16  2  0  0  0  0
 19 17  1  0  0  0  0
 20 19  2  0  0  0  0
 20 21  1  0  0  0  0
 21 15  1  0  0  0  0
 22 10  1  0  0  0  0
 23 27  2  0  0  0  0
 24 26  1  0  0  0  0
M  END
>  <TORSDO>
F 1

$$$$
