C:\Qe-CaDD\Project\Data\Stage_6_Molecular_Dynamics\ligands_top\out_10549_EGFR_extracted.pdbqt
 OpenBabel01082506443D

 31 35  0  0  1  0  0  0  0  0999 V2000
   22.4730    2.2310   49.7230 C   0  0  0  0  0  0  0  0  0  0  0  0
   22.1030    1.4590   48.7630 N   0  0  0  0  0  0  0  0  0  0  0  0
   21.8810    1.8060   47.4190 C   0  0  0  0  0  3  0  0  0  0  0  0
   22.0680    3.0200   47.0300 N   0  0  0  0  0  0  0  0  0  0  0  0
   22.5110    3.9640   48.0040 C   0  0  0  0  0  0  0  0  0  0  0  0
   22.8830    5.1830   47.5740 C   0  0  0  0  0  2  0  0  0  0  0  0
   23.3450    6.2010   48.5110 C   0  0  1  0  0  3  0  0  0  0  0  0
   22.5320    7.2740   48.6350 C   0  0  0  0  0  2  0  0  0  0  0  0
   21.5590    7.3330   49.7090 N   0  0  0  0  0  0  0  0  0  0  0  0
   21.2900    6.8750   51.0840 C   0  0  0  0  0  2  0  0  0  0  0  0
   21.9660    5.4900   51.2320 C   0  0  2  0  0  3  0  0  0  0  0  0
   23.4560    5.7080   51.3280 C   0  0  0  0  0  0  0  0  0  0  0  0
   23.9180    5.6770   52.4790 O   0  0  0  0  0  0  0  0  0  0  0  0
   24.7770    5.9680   50.6620 C   0  0  0  0  0  2  0  0  0  0  0  0
   24.5590    6.0700   49.2370 O   0  0  0  0  0  0  0  0  0  0  0  0
   21.5410    4.5320   50.1900 C   0  0  1  0  0  3  0  0  0  0  0  0
   22.5980    3.6950   49.5120 C   0  0  0  0  0  0  0  0  0  0  0  0
   20.7460    7.9170   49.3900 H   0  0  0  0  0  0  0  0  0  0  0  0
   22.6170    1.4960   50.9670 C   0  0  0  0  0  0  0  0  0  0  0  0
   21.7160    0.5160   51.3660 C   0  0  0  0  0  3  0  0  0  0  0  0
   21.8220   -0.2470   52.5060 C   0  0  0  0  0  3  0  0  0  0  0  0
   22.8990   -0.0330   53.3250 C   0  0  0  0  0  0  0  0  0  0  0  0
   23.0260   -0.8490   54.5590 C   0  0  0  0  0  1  0  0  0  0  0  0
   23.8510    0.9100   53.0260 C   0  0  0  0  0  3  0  0  0  0  0  0
   23.6550    1.6190   51.8670 C   0  0  0  0  0  3  0  0  0  0  0  0
   20.2770    3.8820   50.3230 N   0  0  0  0  0  0  0  0  0  0  0  0
   19.2470    4.4590   49.4770 C   0  0  0  0  0  2  0  0  0  0  0  0
   17.9860    4.6760   50.2550 C   0  0  0  0  0  2  0  0  0  0  0  0
   17.5530    3.5910   50.9740 O   0  0  0  0  0  0  0  0  0  0  0  0
   18.5630    2.8350   51.5560 C   0  0  0  0  0  2  0  0  0  0  0  0
   19.7620    3.7940   51.6620 C   0  0  0  0  0  2  0  0  0  0  0  0
  1 19  1  0  0  0  0
  2  1  2  0  0  0  0
  3  2  1  0  0  0  0
  4  3  2  0  0  0  0
  4  5  1  0  0  0  0
  5 17  2  0  0  0  0
  6  5  1  0  0  0  0
  7  6  1  1  0  0  0
  7  8  1  0  0  0  0
  7 15  1  0  0  0  0
  8  9  1  0  0  0  0
  9 10  1  0  0  0  0
 11 10  1  6  0  0  0
 11 12  1  0  0  0  0
 12 13  2  0  0  0  0
 14 12  1  0  0  0  0
 15 14  1  0  0  0  0
 16 26  1  1  0  0  0
 16 11  1  0  0  0  0
 17  1  1  0  0  0  0
 17 16  1  0  0  0  0
 18  9  1  0  0  0  0
 19 20  2  0  0  0  0
 19 25  1  0  0  0  0
 20 21  1  0  0  0  0
 21 22  2  0  0  0  0
 22 23  1  0  0  0  0
 24 22  1  0  0  0  0
 25 24  2  0  0  0  0
 26 31  1  0  0  0  0
 27 28  1  0  0  0  0
 27 26  1  0  0  0  0
 28 29  1  0  0  0  0
 29 30  1  0  0  0  0
 30 31  1  0  0  0  0
M  END
>  <TORSDO>
F 2

$$$$
