C:\Qe-CaDD\Project\Data\Stage_6_Molecular_Dynamics\ligands_top\out_12168_EGFR_extracted.pdbqt
 OpenBabel01082506443D

 29 32  0  0  1  0  0  0  0  0999 V2000
   20.1970    1.1450   51.7600 C   0  0  1  0  0  3  0  0  0  0  0  0
   20.8470    2.0850   50.9450 O   0  0  0  0  0  0  0  0  0  0  0  0
   22.1990    2.3010   51.0060 C   0  0  0  0  0  0  0  0  0  0  0  0
   22.9520    2.8840   50.0090 C   0  0  0  0  0  3  0  0  0  0  0  0
   24.3110    3.0450   50.1960 C   0  0  0  0  0  0  0  0  0  0  0  0
   25.0520    3.6100   49.2320 N   0  0  0  0  0  0  0  0  0  0  0  0
   26.3830    3.7470   49.4610 C   0  0  0  0  0  3  0  0  0  0  0  0
   26.9360    3.3300   50.6150 N   0  0  0  0  0  0  0  0  0  0  0  0
   26.2130    2.7570   51.6020 C   0  0  0  0  0  0  0  0  0  0  0  0
   24.8570    2.6040   51.3970 C   0  0  0  0  0  0  0  0  0  0  0  0
   24.1390    2.0180   52.4180 C   0  0  0  0  0  3  0  0  0  0  0  0
   22.7660    1.8740   52.1880 C   0  0  0  0  0  0  0  0  0  0  0  0
   22.0360    1.2840   53.2090 O   0  0  0  0  0  0  0  0  0  0  0  0
   20.6010    1.3070   53.2030 C   0  0  2  0  0  3  0  0  0  0  0  0
   26.9220    2.3620   52.7700 N   0  0  0  0  0  0  0  0  0  0  0  0
   26.7300    3.0980   53.4850 H   0  0  0  0  0  0  0  0  0  0  0  0
   27.7440    1.2270   53.0140 C   0  0  0  0  0  0  0  0  0  0  0  0
   29.0170    1.4260   53.5240 C   0  0  0  0  0  3  0  0  0  0  0  0
   29.7510    0.2660   53.7320 C   0  0  0  0  0  3  0  0  0  0  0  0
   29.2720   -1.0010   53.4590 C   0  0  0  0  0  3  0  0  0  0  0  0
   27.9940   -1.1290   52.9520 C   0  0  0  0  0  0  0  0  0  0  0  0
   27.4230   -2.7440   52.6210 Cl  0  0  0  0  0  0  0  0  0  0  0  0
   27.2140   -0.0140   52.7230 C   0  0  0  0  0  3  0  0  0  0  0  0
   20.1650    0.1110   54.0220 C   0  0  0  0  0  2  0  0  0  0  0  0
   21.2810   -0.3040   54.7590 O   0  0  0  0  0  0  0  0  0  0  0  0
   21.5420   -1.6610   54.5180 C   0  0  0  0  0  1  0  0  0  0  0  0
   18.7010    1.2020   51.5640 C   0  0  0  0  0  2  0  0  0  0  0  0
   18.1670   -0.0610   50.9530 C   0  0  0  0  0  2  0  0  0  0  0  0
   17.4320   -0.8710   51.9670 C   0  0  0  0  0  1  0  0  0  0  0  0
  1 27  1  1  0  0  0
  1 14  1  0  0  0  0
  2  3  1  0  0  0  0
  2  1  1  0  0  0  0
  3 12  1  0  0  0  0
  4  5  1  0  0  0  0
  4  3  2  0  0  0  0
  5 10  1  0  0  0  0
  6  7  1  0  0  0  0
  6  5  2  0  0  0  0
  7  8  2  0  0  0  0
  8  9  1  0  0  0  0
  9 15  1  0  0  0  0
 10  9  2  0  0  0  0
 10 11  1  0  0  0  0
 12 11  2  0  0  0  0
 12 13  1  0  0  0  0
 14 13  1  0  0  0  0
 14 24  1  1  0  0  0
 15 17  1  0  0  0  0
 15 16  1  0  0  0  0
 17 18  1  0  0  0  0
 18 19  2  0  0  0  0
 20 19  1  0  0  0  0
 21 20  2  0  0  0  0
 22 21  1  0  0  0  0
 23 21  1  0  0  0  0
 23 17  2  0  0  0  0
 24 25  1  0  0  0  0
 26 25  1  0  0  0  0
 28 27  1  0  0  0  0
 28 29  1  0  0  0  0
M  END
>  <TORSDO>
F 6

$$$$
