C:\Qe-CaDD\Project\Data\Stage_6_Molecular_Dynamics\ligands_top\out_12458_EGFR_extracted.pdbqt
 OpenBabel01082506443D

 29 31  0  0  1  0  0  0  0  0999 V2000
   28.8640   -2.9210   53.1310 C   0  0  0  0  0  3  0  0  0  0  0  0
   28.5690   -1.7370   53.1660 C   0  0  0  0  0  0  0  0  0  0  0  0
   28.2310   -0.3350   53.1970 C   0  0  0  0  0  0  0  0  0  0  0  0
   29.0930    0.6020   53.7610 C   0  0  0  0  0  3  0  0  0  0  0  0
   28.7190    1.9280   53.7610 C   0  0  0  0  0  3  0  0  0  0  0  0
   27.5180    2.3130   53.2140 C   0  0  0  0  0  3  0  0  0  0  0  0
   26.6220    1.4270   52.6420 C   0  0  0  0  0  0  0  0  0  0  0  0
   27.0540    0.1160   52.6730 C   0  0  0  0  0  3  0  0  0  0  0  0
   25.3750    1.7850   52.0660 N   0  0  0  0  0  0  0  0  0  0  0  0
   25.4130    2.4020   51.2370 H   0  0  0  0  0  0  0  0  0  0  0  0
   24.1250    1.3690   52.5350 C   0  0  1  0  0  3  0  0  0  0  0  0
   23.6970    0.4130   53.3530 N   0  0  0  0  0  2  0  0  0  0  0  0
   22.8960   -0.5520   52.8750 C   0  0  0  0  0  2  0  0  0  0  0  0
   22.5040   -0.8520   54.1040 N   0  0  0  0  0  2  0  0  0  0  0  0
   21.5030   -0.2290   54.7490 C   0  0  0  0  0  2  0  0  0  0  0  0
   20.5880    0.5060   54.0180 C   0  0  0  0  0  2  0  0  0  0  0  0
   20.3750    0.4680   52.6570 C   0  0  1  0  0  3  0  0  0  0  0  0
   20.6880    1.1800   51.5480 C   0  0  0  0  0  0  0  0  0  0  0  0
   21.8460    1.8780   51.3170 C   0  0  0  0  0  0  0  0  0  0  0  0
   19.7200    1.1800   50.5790 O   0  0  0  0  0  0  0  0  0  0  0  0
   22.9750    2.0480   52.1100 C   0  0  2  0  0  3  0  0  0  0  0  0
   22.0750    2.5800   50.1470 O   0  0  0  0  0  0  0  0  0  0  0  0
   23.0540    3.3850   52.7540 C   0  0  0  0  0  1  0  0  0  0  0  0
   21.0300    2.6650   49.1900 C   0  0  0  0  0  2  0  0  0  0  0  0
   20.1130    1.4640   49.2280 C   0  0  0  0  0  2  0  0  0  0  0  0
   19.6500   -0.6680   52.7720 O   0  0  0  0  0  0  0  0  0  0  0  0
   18.3540   -0.9060   53.1690 C   0  0  0  0  0  3  0  0  0  0  0  0
   17.3500   -0.6410   52.0390 C   0  0  0  0  0  1  0  0  0  0  0  0
   18.1120   -2.2980   53.7130 C   0  0  0  0  0  1  0  0  0  0  0  0
  1  2  3  0  0  0  0
  2  3  1  0  0  0  0
  3  4  1  0  0  0  0
  4  5  2  0  0  0  0
  6  5  1  0  0  0  0
  7  8  1  0  0  0  0
  7  6  2  0  0  0  0
  8  3  2  0  0  0  0
  9  7  1  0  0  0  0
 10  9  1  0  0  0  0
 11  9  1  1  0  0  0
 11 12  1  0  0  0  0
 13 12  1  0  0  0  0
 13 14  1  0  0  0  0
 14 15  1  0  0  0  0
 16 15  1  0  0  0  0
 17 26  1  6  0  0  0
 17 16  1  0  0  0  0
 18 17  1  0  0  0  0
 19 18  2  0  0  0  0
 19 21  1  0  0  0  0
 20 18  1  0  0  0  0
 21 11  1  0  0  0  0
 21 23  1  6  0  0  0
 22 19  1  0  0  0  0
 24 25  1  0  0  0  0
 24 22  1  0  0  0  0
 25 20  1  0  0  0  0
 26 27  1  0  0  0  0
 27 29  1  0  0  0  0
 28 27  1  0  0  0  0
M  END
>  <TORSDO>
F 4

$$$$
