C:\Qe-CaDD\Project\Data\Stage_6_Molecular_Dynamics\ligands_top\out_22851_EGFR_extracted.pdbqt
 OpenBabel01082506443D

 21 23  0  0  0  0  0  0  0  0999 V2000
   17.1520    0.4580   51.5100 N   0  0  0  0  0  0  0  0  0  0  0  0
   18.2270    0.7310   51.7610 C   0  0  0  0  0  0  0  0  0  0  0  0
   19.6040    1.0790   52.0610 C   0  0  0  0  0  0  0  0  0  0  0  0
   19.8770    2.4680   52.2730 C   0  0  0  0  0  0  0  0  0  0  0  0
   20.0890    3.5850   52.4270 N   0  0  0  0  0  0  0  0  0  0  0  0
   20.5390    0.1540   52.1320 C   0  0  0  0  0  3  0  0  0  0  0  0
   21.9750    0.2310   52.4130 C   0  0  0  0  0  0  0  0  0  0  0  0
   22.8380    1.0030   51.6290 C   0  0  0  0  0  3  0  0  0  0  0  0
   24.1800    1.0350   51.9430 C   0  0  0  0  0  3  0  0  0  0  0  0
   24.5900    0.2770   53.0470 C   0  0  0  0  0  0  0  0  0  0  0  0
   23.7790   -0.4970   53.8490 C   0  0  0  0  0  0  0  0  0  0  0  0
   25.9310    0.1850   53.5160 N   0  0  0  0  0  0  0  0  0  0  0  0
   22.4430   -0.5070   53.5060 C   0  0  0  0  0  3  0  0  0  0  0  0
   24.6390   -1.1190   54.9150 C   0  0  0  0  0  2  0  0  0  0  0  0
   25.7610   -0.0960   54.9570 C   0  0  0  0  0  2  0  0  0  0  0  0
   27.2430    0.3190   52.9020 C   0  0  0  0  0  0  0  0  0  0  0  0
   27.8280   -1.0350   52.8520 C   0  0  0  0  0  3  0  0  0  0  0  0
   29.0110   -1.4820   53.2430 C   0  0  0  0  0  3  0  0  0  0  0  0
   29.8720   -0.4550   53.8160 C   0  0  0  0  0  3  0  0  0  0  0  0
   29.4170    0.7850   53.8890 C   0  0  0  0  0  3  0  0  0  0  0  0
   28.1000    1.3840   53.4680 C   0  0  0  0  0  3  0  0  0  0  0  0
  1  2  3  0  0  0  0
  2  3  1  0  0  0  0
  3  6  2  0  0  0  0
  3  4  1  0  0  0  0
  4  5  3  0  0  0  0
  6  7  1  0  0  0  0
  7 13  1  0  0  0  0
  8  9  1  0  0  0  0
  8  7  2  0  0  0  0
  9 10  2  0  0  0  0
 10 12  1  0  0  0  0
 10 11  1  0  0  0  0
 11 14  1  0  0  0  0
 12 15  1  0  0  0  0
 13 11  2  0  0  0  0
 14 15  1  0  0  0  0
 16 21  1  0  0  0  0
 16 12  1  0  0  0  0
 17 16  2  0  0  0  0
 17 18  1  0  0  0  0
 18 19  2  0  0  0  0
 19 20  1  0  0  0  0
 21 20  2  0  0  0  0
M  END
>  <TORSDO>
F 2

$$$$
