C:\Qe-CaDD\Project\Data\Stage_6_Molecular_Dynamics\ligands_top\out_12376_EGFR_extracted.pdbqt
 OpenBabel01082506443D

 28 32  0  0  1  0  0  0  0  0999 V2000
   17.8260    1.7010   51.9400 C   0  0  1  0  0  3  0  0  0  0  0  0
   18.1060    0.2160   51.8100 O   0  0  0  0  0  0  0  0  0  0  0  0
   19.2260   -0.1950   52.5750 C   0  0  0  0  0  0  0  0  0  0  0  0
   19.7660   -0.9340   53.5890 C   0  0  0  0  0  3  0  0  0  0  0  0
   21.0900   -0.8890   53.8890 C   0  0  0  0  0  0  0  0  0  0  0  0
   21.5440   -1.6320   54.8970 N   0  0  0  0  0  0  0  0  0  0  0  0
   22.8760   -1.5860   55.2160 C   0  0  0  0  0  3  0  0  0  0  0  0
   23.7330   -0.8090   54.5320 N   0  0  0  0  0  0  0  0  0  0  0  0
   23.3540   -0.0350   53.5070 C   0  0  0  0  0  0  0  0  0  0  0  0
   22.0240   -0.1340   53.2540 C   0  0  0  0  0  0  0  0  0  0  0  0
   21.5660    0.6440   52.2110 C   0  0  0  0  0  0  0  0  0  0  0  0
   20.1870    0.5880   51.8830 C   0  0  0  0  0  0  0  0  0  0  0  0
   19.7750    1.4230   50.7410 O   0  0  0  0  0  0  0  0  0  0  0  0
   19.0140    2.4810   51.4350 C   0  0  2  0  0  3  0  0  0  0  0  0
   19.8700    3.1140   52.2370 O   0  0  0  0  0  0  0  0  0  0  0  0
   21.1180    3.4650   52.0280 C   0  0  0  0  0  2  0  0  0  0  0  0
   22.1200    2.8120   51.1230 C   0  0  0  0  0  2  0  0  0  0  0  0
   22.5720    1.4680   51.5810 O   0  0  0  0  0  0  0  0  0  0  0  0
   24.3440    0.7360   52.8310 N   0  0  0  0  0  0  0  0  0  0  0  0
   25.2980    1.4700   51.9360 C   0  0  0  0  0  2  0  0  0  0  0  0
   25.4400    1.6650   53.3720 C   0  0  2  0  0  3  0  0  0  0  0  0
   26.5890    1.0210   54.0140 C   0  0  0  0  0  0  0  0  0  0  0  0
   26.3970    0.7690   55.3450 F   0  0  0  0  0  0  0  0  0  0  0  0
   27.8020    0.5830   53.7420 C   0  0  0  0  0  3  0  0  0  0  0  0
   28.8790   -0.0750   54.5590 C   0  0  0  0  0  2  0  0  0  0  0  0
   30.1440   -0.7960   53.5460 Cl  0  0  0  0  0  0  0  0  0  0  0  0
   16.6800    1.8540   50.9710 C   0  0  0  0  0  2  0  0  0  0  0  0
   16.3270    0.5970   50.2660 C   0  0  0  0  0  1  0  0  0  0  0  0
  1 27  1  6  0  0  0
  2  1  1  0  0  0  0
  2  3  1  0  0  0  0
  3  4  1  0  0  0  0
  4  5  2  0  0  0  0
  5  6  1  0  0  0  0
  6  7  2  0  0  0  0
  8  7  1  0  0  0  0
  9  8  2  0  0  0  0
 10  9  1  0  0  0  0
 10  5  1  0  0  0  0
 11 10  2  0  0  0  0
 12 11  1  0  0  0  0
 12  3  2  0  0  0  0
 13 12  1  0  0  0  0
 14 13  1  1  0  0  0
 14  1  1  0  0  0  0
 14 15  1  0  0  0  0
 16 15  1  0  0  0  0
 17 18  1  0  0  0  0
 17 16  1  0  0  0  0
 18 11  1  0  0  0  0
 19 21  1  0  0  0  0
 19  9  1  0  0  0  0
 20 19  1  0  0  0  0
 20 21  1  0  0  0  0
 21 22  1  1  0  0  0
 22 23  1  0  0  0  0
 24 22  2  0  0  0  0
 24 25  1  0  0  0  0
 26 25  1  0  0  0  0
 28 27  1  0  0  0  0
M  END
>  <TORSDO>
F 4

$$$$
