C:\Qe-CaDD\Project\Data\Stage_6_Molecular_Dynamics\ligands_top\out_11560_EGFR_extracted.pdbqt
 OpenBabel01082506443D

 24 23  0  0  0  0  0  0  0  0999 V2000
   24.0610   -0.2440   53.7830 C   0  0  0  0  0  0  0  0  0  0  0  0
   24.0630   -1.0700   54.8190 N   0  0  0  0  0  0  0  0  0  0  0  0
   22.8780   -1.3830   55.3440 C   0  0  0  0  0  3  0  0  0  0  0  0
   21.6300   -0.9750   54.9690 N   0  0  0  0  0  0  0  0  0  0  0  0
   21.3980   -0.1990   54.0220 C   0  0  0  0  0  0  0  0  0  0  0  0
   22.7080    0.2060   53.3690 C   0  0  0  0  0  3  0  0  0  0  0  0
   21.2100    0.5110   53.1530 C   0  0  0  0  0  1  0  0  0  0  0  0
   25.1750    0.2330   53.0610 N   0  0  0  0  0  0  0  0  0  0  0  0
   25.4830    0.5100   52.1400 H   0  0  0  0  0  0  0  0  0  0  0  0
   26.2830    0.3890   53.9210 C   0  0  0  0  0  0  0  0  0  0  0  0
   27.4720   -0.4360   53.5070 C   0  0  0  0  0  0  0  0  0  0  0  0
   27.2450   -1.6910   53.3170 N   0  0  0  0  0  2  0  0  0  0  0  0
   28.8070    0.1220   53.3230 C   0  0  0  0  0  3  0  0  0  0  0  0
   28.2370   -2.6470   52.9200 C   0  0  0  0  0  1  0  0  0  0  0  0
   29.0610    1.4150   53.4930 C   0  0  0  0  0  3  0  0  0  0  0  0
   27.8870    2.2110   53.8780 C   0  0  0  0  0  3  0  0  0  0  0  0
   26.6860    1.7790   54.0630 N   0  0  0  0  0  0  0  0  0  0  0  0
   22.5700    1.2040   52.1340 C   0  0  0  0  0  1  0  0  0  0  0  0
   23.1440    2.8130   52.4110 C   0  0  0  0  0  2  0  0  0  0  0  0
   22.5710    2.4960   51.0300 O   0  0  0  0  0  0  0  0  0  0  0  0
   23.1820    2.4600   52.8210 P   0  0  0  0  0  2  0  0  0  0  0  0
   23.4000    2.1820   49.9230 C   0  0  0  0  0  1  0  0  0  0  0  0
   23.0380    4.2580   50.9330 O   0  0  0  0  0  1  0  0  0  0  0  0
   23.3390    5.0540   52.0650 C   0  0  0  0  0  1  0  0  0  0  0  0
  1  2  1  0  0  0  0
  2  3  2  0  0  0  0
  4  3  1  0  0  0  0
  5  4  2  3  0  0  0
  6  1  2  0  0  0  0
  6  5  1  0  0  0  0
  7  5  1  0  0  0  0
  8  1  1  0  0  0  0
  8 10  1  0  0  0  0
  9  8  1  0  0  0  0
 10 17  1  0  0  0  0
 11 10  2  0  0  0  0
 12 11  1  0  0  0  0
 13 15  2  0  0  0  0
 13 11  1  0  0  0  0
 14 12  1  0  0  0  0
 15 16  1  0  0  0  0
 16 17  2  0  0  0  0
 18 21  1  0  0  0  0
 19 21  1  0  0  0  0
 20 19  1  0  0  0  0
 22 20  1  0  0  0  0
 23 24  1  0  0  0  0
M  END
>  <TORSDO>
F 5

$$$$
