C:\Qe-CaDD\Project\Data\Stage_6_Molecular_Dynamics\ligands_top\out_19923_EGFR_extracted.pdbqt
 OpenBabel01082506443D

 24 27  0  0  1  0  0  0  0  0999 V2000
   24.3390    2.3730   50.5110 C   0  0  2  0  0  3  0  0  0  0  0  0
   22.8590    2.1140   50.1820 C   0  0  0  0  0  2  0  0  0  0  0  0
   22.4200    1.2970   51.2730 C   0  0  0  0  0  0  0  0  0  0  0  0
   22.9980    2.1110   52.0950 N   0  0  0  0  0  2  0  0  0  0  0  0
   24.3490    1.9350   51.8840 N   0  0  1  0  0  0  0  0  0  0  0  0
   25.4200    1.4710   52.7150 C   0  0  2  0  0  3  0  0  0  0  0  0
   25.2490    0.4390   53.3570 N   0  0  0  0  0  0  0  0  0  0  0  0
   26.2030   -0.0490   54.1570 C   0  0  0  0  0  0  0  0  0  0  0  0
   27.4540    0.6650   54.2540 C   0  0  0  0  0  2  0  0  0  0  0  0
   27.0450    2.1140   53.0410 S   0  0  0  0  0  0  0  0  0  0  0  0
   25.5130   -1.1640   54.6090 O   0  0  0  0  0  0  0  0  0  0  0  0
   24.2750   -1.2130   55.1580 C   0  0  0  0  0  2  0  0  0  0  0  0
   22.9790   -1.1070   55.3290 C   0  0  0  0  0  2  0  0  0  0  0  0
   21.7140   -0.6890   54.6790 C   0  0  1  0  0  3  0  0  0  0  0  0
   21.0120    0.2230   55.4890 F   0  0  0  0  0  0  0  0  0  0  0  0
   21.8720   -0.0670   53.3640 C   0  0  0  0  0  2  0  0  0  0  0  0
   21.8600    0.3110   52.1330 C   0  0  0  0  0  3  0  0  0  0  0  0
   24.6250    3.8060   50.4560 C   0  0  0  0  0  0  0  0  0  0  0  0
   23.9550    4.7550   51.1890 C   0  0  0  0  0  3  0  0  0  0  0  0
   24.2540    6.1190   51.1120 C   0  0  0  0  0  3  0  0  0  0  0  0
   25.2780    6.4920   50.2490 C   0  0  0  0  0  0  0  0  0  0  0  0
   25.5840    7.7990   50.1590 F   0  0  0  0  0  0  0  0  0  0  0  0
   25.9740    5.5600   49.4970 C   0  0  0  0  0  3  0  0  0  0  0  0
   25.6300    4.2260   49.6180 C   0  0  0  0  0  3  0  0  0  0  0  0
  1 18  1  1  0  0  0
  1  5  1  0  0  0  0
  2  1  1  0  0  0  0
  2  3  1  0  0  0  0
  3  4  1  0  0  0  0
  3 17  2  0  0  0  0
  5  4  1  6  0  0  0
  5  6  1  0  0  0  0
  6 10  1  1  0  0  0
  6  7  1  0  0  0  0
  7  8  2  0  0  0  0
  8  9  1  0  0  0  0
  8 11  1  0  0  0  0
 10  9  1  0  0  0  0
 11 12  1  0  0  0  0
 12 13  1  0  0  0  0
 14 13  1  0  0  0  0
 14 15  1  1  0  0  0
 16 14  1  0  0  0  0
 17 16  1  0  0  0  0
 18 19  1  0  0  0  0
 20 19  2  0  0  0  0
 21 20  1  0  0  0  0
 22 21  1  0  0  0  0
 23 24  1  0  0  0  0
 23 21  2  0  0  0  0
 24 18  2  0  0  0  0
M  END
>  <TORSDO>
F 1

$$$$
