C:\Qe-CaDD\Project\Data\Stage_6_Molecular_Dynamics\ligands_top\out_22332_EGFR_extracted.pdbqt
 OpenBabel01082506443D

 31 33  0  0  0  0  0  0  0  0999 V2000
   25.3050   -0.6880   55.5090 C   0  0  0  0  0  1  0  0  0  0  0  0
   26.2570   -0.0640   54.5510 C   0  0  0  0  0  0  0  0  0  0  0  0
   27.5240   -0.1770   54.8720 N   0  0  0  0  0  0  0  0  0  0  0  0
   28.7550    0.2280   54.3140 C   0  0  0  0  0  3  0  0  0  0  0  0
   29.1060    1.1800   53.4960 N   0  0  0  0  0  0  0  0  0  0  0  0
   28.3710    2.1750   52.8560 O   0  0  0  0  0  0  0  0  0  0  0  0
   27.1590    2.1910   52.1400 C   0  0  0  0  0  0  0  0  0  0  0  0
   26.0500    1.5190   52.4040 C   0  0  0  0  0  3  0  0  0  0  0  0
   25.5960    0.5680   53.4160 C   0  0  0  0  0  0  0  0  0  0  0  0
   24.3540    0.2260   53.2570 C   0  0  0  0  0  3  0  0  0  0  0  0
   27.0030    2.9750   51.0010 O   0  0  0  0  0  0  0  0  0  0  0  0
   25.4090    3.1740   50.2920 P   0  0  0  0  0  0  0  0  0  0  0  0
   25.4190    3.0190   48.8460 H   0  0  0  0  0  0  0  0  0  0  0  0
   24.6960    4.8490   50.7670 C   0  0  0  0  0  2  0  0  0  0  0  0
   23.7050    4.5710   51.8450 C   0  0  0  0  0  2  0  0  0  0  0  0
   22.4800    5.2920   51.7790 N   0  0  0  0  0  0  0  0  0  0  0  0
   21.3890    4.4090   51.4890 C   0  0  0  0  0  2  0  0  0  0  0  0
   20.8710    4.6890   50.1130 C   0  0  0  0  0  2  0  0  0  0  0  0
   20.3490    5.9770   50.1330 O   0  0  0  0  0  0  0  0  0  0  0  0
   21.2570    6.9560   50.4410 C   0  0  0  0  0  2  0  0  0  0  0  0
   22.5750    6.4600   50.9730 C   0  0  0  0  0  2  0  0  0  0  0  0
   23.2560   -0.5110   53.6780 N   0  0  0  0  0  0  0  0  0  0  0  0
   23.3940   -1.2400   54.4430 H   0  0  0  0  0  0  0  0  0  0  0  0
   21.9410   -0.3590   53.1530 C   0  0  0  0  0  0  0  0  0  0  0  0
   20.8360   -0.7460   53.8820 C   0  0  0  0  0  3  0  0  0  0  0  0
   19.5600   -0.5920   53.3490 C   0  0  0  0  0  3  0  0  0  0  0  0
   19.3850   -0.0460   52.0750 C   0  0  0  0  0  0  0  0  0  0  0  0
   18.1660    0.1340   51.4900 F   0  0  0  0  0  0  0  0  0  0  0  0
   20.4780    0.3480   51.3250 C   0  0  0  0  0  0  0  0  0  0  0  0
   20.3670    1.0430   49.7190 Cl  0  0  0  0  0  0  0  0  0  0  0  0
   21.7200    0.1740   51.9000 C   0  0  0  0  0  3  0  0  0  0  0  0
  2  3  2  0  0  0  0
  2  1  1  0  0  0  0
  4  3  1  0  0  0  0
  5  4  2  0  0  0  0
  6  5  1  0  0  0  0
  7  8  2  0  0  0  0
  7  6  1  0  0  0  0
  8  9  1  0  0  0  0
  9  2  1  0  0  0  0
 10  9  2  0  0  0  0
 10 22  1  0  0  0  0
 11  7  1  0  0  0  0
 12 14  1  0  0  0  0
 12 11  1  0  0  0  0
 13 12  1  0  0  0  0
 14 15  1  0  0  0  0
 16 15  1  0  0  0  0
 17 16  1  0  0  0  0
 18 19  1  0  0  0  0
 18 17  1  0  0  0  0
 19 20  1  0  0  0  0
 20 21  1  0  0  0  0
 21 16  1  0  0  0  0
 22 23  1  0  0  0  0
 24 22  1  0  0  0  0
 24 25  1  0  0  0  0
 26 25  2  0  0  0  0
 27 26  1  0  0  0  0
 28 27  1  0  0  0  0
 29 31  1  0  0  0  0
 29 27  2  0  0  0  0
 30 29  1  0  0  0  0
 31 24  2  0  0  0  0
M  END
>  <TORSDO>
F 7

$$$$
