C:\Qe-CaDD\Project\Data\Stage_6_Molecular_Dynamics\ligands_top\out_13583_EGFR_extracted.pdbqt
 OpenBabel01082506443D

 23 25  0  0  1  0  0  0  0  0999 V2000
   26.1350   -0.1720   53.1700 N   0  0  0  0  0  0  0  0  0  0  0  0
   25.0270   -0.8950   53.6950 C   0  0  0  0  0  2  0  0  0  0  0  0
   23.7720   -0.1280   54.0000 C   0  0  0  0  0  2  0  0  0  0  0  0
   22.9820    0.4220   52.9160 C   0  0  0  0  0  2  0  0  0  0  0  0
   23.4520    1.3510   51.8890 C   0  0  2  0  0  3  0  0  0  0  0  0
   24.2180    2.5780   52.2400 C   0  0  1  0  0  3  0  0  0  0  0  0
   25.9810    2.4220   51.7070 S   0  0  0  0  0  0  0  0  0  0  0  0
   27.0030    2.1660   53.2110 C   0  0  0  0  0  2  0  0  0  0  0  0
   26.3410    0.9940   53.9100 C   0  0  0  0  0  2  0  0  0  0  0  0
   23.6940    3.7700   51.4610 C   0  0  1  0  0  3  0  0  0  0  0  0
   23.7880    4.2090   50.1730 C   0  0  0  0  0  2  0  0  0  0  0  0
   23.4880    3.0760   49.1710 C   0  0  0  0  0  2  0  0  0  0  0  0
   22.6130    2.0140   49.4300 C   0  0  0  0  0  2  0  0  0  0  0  0
   22.3760    1.6000   50.8640 N   0  0  1  0  0  0  0  0  0  0  0  0
   20.9260    1.4680   50.9130 C   0  0  0  0  0  2  0  0  0  0  0  0
   20.1850    2.0980   51.7670 C   0  0  0  0  0  3  0  0  0  0  0  0
   20.5460    3.0430   52.5080 N   0  0  0  0  0  0  0  0  0  0  0  0
   21.7290    3.6650   52.3130 C   0  0  0  0  0  2  0  0  0  0  0  0
   22.7760    4.5650   52.3370 N   0  0  0  0  0  2  0  0  0  0  0  0
   27.1720   -1.0100   52.7690 C   0  0  0  0  0  2  0  0  0  0  0  0
   26.9270   -2.4070   52.3770 C   0  0  0  0  0  2  0  0  0  0  0  0
   28.0890   -3.1350   52.7690 O   0  0  0  0  0  0  0  0  0  0  0  0
   28.0830   -4.0540   52.4590 H   0  0  0  0  0  0  0  0  0  0  0  0
  1  2  1  0  0  0  0
  1  9  1  0  0  0  0
  2  3  1  0  0  0  0
  4  3  1  0  0  0  0
  5  6  1  0  0  0  0
  5  4  1  1  0  0  0
  6  7  1  6  0  0  0
  7  8  1  0  0  0  0
  8  9  1  0  0  0  0
 10 11  1  6  0  0  0
 10  6  1  0  0  0  0
 10 19  1  0  0  0  0
 12 13  1  0  0  0  0
 12 11  1  0  0  0  0
 14 13  1  6  0  0  0
 14 15  1  0  0  0  0
 14  5  1  0  0  0  0
 15 16  1  0  0  0  0
 16 17  2  0  0  0  0
 18 19  1  0  0  0  0
 18 17  1  0  0  0  0
 20  1  1  0  0  0  0
 21 20  1  0  0  0  0
 21 22  1  0  0  0  0
 23 22  1  0  0  0  0
M  END
>  <TORSDO>
F 3

$$$$
