C:\Qe-CaDD\Project\Data\Stage_6_Molecular_Dynamics\ligands_top\out_1256_EGFR_extracted.pdbqt
 OpenBabel01082506443D

 26 28  0  0  0  0  0  0  0  0999 V2000
   21.2250    1.7410   48.2310 C   0  0  0  0  0  1  0  0  0  0  0  0
   20.6900    1.0220   49.4180 C   0  0  0  0  0  3  0  0  0  0  0  0
   21.1620    1.0800   50.6440 C   0  0  0  0  0  0  0  0  0  0  0  0
   22.3420    1.9100   51.0000 C   0  0  0  0  0  2  0  0  0  0  0  0
   23.3140    1.1850   51.7740 N   0  0  0  0  0  0  0  0  0  0  0  0
   23.2090    0.3250   52.8760 C   0  0  0  0  0  0  0  0  0  0  0  0
   24.3930    0.2960   53.5740 C   0  0  0  0  0  0  0  0  0  0  0  0
   24.3900   -0.5210   54.6260 N   0  0  0  0  0  0  0  0  0  0  0  0
   23.3870   -1.2790   55.0470 C   0  0  0  0  0  3  0  0  0  0  0  0
   22.2350   -1.2380   54.3560 N   0  0  0  0  0  0  0  0  0  0  0  0
   22.1140   -0.4470   53.2650 C   0  0  0  0  0  0  0  0  0  0  0  0
   20.8670   -0.5230   52.6710 O   0  0  0  0  0  0  0  0  0  0  0  0
   20.4080    0.2780   51.6080 C   0  0  0  0  0  0  0  0  0  0  0  0
   19.0710    0.2770   51.5000 C   0  0  0  0  0  3  0  0  0  0  0  0
   17.9990    0.8500   50.6750 C   0  0  0  0  0  1  0  0  0  0  0  0
   24.3070    1.3000   51.4670 H   0  0  0  0  0  0  0  0  0  0  0  0
   25.5490    1.0650   53.3030 N   0  0  0  0  0  0  0  0  0  0  0  0
   25.6740    2.0500   52.9910 H   0  0  0  0  0  0  0  0  0  0  0  0
   26.8500    0.5250   53.4520 C   0  0  0  0  0  0  0  0  0  0  0  0
   27.9280    1.2960   53.8530 C   0  0  0  0  0  3  0  0  0  0  0  0
   29.2360    0.8870   54.0100 C   0  0  0  0  0  3  0  0  0  0  0  0
   29.4940   -0.4460   53.7380 C   0  0  0  0  0  0  0  0  0  0  0  0
   30.7680   -0.9120   53.8740 F   0  0  0  0  0  0  0  0  0  0  0  0
   28.4730   -1.3050   53.3270 C   0  0  0  0  0  0  0  0  0  0  0  0
   28.9030   -2.9610   52.9990 Cl  0  0  0  0  0  0  0  0  0  0  0  0
   27.2070   -0.7860   53.2050 C   0  0  0  0  0  3  0  0  0  0  0  0
  1  2  1  0  0  0  0
  2  3  2  0  0  0  0
  3  4  1  0  0  0  0
  3 13  1  0  0  0  0
  4  5  1  0  0  0  0
  5  6  1  0  0  0  0
  6 11  1  0  0  0  0
  6  7  2  0  0  0  0
  7  8  1  0  0  0  0
  8  9  2  0  0  0  0
 10  9  1  0  0  0  0
 11 10  2  0  0  0  0
 12 11  1  0  0  0  0
 13 12  1  0  0  0  0
 14 13  2  0  0  0  0
 15 14  1  0  0  0  0
 16  5  1  0  0  0  0
 17 19  1  0  0  0  0
 17  7  1  0  0  0  0
 18 17  1  0  0  0  0
 19 20  1  0  0  0  0
 20 21  2  0  0  0  0
 22 23  1  0  0  0  0
 22 21  1  0  0  0  0
 24 22  2  0  0  0  0
 25 24  1  0  0  0  0
 26 24  1  0  0  0  0
 26 19  2  0  0  0  0
M  END
>  <TORSDO>
F 2

$$$$
