C:\Qe-CaDD\Project\Data\Stage_6_Molecular_Dynamics\ligands_top\out_10977_EGFR_extracted.pdbqt
 OpenBabel01082506443D

 29 31  0  0  1  0  0  0  0  0999 V2000
   21.7920    2.7550   51.9280 C   0  0  0  0  0  0  0  0  0  0  0  0
   20.8120    1.8170   51.6610 C   0  0  0  0  0  3  0  0  0  0  0  0
   21.1650    0.4870   51.7590 C   0  0  0  0  0  3  0  0  0  0  0  0
   22.4420    0.1070   52.1080 C   0  0  0  0  0  3  0  0  0  0  0  0
   23.4370    1.0250   52.3790 C   0  0  0  0  0  0  0  0  0  0  0  0
   23.0540    2.3180   52.2730 C   0  0  0  0  0  3  0  0  0  0  0  0
   21.5050    4.1670   51.8480 N   0  0  0  0  0  0  0  0  0  0  0  0
   21.8090    4.8280   50.8350 N   0  0  0  0  0  0  0  0  0  0  0  0
   22.4320    4.4080   49.6590 C   0  0  0  0  0  3  0  0  0  0  0  0
   23.6600    4.3600   49.2440 C   0  0  0  0  0  3  0  0  0  0  0  0
   24.8270    4.7800   49.9970 C   0  0  0  0  0  0  0  0  0  0  0  0
   24.8970    4.8120   51.2840 N   0  0  0  0  0  0  0  0  0  0  0  0
   24.1130    4.5360   51.8710 H   0  0  0  0  0  0  0  0  0  0  0  0
   26.0480    5.2120   49.3380 C   0  0  0  0  0  0  0  0  0  0  0  0
   26.2540    6.4930   48.8480 C   0  0  0  0  0  3  0  0  0  0  0  0
   27.4070    6.9100   48.2240 C   0  0  0  0  0  3  0  0  0  0  0  0
   28.4510    6.0290   48.0530 C   0  0  0  0  0  3  0  0  0  0  0  0
   28.2740    4.7820   48.5190 N   0  0  0  0  0  0  0  0  0  0  0  0
   27.1410    4.4020   49.1240 C   0  0  0  0  0  3  0  0  0  0  0  0
   24.7130    0.5220   52.7280 N   0  0  0  0  0  0  0  0  0  0  0  0
   25.9770    0.8960   52.2300 C   0  0  0  0  0  0  0  0  0  0  0  0
   26.0470    1.7940   51.3550 O   0  0  0  0  0  0  0  0  0  0  0  0
   24.7980   -0.2310   53.4470 H   0  0  0  0  0  0  0  0  0  0  0  0
   27.2530    0.2960   52.6740 C   0  0  1  0  0  3  0  0  0  0  0  0
   27.6370    0.8480   54.0310 C   0  0  0  0  0  2  0  0  0  0  0  0
   28.9070    0.2740   54.5490 C   0  0  0  0  0  2  0  0  0  0  0  0
   29.4580   -0.8910   53.8180 C   0  0  0  0  0  3  0  0  0  0  0  0
   28.5160   -1.7130   53.0340 C   0  0  0  0  0  3  0  0  0  0  0  0
   27.1170   -1.1920   52.9220 C   0  0  0  0  0  2  0  0  0  0  0  0
  1  6  1  0  0  0  0
  2  3  1  0  0  0  0
  2  1  2  0  0  0  0
  3  4  2  0  0  0  0
  4  5  1  0  0  0  0
  5 20  1  0  0  0  0
  6  5  2  0  0  0  0
  7  1  1  0  0  0  0
  8  7  2  0  0  0  0
  9  8  1  0  0  0  0
 10  9  2  0  0  0  0
 10 11  1  0  0  0  0
 11 12  2  0  0  0  0
 12 13  1  0  0  0  0
 14 11  1  0  0  0  0
 15 14  2  0  0  0  0
 16 15  1  0  0  0  0
 17 16  2  0  0  0  0
 17 18  1  0  0  0  0
 18 19  2  0  0  0  0
 19 14  1  0  0  0  0
 20 23  1  0  0  0  0
 21 20  1  0  0  0  0
 22 21  2  0  0  0  0
 24 21  1  1  0  0  0
 24 29  1  0  0  0  0
 24 25  1  0  0  0  0
 25 26  1  0  0  0  0
 27 26  1  0  0  0  0
 28 27  2  0  0  0  0
 29 28  1  0  0  0  0
M  END
>  <TORSDO>
F 6

$$$$
