C:\Qe-CaDD\Project\Data\Stage_6_Molecular_Dynamics\ligands_top\out_14302_EGFR_extracted.pdbqt
 OpenBabel01082506443D

 30 33  0  0  1  0  0  0  0  0999 V2000
   18.4670    3.5910   51.2960 C   0  0  0  0  0  1  0  0  0  0  0  0
   19.0930    3.4340   49.9330 C   0  0  1  0  0  3  0  0  0  0  0  0
   20.4750    4.0380   50.0020 C   0  0  0  0  0  2  0  0  0  0  0  0
   20.5150    5.2920   50.5560 O   0  0  0  0  0  0  0  0  0  0  0  0
   21.7330    5.8680   50.7740 C   0  0  0  0  0  2  0  0  0  0  0  0
   22.6060    5.1130   51.7430 C   0  0  0  0  0  2  0  0  0  0  0  0
   23.3880    4.6660   52.7720 C   0  0  1  0  0  3  0  0  0  0  0  0
   23.8720    5.1600   53.9360 F   0  0  0  0  0  0  0  0  0  0  0  0
   23.7830    3.2310   52.6510 C   0  0  0  0  0  0  0  0  0  0  0  0
   24.9530    2.5540   52.4290 C   0  0  0  0  0  3  0  0  0  0  0  0
   24.9010    1.1880   52.2840 C   0  0  0  0  0  0  0  0  0  0  0  0
   26.5910    0.3910   51.9850 Br  0  0  0  0  0  0  0  0  0  0  0  0
   23.7060    0.5050   52.3570 C   0  0  0  0  0  3  0  0  0  0  0  0
   22.4930    1.1250   52.5780 C   0  0  0  0  0  0  0  0  0  0  0  0
   22.5720    2.5170   52.7260 C   0  0  0  0  0  0  0  0  0  0  0  0
   21.2250    0.4040   52.6070 C   0  0  0  0  0  0  0  0  0  0  0  0
   20.5940   -0.3110   53.4970 N   0  0  0  0  0  0  0  0  0  0  0  0
   19.1860   -0.5410   53.2940 C   0  0  0  0  0  3  0  0  0  0  0  0
   18.4640   -0.1060   52.3020 N   0  0  0  0  0  2  0  0  0  0  0  0
   19.1180    0.1730   51.0040 C   0  0  2  0  0  3  0  0  0  0  0  0
   20.4970    0.5220   51.3300 C   0  0  0  0  0  0  0  0  0  0  0  0
   20.9600    0.9760   50.1830 C   0  0  0  0  0  2  0  0  0  0  0  0
   20.2540    1.5180   48.9990 C   0  0  0  0  0  2  0  0  0  0  0  0
   19.0470    2.1080   49.4370 N   0  0  1  0  0  0  0  0  0  0  0  0
   18.3210    1.1700   50.2420 C   0  0  1  0  0  3  0  0  0  0  0  0
   17.5100    0.3940   49.2810 N   0  0  0  0  0  0  0  0  0  0  0  0
   17.6730   -0.6120   49.4090 H   0  0  0  0  0  0  0  0  0  0  0  0
   16.5190    0.6690   49.4680 H   0  0  0  0  0  0  0  0  0  0  0  0
   21.2910    3.0600   52.9620 O   0  0  0  0  0  0  0  0  0  0  0  0
   21.2080    4.0380   52.6860 H   0  0  0  0  0  0  0  0  0  0  0  0
  2  3  1  0  0  0  0
  2  1  1  1  0  0  0
  3  4  1  0  0  0  0
  4  5  1  0  0  0  0
  5  6  1  0  0  0  0
  6  7  1  0  0  0  0
  7  8  1  1  0  0  0
  9 15  1  0  0  0  0
  9  7  1  0  0  0  0
 10  9  2  0  0  0  0
 11 13  2  0  0  0  0
 11 10  1  0  0  0  0
 12 11  1  0  0  0  0
 13 14  1  0  0  0  0
 14 16  1  0  0  0  0
 14 15  2  0  0  0  0
 15 29  1  0  0  0  0
 16 17  1  0  0  0  0
 18 17  2  0  0  0  0
 19 18  1  0  0  0  0
 20 21  1  1  0  0  0
 20 19  1  0  0  0  0
 21 16  2  0  0  0  0
 22 21  1  0  0  0  0
 23 22  1  0  0  0  0
 24 23  1  1  0  0  0
 24  2  1  0  0  0  0
 24 25  1  0  0  0  0
 25 26  1  6  0  0  0
 25 20  1  0  0  0  0
 26 27  1  0  0  0  0
 26 28  1  0  0  0  0
 30 29  1  0  0  0  0
M  END
>  <TORSDO>
F 2

$$$$
