C:\Qe-CaDD\Project\Data\Stage_6_Molecular_Dynamics\ligands_top\out_2039_EGFR_extracted.pdbqt
 OpenBabel01082506443D

 21 22  0  0  1  0  0  0  0  0999 V2000
   27.4000   -0.6280   53.7500 C   0  0  0  0  0  0  0  0  0  0  0  0
   28.7260   -0.4230   53.6770 C   0  0  0  0  0  0  0  0  0  0  0  0
   29.4920    0.7960   54.0100 C   0  0  0  0  0  3  0  0  0  0  0  0
   28.9650    2.0320   54.0640 C   0  0  0  0  0  3  0  0  0  0  0  0
   27.6470    2.4160   53.8300 O   0  0  0  0  0  0  0  0  0  0  0  0
   26.5430    1.6230   53.3580 C   0  0  1  0  0  3  0  0  0  0  0  0
   26.4360    0.4080   54.2090 C   0  0  1  0  0  3  0  0  0  0  0  0
   25.1090   -0.1860   54.3260 C   0  0  0  0  0  0  0  0  0  0  0  0
   24.7810   -0.8210   55.5110 C   0  0  0  0  0  3  0  0  0  0  0  0
   23.5380   -1.4240   55.7350 C   0  0  0  0  0  3  0  0  0  0  0  0
   22.5820   -1.3940   54.7410 C   0  0  0  0  0  0  0  0  0  0  0  0
   22.8720   -0.7660   53.5400 C   0  0  0  0  0  3  0  0  0  0  0  0
   24.1140   -0.1910   53.3800 C   0  0  0  0  0  3  0  0  0  0  0  0
   21.3140   -1.9520   54.8380 O   0  0  0  0  0  0  0  0  0  0  0  0
   20.2890   -1.4430   54.0370 C   0  0  0  0  0  1  0  0  0  0  0  0
   26.8530   -1.8460   53.3930 O   0  0  0  0  0  0  0  0  0  0  0  0
   26.8110   -2.2650   52.0560 C   0  0  0  0  0  1  0  0  0  0  0  0
   25.3460    2.5070   53.4170 C   0  0  0  0  0  2  0  0  0  0  0  0
   25.0530    2.9260   52.3030 O   0  0  0  0  0  1  0  0  0  0  0  0
   29.5930   -1.4340   53.2390 O   0  0  0  0  0  0  0  0  0  0  0  0
   29.7730   -2.1780   53.8910 H   0  0  0  0  0  0  0  0  0  0  0  0
  1  7  1  0  0  0  0
  2  1  2  0  0  0  0
  2  3  1  0  0  0  0
  3  4  2  0  0  0  0
  5  4  1  0  0  0  0
  6 18  1  1  0  0  0
  6  5  1  0  0  0  0
  6  7  1  0  0  0  0
  7  8  1  6  0  0  0
  8  9  1  0  0  0  0
  9 10  2  0  0  0  0
 11 14  1  0  0  0  0
 11 10  1  0  0  0  0
 12 11  2  0  0  0  0
 13 12  1  0  0  0  0
 13  8  2  0  0  0  0
 15 14  1  0  0  0  0
 16  1  1  0  0  0  0
 17 16  1  0  0  0  0
 19 18  1  0  0  0  0
 20  2  1  0  0  0  0
 20 21  1  0  0  0  0
M  END
>  <TORSDO>
F 5

$$$$
