C:\Qe-CaDD\Project\Data\Stage_6_Molecular_Dynamics\ligands_top\out_21435_EGFR_extracted.pdbqt
 OpenBabel01082506443D

 32 34  0  0  0  0  0  0  0  0999 V2000
   22.6670    1.8210   52.1590 C   0  0  0  0  0  0  0  0  0  0  0  0
   23.6960    2.0810   53.0360 C   0  0  0  0  0  3  0  0  0  0  0  0
   24.9230    2.5500   52.6220 C   0  0  0  0  0  0  0  0  0  0  0  0
   25.0250    2.7330   51.2570 C   0  0  0  0  0  0  0  0  0  0  0  0
   24.0010    2.4730   50.3790 C   0  0  0  0  0  3  0  0  0  0  0  0
   22.7750    2.0040   50.8010 C   0  0  0  0  0  0  0  0  0  0  0  0
   26.0150    2.8380   53.4710 N   0  0  0  0  0  0  0  0  0  0  0  0
   25.9470    3.7440   54.0130 H   0  0  0  0  0  0  0  0  0  0  0  0
   27.1790    2.0530   53.6710 C   0  0  0  0  0  0  0  0  0  0  0  0
   28.3330    2.4220   54.2330 N   0  0  0  0  0  0  0  0  0  0  0  0
   29.4120    1.6490   54.4040 C   0  0  0  0  0  3  0  0  0  0  0  0
   29.3310    0.3470   53.9620 C   0  0  0  0  0  0  0  0  0  0  0  0
   28.1660   -0.0910   53.3750 C   0  0  0  0  0  0  0  0  0  0  0  0
   29.9670   -0.9170   53.8070 N   0  0  0  0  0  0  0  0  0  0  0  0
   27.1670    0.7750   53.2640 N   0  0  0  0  0  0  0  0  0  0  0  0
   28.7470   -1.4420   53.1730 C   0  0  0  0  0  2  0  0  0  0  0  0
   30.8920   -1.3440   54.0270 H   0  0  0  0  0  0  0  0  0  0  0  0
   26.2200    3.2010   50.7350 O   0  0  0  0  0  0  0  0  0  0  0  0
   26.2990    3.8390   49.4750 C   0  0  0  0  0  1  0  0  0  0  0  0
   21.4360    1.3590   52.6890 N   0  0  0  0  0  0  0  0  0  0  0  0
   21.6190    0.0220   53.0980 C   0  0  0  0  0  0  0  0  0  0  0  0
   22.6030   -0.7960   53.0850 O   0  0  0  0  0  0  0  0  0  0  0  0
   20.4390    1.5420   52.9220 H   0  0  0  0  0  0  0  0  0  0  0  0
   20.7010   -0.9740   53.7190 C   0  0  0  0  0  2  0  0  0  0  0  0
   21.5600   -1.8870   54.5650 C   0  0  0  0  0  1  0  0  0  0  0  0
   21.7480    1.7400   49.7920 C   0  0  0  0  0  2  0  0  0  0  0  0
   21.0690    2.8610   49.2580 N   0  0  0  0  0  0  0  0  0  0  0  0
   19.9320    3.3540   49.9410 C   0  0  0  0  0  1  0  0  0  0  0  0
   20.9370    2.9320   47.8440 C   0  0  0  0  0  2  0  0  0  0  0  0
   22.1300    3.4930   47.1130 C   0  0  0  0  0  3  0  0  0  0  0  0
   22.6270    4.7730   47.7320 C   0  0  0  0  0  1  0  0  0  0  0  0
   21.8110    3.6970   45.6390 C   0  0  0  0  0  1  0  0  0  0  0  0
  1 20  1  0  0  0  0
  1  2  1  0  0  0  0
  3  2  2  0  0  0  0
  3  7  1  0  0  0  0
  4  3  1  0  0  0  0
  5  6  1  0  0  0  0
  5  4  2  0  0  0  0
  6  1  2  0  0  0  0
  7  9  1  0  0  0  0
  7  8  1  0  0  0  0
  9 10  2  0  0  0  0
 10 11  1  0  0  0  0
 12 11  2  0  0  0  0
 13 12  1  0  0  0  0
 14 12  1  0  0  0  0
 14 17  1  0  0  0  0
 15 13  2  0  0  0  0
 15  9  1  0  0  0  0
 16 13  1  0  0  0  0
 16 14  1  0  0  0  0
 18  4  1  0  0  0  0
 19 18  1  0  0  0  0
 20 23  1  0  0  0  0
 20 21  1  0  0  0  0
 21 24  1  0  0  0  0
 22 21  2  0  0  0  0
 24 25  1  0  0  0  0
 26  6  1  0  0  0  0
 27 26  1  0  0  0  0
 27 28  1  0  0  0  0
 29 27  1  0  0  0  0
 30 31  1  0  0  0  0
 30 29  1  0  0  0  0
 32 30  1  0  0  0  0
M  END
>  <TORSDO>
F 9

$$$$
