C:\Qe-CaDD\Project\Data\Stage_6_Molecular_Dynamics\ligands_top\out_17548_EGFR_extracted.pdbqt
 OpenBabel01082506443D

 24 26  0  0  1  0  0  0  0  0999 V2000
   27.8900   -0.8200   53.0790 C   0  0  0  0  0  1  0  0  0  0  0  0
   27.6760   -0.0300   54.3490 C   0  0  1  0  0  3  0  0  0  0  0  0
   28.7580    0.9680   54.5040 C   0  0  0  0  0  2  0  0  0  0  0  0
   28.6530    1.9700   53.6100 C   0  0  0  0  0  2  0  0  0  0  0  0
   27.5620    1.9890   52.6340 C   0  0  0  0  0  2  0  0  0  0  0  0
   26.3270    1.4190   53.0410 N   0  0  2  0  0  0  0  0  0  0  0  0
   25.2590    1.9790   52.3850 C   0  0  0  0  0  2  0  0  0  0  0  0
   23.9260    1.8710   52.8560 N   0  0  0  0  0  0  0  0  0  0  0  0
   23.2750    0.7340   53.4620 C   0  0  0  0  0  0  0  0  0  0  0  0
   21.9190    0.7840   53.3420 C   0  0  0  0  0  3  0  0  0  0  0  0
   21.1900   -0.2690   53.8950 C   0  0  0  0  0  0  0  0  0  0  0  0
   21.8670   -1.2870   54.5210 C   0  0  0  0  0  3  0  0  0  0  0  0
   23.2240   -1.3260   54.6340 C   0  0  0  0  0  3  0  0  0  0  0  0
   23.9750   -0.3000   54.0990 C   0  0  0  0  0  0  0  0  0  0  0  0
   25.3990   -0.4500   54.2790 N   0  0  0  0  0  0  0  0  0  0  0  0
   26.3140    0.6610   54.1910 C   0  0  1  0  0  3  0  0  0  0  0  0
   23.2930    2.7220   52.7670 H   0  0  0  0  0  0  0  0  0  0  0  0
   25.6790   -1.4560   54.4800 H   0  0  0  0  0  0  0  0  0  0  0  0
   19.7860   -0.2180   53.7710 N   0  0  0  0  0  0  0  0  0  0  0  0
   19.3090   -0.1270   52.4430 C   0  0  0  0  0  0  0  0  0  0  0  0
   20.0910   -0.0950   51.4560 O   0  0  0  0  0  0  0  0  0  0  0  0
   19.1610   -0.2470   54.6100 H   0  0  0  0  0  0  0  0  0  0  0  0
   17.8490   -0.0660   52.1760 C   0  0  0  0  0  2  0  0  0  0  0  0
   17.0650   -1.4680   52.9490 Cl  0  0  0  0  0  0  0  0  0  0  0  0
  2  1  1  6  0  0  0
  2  3  1  0  0  0  0
  4  3  1  0  0  0  0
  5  6  1  0  0  0  0
  5  4  1  0  0  0  0
  6  7  1  1  0  0  0
  6 16  1  0  0  0  0
  7  8  1  0  0  0  0
  8  9  1  0  0  0  0
  9 14  1  0  0  0  0
 10  9  2  0  0  0  0
 10 11  1  0  0  0  0
 11 12  2  0  0  0  0
 12 13  1  0  0  0  0
 14 15  1  0  0  0  0
 14 13  2  0  0  0  0
 15 18  1  0  0  0  0
 16 15  1  6  0  0  0
 16  2  1  0  0  0  0
 17  8  1  0  0  0  0
 19 11  1  0  0  0  0
 19 22  1  0  0  0  0
 20 19  1  0  0  0  0
 21 20  2  0  0  0  0
 23 20  1  0  0  0  0
 23 24  1  0  0  0  0
M  END
>  <TORSDO>
F 2

$$$$
