C:\Qe-CaDD\Project\Data\Stage_6_Molecular_Dynamics\ligands_top\out_10843_EGFR_extracted.pdbqt
 OpenBabel01082506443D

 23 24  0  0  1  0  0  0  0  0999 V2000
   25.4730    3.6390   49.5710 O   0  0  0  0  0  0  0  0  0  0  0  0
   25.2510    4.9280   50.1150 C   0  0  0  0  0  2  0  0  0  0  0  0
   24.7980    4.7140   51.4550 N   0  0  0  0  0  0  0  0  0  0  0  0
   25.1570    5.3910   52.1440 H   0  0  0  0  0  0  0  0  0  0  0  0
   23.3680    4.5640   51.4950 C   0  0  0  0  0  2  0  0  0  0  0  0
   22.9980    3.3840   52.3240 C   0  0  0  0  0  2  0  0  0  0  0  0
   22.6720    2.1840   51.5970 C   0  0  2  0  0  3  0  0  0  0  0  0
   22.5260    1.2270   52.8340 C   0  0  1  0  0  3  0  0  0  0  0  0
   22.4070    1.0660   51.4760 C   0  0  0  0  0  2  0  0  0  0  0  0
   22.1630   -0.3170   52.7020 C   0  0  0  0  0  2  0  0  0  0  0  0
   22.0020   -1.3300   53.9380 C   0  0  0  0  0  1  0  0  0  0  0  0
   22.2640   -0.2200   54.0550 C   0  0  0  0  0  2  0  0  0  0  0  0
   26.4800    2.9790   50.2590 C   0  0  0  0  0  2  0  0  0  0  0  0
   25.9650    1.9610   51.0960 O   0  0  0  0  0  0  0  0  0  0  0  0
   26.7710    1.4900   52.1120 C   0  0  0  0  0  0  0  0  0  0  0  0
   26.6450    0.1670   52.1440 C   0  0  0  0  0  3  0  0  0  0  0  0
   27.2190   -0.8890   52.9640 C   0  0  0  0  0  3  0  0  0  0  0  0
   27.9810   -0.8880   54.0300 N   0  0  0  0  0  0  0  0  0  0  0  0
   28.5570    0.1550   54.8170 C   0  0  0  0  0  3  0  0  0  0  0  0
   28.8020    1.3830   54.6440 N   0  0  0  0  0  0  0  0  0  0  0  0
   28.7030    2.4640   53.6980 C   0  0  0  0  0  2  0  0  0  0  0  0
   27.5200    2.4120   52.8680 N   0  0  0  0  0  0  0  0  0  0  0  0
   27.0450    3.3580   52.7830 H   0  0  0  0  0  0  0  0  0  0  0  0
  1  2  1  0  0  0  0
  1 13  1  0  0  0  0
  2  3  1  0  0  0  0
  3  5  1  0  0  0  0
  3  4  1  0  0  0  0
  5  6  1  0  0  0  0
  7  6  1  6  0  0  0
  7  8  1  0  0  0  0
  8 10  1  6  0  0  0
  9  7  1  0  0  0  0
  9  8  1  0  0  0  0
 10 12  1  0  0  0  0
 11 12  1  0  0  0  0
 13 14  1  0  0  0  0
 14 15  1  0  0  0  0
 15 16  2  0  0  0  0
 15 22  1  0  0  0  0
 16 17  1  0  0  0  0
 17 18  2  0  0  0  0
 18 19  1  0  0  0  0
 20 19  2  0  0  0  0
 21 20  1  0  0  0  0
 22 21  1  0  0  0  0
 23 22  1  0  0  0  0
M  END
>  <TORSDO>
F 10

$$$$
