C:\Qe-CaDD\Project\Data\Stage_6_Molecular_Dynamics\ligands_top\out_18325_EGFR_extracted.pdbqt
 OpenBabel01082506443D

 26 29  0  0  0  0  0  0  0  0999 V2000
   20.1730   -0.7690   53.6660 C   0  0  0  0  0  0  0  0  0  0  0  0
   20.9350   -1.4050   54.5440 C   0  0  0  0  0  3  0  0  0  0  0  0
   22.3810   -1.2290   54.4900 C   0  0  0  0  0  3  0  0  0  0  0  0
   22.9850   -0.4550   53.5960 C   0  0  0  0  0  0  0  0  0  0  0  0
   24.4490   -0.3190   53.5940 C   0  0  0  0  0  3  0  0  0  0  0  0
   24.8290    0.6020   52.4900 C   0  0  0  0  0  0  0  0  0  0  0  0
   24.0160    1.1710   51.6920 N   0  0  0  0  0  0  0  0  0  0  0  0
   22.6290    1.0120   51.7310 N   0  0  0  0  0  0  0  0  0  0  0  0
   22.1160    0.2300   52.6450 C   0  0  0  0  0  0  0  0  0  0  0  0
   20.6370    0.1410   52.5870 C   0  0  0  0  0  3  0  0  0  0  0  0
   18.7460   -0.8630   53.6210 N   0  0  0  0  0  0  0  0  0  0  0  0
   18.0810   -0.0740   53.7800 H   0  0  0  0  0  0  0  0  0  0  0  0
   17.7830   -1.8880   53.3830 C   0  0  0  0  0  0  0  0  0  0  0  0
   16.7050   -1.4610   52.6220 C   0  0  0  0  0  3  0  0  0  0  0  0
   15.6420   -2.2880   52.2640 C   0  0  0  0  0  3  0  0  0  0  0  0
   15.7110   -3.5960   52.7150 C   0  0  0  0  0  0  0  0  0  0  0  0
   14.4200   -4.7020   52.3120 Cl  0  0  0  0  0  0  0  0  0  0  0  0
   16.7720   -4.0340   53.4690 C   0  0  0  0  0  3  0  0  0  0  0  0
   17.8160   -3.1970   53.8140 C   0  0  0  0  0  3  0  0  0  0  0  0
   26.2630    0.8760   52.3130 C   0  0  0  0  0  2  0  0  0  0  0  0
   27.1540   -0.2430   52.6620 C   0  0  0  0  0  0  0  0  0  0  0  0
   28.3200    0.0150   53.3450 C   0  0  0  0  0  3  0  0  0  0  0  0
   29.1890   -0.9840   53.6960 C   0  0  0  0  0  3  0  0  0  0  0  0
   28.9410   -2.2840   53.3870 N   0  0  0  0  0  0  0  0  0  0  0  0
   27.8070   -2.5700   52.7180 C   0  0  0  0  0  3  0  0  0  0  0  0
   26.9200   -1.5870   52.3540 C   0  0  0  0  0  3  0  0  0  0  0  0
  1  2  1  0  0  0  0
  3  2  2  0  0  0  0
  4  3  1  0  0  0  0
  5  4  1  0  0  0  0
  6  5  2  0  0  0  0
  7  8  2  0  0  0  0
  7  6  1  0  0  0  0
  8  9  1  0  0  0  0
  9  4  2  0  0  0  0
 10  9  1  0  0  0  0
 10  1  2  0  0  0  0
 11  1  1  0  0  0  0
 11 12  1  0  0  0  0
 13 11  1  0  0  0  0
 13 19  1  0  0  0  0
 14 13  2  0  0  0  0
 15 14  1  0  0  0  0
 15 16  2  0  0  0  0
 16 18  1  0  0  0  0
 17 16  1  0  0  0  0
 18 19  2  0  0  0  0
 20  6  1  0  0  0  0
 20 21  1  0  0  0  0
 21 22  1  0  0  0  0
 22 23  2  0  0  0  0
 24 23  1  0  0  0  0
 25 24  2  0  0  0  0
 26 21  2  0  0  0  0
 26 25  1  0  0  0  0
M  END
>  <TORSDO>
F 4

$$$$
