C:\Qe-CaDD\Project\Data\Stage_6_Molecular_Dynamics\ligands_top\out_21594_EGFR_extracted.pdbqt
 OpenBabel01082506443D

 24 27  0  0  1  0  0  0  0  0999 V2000
   22.5170   -0.7940   53.6710 C   0  0  0  0  0  0  0  0  0  0  0  0
   23.2570   -1.1130   54.7460 C   0  0  0  0  0  3  0  0  0  0  0  0
   24.7080   -0.8980   54.9860 C   0  0  0  0  0  2  0  0  0  0  0  0
   25.3620   -0.0440   53.9220 C   0  0  2  0  0  0  0  0  0  0  0  0
   24.3630    0.7890   53.1740 C   0  0  0  0  0  2  0  0  0  0  0  0
   23.3090   -0.1350   52.6010 C   0  0  0  0  0  2  0  0  0  0  0  0
   26.0340   -0.9670   52.9270 C   0  0  0  0  0  2  0  0  0  0  0  0
   27.5090   -0.8250   53.0840 C   0  0  0  0  0  2  0  0  0  0  0  0
   27.7080   -0.0270   54.2420 N   0  0  1  0  0  0  0  0  0  0  0  0
   28.9190    0.7210   54.2750 C   0  0  0  0  0  2  0  0  0  0  0  0
   28.8290    2.0660   53.6050 C   0  0  0  0  0  2  0  0  0  0  0  0
   27.5750    2.2300   52.9710 O   0  0  0  0  0  0  0  0  0  0  0  0
   26.6430    2.1380   54.0220 C   0  0  0  0  0  2  0  0  0  0  0  0
   26.5130    0.7330   54.4850 C   0  0  1  0  0  3  0  0  0  0  0  0
   21.1810   -1.1200   53.7340 O   0  0  0  0  0  0  0  0  0  0  0  0
   20.1380   -0.2070   53.8590 C   0  0  0  0  0  2  0  0  0  0  0  0
   19.2350   -0.1430   52.6750 C   0  0  0  0  0  0  0  0  0  0  0  0
   17.9920   -0.6990   52.5280 C   0  0  0  0  0  0  0  0  0  0  0  0
   17.2770   -0.5520   51.3680 C   0  0  0  0  0  3  0  0  0  0  0  0
   17.7460    0.1540   50.2830 C   0  0  0  0  0  3  0  0  0  0  0  0
   19.0040    0.7280   50.4060 C   0  0  0  0  0  3  0  0  0  0  0  0
   19.7180    0.5760   51.5760 C   0  0  0  0  0  3  0  0  0  0  0  0
   17.5350   -1.4120   53.6420 O   0  0  0  0  0  0  0  0  0  0  0  0
   17.6160   -2.8310   53.5410 C   0  0  0  0  0  1  0  0  0  0  0  0
  1 15  1  0  0  0  0
  1  2  2  0  0  0  0
  2  3  1  0  0  0  0
  4  7  1  6  0  0  0
  4 14  1  0  0  0  0
  4  3  1  0  0  0  0
  5  4  1  0  0  0  0
  6  5  1  0  0  0  0
  6  1  1  0  0  0  0
  7  8  1  0  0  0  0
  9  8  1  6  0  0  0
  9 10  1  0  0  0  0
  9 14  1  0  0  0  0
 11 10  1  0  0  0  0
 12 11  1  0  0  0  0
 12 13  1  0  0  0  0
 14 13  1  6  0  0  0
 15 16  1  0  0  0  0
 17 16  1  0  0  0  0
 18 17  1  0  0  0  0
 18 23  1  0  0  0  0
 19 18  2  0  0  0  0
 20 21  2  0  0  0  0
 20 19  1  0  0  0  0
 21 22  1  0  0  0  0
 22 17  2  0  0  0  0
 24 23  1  0  0  0  0
M  END
>  <TORSDO>
F 4

$$$$
