C:\Qe-CaDD\Project\Data\Stage_6_Molecular_Dynamics\ligands_top\out_22688_EGFR_extracted.pdbqt
 OpenBabel01082506443D

 22 25  0  0  1  0  0  0  0  0999 V2000
   25.5670   -0.4600   54.0210 C   0  0  1  0  0  3  0  0  0  0  0  0
   25.2710    0.2580   53.2340 C   0  0  0  0  0  3  0  0  0  0  0  0
   24.9420    1.0890   52.3240 N   0  0  0  0  0  0  0  0  0  0  0  0
   25.0430    1.9900   51.4390 C   0  0  0  0  0  2  0  0  0  0  0  0
   23.9900    1.2420   51.9640 C   0  0  1  0  0  3  0  0  0  0  0  0
   24.6760    0.3850   52.9770 C   0  0  0  0  0  0  0  0  0  0  0  0
   23.1460   -0.2240   53.0880 C   0  0  0  0  0  0  0  0  0  0  0  0
   21.9550   -0.6030   52.9540 C   0  0  0  0  0  3  0  0  0  0  0  0
   21.2160   -1.3260   53.9890 C   0  0  0  0  0  3  0  0  0  0  0  0
   22.1750   -1.3320   54.9030 C   0  0  0  0  0  3  0  0  0  0  0  0
   23.3520   -0.7000   54.6110 C   0  0  1  0  0  3  0  0  0  0  0  0
   24.6610   -0.9440   54.3010 O   0  0  0  0  0  0  0  0  0  0  0  0
   27.1180   -0.2140   53.9250 C   0  0  0  0  0  0  0  0  0  0  0  0
   28.0430   -1.1530   53.3690 C   0  0  0  0  0  3  0  0  0  0  0  0
   29.3540   -1.0650   53.2120 C   0  0  0  0  0  3  0  0  0  0  0  0
   29.8590    0.1240   53.6680 C   0  0  0  0  0  3  0  0  0  0  0  0
   29.1870    1.1420   54.2220 C   0  0  0  0  0  0  0  0  0  0  0  0
   27.8590    0.9540   54.3350 C   0  0  0  0  0  3  0  0  0  0  0  0
   29.6460    2.3440   54.6910 O   0  0  0  0  0  0  0  0  0  0  0  0
   29.5310    2.6750   55.6240 H   0  0  0  0  0  0  0  0  0  0  0  0
   22.8140    1.6770   51.2650 O   0  0  0  0  0  0  0  0  0  0  0  0
   22.0990    2.2240   51.7320 H   0  0  0  0  0  0  0  0  0  0  0  0
  1 13  1  6  0  0  0
  1 12  1  0  0  0  0
  2  1  1  0  0  0  0
  3  6  1  0  0  0  0
  4  5  1  0  0  0  0
  4  3  1  0  0  0  0
  5 21  1  6  0  0  0
  5  3  1  0  0  0  0
  6  7  1  0  0  0  0
  6  2  2  0  0  0  0
  7 11  1  0  0  0  0
  8  7  2  0  0  0  0
  8  9  1  0  0  0  0
  9 10  2  0  0  0  0
 11 10  1  6  0  0  0
 12 11  1  0  0  0  0
 13 18  1  0  0  0  0
 14 13  2  0  0  0  0
 15 14  1  0  0  0  0
 15 16  2  0  0  0  0
 16 17  1  0  0  0  0
 17 18  2  0  0  0  0
 17 19  1  0  0  0  0
 19 20  1  0  0  0  0
 21 22  1  0  0  0  0
M  END
>  <TORSDO>
F 4

$$$$
