C:\Qe-CaDD\Project\Data\Stage_6_Molecular_Dynamics\ligands_top\out_13342_EGFR_extracted.pdbqt
 OpenBabel01082506443D

 29 34  0  0  1  0  0  0  0  0999 V2000
   20.0040    3.6080   52.0390 C   0  0  0  0  0  1  0  0  0  0  0  0
   20.8340    2.8310   51.0680 C   0  0  1  0  0  3  0  0  0  0  0  0
   21.7540    3.7320   50.4810 O   0  0  0  0  0  0  0  0  0  0  0  0
   23.0140    3.2380   50.7830 C   0  0  1  0  0  3  0  0  0  0  0  0
   23.0350    2.1710   51.5540 C   0  0  0  0  0  0  0  0  0  0  0  0
   23.8520    1.2660   52.1750 C   0  0  0  0  0  0  0  0  0  0  0  0
   25.1560    1.2630   52.2910 C   0  0  2  0  0  3  0  0  0  0  0  0
   26.2580    2.1400   51.8690 C   0  0  0  0  0  2  0  0  0  0  0  0
   27.0320    2.2610   53.1370 N   0  0  0  0  0  0  0  0  0  0  0  0
   26.7730    1.1150   53.9330 C   0  0  0  0  0  0  0  0  0  0  0  0
   27.0580    1.0610   55.1590 O   0  0  0  0  0  0  0  0  0  0  0  0
   26.1830    0.3400   52.8140 C   0  0  0  0  0  2  0  0  0  0  0  0
   22.9560    0.3890   52.7370 C   0  0  0  0  0  0  0  0  0  0  0  0
   23.0060   -0.7470   53.5050 C   0  0  0  0  0  3  0  0  0  0  0  0
   21.9560   -1.4900   53.9840 C   0  0  0  0  0  3  0  0  0  0  0  0
   20.6880   -1.0560   53.6640 C   0  0  0  0  0  3  0  0  0  0  0  0
   20.5450    0.0640   52.9060 C   0  0  0  0  0  3  0  0  0  0  0  0
   21.6570    0.7810   52.4460 C   0  0  0  0  0  0  0  0  0  0  0  0
   21.7310    1.8940   51.7100 N   0  0  0  0  0  0  0  0  0  0  0  0
   27.6520    3.1250   53.3140 H   0  0  0  0  0  0  0  0  0  0  0  0
   24.0190    4.0140   50.1720 N   0  0  0  0  0  0  0  0  0  0  0  0
   24.9860    3.4310   49.2270 C   0  0  0  0  0  2  0  0  0  0  0  0
   26.0870    4.4370   49.1570 C   0  0  0  0  0  2  0  0  0  0  0  0
   25.4820    5.6610   49.7340 C   0  0  0  0  0  0  0  0  0  0  0  0
   25.9750    6.9600   49.7390 C   0  0  0  0  0  3  0  0  0  0  0  0
   24.2530    5.4190   50.3390 C   0  0  0  0  0  0  0  0  0  0  0  0
   25.2430    7.9760   50.3410 C   0  0  0  0  0  3  0  0  0  0  0  0
   24.0240    7.7330   50.9400 C   0  0  0  0  0  3  0  0  0  0  0  0
   23.5360    6.4370   50.9320 C   0  0  0  0  0  3  0  0  0  0  0  0
  2 19  1  0  0  0  0
  2  1  1  1  0  0  0
  3  4  1  0  0  0  0
  3  2  1  0  0  0  0
  4 21  1  6  0  0  0
  4  5  1  0  0  0  0
  5 19  1  0  0  0  0
  5  6  2  0  0  0  0
  6 13  1  0  0  0  0
  7  6  1  6  0  0  0
  7 12  1  0  0  0  0
  8  7  1  0  0  0  0
  8  9  1  0  0  0  0
  9 20  1  0  0  0  0
  9 10  1  0  0  0  0
 10 11  2  0  0  0  0
 12 10  1  0  0  0  0
 13 14  1  0  0  0  0
 14 15  2  0  0  0  0
 16 15  1  0  0  0  0
 17 16  2  0  0  0  0
 18 13  2  0  0  0  0
 18 17  1  0  0  0  0
 19 18  1  0  0  0  0
 21 26  1  0  0  0  0
 22 21  1  0  0  0  0
 23 22  1  0  0  0  0
 23 24  1  0  0  0  0
 24 25  2  0  0  0  0
 24 26  1  0  0  0  0
 25 27  1  0  0  0  0
 26 29  2  0  0  0  0
 27 28  2  0  0  0  0
 29 28  1  0  0  0  0
M  END
>  <TORSDO>
F 1

$$$$
