C:\Qe-CaDD\Project\Data\Stage_6_Molecular_Dynamics\ligands_top\out_12313_EGFR_extracted.pdbqt
 OpenBabel01082506443D

 29 31  0  0  1  0  0  0  0  0999 V2000
   25.3730    3.8250   50.6320 C   0  0  0  0  0  0  0  0  0  0  0  0
   24.6530    4.9240   50.5100 C   0  0  0  0  0  3  0  0  0  0  0  0
   23.6900    5.3050   51.5330 C   0  0  0  0  0  3  0  0  0  0  0  0
   23.5100    4.5630   52.6120 C   0  0  0  0  0  2  0  0  0  0  0  0
   24.3060    3.3910   52.7020 N   0  0  0  0  0  0  0  0  0  0  0  0
   25.2910    2.8790   51.7730 C   0  0  0  0  0  0  0  0  0  0  0  0
   24.1080    2.8550   53.6000 H   0  0  0  0  0  0  0  0  0  0  0  0
   26.3210    3.4890   49.5840 C   0  0  0  0  0  3  0  0  0  0  0  0
   27.1980    4.2580   48.9670 C   0  0  0  0  0  3  0  0  0  0  0  0
   27.6380    5.6080   48.9720 N   0  0  0  0  0  0  0  0  0  0  0  0
   26.9460    6.7340   48.3930 C   0  0  0  0  0  0  0  0  0  0  0  0
   25.8270    6.7300   47.7740 O   0  0  0  0  0  0  0  0  0  0  0  0
   28.5530    5.9350   49.4070 H   0  0  0  0  0  0  0  0  0  0  0  0
   27.4410    8.1140   48.4280 C   0  0  1  0  0  3  0  0  0  0  0  0
   27.4000    8.7520   49.7110 N   0  0  0  0  0  0  0  0  0  0  0  0
   26.2150    9.5390   49.9530 C   0  0  0  0  0  1  0  0  0  0  0  0
   28.6080    9.5290   49.7840 C   0  0  0  0  0  2  0  0  0  0  0  0
   29.5540    8.6600   48.9470 C   0  0  0  0  0  2  0  0  0  0  0  0
   28.7610    8.0760   47.9920 O   0  0  0  0  0  0  0  0  0  0  0  0
   26.5570    2.7600   52.4650 N   0  0  0  0  0  0  0  0  0  0  0  0
   26.9730    3.6860   52.7710 H   0  0  0  0  0  0  0  0  0  0  0  0
   27.3890    1.6490   52.8370 C   0  0  0  0  0  0  0  0  0  0  0  0
   28.6300    1.7940   53.4460 C   0  0  0  0  0  3  0  0  0  0  0  0
   29.3060    0.6290   53.7220 C   0  0  0  0  0  3  0  0  0  0  0  0
   28.8450   -0.6370   53.4390 C   0  0  0  0  0  0  0  0  0  0  0  0
   29.6110   -1.7050   53.7640 F   0  0  0  0  0  0  0  0  0  0  0  0
   27.6110   -0.7510   52.8340 C   0  0  0  0  0  0  0  0  0  0  0  0
   27.0870   -2.3910   52.5040 Cl  0  0  0  0  0  0  0  0  0  0  0  0
   26.9000    0.3940   52.5400 C   0  0  0  0  0  3  0  0  0  0  0  0
  1  6  2  0  0  0  0
  2  1  1  0  0  0  0
  2  3  2  0  0  0  0
  3  4  1  0  0  0  0
  4  5  1  0  0  0  0
  5  7  1  0  0  0  0
  6 20  1  0  0  0  0
  6  5  1  0  0  0  0
  8  1  1  0  0  0  0
  9 10  1  0  0  0  0
  9  8  2  0  0  0  0
 10 13  1  0  0  0  0
 11 10  1  0  0  0  0
 12 11  2  0  0  0  0
 14 11  1  1  0  0  0
 14 15  1  0  0  0  0
 15 17  1  0  0  0  0
 15 16  1  0  0  0  0
 18 17  1  0  0  0  0
 19 14  1  0  0  0  0
 19 18  1  0  0  0  0
 20 21  1  0  0  0  0
 20 22  1  0  0  0  0
 22 23  1  0  0  0  0
 23 24  2  0  0  0  0
 25 24  1  0  0  0  0
 25 26  1  0  0  0  0
 27 25  2  0  0  0  0
 28 27  1  0  0  0  0
 29 27  1  0  0  0  0
 29 22  2  0  0  0  0
M  END
>  <TORSDO>
F 5

$$$$
