C:\Qe-CaDD\Project\Data\Stage_6_Molecular_Dynamics\ligands_top\out_13035_EGFR_extracted.pdbqt
 OpenBabel01082506443D

 31 32  0  0  1  0  0  0  0  0999 V2000
   19.4940   -0.8890   53.6570 Cl  0  0  0  0  0  0  0  0  0  0  0  0
   21.2540   -0.5580   53.8950 C   0  0  0  0  0  0  0  0  0  0  0  0
   22.2990   -0.9680   54.5890 C   0  0  0  0  0  0  0  0  0  0  0  0
   23.1040   -1.7220   55.4920 C   0  0  0  0  0  3  0  0  0  0  0  0
   24.3730   -1.3100   55.7070 C   0  0  0  0  0  2  0  0  0  0  0  0
   25.3120   -0.2660   55.3470 C   0  0  0  0  0  2  0  0  0  0  0  0
   26.3520   -0.5700   54.4170 N   0  0  0  0  0  0  0  0  0  0  0  0
   25.7990   -0.6660   53.0650 C   0  0  0  0  0  2  0  0  0  0  0  0
   26.7690   -0.2350   52.0810 N   0  0  0  0  0  0  0  0  0  0  0  0
   26.6420    1.0090   51.6170 C   0  0  0  0  0  3  0  0  0  0  0  0
   25.6410    2.0710   51.9490 C   0  0  2  0  0  3  0  0  0  0  0  0
   24.5090    1.6270   51.1160 C   0  0  0  0  0  2  0  0  0  0  0  0
   23.6880    2.5320   51.4440 N   0  0  0  0  0  2  0  0  0  0  0  0
   22.3680    2.8960   51.1310 C   0  0  0  0  0  1  0  0  0  0  0  0
   23.6080    2.8470   51.6320 C   0  0  1  0  0  3  0  0  0  0  0  0
   22.9390    4.3090   51.7100 N   0  0  0  0  0  0  0  0  0  0  0  0
   24.7720    3.0700   52.2920 C   0  0  0  0  0  2  0  0  0  0  0  0
   22.3670    1.4590   51.0970 C   0  0  0  0  0  2  0  0  0  0  0  0
   21.6460    1.3440   52.3680 N   0  0  0  0  0  2  0  0  0  0  0  0
   21.6270   -0.1810   52.5210 C   0  0  0  0  0  2  0  0  0  0  0  0
   27.1130    0.1440   54.4330 H   0  0  0  0  0  0  0  0  0  0  0  0
   22.1220    5.0660   51.7430 H   0  0  0  0  0  0  0  0  0  0  0  0
   23.8730    5.5050   52.0050 C   0  0  0  0  0  2  0  0  0  0  0  0
   23.7670    6.3600   50.7180 C   0  0  0  0  0  2  0  0  0  0  0  0
   23.9180    5.6710   49.4260 C   0  0  0  0  0  2  0  0  0  0  0  0
   25.4250    5.7080   49.0640 C   0  0  0  0  0  0  0  0  0  0  0  0
   25.9690    4.4750   49.2070 C   0  0  0  0  0  3  0  0  0  0  0  0
   27.3190    4.5270   48.8660 C   0  0  0  0  0  3  0  0  0  0  0  0
   27.7770    5.7900   48.4750 C   0  0  0  0  0  3  0  0  0  0  0  0
   27.1560    7.0130   48.3570 N   0  0  0  0  0  0  0  0  0  0  0  0
   25.7260    6.9670   48.7100 C   0  0  0  0  0  3  0  0  0  0  0  0
  1  2  1  0  0  0  0
  2  3  2  0  0  0  0
  3  4  2  0  0  0  0
  4  5  1  0  0  0  0
  6  5  1  0  0  0  0
  7 21  1  0  0  0  0
  7  6  1  0  0  0  0
  8  7  1  0  0  0  0
  9  8  1  0  0  0  0
 10 11  1  0  0  0  0
 10  9  2  0  0  0  0
 11 17  1  6  0  0  0
 12 13  1  0  0  0  0
 12 11  1  0  0  0  0
 15 14  1  1  0  0  0
 15 16  1  0  0  0  0
 15 17  1  0  0  0  0
 16 22  1  0  0  0  0
 16 23  1  0  0  0  0
 18 13  1  0  0  0  0
 18 19  1  0  0  0  0
 19 20  1  0  0  0  0
 20  2  1  0  0  0  0
 24 23  1  0  0  0  0
 25 24  1  0  0  0  0
 26 27  1  0  0  0  0
 26 25  1  0  0  0  0
 28 27  2  0  0  0  0
 29 28  1  0  0  0  0
 30 29  2  0  0  0  0
 30 31  1  0  0  0  0
 31 26  2  0  0  0  0
M  END
>  <TORSDO>
F 5

$$$$
