C:\Qe-CaDD\Project\Data\Stage_6_Molecular_Dynamics\ligands_top\out_12388_EGFR_extracted.pdbqt
 OpenBabel01082506443D

 30 34  0  0  1  0  0  0  0  0999 V2000
   23.6380   -0.2430   53.6170 C   0  0  0  0  0  0  0  0  0  0  0  0
   23.8670   -0.9820   54.7270 N   0  0  0  0  0  0  0  0  0  0  0  0
   22.8430   -1.5360   55.4280 C   0  0  0  0  0  3  0  0  0  0  0  0
   21.5760   -1.3480   55.0070 N   0  0  0  0  0  0  0  0  0  0  0  0
   21.2960   -0.6170   53.9050 C   0  0  0  0  0  0  0  0  0  0  0  0
   19.9850   -0.4040   53.4610 C   0  0  0  0  0  3  0  0  0  0  0  0
   19.7110    0.3610   52.3230 C   0  0  0  0  0  0  0  0  0  0  0  0
   20.8040    0.8860   51.6750 C   0  0  0  0  0  0  0  0  0  0  0  0
   22.1020    0.7010   52.0790 C   0  0  0  0  0  0  0  0  0  0  0  0
   22.3410   -0.0550   53.1990 C   0  0  0  0  0  0  0  0  0  0  0  0
   23.0740    1.2940   51.3220 O   0  0  0  0  0  0  0  0  0  0  0  0
   22.9120    1.9490   50.1020 C   0  0  0  0  0  2  0  0  0  0  0  0
   21.5500    1.6660   49.5080 C   0  0  0  0  0  2  0  0  0  0  0  0
   20.5780    1.6350   50.5630 O   0  0  0  0  0  0  0  0  0  0  0  0
   24.7550    0.2820   52.9400 N   0  0  0  0  0  0  0  0  0  0  0  0
   24.8030    0.8730   52.0530 H   0  0  0  0  0  0  0  0  0  0  0  0
   26.1660    0.2580   53.0870 C   0  0  0  0  0  0  0  0  0  0  0  0
   27.0740    1.7370   53.3350 P   0  0  0  0  0  0  0  0  0  0  0  0
   28.7930    1.4450   53.5090 C   0  0  0  0  0  3  0  0  0  0  0  0
   29.2250    0.1200   53.4330 C   0  0  0  0  0  0  0  0  0  0  0  0
   30.5600   -0.0350   53.5730 F   0  0  0  0  0  0  0  0  0  0  0  0
   28.3160   -0.8910   53.2310 C   0  0  0  0  0  0  0  0  0  0  0  0
   26.9610   -0.8740   53.0740 C   0  0  0  0  0  3  0  0  0  0  0  0
   29.1010   -2.4820   53.1770 Cl  0  0  0  0  0  0  0  0  0  0  0  0
   18.3710    0.4450   52.0570 O   0  0  0  0  0  0  0  0  0  0  0  0
   17.5240   -0.5060   51.4960 C   0  0  2  0  0  3  0  0  0  0  0  0
   17.0770   -0.1630   50.1050 C   0  0  0  0  0  2  0  0  0  0  0  0
   15.6260    0.1830   50.2800 C   0  0  0  0  0  2  0  0  0  0  0  0
   15.1740   -0.5870   51.3540 O   0  0  0  0  0  0  0  0  0  0  0  0
   16.2210   -0.6180   52.2580 C   0  0  0  0  0  2  0  0  0  0  0  0
  1  2  1  0  0  0  0
  2  3  2  0  0  0  0
  4  3  1  0  0  0  0
  5  4  2  0  0  0  0
  6  5  1  0  0  0  0
  7  6  2  0  0  0  0
  8  9  2  0  0  0  0
  8  7  1  0  0  0  0
  9 10  1  0  0  0  0
 10  1  2  0  0  0  0
 10  5  1  0  0  0  0
 11  9  1  0  0  0  0
 12 11  1  0  0  0  0
 13 12  1  0  0  0  0
 13 14  1  0  0  0  0
 14  8  1  0  0  0  0
 15 17  1  0  0  0  0
 15  1  1  0  0  0  0
 16 15  1  0  0  0  0
 17 18  1  0  0  0  0
 18 19  2  0  0  0  0
 20 19  1  0  0  0  0
 20 21  1  0  0  0  0
 22 20  2  0  0  0  0
 23 17  2  0  0  0  0
 23 22  1  0  0  0  0
 24 22  1  0  0  0  0
 25  7  1  0  0  0  0
 26 25  1  1  0  0  0
 26 30  1  0  0  0  0
 27 28  1  0  0  0  0
 27 26  1  0  0  0  0
 28 29  1  0  0  0  0
 29 30  1  0  0  0  0
M  END
>  <TORSDO>
F 4

$$$$
