C:\Qe-CaDD\Project\Data\Stage_6_Molecular_Dynamics\ligands_top\out_10403_EGFR_extracted.pdbqt
 OpenBabel01082506443D

 31 34  0  0  1  0  0  0  0  0999 V2000
   27.9240    5.0530   48.5830 C   0  0  0  0  0  1  0  0  0  0  0  0
   26.7170    5.9410   48.7340 C   0  0  1  0  0  3  0  0  0  0  0  0
   25.6700    5.9200   49.5570 C   0  0  0  0  0  2  0  0  0  0  0  0
   24.7570    7.0380   49.2830 C   0  0  0  0  0  0  0  0  0  0  0  0
   23.4590    7.0950   49.5690 C   0  0  0  0  0  0  0  0  0  0  0  0
   22.8690    8.3330   49.1650 N   0  0  0  0  0  0  0  0  0  0  0  0
   21.6170    8.5680   49.3500 C   0  0  0  0  0  3  0  0  0  0  0  0
   20.7690    7.5890   49.9740 N   0  0  0  0  0  0  0  0  0  0  0  0
   21.2910    6.4480   50.3550 C   0  0  0  0  0  3  0  0  0  0  0  0
   22.7180    5.9990   50.2250 C   0  0  2  0  0  0  0  0  0  0  0  0
   23.1920    5.8300   51.6480 C   0  0  0  0  0  3  0  0  0  0  0  0
   23.6540    4.8520   52.4370 C   0  0  0  0  0  0  0  0  0  0  0  0
   23.7860    3.5160   51.8700 C   0  0  0  0  0  0  0  0  0  0  0  0
   23.4890    3.1720   50.6230 C   0  0  0  0  0  3  0  0  0  0  0  0
   22.8420    4.3750   49.3730 P   0  0  0  0  0  0  0  0  0  0  0  0
   25.6600    8.0280   48.6290 C   0  0  1  0  0  3  0  0  0  0  0  0
   26.4580    8.6750   49.5760 F   0  0  0  0  0  0  0  0  0  0  0  0
   26.5640    7.1220   47.8210 C   0  0  0  0  0  2  0  0  0  0  0  0
   21.5860    3.9310   48.8020 H   0  0  0  0  0  0  0  0  0  0  0  0
   23.9970    5.1120   53.7570 O   0  0  0  0  0  0  0  0  0  0  0  0
   24.6500    4.5880   54.2970 H   0  0  0  0  0  0  0  0  0  0  0  0
   24.2550    2.4440   52.6170 O   0  0  0  0  0  0  0  0  0  0  0  0
   23.8310    1.1280   52.4820 C   0  0  0  0  0  2  0  0  0  0  0  0
   24.5760    0.1610   53.3820 C   0  0  0  0  0  2  0  0  0  0  0  0
   25.8450    0.8390   53.8430 C   0  0  0  0  0  2  0  0  0  0  0  0
   26.9340    0.6560   52.9440 N   0  0  0  0  0  0  0  0  0  0  0  0
   27.8300   -0.4030   53.3820 C   0  0  0  0  0  2  0  0  0  0  0  0
   28.6530   -0.0160   54.5690 C   0  0  0  0  0  2  0  0  0  0  0  0
   28.5160    1.3220   54.9240 O   0  0  0  0  0  0  0  0  0  0  0  0
   28.6670    2.1650   53.8320 C   0  0  0  0  0  2  0  0  0  0  0  0
   27.7340    1.8120   52.6850 C   0  0  0  0  0  2  0  0  0  0  0  0
  2  1  1  1  0  0  0
  2  3  1  0  0  0  0
  4  3  1  0  0  0  0
  4  5  2  0  0  0  0
  5 10  1  0  0  0  0
  6  7  2  0  0  0  0
  6  5  1  0  0  0  0
  7  8  1  0  0  0  0
  8  9  2  0  0  0  0
 10  9  1  1  0  0  0
 10 11  1  0  0  0  0
 11 12  2  0  0  0  0
 12 20  1  0  0  0  0
 13 12  1  0  0  0  0
 13 22  1  0  0  0  0
 14 13  2  0  0  0  0
 15 10  1  0  0  0  0
 15 14  1  0  0  0  0
 16  4  1  0  0  0  0
 16 17  1  1  0  0  0
 18 16  1  0  0  0  0
 18  2  1  0  0  0  0
 19 15  1  0  0  0  0
 20 21  1  0  0  0  0
 23 22  1  0  0  0  0
 23 24  1  0  0  0  0
 24 25  1  0  0  0  0
 26 27  1  0  0  0  0
 26 25  1  0  0  0  0
 27 28  1  0  0  0  0
 28 29  1  0  0  0  0
 30 29  1  0  0  0  0
 31 26  1  0  0  0  0
 31 30  1  0  0  0  0
M  END
>  <TORSDO>
F 6

$$$$
