C:\Qe-CaDD\Project\Data\Stage_6_Molecular_Dynamics\ligands_top\out_22202_EGFR_extracted.pdbqt
 OpenBabel01082506443D

 30 31  0  0  1  0  0  0  0  0999 V2000
   23.4410    3.4210   50.2920 C   0  0  1  0  0  3  0  0  0  0  0  0
   23.4180    4.3280   51.5230 C   0  0  0  0  0  3  0  0  0  0  0  0
   23.6710    5.6150   51.8240 C   0  0  0  0  0  3  0  0  0  0  0  0
   24.0830    6.9720   51.3470 C   0  0  0  0  0  3  0  0  0  0  0  0
   24.3010    7.2920   50.0820 C   0  0  0  0  0  3  0  0  0  0  0  0
   24.3510    7.0270   48.6570 C   0  0  1  0  0  3  0  0  0  0  0  0
   24.5580    7.1610   47.3720 C   0  0  0  0  0  1  0  0  0  0  0  0
   25.1160    8.5770   48.3450 S   0  0  0  0  0  3  0  0  0  0  0  0
   25.5350    9.7150   47.4680 O   0  0  0  0  0  0  0  0  0  0  0  0
   26.6350    7.9380   49.2060 N   0  0  0  0  0  2  0  0  0  0  0  0
   26.9630    6.5350   48.9240 C   0  0  0  0  0  2  0  0  0  0  0  0
   26.8260    5.2020   48.8650 C   0  0  0  0  0  3  0  0  0  0  0  0
   25.9410    4.0810   49.1730 C   0  0  0  0  0  3  0  0  0  0  0  0
   24.8400    3.5180   49.6370 C   0  0  0  0  0  2  0  0  0  0  0  0
   27.2110    8.5080   49.8520 H   0  0  0  0  0  0  0  0  0  0  0  0
   23.3130    2.1070   50.8140 N   0  0  0  0  0  0  0  0  0  0  0  0
   23.3280    1.5690   49.9230 H   0  0  0  0  0  0  0  0  0  0  0  0
   23.1820    1.1300   51.7780 C   0  0  0  0  0  0  0  0  0  0  0  0
   24.3200    0.8060   52.4920 C   0  0  0  0  0  0  0  0  0  0  0  0
   25.5690    1.3370   52.4110 C   0  0  0  0  0  3  0  0  0  0  0  0
   24.2080   -0.1860   53.4330 C   0  0  0  0  0  0  0  0  0  0  0  0
   26.6370    0.9560   53.1660 C   0  0  0  0  0  3  0  0  0  0  0  0
   26.4960   -0.0570   54.1200 C   0  0  0  0  0  0  0  0  0  0  0  0
   25.2470   -0.6250   54.2370 C   0  0  0  0  0  3  0  0  0  0  0  0
   23.0640   -0.8190   53.6650 N   0  0  0  0  0  0  0  0  0  0  0  0
   21.9470   -0.5500   53.0150 C   0  0  0  0  0  3  0  0  0  0  0  0
   22.0370    0.4280   52.0800 C   0  0  0  0  0  3  0  0  0  0  0  0
   27.6490   -0.3570   54.8270 O   0  0  0  0  0  0  0  0  0  0  0  0
   28.8980    0.1260   54.4060 C   0  0  0  0  0  2  0  0  0  0  0  0
   29.7420   -0.9080   53.7090 C   0  0  0  0  0  1  0  0  0  0  0  0
  1 14  1  1  0  0  0
  1 16  1  0  0  0  0
  1  2  1  0  0  0  0
  2  3  2  0  0  0  0
  4  3  1  0  0  0  0
  5  4  2  0  0  0  0
  6  7  1  6  0  0  0
  6  5  1  0  0  0  0
  8  6  1  0  0  0  0
  9  8  2  0  0  0  0
 10 15  1  0  0  0  0
 11 10  1  0  0  0  0
 12 11  1  0  0  0  0
 12 13  2  0  0  0  0
 13 14  1  0  0  0  0
 16 18  1  0  0  0  0
 17 16  1  0  0  0  0
 18 27  2  0  0  0  0
 18 19  1  0  0  0  0
 19 21  1  0  0  0  0
 20 19  2  0  0  0  0
 20 22  1  0  0  0  0
 21 25  1  0  0  0  0
 21 24  2  0  0  0  0
 22 23  2  0  0  0  0
 23 24  1  0  0  0  0
 23 28  1  0  0  0  0
 26 25  2  0  0  0  0
 27 26  1  0  0  0  0
 29 28  1  0  0  0  0
 30 29  1  0  0  0  0
M  END
>  <TORSDO>
F 4

$$$$
