C:\Qe-CaDD\Project\Data\Stage_6_Molecular_Dynamics\ligands_top\out_16959_EGFR_extracted.pdbqt
 OpenBabel01082506443D

 20 22  0  0  1  0  0  0  0  0999 V2000
   26.0930    0.9430   52.8510 C   0  0  0  0  0  0  0  0  0  0  0  0
   24.8070    0.7740   52.6050 C   0  0  0  0  0  3  0  0  0  0  0  0
   24.1580   -0.0440   53.6110 C   0  0  0  0  0  0  0  0  0  0  0  0
   25.1630   -0.3660   54.4930 C   0  0  0  0  0  0  0  0  0  0  0  0
   24.8670   -1.1510   55.5390 N   0  0  0  0  0  0  0  0  0  0  0  0
   23.5980   -1.5840   55.6690 C   0  0  0  0  0  3  0  0  0  0  0  0
   22.6420   -1.2520   54.7940 N   0  0  0  0  0  0  0  0  0  0  0  0
   22.8680   -0.4630   53.7150 C   0  0  0  0  0  0  0  0  0  0  0  0
   26.4560    0.2380   54.0910 C   0  0  1  0  0  3  0  0  0  0  0  0
   21.7830   -0.1350   52.9020 N   0  0  0  0  0  0  0  0  0  0  0  0
   21.6520    0.5990   51.7050 C   0  0  0  0  0  2  0  0  0  0  0  0
   20.5710    0.8000   51.0030 C   0  0  0  0  0  3  0  0  0  0  0  0
   19.2850    0.2210   51.4490 C   0  0  0  0  0  3  0  0  0  0  0  0
   19.3520   -0.5470   52.6820 C   0  0  0  0  0  0  0  0  0  0  0  0
   17.7430   -1.3110   53.3060 Br  0  0  0  0  0  0  0  0  0  0  0  0
   20.5000   -0.6800   53.2980 C   0  0  0  0  0  3  0  0  0  0  0  0
   27.0380    1.6570   52.1210 O   0  0  0  0  0  0  0  0  0  0  0  0
   26.6510    2.6220   51.1590 C   0  0  0  0  0  1  0  0  0  0  0  0
   27.4790   -0.6800   53.9620 O   0  0  0  0  0  0  0  0  0  0  0  0
   28.5870   -0.0650   54.5950 C   0  0  0  0  0  1  0  0  0  0  0  0
  1  9  1  0  0  0  0
  2  1  2  0  0  0  0
  2  3  1  0  0  0  0
  3  8  2  0  0  0  0
  3  4  1  0  0  0  0
  4  5  2  0  0  0  0
  5  6  1  0  0  0  0
  7  6  2  0  0  0  0
  8  7  1  0  0  0  0
  9 19  1  6  0  0  0
  9  4  1  0  0  0  0
 10 16  1  0  0  0  0
 10  8  1  0  0  0  0
 11 10  1  0  0  0  0
 12 13  2  0  0  0  0
 12 11  1  0  0  0  0
 13 14  1  0  0  0  0
 14 16  2  0  0  0  0
 14 15  1  0  0  0  0
 17  1  1  0  0  0  0
 18 17  1  0  0  0  0
 19 20  1  0  0  0  0
M  END
>  <TORSDO>
F 3

$$$$
