C:\Qe-CaDD\Project\Data\Stage_6_Molecular_Dynamics\ligands_top\out_11009_EGFR_extracted.pdbqt
 OpenBabel01082506443D

 26 27  0  0  1  0  0  0  0  0999 V2000
   24.4210    1.4020   52.1450 C   0  0  0  0  0  0  0  0  0  0  0  0
   23.4970    0.7460   52.9330 C   0  0  0  0  0  3  0  0  0  0  0  0
   23.8920   -0.3820   53.6500 C   0  0  0  0  0  3  0  0  0  0  0  0
   25.1990   -0.8230   53.5610 C   0  0  0  0  0  3  0  0  0  0  0  0
   26.1260   -0.1750   52.7780 C   0  0  0  0  0  0  0  0  0  0  0  0
   25.7270    0.9560   52.0610 C   0  0  0  0  0  3  0  0  0  0  0  0
   23.8770    2.5880   51.4320 C   0  0  1  0  0  3  0  0  0  0  0  0
   23.0030    3.3450   52.3120 N   0  0  0  0  0  0  0  0  0  0  0  0
   23.0590    4.3660   52.1260 H   0  0  0  0  0  0  0  0  0  0  0  0
   22.0160    3.0610   52.2400 H   0  0  0  0  0  0  0  0  0  0  0  0
   24.9360    3.4480   50.9170 N   0  0  0  0  0  0  0  0  0  0  0  0
   24.7910    3.9220   49.7330 C   0  0  0  0  0  3  0  0  0  0  0  0
   25.8310    4.7850   49.1870 C   0  0  0  0  0  0  0  0  0  0  0  0
   25.5810    6.0820   48.8080 C   0  0  0  0  0  3  0  0  0  0  0  0
   26.6010    6.8570   48.2950 C   0  0  0  0  0  3  0  0  0  0  0  0
   27.8900    6.3940   48.1390 C   0  0  0  0  0  0  0  0  0  0  0  0
   29.2130    7.3400   47.4950 Cl  0  0  0  0  0  0  0  0  0  0  0  0
   28.1700    5.0830   48.5160 C   0  0  0  0  0  3  0  0  0  0  0  0
   27.1280    4.3420   49.0210 C   0  0  0  0  0  3  0  0  0  0  0  0
   27.4520   -0.5730   52.6520 O   0  0  0  0  0  0  0  0  0  0  0  0
   28.3530   -0.0560   53.6360 C   0  0  0  0  0  0  0  0  0  0  0  0
   27.7290    0.0570   54.8660 F   0  0  0  0  0  0  0  0  0  0  0  0
   28.6560    1.2530   53.2570 F   0  0  0  0  0  0  0  0  0  0  0  0
   29.5990   -0.8860   53.7540 C   0  0  0  0  0  3  0  0  0  0  0  0
   30.6500   -0.1800   53.1690 F   0  0  0  0  0  0  0  0  0  0  0  0
   29.3980   -2.0950   53.1100 F   0  0  0  0  0  0  0  0  0  0  0  0
  1  2  1  0  0  0  0
  2  3  2  0  0  0  0
  4  3  1  0  0  0  0
  5  4  2  0  0  0  0
  6  1  2  0  0  0  0
  6  5  1  0  0  0  0
  7 11  1  1  0  0  0
  7  1  1  0  0  0  0
  7  8  1  0  0  0  0
  9  8  1  0  0  0  0
 10  8  1  0  0  0  0
 12 11  2  0  0  0  0
 13 12  1  0  0  0  0
 14 13  2  0  0  0  0
 15 14  1  0  0  0  0
 16 15  2  0  0  0  0
 16 18  1  0  0  0  0
 17 16  1  0  0  0  0
 18 19  2  0  0  0  0
 19 13  1  0  0  0  0
 20  5  1  0  0  0  0
 20 21  1  0  0  0  0
 21 24  1  0  0  0  0
 21 22  1  0  0  0  0
 23 21  1  0  0  0  0
 25 24  1  0  0  0  0
 26 24  1  0  0  0  0
M  END
>  <TORSDO>
F 7

$$$$
