C:\Qe-CaDD\Project\Data\Stage_6_Molecular_Dynamics\ligands_top\out_20656_EGFR_extracted.pdbqt
 OpenBabel01082506443D

 23 26  0  0  1  0  0  0  0  0999 V2000
   24.6010    2.3390   51.6770 N   0  0  0  0  0  0  0  0  0  0  0  0
   24.2250    3.3210   50.7600 C   0  0  0  0  0  0  0  0  0  0  0  0
   22.9950    3.3850   50.3470 C   0  0  0  0  0  0  0  0  0  0  0  0
   22.3220    4.2730   49.4440 C   0  0  0  0  0  0  0  0  0  0  0  0
   21.3130    4.0070   48.7660 O   0  0  0  0  0  0  0  0  0  0  0  0
   22.9280    5.6310   49.3470 C   0  0  0  0  0  2  0  0  0  0  0  0
   24.2850    5.4060   48.6620 C   0  0  0  0  0  2  0  0  0  0  0  0
   25.3120    4.6270   50.0040 P   0  0  0  0  0  0  0  0  0  0  0  0
   22.1850    1.8490   50.9520 P   0  0  1  0  0  4  0  0  0  0  0  0
   23.4960    1.5470   52.0340 C   0  0  2  0  0  3  0  0  0  0  0  0
   22.8690    0.5990   52.9490 C   0  0  0  0  0  0  0  0  0  0  0  0
   23.4210   -0.4880   53.5930 C   0  0  0  0  0  3  0  0  0  0  0  0
   22.6320   -1.2340   54.4780 C   0  0  0  0  0  3  0  0  0  0  0  0
   21.2940   -0.9170   54.7380 C   0  0  0  0  0  3  0  0  0  0  0  0
   20.7910    0.1950   54.0550 C   0  0  0  0  0  3  0  0  0  0  0  0
   21.5520    0.9790   53.1500 C   0  0  0  0  0  0  0  0  0  0  0  0
   21.1010    2.1800   52.3740 C   0  0  0  0  0  0  0  0  0  0  0  0
   20.2370    2.9660   52.8380 O   0  0  0  0  0  0  0  0  0  0  0  0
   25.4060    5.6560   51.0510 H   0  0  0  0  0  0  0  0  0  0  0  0
   21.9240    0.9730   50.1640 H   0  0  0  0  0  0  0  0  0  0  0  0
   25.9220    2.1110   52.2260 C   0  0  0  0  0  3  0  0  0  0  0  0
   25.9140    2.2590   53.7410 C   0  0  0  0  0  1  0  0  0  0  0  0
   26.4380    0.7290   51.8110 C   0  0  0  0  0  1  0  0  0  0  0  0
  1 10  1  0  0  0  0
  1 21  1  0  0  0  0
  2  1  1  0  0  0  0
  3  2  2  0  0  0  0
  3  9  1  0  0  0  0
  4  3  1  0  0  0  0
  5  4  2  0  0  0  0
  6  4  1  0  0  0  0
  7  6  1  0  0  0  0
  7  8  1  0  0  0  0
  8  2  1  0  0  0  0
  8 19  1  0  0  0  0
  9 20  1  6  0  0  0
  9 10  1  0  0  0  0
  9 17  1  0  0  0  0
 10 11  1  1  0  0  0
 11 16  2  0  0  0  0
 11 12  1  0  0  0  0
 12 13  2  0  0  0  0
 13 14  1  0  0  0  0
 15 14  2  0  0  0  0
 16 15  1  0  0  0  0
 17 18  2  0  0  0  0
 17 16  1  0  0  0  0
 21 22  1  0  0  0  0
 23 21  1  0  0  0  0
M  END
>  <TORSDO>
F 1

$$$$
