C:\Qe-CaDD\Project\Data\Stage_6_Molecular_Dynamics\ligands_top\out_18583_EGFR_extracted.pdbqt
 OpenBabel01082506443D

 26 29  0  0  1  0  0  0  0  0999 V2000
   25.8650    1.6570   52.5610 C   0  0  0  0  0  0  0  0  0  0  0  0
   25.4780    0.3410   52.4190 C   0  0  0  0  0  3  0  0  0  0  0  0
   26.3370   -0.7280   52.6250 C   0  0  0  0  0  3  0  0  0  0  0  0
   27.6480   -0.5060   52.9890 C   0  0  0  0  0  0  0  0  0  0  0  0
   28.5510   -1.5990   53.2050 C   0  0  0  0  0  0  0  0  0  0  0  0
   29.2900   -2.4800   53.3730 N   0  0  0  0  0  0  0  0  0  0  0  0
   28.0640    0.7980   53.1380 C   0  0  0  0  0  3  0  0  0  0  0  0
   27.1780    1.8270   52.9240 C   0  0  0  0  0  3  0  0  0  0  0  0
   24.9310    2.7420   52.3340 C   0  0  0  0  0  0  0  0  0  0  0  0
   24.3840    3.3310   51.1840 N   0  0  0  0  0  0  0  0  0  0  0  0
   24.4910    2.9750   49.8010 C   0  0  0  0  0  2  0  0  0  0  0  0
   23.5750    4.4950   51.4860 C   0  0  1  0  0  3  0  0  0  0  0  0
   23.5420    3.7850   48.9460 C   0  0  0  0  0  2  0  0  0  0  0  0
   22.2960    3.9750   49.6450 N   0  0  0  0  0  0  0  0  0  0  0  0
   22.2380    4.3180   50.8600 C   0  0  0  0  0  0  0  0  0  0  0  0
   23.4920    4.4580   52.9870 C   0  0  0  0  0  2  0  0  0  0  0  0
   24.4180    3.3900   53.3630 C   0  0  0  0  0  3  0  0  0  0  0  0
   20.9900    4.4940   51.5110 N   0  0  0  0  0  0  0  0  0  0  0  0
   20.6510    5.5030   51.5600 H   0  0  0  0  0  0  0  0  0  0  0  0
   20.2670    3.4160   52.0440 C   0  0  1  0  0  3  0  0  0  0  0  0
   18.9600    3.2980   51.2740 C   0  0  0  0  0  1  0  0  0  0  0  0
   20.9450    2.1170   52.0440 C   0  0  2  0  0  3  0  0  0  0  0  0
   21.5070    0.9490   51.5470 C   0  0  0  0  0  2  0  0  0  0  0  0
   21.5500    1.1180   52.9550 C   0  0  2  0  0  3  0  0  0  0  0  0
   20.6360    0.2490   53.7910 C   0  0  0  0  0  2  0  0  0  0  0  0
   20.6240    0.6330   55.1250 F   0  0  0  0  0  0  0  0  0  0  0  0
  1  8  1  0  0  0  0
  2  1  2  0  0  0  0
  2  3  1  0  0  0  0
  3  4  2  0  0  0  0
  4  7  1  0  0  0  0
  4  5  1  0  0  0  0
  5  6  3  0  0  0  0
  8  7  2  0  0  0  0
  9  1  1  0  0  0  0
  9 17  2  0  0  0  0
 10 12  1  0  0  0  0
 10  9  1  0  0  0  0
 11 10  1  0  0  0  0
 12 16  1  1  0  0  0
 13 14  1  0  0  0  0
 13 11  1  0  0  0  0
 14 15  2  0  0  0  0
 15 12  1  0  0  0  0
 15 18  1  0  0  0  0
 16 17  1  0  0  0  0
 18 19  1  0  0  0  0
 18 20  1  0  0  0  0
 20 21  1  6  0  0  0
 22 20  1  1  0  0  0
 22 24  1  0  0  0  0
 23 22  1  0  0  0  0
 23 24  1  0  0  0  0
 24 25  1  1  0  0  0
 25 26  1  0  0  0  0
M  END
>  <TORSDO>
F 5

$$$$
