C:\Qe-CaDD\Project\Data\Stage_6_Molecular_Dynamics\ligands_top\out_16581_EGFR_extracted.pdbqt
 OpenBabel01082506443D

 30 32  0  0  1  0  0  0  0  0999 V2000
   26.4670   -0.6420   53.1780 C   0  0  0  0  0  0  0  0  0  0  0  0
   27.3410   -1.7130   52.9930 C   0  0  0  0  0  3  0  0  0  0  0  0
   28.6110   -1.2350   53.2250 C   0  0  0  0  0  3  0  0  0  0  0  0
   28.4760    0.0640   53.5340 N   0  0  0  0  0  0  0  0  0  0  0  0
   29.5000    0.8530   53.8170 N   0  0  0  0  0  0  0  0  0  0  0  0
   29.2680    2.1480   54.1140 C   0  0  0  0  0  3  0  0  0  0  0  0
   27.9890    2.5400   54.0960 N   0  0  0  0  0  0  0  0  0  0  0  0
   26.9350    1.7700   53.8140 C   0  0  0  0  0  0  0  0  0  0  0  0
   27.1920    0.4550   53.5150 C   0  0  0  0  0  0  0  0  0  0  0  0
   25.6080    2.2460   53.8070 N   0  0  0  0  0  0  0  0  0  0  0  0
   24.9140    2.2660   54.5640 H   0  0  0  0  0  0  0  0  0  0  0  0
   24.9470    2.8140   52.6870 C   0  0  0  0  0  0  0  0  0  0  0  0
   25.3780    2.5750   51.4060 C   0  0  0  0  0  3  0  0  0  0  0  0
   24.7940    3.1070   50.2820 C   0  0  0  0  0  3  0  0  0  0  0  0
   23.7030    3.9410   50.3850 C   0  0  0  0  0  0  0  0  0  0  0  0
   23.2180    4.2230   51.6420 C   0  0  0  0  0  0  0  0  0  0  0  0
   21.8430    5.2680   51.8510 Cl  0  0  0  0  0  0  0  0  0  0  0  0
   23.8520    3.6540   52.7220 C   0  0  0  0  0  3  0  0  0  0  0  0
   23.0540    4.5200   49.3180 O   0  0  0  0  0  0  0  0  0  0  0  0
   22.6380    3.7500   48.2000 C   0  0  0  0  0  1  0  0  0  0  0  0
   25.0000   -0.7440   53.0270 C   0  0  0  0  0  2  0  0  0  0  0  0
   24.3700   -0.7240   54.3280 N   0  0  0  0  0  0  0  0  0  0  0  0
   23.1230   -0.8900   54.5310 C   0  0  0  0  0  3  0  0  0  0  0  0
   22.0890   -1.1310   53.5100 C   0  0  0  0  0  2  0  0  0  0  0  0
   20.9890   -0.1110   53.5260 C   0  0  2  0  0  3  0  0  0  0  0  0
   21.2870    1.1120   52.7200 C   0  0  0  0  0  2  0  0  0  0  0  0
   21.8840    0.6810   51.3970 C   0  0  0  0  0  1  0  0  0  0  0  0
   20.5920    0.2020   54.8860 N   0  0  0  0  0  0  0  0  0  0  0  0
   21.0630    1.1010   55.1650 H   0  0  0  0  0  0  0  0  0  0  0  0
   19.5730    0.2410   55.0100 H   0  0  0  0  0  0  0  0  0  0  0  0
  1  9  2  0  0  0  0
  2  1  1  0  0  0  0
  2  3  2  0  0  0  0
  3  4  1  0  0  0  0
  4  5  1  0  0  0  0
  5  6  2  0  0  0  0
  7  6  1  0  0  0  0
  8  7  2  0  0  0  0
  9  4  1  0  0  0  0
  9  8  1  0  0  0  0
 10  8  1  0  0  0  0
 10 11  1  0  0  0  0
 12 18  1  0  0  0  0
 12 10  1  0  0  0  0
 13 12  2  0  0  0  0
 14 15  2  0  0  0  0
 14 13  1  0  0  0  0
 15 16  1  0  0  0  0
 16 17  1  0  0  0  0
 16 18  2  0  0  0  0
 19 15  1  0  0  0  0
 20 19  1  0  0  0  0
 21  1  1  0  0  0  0
 21 22  1  0  0  0  0
 22 23  2  0  0  0  0
 24 25  1  0  0  0  0
 24 23  1  0  0  0  0
 25 26  1  1  0  0  0
 25 28  1  0  0  0  0
 27 26  1  0  0  0  0
 28 30  1  0  0  0  0
 28 29  1  0  0  0  0
M  END
>  <TORSDO>
F 9

$$$$
