C:\Qe-CaDD\Project\Data\Stage_6_Molecular_Dynamics\ligands_top\out_1793_EGFR_extracted.pdbqt
 OpenBabel01082506443D

 26 28  0  0  1  0  0  0  0  0999 V2000
   24.1470   -0.4210   53.4990 C   0  0  0  0  0  0  0  0  0  0  0  0
   23.2970    0.3010   52.7300 C   0  0  0  0  0  0  0  0  0  0  0  0
   23.9800    0.9040   51.5950 N   0  0  0  0  0  0  0  0  0  0  0  0
   23.7520    2.2770   51.0980 C   0  0  0  0  0  2  0  0  0  0  0  0
   22.2750    2.4920   50.9790 C   0  0  0  0  0  2  0  0  0  0  0  0
   21.5920    3.0510   52.1800 C   0  0  2  0  0  3  0  0  0  0  0  0
   20.7170    2.1270   52.8040 O   0  0  0  0  0  0  0  0  0  0  0  0
   21.5050    0.5740   53.0210 S   0  0  2  0  0  0  0  0  0  0  0  0
   21.0460   -0.2140   54.4060 N   0  0  0  0  0  0  0  0  0  0  0  0
   22.2460   -0.8670   54.9300 C   0  0  0  0  0  3  0  0  0  0  0  0
   23.4620   -0.9710   54.6090 N   0  0  0  0  0  0  0  0  0  0  0  0
   24.5980    0.0920   51.2850 H   0  0  0  0  0  0  0  0  0  0  0  0
   25.5640   -0.5760   53.2520 C   0  0  0  0  0  0  0  0  0  0  0  0
   26.4040    0.1360   54.2620 C   0  0  2  0  0  0  0  0  0  0  0  0
   26.1500    1.6150   54.2260 C   0  0  0  0  0  1  0  0  0  0  0  0
   27.7860   -0.1590   53.9430 C   0  0  0  0  0  3  0  0  0  0  0  0
   27.8710   -0.9300   52.8980 C   0  0  0  0  0  3  0  0  0  0  0  0
   26.4940   -1.1320   52.5430 C   0  0  0  0  0  3  0  0  0  0  0  0
   26.1210   -0.3430   55.6020 N   0  0  0  0  0  0  0  0  0  0  0  0
   26.9680   -0.3630   56.1930 H   0  0  0  0  0  0  0  0  0  0  0  0
   25.5790   -1.2230   55.6060 H   0  0  0  0  0  0  0  0  0  0  0  0
   20.6510    4.1850   51.7560 C   0  0  1  0  0  3  0  0  0  0  0  0
   21.5530    5.6740   51.3800 Cl  0  0  0  0  0  0  0  0  0  0  0  0
   19.7530    3.8090   50.6600 C   0  0  0  0  0  2  0  0  0  0  0  0
   18.1140    3.8770   50.8920 P   0  0  0  0  0  2  0  0  0  0  0  0
   17.5360    4.7600   51.9060 H   0  0  0  0  0  0  0  0  0  0  0  0
  1 11  1  0  0  0  0
  2  1  2  0  0  0  0
  3  2  1  0  0  0  0
  4  3  1  0  0  0  0
  5  4  1  0  0  0  0
  5  6  1  0  0  0  0
  6 22  1  6  0  0  0
  6  7  1  0  0  0  0
  7  8  1  0  0  0  0
  8  2  1  1  0  0  0
  8  9  2  0  0  0  0
  9 10  1  0  0  0  0
 11 10  2  0  0  0  0
 12  3  1  0  0  0  0
 13  1  1  0  0  0  0
 13 14  1  0  0  0  0
 14 15  1  6  0  0  0
 14 19  1  0  0  0  0
 16 14  1  0  0  0  0
 17 16  2  0  0  0  0
 18 17  1  0  0  0  0
 18 13  2  0  0  0  0
 19 21  1  0  0  0  0
 19 20  1  0  0  0  0
 22 23  1  6  0  0  0
 24 25  1  0  0  0  0
 24 22  1  0  0  0  0
 25 26  1  0  0  0  0
M  END
>  <TORSDO>
F 5

$$$$
