C:\Qe-CaDD\Project\Data\Stage_6_Molecular_Dynamics\ligands_top\out_18319_EGFR_extracted.pdbqt
 OpenBabel01082506443D

 23 25  0  0  0  0  0  0  0  0999 V2000
   26.1850    1.5690   51.3100 C   0  0  0  0  0  2  0  0  0  0  0  0
   25.1630    1.1240   51.9730 C   0  0  0  0  0  0  0  0  0  0  0  0
   25.5500    0.2050   53.0550 C   0  0  0  0  0  0  0  0  0  0  0  0
   24.7290   -0.3820   53.8560 N   0  0  0  0  0  0  0  0  0  0  0  0
   23.3330   -0.1540   53.7230 N   0  0  0  0  0  0  0  0  0  0  0  0
   22.9360    0.6600   52.7740 C   0  0  0  0  0  3  0  0  0  0  0  0
   23.7520    1.4300   51.7590 C   0  0  0  0  0  0  0  0  0  0  0  0
   26.9320   -0.1710   53.3750 C   0  0  0  0  0  0  0  0  0  0  0  0
   27.6620    0.6670   54.1950 C   0  0  0  0  0  3  0  0  0  0  0  0
   28.9720    0.2540   54.4630 C   0  0  0  0  0  3  0  0  0  0  0  0
   29.5120   -0.9090   53.9490 C   0  0  0  0  0  0  0  0  0  0  0  0
   31.1570   -1.3420   54.3400 Cl  0  0  0  0  0  0  0  0  0  0  0  0
   28.7310   -1.7080   53.1340 C   0  0  0  0  0  3  0  0  0  0  0  0
   27.4160   -1.3500   52.8300 C   0  0  0  0  0  0  0  0  0  0  0  0
   26.6320   -2.2380   51.9560 C   0  0  0  0  0  1  0  0  0  0  0  0
   26.1370    2.4920   50.1830 C   0  0  0  0  0  3  0  0  0  0  0  0
   26.4930    3.7620   50.0720 C   0  0  0  0  0  2  0  0  0  0  0  0
   23.3970    2.8690   51.8920 C   0  0  0  0  0  0  0  0  0  0  0  0
   22.5130    3.2300   50.8670 C   0  0  0  0  0  3  0  0  0  0  0  0
   22.0420    4.5440   50.7840 C   0  0  0  0  0  3  0  0  0  0  0  0
   22.4370    5.4550   51.6870 N   0  0  0  0  0  0  0  0  0  0  0  0
   23.2820    5.1130   52.6690 C   0  0  0  0  0  3  0  0  0  0  0  0
   23.7780    3.8380   52.8000 C   0  0  0  0  0  3  0  0  0  0  0  0
  1  2  1  0  0  0  0
  2  3  1  0  0  0  0
  3  8  1  0  0  0  0
  3  4  2  0  0  0  0
  5  4  1  0  0  0  0
  6  5  2  0  0  0  0
  7 18  1  0  0  0  0
  7  2  2  0  0  0  0
  7  6  1  0  0  0  0
  8  9  1  0  0  0  0
  9 10  2  0  0  0  0
 11 12  1  0  0  0  0
 11 10  1  0  0  0  0
 13 11  2  0  0  0  0
 14 13  1  0  0  0  0
 14  8  2  0  0  0  0
 15 14  1  0  0  0  0
 16  1  1  0  0  0  0
 17 16  2  0  0  0  0
 18 23  1  0  0  0  0
 19 18  2  0  0  0  0
 20 19  1  0  0  0  0
 20 21  2  0  0  0  0
 21 22  1  0  0  0  0
 22 23  2  0  0  0  0
M  END
>  <TORSDO>
F 3

$$$$
