C:\Qe-CaDD\Project\Data\Stage_6_Molecular_Dynamics\ligands_top\out_22363_EGFR_extracted.pdbqt
 OpenBabel01082506443D

 25 27  0  0  0  0  0  0  0  0999 V2000
   21.1830    0.3520   51.7540 C   0  0  0  0  0  0  0  0  0  0  0  0
   22.4760    0.2050   52.2130 C   0  0  0  0  0  3  0  0  0  0  0  0
   22.8460   -0.3930   53.4060 C   0  0  0  0  0  0  0  0  0  0  0  0
   24.1450   -0.5240   53.8360 C   0  0  0  0  0  0  0  0  0  0  0  0
   24.3320   -1.1280   55.0140 N   0  0  0  0  0  0  0  0  0  0  0  0
   23.2810   -1.5680   55.7070 C   0  0  0  0  0  3  0  0  0  0  0  0
   21.9830   -1.4510   55.3030 N   0  0  0  0  0  0  0  0  0  0  0  0
   21.7730   -0.8460   54.1210 C   0  0  0  0  0  0  0  0  0  0  0  0
   20.4620   -0.7340   53.7240 C   0  0  0  0  0  3  0  0  0  0  0  0
   20.1830   -0.1370   52.5480 N   0  0  0  0  0  0  0  0  0  0  0  0
   25.1860   -0.0280   53.0490 N   0  0  0  0  0  0  0  0  0  0  0  0
   25.0050    0.5100   52.1780 H   0  0  0  0  0  0  0  0  0  0  0  0
   26.5880   -0.1310   53.2310 C   0  0  0  0  0  0  0  0  0  0  0  0
   27.2870   -1.2720   52.9130 C   0  0  0  0  0  3  0  0  0  0  0  0
   28.6520   -1.4180   53.0820 C   0  0  0  0  0  3  0  0  0  0  0  0
   29.3930   -0.3930   53.5940 C   0  0  0  0  0  0  0  0  0  0  0  0
   30.7320   -0.4490   53.7930 F   0  0  0  0  0  0  0  0  0  0  0  0
   28.7450    0.7610   53.9250 C   0  0  0  0  0  0  0  0  0  0  0  0
   29.6380    2.1080   54.5820 Cl  0  0  0  0  0  0  0  0  0  0  0  0
   27.3960    0.8510   53.7370 C   0  0  0  0  0  3  0  0  0  0  0  0
   20.8680    1.0050   50.4610 C   0  0  0  0  0  2  0  0  0  0  0  0
   22.0340    1.8060   50.0830 C   0  0  0  0  0  0  0  0  0  0  0  0
   22.9990    2.4660   49.7900 C   0  0  0  0  0  0  0  0  0  0  0  0
   24.1880    3.2890   49.4540 C   0  0  0  0  0  2  0  0  0  0  0  0
   25.3380    3.0120   50.4050 C   0  0  0  0  0  1  0  0  0  0  0  0
  1  2  2  0  0  0  0
  1 10  1  0  0  0  0
  2  3  1  0  0  0  0
  3  4  2  0  0  0  0
  3  8  1  0  0  0  0
  4  5  1  0  0  0  0
  5  6  2  0  0  0  0
  7  6  1  0  0  0  0
  8  7  2  0  0  0  0
  9  8  1  0  0  0  0
 10  9  2  0  0  0  0
 11 13  1  0  0  0  0
 11  4  1  0  0  0  0
 12 11  1  0  0  0  0
 13 20  1  0  0  0  0
 14 15  1  0  0  0  0
 14 13  2  0  0  0  0
 15 16  2  0  0  0  0
 16 17  1  0  0  0  0
 16 18  1  0  0  0  0
 18 19  1  0  0  0  0
 20 18  2  0  0  0  0
 21  1  1  0  0  0  0
 22 21  1  0  0  0  0
 23 22  3  0  0  0  0
 24 23  1  0  0  0  0
 24 25  1  0  0  0  0
M  END
>  <TORSDO>
F 5

$$$$
