C:\Qe-CaDD\Project\Data\Stage_6_Molecular_Dynamics\ligands_top\out_12568_EGFR_extracted.pdbqt
 OpenBabel01082506443D

 28 31  0  0  0  0  0  0  0  0999 V2000
   26.1350    0.9520   53.8220 C   0  0  0  0  0  0  0  0  0  0  0  0
   25.7280   -0.1780   54.3730 C   0  0  0  0  0  2  0  0  0  0  0  0
   24.4210   -0.8490   54.2300 C   0  0  0  0  0  0  0  0  0  0  0  0
   23.7720   -1.1370   55.4700 N   0  0  0  0  0  0  0  0  0  0  0  0
   22.6170   -1.6220   55.6430 N   0  0  0  0  0  0  0  0  0  0  0  0
   21.7160   -1.9800   54.5660 C   0  0  0  0  0  3  0  0  0  0  0  0
   21.5990   -1.3640   53.4300 N   0  0  0  0  0  0  0  0  0  0  0  0
   22.3320   -0.2020   53.0020 C   0  0  0  0  0  0  0  0  0  0  0  0
   23.5830    0.0110   53.3640 C   0  0  0  0  0  0  0  0  0  0  0  0
   23.9940    1.2470   52.7240 C   0  0  0  0  0  0  0  0  0  0  0  0
   25.2190    1.6860   52.9580 C   0  0  0  0  0  0  0  0  0  0  0  0
   25.7570    2.8580   52.4220 O   0  0  0  0  0  0  0  0  0  0  0  0
   25.0770    3.3610   51.2570 C   0  0  0  0  0  2  0  0  0  0  0  0
   23.6040    3.3660   51.6640 C   0  0  0  0  0  2  0  0  0  0  0  0
   23.2200    2.0170   51.8830 O   0  0  0  0  0  0  0  0  0  0  0  0
   21.4910    0.7150   52.1910 C   0  0  0  0  0  0  0  0  0  0  0  0
   21.5080    0.3680   50.8310 C   0  0  0  0  0  3  0  0  0  0  0  0
   20.7300    1.0550   49.9010 C   0  0  0  0  0  3  0  0  0  0  0  0
   19.9510    2.0780   50.3480 C   0  0  0  0  0  3  0  0  0  0  0  0
   19.9280    2.4240   51.6700 C   0  0  0  0  0  0  0  0  0  0  0  0
   20.6760    1.7780   52.6290 C   0  0  0  0  0  3  0  0  0  0  0  0
   19.1510    3.4590   52.1770 O   0  0  0  0  0  0  0  0  0  0  0  0
   17.9370    3.7200   51.4780 C   0  0  0  0  0  1  0  0  0  0  0  0
   27.4330    1.3020   54.1620 O   0  0  0  0  0  0  0  0  0  0  0  0
   28.3460    0.3120   54.5830 C   0  0  0  0  0  2  0  0  0  0  0  0
   29.6110    0.2720   53.7870 C   0  0  0  0  0  2  0  0  0  0  0  0
   30.1830   -0.9990   53.7450 O   0  0  0  0  0  0  0  0  0  0  0  0
   29.1500   -1.8460   53.2860 C   0  0  0  0  0  1  0  0  0  0  0  0
  1 24  1  0  0  0  0
  1  2  1  0  0  0  0
  3  2  1  0  0  0  0
  3  4  2  0  0  0  0
  4  5  1  0  0  0  0
  6  5  2  0  0  0  0
  7  6  1  0  0  0  0
  8  9  1  0  0  0  0
  8  7  2  0  0  0  0
  9  3  1  0  0  0  0
 10 11  1  0  0  0  0
 10  9  2  0  0  0  0
 11  1  2  0  0  0  0
 12 11  1  0  0  0  0
 13 14  1  0  0  0  0
 13 12  1  0  0  0  0
 14 15  1  0  0  0  0
 15 10  1  0  0  0  0
 16 21  1  0  0  0  0
 16  8  1  0  0  0  0
 17 16  2  0  0  0  0
 18 19  2  0  0  0  0
 18 17  1  0  0  0  0
 19 20  1  0  0  0  0
 20 22  1  0  0  0  0
 20 21  2  0  0  0  0
 23 22  1  0  0  0  0
 24 25  1  0  0  0  0
 26 25  1  0  0  0  0
 27 26  1  0  0  0  0
 28 27  1  0  0  0  0
M  END
>  <TORSDO>
F 6

$$$$
