C:\Qe-CaDD\Project\Data\Stage_6_Molecular_Dynamics\ligands_top\out_11380_EGFR_extracted.pdbqt
 OpenBabel01082506443D

 34 37  0  0  0  0  0  0  0  0999 V2000
   21.5410    0.9870   49.0420 C   0  0  0  0  0  1  0  0  0  0  0  0
   22.3030    1.9900   49.8580 C   0  0  0  0  0  0  0  0  0  0  0  0
   23.2710    2.6160   49.2110 C   0  0  0  0  0  3  0  0  0  0  0  0
   24.3140    3.6290   49.3960 C   0  0  0  0  0  2  0  0  0  0  0  0
   23.7860    4.7390   50.1690 N   0  0  0  0  0  0  0  0  0  0  0  0
   24.7210    5.8220   50.3440 C   0  0  0  0  0  0  0  0  0  0  0  0
   24.3040    6.8050   51.0080 O   0  0  0  0  0  0  0  0  0  0  0  0
   22.4980    4.9910   50.8120 C   0  0  0  0  0  2  0  0  0  0  0  0
   22.4970    4.3860   52.2110 C   0  0  0  0  0  2  0  0  0  0  0  0
   21.8900    3.0190   52.1590 C   0  0  0  0  0  3  0  0  0  0  0  0
   21.8150    2.0790   51.2320 C   0  0  0  0  0  0  0  0  0  0  0  0
   21.1210    0.9090   51.6390 N   0  0  0  0  0  0  0  0  0  0  0  0
   20.2450    0.5090   51.2550 H   0  0  0  0  0  0  0  0  0  0  0  0
   21.7470    0.2050   52.7300 C   0  0  0  0  0  0  0  0  0  0  0  0
   20.9980   -0.4140   53.6680 N   0  0  0  0  0  0  0  0  0  0  0  0
   21.5790   -1.0820   54.7030 C   0  0  0  0  0  3  0  0  0  0  0  0
   22.9560   -1.1160   54.7790 C   0  0  0  0  0  3  0  0  0  0  0  0
   23.7260   -0.4860   53.8240 C   0  0  0  0  0  0  0  0  0  0  0  0
   23.1010    0.1470   52.8430 N   0  0  0  0  0  0  0  0  0  0  0  0
   25.1840   -0.4850   53.8460 C   0  0  0  0  0  0  0  0  0  0  0  0
   25.8340   -0.8520   52.6860 C   0  0  0  0  0  3  0  0  0  0  0  0
   27.2240   -0.8540   52.6960 C   0  0  0  0  0  3  0  0  0  0  0  0
   27.9830   -0.5140   53.7890 C   0  0  0  0  0  3  0  0  0  0  0  0
   27.2990   -0.1610   54.9000 N   0  0  0  0  0  0  0  0  0  0  0  0
   25.9490   -0.1450   54.9350 C   0  0  0  0  0  3  0  0  0  0  0  0
   26.0460    5.7230   49.7630 C   0  0  0  0  0  2  0  0  0  0  0  0
   26.5890    6.5300   48.8770 C   0  0  0  0  0  0  0  0  0  0  0  0
   26.0130    7.7150   48.2570 C   0  0  0  0  0  3  0  0  0  0  0  0
   27.9580    6.2930   48.3800 C   0  0  0  0  0  0  0  0  0  0  0  0
   26.6970    8.4250   47.3740 C   0  0  0  0  0  3  0  0  0  0  0  0
   28.0500    8.0870   46.9620 C   0  0  0  0  0  2  0  0  0  0  0  0
   28.4190    6.9010   47.3270 C   0  0  0  0  0  2  0  0  0  0  0  0
   28.8130    5.3960   49.0350 O   0  0  0  0  0  0  0  0  0  0  0  0
   29.2570    4.6270   48.5510 H   0  0  0  0  0  0  0  0  0  0  0  0
  1  2  1  0  0  0  0
  2 11  1  0  0  0  0
  3  4  1  0  0  0  0
  3  2  2  0  0  0  0
  4  5  1  0  0  0  0
  5  6  1  0  0  0  0
  5  8  1  0  0  0  0
  6  7  2  0  0  0  0
  8  9  1  0  0  0  0
 10  9  1  0  0  0  0
 11 12  1  0  0  0  0
 11 10  2  0  0  0  0
 12 14  1  0  0  0  0
 13 12  1  0  0  0  0
 14 19  1  0  0  0  0
 14 15  2  0  0  0  0
 15 16  1  0  0  0  0
 16 17  2  0  0  0  0
 18 20  1  0  0  0  0
 18 17  1  0  0  0  0
 19 18  2  0  0  0  0
 20 25  1  0  0  0  0
 21 22  1  0  0  0  0
 21 20  2  0  0  0  0
 22 23  2  0  0  0  0
 23 24  1  0  0  0  0
 24 25  2  0  0  0  0
 26  6  1  0  0  0  0
 27 26  1  0  0  0  0
 28 27  1  0  0  0  0
 29 27  2  0  0  0  0
 29 33  1  0  0  0  0
 30 28  2  0  0  0  0
 31 32  1  0  0  0  0
 31 30  1  0  0  0  0
 32 29  1  0  0  0  0
 34 33  1  0  0  0  0
M  END
>  <TORSDO>
F 5

$$$$
