C:\Qe-CaDD\Project\Data\Stage_6_Molecular_Dynamics\ligands_top\out_18555_EGFR_extracted.pdbqt
 OpenBabel01082506443D

 27 29  0  0  1  0  0  0  0  0999 V2000
   22.8910    2.7710   52.3490 C   0  0  1  0  0  3  0  0  0  0  0  0
   21.6770    1.8490   52.6530 C   0  0  0  0  0  3  0  0  0  0  0  0
   21.5720    0.6530   53.1300 N   0  0  0  0  0  0  0  0  0  0  0  0
   22.5070   -0.2930   53.5650 C   0  0  0  0  0  3  0  0  0  0  0  0
   23.7100   -0.7850   53.5440 N   0  0  0  0  0  0  0  0  0  0  0  0
   24.8280   -0.3740   52.8310 N   0  0  0  0  0  0  0  0  0  0  0  0
   25.8570    0.6230   53.0990 C   0  0  0  0  0  0  0  0  0  0  0  0
   27.2610    0.3480   53.2740 C   0  0  0  0  0  0  0  0  0  0  0  0
   28.1840    1.3290   53.5270 C   0  0  0  0  0  3  0  0  0  0  0  0
   29.5240    0.9570   53.6790 C   0  0  0  0  0  3  0  0  0  0  0  0
   29.8480   -0.3810   53.5640 C   0  0  0  0  0  3  0  0  0  0  0  0
   28.9160   -1.3710   53.3090 C   0  0  0  0  0  3  0  0  0  0  0  0
   27.5970   -0.9840   53.1620 C   0  0  0  0  0  3  0  0  0  0  0  0
   25.3000    1.8750   53.1630 C   0  0  0  0  0  3  0  0  0  0  0  0
   23.9160    2.0470   52.9730 C   0  0  0  0  0  2  0  0  0  0  0  0
   25.2090   -0.6940   51.8990 H   0  0  0  0  0  0  0  0  0  0  0  0
   22.9290    2.7920   50.9050 N   0  0  0  0  0  0  0  0  0  0  0  0
   23.6860    2.1390   50.5660 H   0  0  0  0  0  0  0  0  0  0  0  0
   23.2430    4.0950   50.3590 C   0  0  1  0  0  3  0  0  0  0  0  0
   23.0130    5.2150   51.3320 C   0  0  0  0  0  1  0  0  0  0  0  0
   24.6360    4.1690   49.8720 C   0  0  0  0  0  0  0  0  0  0  0  0
   25.6420    3.2270   49.8440 C   0  0  0  0  0  3  0  0  0  0  0  0
   26.8750    3.5440   49.3320 C   0  0  0  0  0  3  0  0  0  0  0  0
   27.1490    4.8000   48.8340 C   0  0  0  0  0  0  0  0  0  0  0  0
   28.4030    4.9730   48.3620 F   0  0  0  0  0  0  0  0  0  0  0  0
   26.1640    5.7630   48.8480 C   0  0  0  0  0  3  0  0  0  0  0  0
   24.9050    5.4440   49.3700 C   0  0  0  0  0  3  0  0  0  0  0  0
  1 17  1  6  0  0  0
  1  2  1  0  0  0  0
  1 15  1  0  0  0  0
  2  3  2  0  0  0  0
  3  4  1  0  0  0  0
  5  4  2  0  0  0  0
  6  7  1  0  0  0  0
  6  5  1  0  0  0  0
  7 14  2  0  0  0  0
  7  8  1  0  0  0  0
  8  9  1  0  0  0  0
  9 10  2  0  0  0  0
 11 10  1  0  0  0  0
 12 11  2  0  0  0  0
 13  8  2  0  0  0  0
 13 12  1  0  0  0  0
 15 14  1  0  0  0  0
 16  6  1  0  0  0  0
 18 17  1  0  0  0  0
 19 17  1  0  0  0  0
 19 20  1  1  0  0  0
 21 19  1  0  0  0  0
 22 21  1  0  0  0  0
 23 22  2  0  0  0  0
 24 26  2  0  0  0  0
 24 23  1  0  0  0  0
 25 24  1  0  0  0  0
 26 27  1  0  0  0  0
 27 21  2  0  0  0  0
M  END
>  <TORSDO>
F 3

$$$$
