C:\Qe-CaDD\Project\Data\Stage_6_Molecular_Dynamics\ligands_top\out_20857_EGFR_extracted.pdbqt
 OpenBabel01082506443D

 20 19  0  0  1  0  0  0  0  0999 V2000
   25.0590    0.6260   53.1340 S   0  0  1  0  0  3  0  0  0  0  0  0
   25.5920   -0.6260   52.2860 C   0  0  0  0  0  2  0  0  0  0  0  0
   27.0010   -0.4770   51.9000 C   0  0  0  0  0  2  0  0  0  0  0  0
   27.8660   -0.6370   53.0840 C   0  0  2  0  0  3  0  0  0  0  0  0
   28.4660    0.2180   53.8250 C   0  0  0  0  0  2  0  0  0  0  0  0
   29.1070    1.2340   54.6140 C   0  0  0  0  0  2  0  0  0  0  0  0
   28.6890    2.4060   54.1500 N   0  0  0  0  0  2  0  0  0  0  0  0
   27.7680    2.3650   53.0720 C   0  0  0  0  0  2  0  0  0  0  0  0
   26.8380    2.3190   52.1850 N   0  0  0  0  0  2  0  0  0  0  0  0
   25.4130    2.2120   52.4460 C   0  0  0  0  0  2  0  0  0  0  0  0
   23.3830    0.3300   53.5250 C   0  0  2  0  0  3  0  0  0  0  0  0
   22.2560    0.9890   53.2120 C   0  0  0  0  0  2  0  0  0  0  0  0
   22.2100    0.6970   51.7980 C   0  0  0  0  0  3  0  0  0  0  0  0
   21.3900    0.5180   50.7830 C   0  0  0  0  0  2  0  0  0  0  0  0
   22.9760   -0.7830   54.3230 C   0  0  0  0  0  3  0  0  0  0  0  0
   21.6840   -0.9700   54.5010 C   0  0  0  0  0  2  0  0  0  0  0  0
   20.4290   -1.4760   54.4570 F   0  0  0  0  0  0  0  0  0  0  0  0
   20.2610   -1.9300   54.1960 Cl  0  0  0  0  0  0  0  0  0  0  0  0
   28.0830   -1.9790   53.4890 O   0  0  0  0  0  0  0  0  0  0  0  0
   29.3760   -2.4930   53.3800 C   0  0  0  0  0  1  0  0  0  0  0  0
  1 11  1  6  0  0  0
  2  1  1  0  0  0  0
  3  2  1  0  0  0  0
  3  4  1  0  0  0  0
  4 19  1  6  0  0  0
  4  5  1  0  0  0  0
  5  6  1  0  0  0  0
  7  6  1  0  0  0  0
  8  7  1  0  0  0  0
  9 10  1  0  0  0  0
  9  8  1  0  0  0  0
 10  1  1  0  0  0  0
 11 12  1  1  0  0  0
 11 15  1  0  0  0  0
 13 12  1  0  0  0  0
 14 13  2  0  0  0  0
 15 16  2  0  0  0  0
 18 17  1  0  0  0  0
 20 19  1  0  0  0  0
M  END
>  <TORSDO>
F 6

$$$$
