C:\Qe-CaDD\Project\Data\Stage_6_Molecular_Dynamics\ligands_top\out_12953_EGFR_extracted.pdbqt
 OpenBabel01082506443D

 35 38  0  0  1  0  0  0  0  0999 V2000
   27.0910    1.1900   53.2930 N   0  0  0  0  0  0  0  0  0  0  0  0
   28.2100    1.8380   53.8720 C   0  0  0  0  0  2  0  0  0  0  0  0
   29.1570    2.5310   54.3160 O   0  0  0  0  0  1  0  0  0  0  0  0
   26.9490   -0.2080   53.6430 C   0  0  0  0  0  2  0  0  0  0  0  0
   26.7290   -1.0700   52.4050 C   0  0  0  0  0  1  0  0  0  0  0  0
   26.3190    2.0630   52.4800 C   0  0  0  0  0  0  0  0  0  0  0  0
   26.7070    2.4890   51.1490 C   0  0  0  0  0  3  0  0  0  0  0  0
   26.2160    3.2140   50.1820 C   0  0  0  0  0  2  0  0  0  0  0  0
   26.0190    4.4610   49.5920 N   0  0  0  0  0  0  0  0  0  0  0  0
   24.8320    5.1360   49.5960 C   0  0  0  0  0  0  0  0  0  0  0  0
   25.0820    6.2490   48.9440 N   0  0  0  0  0  0  0  0  0  0  0  0
   26.3460    6.3360   48.5230 C   0  0  0  0  0  0  0  0  0  0  0  0
   26.9570    7.3390   47.8200 C   0  0  0  0  0  3  0  0  0  0  0  0
   26.9500    5.1750   48.9460 C   0  0  0  0  0  0  0  0  0  0  0  0
   28.2980    7.1930   47.4960 C   0  0  0  0  0  3  0  0  0  0  0  0
   28.9550    6.0570   47.8900 C   0  0  0  0  0  3  0  0  0  0  0  0
   28.2760    5.0970   48.5910 C   0  0  0  0  0  3  0  0  0  0  0  0
   23.5380    4.7860   50.1600 C   0  0  0  0  0  0  0  0  0  0  0  0
   23.1260    3.6470   49.6510 N   0  0  0  0  0  0  0  0  0  0  0  0
   21.8460    3.1440   50.1040 C   0  0  0  0  0  0  0  0  0  0  0  0
   21.3490    3.9880   50.9790 C   0  0  0  0  0  3  0  0  0  0  0  0
   21.6750    5.2660   51.6350 C   0  0  0  0  0  3  0  0  0  0  0  0
   23.0080    5.7600   51.1410 C   0  0  0  0  0  0  0  0  0  0  0  0
   21.1260    1.9070   49.7220 C   0  0  2  0  0  0  0  0  0  0  0  0
   20.2090    1.3440   50.7730 C   0  0  0  0  0  1  0  0  0  0  0  0
   21.5590    1.1620   48.5990 C   0  0  0  0  0  2  0  0  0  0  0  0
   20.4690    2.0100   48.4300 N   0  0  0  0  0  2  0  0  0  0  0  0
   23.9620    5.9260   52.2240 N   0  0  0  0  0  0  0  0  0  0  0  0
   23.4520    5.7830   53.1210 H   0  0  0  0  0  0  0  0  0  0  0  0
   24.5210    6.7890   52.1600 H   0  0  0  0  0  0  0  0  0  0  0  0
   25.1710    2.5430   52.9210 C   0  0  0  0  0  2  0  0  0  0  0  0
   23.7640    2.0910   52.9410 C   0  0  0  0  0  2  0  0  0  0  0  0
   23.5880    0.7840   52.3300 N   0  0  0  0  0  0  0  0  0  0  0  0
   23.9880    0.7270   51.3820 H   0  0  0  0  0  0  0  0  0  0  0  0
   24.0260    0.0490   52.9200 H   0  0  0  0  0  0  0  0  0  0  0  0
  1  4  1  0  0  0  0
  1  2  1  0  0  0  0
  2  3  1  0  0  0  0
  5  4  1  0  0  0  0
  6 31  1  0  0  0  0
  6  1  1  0  0  0  0
  7  6  2  0  0  0  0
  8  7  1  0  0  0  0
  9 10  1  0  0  0  0
  9  8  1  0  0  0  0
 10 18  1  0  0  0  0
 11 10  2  0  0  0  0
 12 11  1  0  0  0  0
 12 14  1  0  0  0  0
 13 12  2  0  0  0  0
 14  9  1  0  0  0  0
 15 13  1  0  0  0  0
 15 16  2  0  0  0  0
 16 17  1  0  0  0  0
 17 14  2  0  0  0  0
 18 23  1  0  0  0  0
 19 20  1  0  0  0  0
 19 18  2  0  0  0  0
 20 21  2  0  0  0  0
 21 22  1  0  0  0  0
 23 22  2  0  0  0  0
 23 28  1  0  0  0  0
 24 20  1  0  0  0  0
 24 25  1  1  0  0  0
 26 24  1  0  0  0  0
 27 26  1  0  0  0  0
 27 24  1  0  0  0  0
 28 29  1  0  0  0  0
 30 28  1  0  0  0  0
 31 32  1  0  0  0  0
 33 35  1  0  0  0  0
 33 32  1  0  0  0  0
 34 33  1  0  0  0  0
M  END
>  <TORSDO>
F 11

$$$$
