C:\Qe-CaDD\Project\Data\Stage_6_Molecular_Dynamics\ligands_top\out_1251_EGFR_extracted.pdbqt
 OpenBabel01082506443D

 23 24  0  0  1  0  0  0  0  0999 V2000
   22.3280   -0.8800   55.3920 N   0  0  0  0  0  0  0  0  0  0  0  0
   21.4120   -1.3340   54.5860 C   0  0  0  0  0  3  0  0  0  0  0  0
   23.4690   -1.6460   55.7440 C   0  0  0  0  0  3  0  0  0  0  0  0
   24.6980   -1.5170   55.4530 N   0  0  0  0  0  0  0  0  0  0  0  0
   25.2780   -0.5040   54.6500 C   0  0  0  0  0  0  0  0  0  0  0  0
   24.7260    0.1660   53.5390 O   0  0  0  0  0  0  0  0  0  0  0  0
   25.4070    0.5150   52.3540 C   0  0  0  0  0  3  0  0  0  0  0  0
   26.7340    0.5820   52.1650 C   0  0  0  0  0  3  0  0  0  0  0  0
   27.8740    0.3210   53.1030 C   0  0  1  0  0  3  0  0  0  0  0  0
   27.4080    0.7930   54.4800 C   0  0  0  0  0  2  0  0  0  0  0  0
   26.4910   -0.1820   55.0310 N   0  0  0  0  0  0  0  0  0  0  0  0
   28.0980   -1.1820   53.1090 C   0  0  0  0  0  2  0  0  0  0  0  0
   29.5090   -1.5500   53.4410 C   0  0  0  0  0  1  0  0  0  0  0  0
   20.3040   -0.4510   54.3130 N   0  0  0  0  0  0  0  0  0  0  0  0
   19.7020   -0.2220   55.1370 H   0  0  0  0  0  0  0  0  0  0  0  0
   20.2300   -0.0490   52.9290 C   0  0  0  0  0  0  0  0  0  0  0  0
   21.4300    0.3980   52.4000 C   0  0  0  0  0  3  0  0  0  0  0  0
   21.3860    0.8060   51.0730 C   0  0  0  0  0  3  0  0  0  0  0  0
   20.2110    0.7610   50.3490 C   0  0  0  0  0  0  0  0  0  0  0  0
   20.1910    1.1730   49.0360 F   0  0  0  0  0  0  0  0  0  0  0  0
   19.0440    0.3080   50.9200 C   0  0  0  0  0  0  0  0  0  0  0  0
   17.5280    0.2320   50.0410 Cl  0  0  0  0  0  0  0  0  0  0  0  0
   19.0210   -0.1160   52.2490 C   0  0  0  0  0  3  0  0  0  0  0  0
  1  3  1  0  0  0  0
  2  1  2  0  0  0  0
  4  3  2  0  0  0  0
  5 11  2  0  0  0  0
  5  4  1  0  0  0  0
  6  5  1  0  0  0  0
  7  6  1  0  0  0  0
  8  7  2  0  0  0  0
  8  9  1  0  0  0  0
  9 12  1  1  0  0  0
  9 10  1  0  0  0  0
 10 11  1  0  0  0  0
 12 13  1  0  0  0  0
 14  2  1  0  0  0  0
 14 15  1  0  0  0  0
 16 14  1  0  0  0  0
 17 16  1  0  0  0  0
 18 17  2  0  0  0  0
 19 21  2  0  0  0  0
 19 18  1  0  0  0  0
 20 19  1  0  0  0  0
 21 23  1  0  0  0  0
 22 21  1  0  0  0  0
 23 16  2  0  0  0  0
M  END
>  <TORSDO>
F 5

$$$$
