C:\Qe-CaDD\Project\Data\Stage_6_Molecular_Dynamics\ligands_top\out_18629_EGFR_extracted.pdbqt
 OpenBabel01082506443D

 21 23  0  0  1  0  0  0  0  0999 V2000
   25.3160   -0.6760   53.8540 C   0  0  0  0  0  0  0  0  0  0  0  0
   25.3540   -1.0380   55.1480 N   0  0  0  0  0  0  0  0  0  0  0  0
   24.1440   -1.2830   55.5990 N   0  0  0  0  0  0  0  0  0  0  0  0
   23.3010   -1.0750   54.5730 C   0  0  0  0  0  0  0  0  0  0  0  0
   24.0430   -0.7160   53.5560 O   0  0  0  0  0  0  0  0  0  0  0  0
   26.3750   -0.2940   52.8640 C   0  0  1  0  0  3  0  0  0  0  0  0
   26.5700    1.1520   52.6220 C   0  0  2  0  0  3  0  0  0  0  0  0
   27.9260    0.9640   53.1180 C   0  0  0  0  0  2  0  0  0  0  0  0
   27.7380   -0.3190   53.3290 C   0  0  0  0  0  2  0  0  0  0  0  0
   25.7430    2.1040   53.4000 C   0  0  0  0  0  2  0  0  0  0  0  0
   24.5850    2.6660   52.6550 C   0  0  0  0  0  2  0  0  0  0  0  0
   24.3000    2.1360   51.2960 C   0  0  0  0  0  2  0  0  0  0  0  0
   24.4120    3.1490   50.1860 C   0  0  0  0  0  1  0  0  0  0  0  0
   21.5190   -1.2150   54.4560 S   0  0  0  0  0  0  0  0  0  0  0  0
   20.7550    0.4280   54.3040 C   0  0  0  0  0  2  0  0  0  0  0  0
   20.7820    0.9310   52.9050 C   0  0  0  0  0  0  0  0  0  0  0  0
   20.5420    2.2780   52.6810 C   0  0  0  0  0  3  0  0  0  0  0  0
   20.5690    2.7420   51.3620 C   0  0  0  0  0  3  0  0  0  0  0  0
   20.8170    1.9500   50.2740 C   0  0  0  0  0  3  0  0  0  0  0  0
   21.0520    0.6050   50.5430 C   0  0  0  0  0  3  0  0  0  0  0  0
   21.0390    0.0840   51.8360 C   0  0  0  0  0  3  0  0  0  0  0  0
  1  2  2  0  0  0  0
  2  3  1  0  0  0  0
  4  3  2  0  0  0  0
  5  1  1  0  0  0  0
  5  4  1  0  0  0  0
  6  9  1  0  0  0  0
  6  1  1  1  0  0  0
  7  6  1  0  0  0  0
  7  8  1  0  0  0  0
  7 10  1  1  0  0  0
  8  9  1  0  0  0  0
 11 10  1  0  0  0  0
 12 11  1  0  0  0  0
 13 12  1  0  0  0  0
 14  4  1  0  0  0  0
 15 14  1  0  0  0  0
 16 15  1  0  0  0  0
 17 16  1  0  0  0  0
 18 17  2  0  0  0  0
 19 20  2  0  0  0  0
 19 18  1  0  0  0  0
 20 21  1  0  0  0  0
 21 16  2  0  0  0  0
M  END
>  <TORSDO>
F 7

$$$$
