C:\Qe-CaDD\Project\Data\Stage_6_Molecular_Dynamics\ligands_top\out_10470_EGFR_extracted.pdbqt
 OpenBabel01082506443D

 23 26  0  0  1  0  0  0  0  0999 V2000
   22.8360   -1.7970   55.4900 O   0  0  0  0  0  0  0  0  0  0  0  0
   22.2410   -1.1510   54.5470 C   0  0  0  0  0  0  0  0  0  0  0  0
   20.8150   -1.4030   54.2430 C   0  0  0  0  0  2  0  0  0  0  0  0
   20.1390   -0.4450   53.4740 O   0  0  0  0  0  0  0  0  0  0  0  0
   20.8010    0.5160   52.7770 C   0  0  0  0  0  0  0  0  0  0  0  0
   20.4210    1.4990   51.8850 C   0  0  0  0  0  2  0  0  0  0  0  0
   21.4990    2.3420   51.3830 C   0  0  1  0  0  3  0  0  0  0  0  0
   21.9340    3.5700   51.4520 N   0  0  0  0  0  2  0  0  0  0  0  0
   23.3250    3.6250   52.1670 C   0  0  0  0  0  2  0  0  0  0  0  0
   23.9080    2.4190   52.6160 N   0  0  0  0  0  2  0  0  0  0  0  0
   22.9850    1.3610   52.3150 C   0  0  1  0  0  3  0  0  0  0  0  0
   22.2920    0.5170   53.0730 C   0  0  0  0  0  0  0  0  0  0  0  0
   23.1410   -0.2150   53.8980 N   0  0  0  0  0  0  0  0  0  0  0  0
   22.6410    1.5020   50.7580 C   0  0  0  0  0  2  0  0  0  0  0  0
   24.5300    0.1240   53.9730 C   0  0  0  0  0  2  0  0  0  0  0  0
   25.3840   -1.0080   53.3780 C   0  0  0  0  0  2  0  0  0  0  0  0
   26.2220   -0.3870   52.2940 C   0  0  0  0  0  2  0  0  0  0  0  0
   27.4100    0.2440   52.6860 N   0  0  0  0  0  0  0  0  0  0  0  0
   28.1960   -0.4010   53.6750 C   0  0  0  0  0  2  0  0  0  0  0  0
   29.5420    0.2970   53.7140 C   0  0  0  0  0  2  0  0  0  0  0  0
   29.3390    1.6990   54.2410 C   0  0  0  0  0  2  0  0  0  0  0  0
   28.0620    2.3330   53.7990 C   0  0  0  0  0  2  0  0  0  0  0  0
   27.5410    1.6410   52.5460 C   0  0  0  0  0  2  0  0  0  0  0  0
  2  1  2  0  0  0  0
  3  2  1  0  0  0  0
  4  3  1  0  0  0  0
  5 12  2  0  0  0  0
  5  4  1  0  0  0  0
  6  5  1  0  0  0  0
  7 14  1  1  0  0  0
  7  8  1  0  0  0  0
  7  6  1  0  0  0  0
  8  9  1  0  0  0  0
  9 10  1  0  0  0  0
 11 14  1  1  0  0  0
 11 10  1  0  0  0  0
 11 12  1  0  0  0  0
 12 13  1  0  0  0  0
 13 15  1  0  0  0  0
 13  2  1  0  0  0  0
 16 15  1  0  0  0  0
 17 18  1  0  0  0  0
 17 16  1  0  0  0  0
 18 19  1  0  0  0  0
 19 20  1  0  0  0  0
 20 21  1  0  0  0  0
 22 21  1  0  0  0  0
 23 18  1  0  0  0  0
 23 22  1  0  0  0  0
M  END
>  <TORSDO>
F 4

$$$$
