C:\Qe-CaDD\Project\Data\Stage_6_Molecular_Dynamics\ligands_top\out_14066_EGFR_extracted.pdbqt
 OpenBabel01082506443D

 24 27  0  0  0  0  0  0  0  0999 V2000
   24.0700    1.0340   52.2320 C   0  0  0  0  0  0  0  0  0  0  0  0
   22.7760    0.4920   52.1500 C   0  0  0  0  0  3  0  0  0  0  0  0
   22.1040    1.0380   51.1690 O   0  0  0  0  0  0  0  0  0  0  0  0
   22.8240    1.9330   50.5400 C   0  0  0  0  0  0  0  0  0  0  0  0
   22.5920    2.7660   49.4700 C   0  0  0  0  0  3  0  0  0  0  0  0
   23.5720    3.6430   49.0030 C   0  0  0  0  0  3  0  0  0  0  0  0
   24.7970    3.6320   49.6740 C   0  0  0  0  0  0  0  0  0  0  0  0
   24.9780    2.7840   50.7350 C   0  0  0  0  0  3  0  0  0  0  0  0
   24.0200    1.9160   51.2030 C   0  0  0  0  0  0  0  0  0  0  0  0
   25.0700    0.6430   53.2140 C   0  0  0  0  0  0  0  0  0  0  0  0
   25.0420   -0.1310   54.2740 C   0  0  0  0  0  2  0  0  0  0  0  0
   26.3090   -0.2390   54.9830 C   0  0  0  0  0  3  0  0  0  0  0  0
   27.1310    0.5250   54.2900 C   0  0  0  0  0  0  0  0  0  0  0  0
   26.4650    1.1480   53.1320 C   0  0  0  0  0  3  0  0  0  0  0  0
   28.8360    0.9020   54.5240 S   0  0  2  0  0  0  0  0  0  0  0  0
   29.1590    2.3650   54.5210 O   0  0  0  0  0  0  0  0  0  0  0  0
   29.9250   -0.0580   53.4710 C   0  0  0  0  0  2  0  0  0  0  0  0
   29.3130   -1.4470   53.3470 C   0  0  0  0  0  1  0  0  0  0  0  0
   25.8460    4.5360   49.2140 C   0  0  0  0  0  0  0  0  0  0  0  0
   25.7320    5.8720   48.9450 C   0  0  0  0  0  3  0  0  0  0  0  0
   26.9830    6.2930   48.5440 C   0  0  0  0  0  3  0  0  0  0  0  0
   27.8010    5.1890   48.5880 C   0  0  0  0  0  0  0  0  0  0  0  0
   29.2320    5.3350   48.2020 C   0  0  0  0  0  1  0  0  0  0  0  0
   27.0840    4.1620   48.9920 O   0  0  0  0  0  0  0  0  0  0  0  0
  1 10  1  0  0  0  0
  2  1  2  0  0  0  0
  3  2  1  0  0  0  0
  4  3  1  0  0  0  0
  4  9  1  0  0  0  0
  5  4  2  0  0  0  0
  6  5  1  0  0  0  0
  6  7  2  0  0  0  0
  7  8  1  0  0  0  0
  8  9  2  0  0  0  0
  9  1  1  0  0  0  0
 10 11  1  0  0  0  0
 11 12  1  0  0  0  0
 13 15  1  0  0  0  0
 13 12  2  0  0  0  0
 14 10  2  0  0  0  0
 14 13  1  0  0  0  0
 15 16  2  6  0  0  0
 17 15  1  0  0  0  0
 18 17  1  0  0  0  0
 19  7  1  0  0  0  0
 20 19  2  0  0  0  0
 21 22  2  0  0  0  0
 21 20  1  0  0  0  0
 22 24  1  0  0  0  0
 23 22  1  0  0  0  0
 24 19  1  0  0  0  0
M  END
>  <TORSDO>
F 4

$$$$
