C:\Qe-CaDD\Project\Data\Stage_6_Molecular_Dynamics\ligands_top\out_12019_EGFR_extracted.pdbqt
 OpenBabel01082506443D

 24 25  0  0  1  0  0  0  0  0999 V2000
   28.5090    5.5060   48.2060 C   0  0  0  0  0  3  0  0  0  0  0  0
   27.6010    4.7840   48.7820 C   0  0  0  0  0  0  0  0  0  0  0  0
   26.6180    3.9300   49.3230 C   0  0  0  0  0  2  0  0  0  0  0  0
   25.8150    3.7620   50.3550 C   0  0  1  0  0  3  0  0  0  0  0  0
   26.5300    2.7780   51.1650 C   0  0  2  0  0  3  0  0  0  0  0  0
   26.8920    1.7320   51.9580 C   0  0  0  0  0  2  0  0  0  0  0  0
   25.3750    2.8780   52.2190 N   0  0  0  0  0  0  0  0  0  0  0  0
   26.3130    0.5500   52.6610 C   0  0  0  0  0  0  0  0  0  0  0  0
   24.9690    0.2570   52.6750 C   0  0  0  0  0  0  0  0  0  0  0  0
   23.5410    0.3640   52.4020 C   0  0  0  0  0  0  0  0  0  0  0  0
   22.5840    1.0520   51.7320 C   0  0  0  0  0  0  0  0  0  0  0  0
   21.6170    1.8540   50.9680 C   0  0  0  0  0  3  0  0  0  0  0  0
   22.0840    2.7450   49.9220 C   0  0  0  0  0  2  0  0  0  0  0  0
   21.4210    4.0740   49.6140 C   0  0  0  0  0  2  0  0  0  0  0  0
   22.2480    5.2530   50.3580 C   0  0  0  0  0  2  0  0  0  0  0  0
   23.6460    4.7440   50.0600 C   0  0  0  0  0  2  0  0  0  0  0  0
   24.5920    4.2180   50.8560 C   0  0  1  0  0  3  0  0  0  0  0  0
   24.1560    3.7400   52.1020 C   0  0  0  0  0  0  0  0  0  0  0  0
   23.1040    4.1060   52.6270 O   0  0  0  0  0  0  0  0  0  0  0  0
   25.0640    2.5510   53.2690 H   0  0  0  0  0  0  0  0  0  0  0  0
   27.2530   -0.3120   53.2180 C   0  0  0  0  0  2  0  0  0  0  0  0
   28.4460    0.1980   53.3520 C   0  0  0  0  0  2  0  0  0  0  0  0
   29.5120   -0.6350   53.9250 C   0  0  0  0  0  2  0  0  0  0  0  0
   29.4070   -2.0470   53.3380 C   0  0  0  0  0  1  0  0  0  0  0  0
  1  2  3  0  0  0  0
  2  3  1  0  0  0  0
  4  3  1  1  0  0  0
  4 17  1  0  0  0  0
  4  5  1  0  0  0  0
  5  6  1  6  0  0  0
  5  7  1  0  0  0  0
  6  8  1  0  0  0  0
  7 20  1  0  0  0  0
  8  9  2  0  0  0  0
  8 21  1  0  0  0  0
 10  9  2  0  0  0  0
 11 10  2  0  0  0  0
 12 11  2  0  0  0  0
 13 12  1  0  0  0  0
 14 13  1  0  0  0  0
 14 15  1  0  0  0  0
 16 15  1  0  0  0  0
 17 16  1  6  0  0  0
 17 18  1  0  0  0  0
 18  7  1  0  0  0  0
 18 19  2  0  0  0  0
 21 22  1  0  0  0  0
 22 23  1  0  0  0  0
 24 23  1  0  0  0  0
M  END
>  <TORSDO>
F 3

$$$$
