C:\Qe-CaDD\Project\Data\Stage_6_Molecular_Dynamics\ligands_top\out_16829_EGFR_extracted.pdbqt
 OpenBabel01082506443D

 27 29  0  0  0  0  0  0  0  0999 V2000
   27.3650    1.4500   53.0270 C   0  0  0  0  0  0  0  0  0  0  0  0
   27.9750    2.4600   52.5570 N   0  0  0  0  0  2  0  0  0  0  0  0
   27.0190    2.5830   51.4830 C   0  0  0  0  0  0  0  0  0  0  0  0
   26.1940    2.8660   50.4560 C   0  0  0  0  0  0  0  0  0  0  0  0
   25.1890    2.8140   49.4190 C   0  0  0  0  0  3  0  0  0  0  0  0
   24.1260    3.7530   49.5410 O   0  0  0  0  0  0  0  0  0  0  0  0
   23.3240    3.4840   50.6880 C   0  0  0  0  0  0  0  0  0  0  0  0
   22.5740    2.4400   50.1820 C   0  0  0  0  0  0  0  0  0  0  0  0
   21.6010    1.7500   50.8750 C   0  0  0  0  0  3  0  0  0  0  0  0
   21.3800    2.1610   52.1890 C   0  0  0  0  0  0  0  0  0  0  0  0
   22.1280    3.2050   52.6860 C   0  0  0  0  0  3  0  0  0  0  0  0
   23.0900    3.8760   51.9770 C   0  0  0  0  0  0  0  0  0  0  0  0
   20.3890    1.4430   53.0720 C   0  0  0  0  0  2  0  0  0  0  0  0
   21.1570    0.4510   53.7960 N   0  0  0  0  0  2  0  0  0  0  0  0
   22.3710    0.2580   53.6390 C   0  0  0  0  0  2  0  0  0  0  0  0
   23.7100   -0.0750   53.5800 N   0  0  0  0  0  0  0  0  0  0  0  0
   24.9370   -0.4800   52.9290 C   0  0  0  0  0  2  0  0  0  0  0  0
   25.3190    0.6310   51.9880 C   0  0  0  0  0  2  0  0  0  0  0  0
   26.3390    1.4400   52.0310 C   0  0  0  0  0  0  0  0  0  0  0  0
   23.7810    0.0530   54.6400 H   0  0  0  0  0  0  0  0  0  0  0  0
   28.1660    1.1050   54.1800 C   0  0  0  0  0  3  0  0  0  0  0  0
   29.0580    0.1930   54.4050 C   0  0  0  0  0  3  0  0  0  0  0  0
   29.7350   -0.9210   53.7340 C   0  0  0  0  0  1  0  0  0  0  0  0
   22.5690    1.8170   48.9170 O   0  0  0  0  0  0  0  0  0  0  0  0
   21.4190    1.8180   48.1020 C   0  0  0  0  0  1  0  0  0  0  0  0
   23.8590    4.9260   52.4420 O   0  0  0  0  0  0  0  0  0  0  0  0
   23.9590    6.1660   51.7800 C   0  0  0  0  0  1  0  0  0  0  0  0
  1 21  1  0  0  0  0
  2  1  1  0  0  0  0
  3 19  1  0  0  0  0
  3  2  1  0  0  0  0
  4  3  2  0  0  0  0
  5  6  1  0  0  0  0
  5  4  2  0  0  0  0
  6  7  1  0  0  0  0
  7 12  1  0  0  0  0
  8  7  2  0  0  0  0
  8  9  1  0  0  0  0
  9 10  2  0  0  0  0
 10 11  1  0  0  0  0
 10 13  1  0  0  0  0
 12 26  1  0  0  0  0
 12 11  2  0  0  0  0
 13 14  1  0  0  0  0
 15 14  1  0  0  0  0
 16 15  1  0  0  0  0
 16 20  1  0  0  0  0
 17 16  1  0  0  0  0
 18 19  1  0  0  0  0
 18 17  1  0  0  0  0
 19  1  2  0  0  0  0
 21 22  2  0  0  0  0
 23 22  1  0  0  0  0
 24  8  1  0  0  0  0
 25 24  1  0  0  0  0
 27 26  1  0  0  0  0
M  END
>  <TORSDO>
F 3

$$$$
