C:\Qe-CaDD\Project\Data\Stage_6_Molecular_Dynamics\ligands_top\out_22883_EGFR_extracted.pdbqt
 OpenBabel01082506443D

 31 34  0  0  1  0  0  0  0  0999 V2000
   25.9640    2.6650   50.8590 C   0  0  1  0  0  3  0  0  0  0  0  0
   26.7600    1.9130   51.7350 N   0  0  0  0  0  2  0  0  0  0  0  0
   27.6300    2.1990   52.5850 C   0  0  0  0  0  2  0  0  0  0  0  0
   27.9820    0.8510   53.0740 C   0  0  0  0  0  0  0  0  0  0  0  0
   29.2160    0.4810   53.2760 N   0  0  0  0  0  0  0  0  0  0  0  0
   29.2340   -0.8580   53.7410 C   0  0  0  0  0  3  0  0  0  0  0  0
   28.0450   -1.3250   53.8320 N   0  0  0  0  0  0  0  0  0  0  0  0
   27.1090   -0.3210   53.4290 C   0  0  1  0  0  3  0  0  0  0  0  0
   26.1670    0.1000   54.5230 C   0  0  0  0  0  2  0  0  0  0  0  0
   24.7570   -0.2150   54.2810 C   0  0  0  0  0  0  0  0  0  0  0  0
   24.0100   -0.9280   54.8970 N   0  0  0  0  0  0  0  0  0  0  0  0
   23.0880   -1.6390   55.4280 C   0  0  0  0  0  3  0  0  0  0  0  0
   22.1010   -1.2600   54.4720 C   0  0  0  0  0  3  0  0  0  0  0  0
   22.4600   -0.3630   53.4350 C   0  0  0  0  0  3  0  0  0  0  0  0
   23.7780    0.1360   53.3690 C   0  0  0  0  0  0  0  0  0  0  0  0
   24.0560    1.0830   52.2320 C   0  0  0  0  0  2  0  0  0  0  0  0
   24.4270    2.4530   52.6430 C   0  0  0  0  0  2  0  0  0  0  0  0
   24.7440    3.2410   51.4510 N   0  0  0  0  0  0  0  0  0  0  0  0
   26.6500    3.5720   49.9460 C   0  0  0  0  0  0  0  0  0  0  0  0
   26.9340    2.5420   49.2720 O   0  0  0  0  0  0  0  0  0  0  0  0
   27.2760    4.5850   49.1500 C   0  0  0  0  0  2  0  0  0  0  0  0
   26.5890    5.7070   49.0560 C   0  0  0  0  0  2  0  0  0  0  0  0
   26.9470    6.9190   48.3220 C   0  0  1  0  0  3  0  0  0  0  0  0
   27.0570    8.1490   49.1380 C   0  0  0  0  0  0  0  0  0  0  0  0
   26.1460    8.7150   49.9510 C   0  0  0  0  0  2  0  0  0  0  0  0
   28.4180    8.7590   48.9530 C   0  0  0  0  0  2  0  0  0  0  0  0
   28.8500    8.2070   47.6320 C   0  0  0  0  0  2  0  0  0  0  0  0
   28.3420    6.7720   47.7100 C   0  0  0  0  0  2  0  0  0  0  0  0
   24.0990    4.3510   50.8600 C   0  0  0  0  0  3  0  0  0  0  0  0
   23.0750    5.1660   50.7330 C   0  0  0  0  0  3  0  0  0  0  0  0
   21.7110    5.4950   51.2070 C   0  0  0  0  0  1  0  0  0  0  0  0
  1 19  1  1  0  0  0
  1 18  1  0  0  0  0
  1  2  1  0  0  0  0
  2  3  1  0  0  0  0
  3  4  1  0  0  0  0
  4  5  2  0  0  0  0
  4  8  1  0  0  0  0
  5  6  1  0  0  0  0
  6  7  2  0  0  0  0
  8  7  1  0  0  0  0
  8  9  1  1  0  0  0
 10  9  1  0  0  0  0
 10 11  1  0  0  0  0
 11 12  2  0  0  0  0
 13 12  1  0  0  0  0
 14 13  2  0  0  0  0
 15 14  1  0  0  0  0
 15 10  2  0  0  0  0
 16 17  1  0  0  0  0
 16 15  1  0  0  0  0
 18 17  1  0  0  0  0
 20 19  2  0  0  0  0
 21 19  1  0  0  0  0
 22 21  1  0  0  0  0
 23 22  1  1  0  0  0
 23 24  1  0  0  0  0
 24 25  2  0  0  0  0
 26 24  1  0  0  0  0
 27 28  1  0  0  0  0
 27 26  1  0  0  0  0
 28 23  1  0  0  0  0
 29 18  1  0  0  0  0
 30 29  2  0  0  0  0
 30 31  1  0  0  0  0
M  END
>  <TORSDO>
F 4

$$$$
