C:\Qe-CaDD\Project\Data\Stage_6_Molecular_Dynamics\ligands_top\out_13675_EGFR_extracted.pdbqt
 OpenBabel01082506443D

 30 31  0  0  1  0  0  0  0  0999 V2000
   16.5990   -0.0360   52.2360 C   0  0  0  0  0  0  0  0  0  0  0  0
   16.8350    0.6710   51.0810 C   0  0  0  0  0  3  0  0  0  0  0  0
   18.1290    0.8100   50.6220 C   0  0  0  0  0  3  0  0  0  0  0  0
   19.1970    0.2540   51.2960 C   0  0  0  0  0  0  0  0  0  0  0  0
   19.0060   -0.4670   52.4640 C   0  0  0  0  0  0  0  0  0  0  0  0
   17.6830   -0.5820   52.8900 C   0  0  0  0  0  3  0  0  0  0  0  0
   20.1120   -1.1010   53.2540 C   0  0  0  0  0  2  0  0  0  0  0  0
   21.3190   -0.4010   52.8540 N   0  0  0  0  0  0  0  0  0  0  0  0
   22.4280   -0.8170   53.6740 C   0  0  0  0  0  3  0  0  0  0  0  0
   23.6310   -0.2480   53.8600 C   0  0  0  0  0  0  0  0  0  0  0  0
   24.8110   -0.9590   54.9160 Cl  0  0  0  0  0  0  0  0  0  0  0  0
   24.0720    0.9900   53.2220 C   0  0  0  0  0  0  0  0  0  0  0  0
   23.3700    1.8830   52.5300 C   0  0  0  0  0  3  0  0  0  0  0  0
   21.9170    1.8130   52.2440 C   0  0  0  0  0  2  0  0  0  0  0  0
   21.4560    0.5300   51.8520 N   0  0  2  0  0  0  0  0  0  0  0  0
   20.5840    0.4360   50.7530 C   0  0  0  0  0  2  0  0  0  0  0  0
   25.4120    1.3690   53.2980 O   0  0  0  0  0  0  0  0  0  0  0  0
   26.3190    1.2380   52.2460 C   0  0  0  0  0  2  0  0  0  0  0  0
   27.4220    0.3380   52.7150 C   0  0  0  0  0  0  0  0  0  0  0  0
   28.5340    0.9350   53.3050 C   0  0  0  0  0  3  0  0  0  0  0  0
   29.6420    0.2760   53.7950 C   0  0  0  0  0  3  0  0  0  0  0  0
   29.6100   -1.0940   53.6740 C   0  0  0  0  0  3  0  0  0  0  0  0
   28.5260   -1.7230   53.0960 C   0  0  0  0  0  0  0  0  0  0  0  0
   28.5250   -3.0930   52.9900 F   0  0  0  0  0  0  0  0  0  0  0  0
   27.4240   -1.0340   52.6110 C   0  0  0  0  0  3  0  0  0  0  0  0
   15.2450   -0.1970   52.7410 C   0  0  0  0  0  3  0  0  0  0  0  0
   14.6700   -1.4810   52.8220 N   0  0  0  0  0  1  0  0  0  0  0  0
   14.1900   -2.2140   52.2510 H   0  0  0  0  0  0  0  0  0  0  0  0
   14.1970   -2.1330   52.1280 H   0  0  0  0  0 15  0  0  0  0  0  0
   14.6070    0.8510   53.1010 O   0  0  0  0  0  0  0  0  0  0  0  0
  1 26  1  0  0  0  0
  1  6  1  0  0  0  0
  2  1  2  0  0  0  0
  3  2  1  0  0  0  0
  3  4  2  0  0  0  0
  4  5  1  0  0  0  0
  5  6  2  0  0  0  0
  5  7  1  0  0  0  0
  8  7  1  0  0  0  0
  8  9  1  0  0  0  0
  9 10  2  0  0  0  0
 10 11  1  0  0  0  0
 12 17  1  0  0  0  0
 12 10  1  0  0  0  0
 13 12  2  0  0  0  0
 14 13  1  0  0  0  0
 15 16  1  1  0  0  0
 15 14  1  0  0  0  0
 15  8  1  0  0  0  0
 16  4  1  0  0  0  0
 18 19  1  0  0  0  0
 18 17  1  0  0  0  0
 19 20  1  0  0  0  0
 20 21  2  0  0  0  0
 22 21  1  0  0  0  0
 23 22  2  0  0  0  0
 24 23  1  0  0  0  0
 25 19  2  0  0  0  0
 25 23  1  0  0  0  0
 26 30  2  0  0  0  0
 28 27  1  0  0  0  0
M  END
>  <TORSDO>
F 4

$$$$
