C:\Qe-CaDD\Project\Data\Stage_6_Molecular_Dynamics\ligands_top\out_18603_EGFR_extracted.pdbqt
 OpenBabel01082506443D

 26 28  0  0  1  0  0  0  0  0999 V2000
   25.6380    1.1430   53.2720 C   0  0  0  0  0  0  0  0  0  0  0  0
   25.0630    2.3140   52.9450 C   0  0  0  0  0  3  0  0  0  0  0  0
   23.6330    2.6860   52.8720 C   0  0  0  0  0  3  0  0  0  0  0  0
   22.6750    1.7900   52.6990 C   0  0  0  0  0  0  0  0  0  0  0  0
   21.4740    2.3950   52.6710 F   0  0  0  0  0  0  0  0  0  0  0  0
   22.5610    0.3390   52.5340 C   0  0  1  0  0  3  0  0  0  0  0  0
   23.6200   -0.3420   53.3220 C   0  0  0  0  0  3  0  0  0  0  0  0
   24.8690   -0.0560   53.6440 C   0  0  0  0  0  0  0  0  0  0  0  0
   25.5620   -0.9500   54.4100 F   0  0  0  0  0  0  0  0  0  0  0  0
   21.2200   -0.1590   52.8960 C   0  0  2  0  0  3  0  0  0  0  0  0
   20.6430   -0.9380   53.8070 C   0  0  0  0  0  2  0  0  0  0  0  0
   19.3270   -0.7880   53.3070 N   0  0  0  0  0  0  0  0  0  0  0  0
   17.9230   -1.0130   53.2880 C   0  0  0  0  0  2  0  0  0  0  0  0
   19.9000    0.0510   52.3130 C   0  0  0  0  0  0  0  0  0  0  0  0
   17.0620   -0.5400   52.4580 N   0  0  0  0  0  0  0  0  0  0  0  0
   17.5480    0.3270   51.4070 C   0  0  0  0  0  0  0  0  0  0  0  0
   17.0420   -0.4080   49.8530 Cl  0  0  0  0  0  0  0  0  0  0  0  0
   19.0120    0.5330   51.4630 C   0  0  0  0  0  3  0  0  0  0  0  0
   27.0390    1.0350   53.2690 N   0  0  0  0  0  0  0  0  0  0  0  0
   26.9890    0.8490   52.2310 H   0  0  0  0  0  0  0  0  0  0  0  0
   28.5340    1.0780   54.1140 S   0  0  0  0  0  0  0  0  0  0  0  0
   28.3310    0.4800   55.4540 O   0  0  0  0  0  0  0  0  0  0  0  0
   29.0100    2.4990   54.3000 O   0  0  0  0  0  0  0  0  0  0  0  0
   29.8240    0.1920   53.2880 C   0  0  0  0  0  2  0  0  0  0  0  0
   29.9370   -1.2120   53.7990 C   0  0  0  0  0  2  0  0  0  0  0  0
   28.9360   -2.1310   53.1330 C   0  0  0  0  0  1  0  0  0  0  0  0
  1  8  1  0  0  0  0
  2  1  2  0  0  0  0
  3  2  1  0  0  0  0
  4  3  2  0  0  0  0
  5  4  1  0  0  0  0
  6  4  1  0  0  0  0
  6 10  1  0  0  0  0
  6  7  1  1  0  0  0
  7  8  2  0  0  0  0
  8  9  1  0  0  0  0
 10 11  1  6  0  0  0
 12 11  1  0  0  0  0
 13 12  1  0  0  0  0
 14 10  1  0  0  0  0
 14 12  1  0  0  0  0
 15 13  1  0  0  0  0
 16 18  1  0  0  0  0
 16 15  2  0  0  0  0
 17 16  1  0  0  0  0
 18 14  2  0  0  0  0
 19  1  1  0  0  0  0
 19 21  1  0  0  0  0
 20 19  1  0  0  0  0
 21 23  2  0  0  0  0
 21 22  2  0  0  0  0
 24 25  1  0  0  0  0
 24 21  1  0  0  0  0
 26 25  1  0  0  0  0
M  END
>  <TORSDO>
F 5

$$$$
