C:\Qe-CaDD\Project\Data\Stage_6_Molecular_Dynamics\ligands_top\out_10847_EGFR_extracted.pdbqt
 OpenBabel01082506443D

 23 21  0  0  1  0  0  0  0  0999 V2000
   22.0210    2.8340   51.3320 C   0  0  2  0  0  3  0  0  0  0  0  0
   22.1560    2.2910   52.7400 O   0  0  0  0  0  0  0  0  0  0  0  0
   23.2500    1.3210   52.8070 C   0  0  2  0  0  3  0  0  0  0  0  0
   24.6170    1.2520   52.7160 C   0  0  1  0  0  3  0  0  0  0  0  0
   26.1070    1.4810   52.5800 C   0  0  0  0  0  2  0  0  0  0  0  0
   27.1220    2.2590   52.2830 N   0  0  0  0  0  1  0  0  0  0  0  0
   28.1130    2.1080   53.2990 C   0  0  0  0  0  2  0  0  0  0  0  0
   27.2660    2.3000   52.3380 N   0  0  0  0  0  1  0  0  0  0  0  0
   26.0700    1.9010   51.9530 C   0  0  0  0  0  2  0  0  0  0  0  0
   25.1890    0.8630   52.7260 C   0  0  0  0  0  2  0  0  0  0  0  0
   24.1300    0.2560   52.8810 C   0  0  0  0  0  1  0  0  0  0  0  0
   22.8670    0.0270   53.0030 C   0  0  0  0  0  2  0  0  0  0  0  0
   25.6080    2.7260   50.5770 C   0  0  0  0  0  1  0  0  0  0  0  0
   24.1690    2.7420   50.8410 C   0  0  0  0  0  3  0  0  0  0  0  0
   23.2730    3.6680   51.2340 C   0  0  0  0  0  0  0  0  0  0  0  0
   23.4580    5.1000   51.5220 C   0  0  0  0  0  1  0  0  0  0  0  0
   20.8130    3.4350   51.0710 N   0  0  0  0  0  0  0  0  0  0  0  0
   19.7880    2.9680   52.0250 C   0  0  0  0  0  1  0  0  0  0  0  0
   20.9170    4.4730   51.3820 H   0  0  0  0  0  0  0  0  0  0  0  0
   22.4470   -1.2670   53.2010 O   0  0  0  0  0  0  0  0  0  0  0  0
   21.3570   -1.4500   54.1200 C   0  0  0  0  0  1  0  0  0  0  0  0
   28.6140    1.5920   54.4520 O   0  0  0  0  0  0  0  0  0  0  0  0
   28.6850    0.2960   54.8760 C   0  0  0  0  0  1  0  0  0  0  0  0
  1 15  1  1  0  0  0
  1  2  1  0  0  0  0
  2  3  1  0  0  0  0
  3 12  1  6  0  0  0
  4 10  1  0  0  0  0
  4  3  1  0  0  0  0
  4 11  1  6  0  0  0
  5 10  1  0  0  0  0
  7 22  1  0  0  0  0
  8  7  1  0  0  0  0
  9  6  1  0  0  0  0
  9  5  1  0  0  0  0
 12 20  1  0  0  0  0
 13 14  1  0  0  0  0
 14 15  2  0  0  0  0
 15 16  1  0  0  0  0
 17  1  1  0  0  0  0
 17 19  1  0  0  0  0
 17 18  1  0  0  0  0
 20 21  1  0  0  0  0
 22 23  1  0  0  0  0
M  END
>  <TORSDO>
F 4

$$$$
