C:\Qe-CaDD\Project\Data\Stage_6_Molecular_Dynamics\ligands_top\out_18476_EGFR_extracted.pdbqt
 OpenBabel01082506443D

 27 29  0  0  1  0  0  0  0  0999 V2000
   21.8640    0.7190   52.3970 C   0  0  2  0  0  3  0  0  0  0  0  0
   20.5050    0.2360   52.1580 C   0  0  0  0  0  2  0  0  0  0  0  0
   19.9720   -0.1250   53.2870 N   0  0  0  0  0  2  0  0  0  0  0  0
   20.7250   -0.0130   54.5120 C   0  0  0  0  0  2  0  0  0  0  0  0
   22.1060   -0.5290   54.3030 C   0  0  0  0  0  3  0  0  0  0  0  0
   22.7310   -0.1620   53.1990 C   0  0  0  0  0  0  0  0  0  0  0  0
   24.0760   -0.5750   52.8460 C   0  0  0  0  0  2  0  0  0  0  0  0
   25.2900   -0.3890   53.3140 C   0  0  0  0  0  0  0  0  0  0  0  0
   26.3810   -1.0460   52.5780 C   0  0  0  0  0  3  0  0  0  0  0  0
   25.6570    0.4100   54.4960 C   0  0  0  0  0  3  0  0  0  0  0  0
   27.6620   -0.9980   52.8680 C   0  0  0  0  0  3  0  0  0  0  0  0
   28.0980   -0.2290   54.0250 C   0  0  0  0  0  0  0  0  0  0  0  0
   27.1320    0.3600   54.6840 C   0  0  0  0  0  3  0  0  0  0  0  0
   29.4110   -0.1010   54.4340 O   0  0  0  0  0  0  0  0  0  0  0  0
   30.3310    0.2620   53.4660 N   0  0  0  0  0  0  0  0  0  0  0  0
   31.1180   -0.3890   53.5300 H   0  0  0  0  0  0  0  0  0  0  0  0
   29.8920    0.3100   52.5130 H   0  0  0  0  0  0  0  0  0  0  0  0
   21.9360    2.0550   52.9090 N   0  0  0  0  0  0  0  0  0  0  0  0
   22.0790    2.1020   53.9260 H   0  0  0  0  0  0  0  0  0  0  0  0
   22.7420    2.9730   52.1830 C   0  0  2  0  0  0  0  0  0  0  0  0
   21.9640    4.2940   52.1090 C   0  0  0  0  0  1  0  0  0  0  0  0
   22.9900    2.5820   50.7810 C   0  0  0  0  0  3  0  0  0  0  0  0
   24.2770    2.5260   50.4910 C   0  0  0  0  0  3  0  0  0  0  0  0
   25.0490    2.8710   51.6640 C   0  0  0  0  0  0  0  0  0  0  0  0
   26.3180    2.8980   51.8950 N   0  0  0  0  0  0  0  0  0  0  0  0
   24.0900    3.2570   52.7540 C   0  0  0  0  0  2  0  0  0  0  0  0
   27.0510    2.6440   51.1890 H   0  0  0  0  0  0  0  0  0  0  0  0
  1 18  1  1  0  0  0
  1  6  1  0  0  0  0
  2  1  1  0  0  0  0
  2  3  1  0  0  0  0
  3  4  1  0  0  0  0
  5  4  1  0  0  0  0
  6  5  2  0  0  0  0
  7  6  1  0  0  0  0
  7  8  1  0  0  0  0
  8 10  1  0  0  0  0
  9 11  1  0  0  0  0
  9  8  2  0  0  0  0
 10 13  2  0  0  0  0
 11 12  2  0  0  0  0
 12 14  1  0  0  0  0
 12 13  1  0  0  0  0
 15 16  1  0  0  0  0
 15 14  1  0  0  0  0
 17 15  1  0  0  0  0
 18 19  1  0  0  0  0
 20 21  1  6  0  0  0
 20 26  1  0  0  0  0
 20 18  1  0  0  0  0
 22 20  1  0  0  0  0
 23 22  2  0  0  0  0
 23 24  1  0  0  0  0
 24 25  2  0  0  0  0
 24 26  1  0  0  0  0
 27 25  1  0  0  0  0
M  END
>  <TORSDO>
F 5

$$$$
