C:\Qe-CaDD\Project\Data\Stage_6_Molecular_Dynamics\ligands_top\out_12226_EGFR_extracted.pdbqt
 OpenBabel01082506443D

 33 36  0  0  1  0  0  0  0  0999 V2000
   26.1210    3.1900   50.9130 C   0  0  1  0  0  3  0  0  0  0  0  0
   24.8070    3.1590   50.7620 C   0  0  1  0  0  3  0  0  0  0  0  0
   23.6600    3.2350   51.6420 C   0  0  0  0  0  2  0  0  0  0  0  0
   22.5150    3.9000   51.1890 C   0  0  1  0  0  3  0  0  0  0  0  0
   22.1490    5.2880   51.7360 C   0  0  0  0  0  2  0  0  0  0  0  0
   23.1200    6.2040   51.0060 N   0  0  0  0  0  0  0  0  0  0  0  0
   23.2180    5.8860   49.6180 C   0  0  2  0  0  3  0  0  0  0  0  0
   24.0360    4.6970   49.3140 C   0  0  1  0  0  3  0  0  0  0  0  0
   25.1610    5.1670   48.8100 N   0  0  0  0  0  2  0  0  0  0  0  0
   26.5420    4.7970   49.1450 C   0  0  0  0  0  2  0  0  0  0  0  0
   26.9460    3.6960   49.8070 N   0  0  0  0  0  2  0  0  0  0  0  0
   24.1060    3.1610   49.3790 C   0  0  2  0  0  3  0  0  0  0  0  0
   22.7850    2.4490   49.6190 C   0  0  0  0  0  2  0  0  0  0  0  0
   21.8640    3.3990   49.8970 C   0  0  1  0  0  3  0  0  0  0  0  0
   26.1700    2.6860   52.2510 N   0  0  0  0  0  0  0  0  0  0  0  0
   25.7800    3.2770   53.0190 H   0  0  0  0  0  0  0  0  0  0  0  0
   26.7490    1.3780   52.4810 C   0  0  0  0  0  0  0  0  0  0  0  0
   26.4270    0.0020   52.2400 C   0  0  0  0  0  3  0  0  0  0  0  0
   27.3810   -0.7730   52.6940 C   0  0  0  0  0  0  0  0  0  0  0  0
   28.4350    0.0500   53.2880 C   0  0  0  0  0  0  0  0  0  0  0  0
   27.3610   -2.5200   52.5900 Cl  0  0  0  0  0  0  0  0  0  0  0  0
   29.5710   -0.3560   53.8580 C   0  0  0  0  0  1  0  0  0  0  0  0
   27.9410    1.4320   53.1040 C   0  0  2  0  0  3  0  0  0  0  0  0
   28.7210    2.4630   53.5670 F   0  0  0  0  0  0  0  0  0  0  0  0
   20.9720    3.2220   48.7840 O   0  0  0  0  0  0  0  0  0  0  0  0
   20.0250    4.2180   48.4770 C   0  0  0  0  0  1  0  0  0  0  0  0
   23.4500    7.0750   48.7390 C   0  0  0  0  0  2  0  0  0  0  0  0
   22.3870    7.5340   47.8410 C   0  0  0  0  0  2  0  0  0  0  0  0
   21.1630    7.6390   48.6760 N   0  0  0  0  0  0  0  0  0  0  0  0
   20.4550    6.9280   48.3430 H   0  0  0  0  0  0  0  0  0  0  0  0
   21.4300    7.2800   49.6420 H   0  0  0  0  0  0  0  0  0  0  0  0
   22.6360    7.4360   51.2210 O   0  0  0  0  0  0  0  0  0  0  0  0
   21.9390    7.7160   50.5660 H   0  0  0  0  0  0  0  0  0  0  0  0
  1 15  1  1  0  0  0
  2  1  1  0  0  0  0
  2  3  1  1  0  0  0
  4  3  1  6  0  0  0
  4  5  1  0  0  0  0
  6 32  1  0  0  0  0
  6  5  1  0  0  0  0
  7 27  1  6  0  0  0
  7  6  1  0  0  0  0
  8  9  1  1  0  0  0
  8 12  1  0  0  0  0
  8  7  1  0  0  0  0
  9 10  1  0  0  0  0
 10 11  1  0  0  0  0
 11  1  1  0  0  0  0
 12 13  1  1  0  0  0
 12  2  1  0  0  0  0
 13 14  1  0  0  0  0
 14 25  1  1  0  0  0
 14  4  1  0  0  0  0
 15 17  1  0  0  0  0
 15 16  1  0  0  0  0
 17 23  1  0  0  0  0
 18 17  2  0  0  0  0
 18 19  1  0  0  0  0
 19 20  2  0  0  0  0
 20 22  1  0  0  0  0
 21 19  1  0  0  0  0
 23 20  1  0  0  0  0
 23 24  1  1  0  0  0
 26 25  1  0  0  0  0
 28 29  1  0  0  0  0
 28 27  1  0  0  0  0
 29 31  1  0  0  0  0
 30 29  1  0  0  0  0
 33 32  1  0  0  0  0
M  END
>  <TORSDO>
F 7

$$$$
