C:\Qe-CaDD\Project\Data\Stage_6_Molecular_Dynamics\ligands_top\out_20865_EGFR_extracted.pdbqt
 OpenBabel01082506443D

 23 25  0  0  1  0  0  0  0  0999 V2000
   23.3260    1.7060   51.8610 C   0  0  0  0  0  0  0  0  0  0  0  0
   23.8480    1.8080   53.0400 C   0  0  0  0  0  3  0  0  0  0  0  0
   25.0390    2.6020   53.4840 C   0  0  0  0  0  2  0  0  0  0  0  0
   26.2130    2.3010   52.6570 N   0  0  1  0  0  0  0  0  0  0  0  0
   26.3610    2.6130   51.2560 C   0  0  0  0  0  2  0  0  0  0  0  0
   25.1120    2.7510   50.5100 C   0  0  0  0  0  0  0  0  0  0  0  0
   23.8140    2.4130   50.6730 C   0  0  0  0  0  0  0  0  0  0  0  0
   27.2820    1.6590   53.3300 C   0  0  1  0  0  3  0  0  0  0  0  0
   28.2470    2.0870   54.0200 N   0  0  0  0  0  0  0  0  0  0  0  0
   29.2960    1.3790   54.6450 C   0  0  0  0  0  3  0  0  0  0  0  0
   29.3510    0.0620   54.4930 N   0  0  0  0  0  2  0  0  0  0  0  0
   28.3100   -0.4920   53.6520 C   0  0  0  0  0  0  0  0  0  0  0  0
   28.2140   -1.6120   52.9420 C   0  0  0  0  0  3  0  0  0  0  0  0
   27.0600    0.2440   53.4760 C   0  0  2  0  0  0  0  0  0  0  0  0
   26.8950   -1.5990   52.2820 C   0  0  0  0  0  3  0  0  0  0  0  0
   26.1990   -0.4940   52.5870 C   0  0  0  0  0  3  0  0  0  0  0  0
   26.3140    0.1290   55.1800 Cl  0  0  0  0  0  0  0  0  0  0  0  0
   25.3640    3.4150   49.3170 O   0  0  0  0  0  0  0  0  0  0  0  0
   26.3960    4.3860   49.3260 C   0  0  0  0  0  1  0  0  0  0  0  0
   22.1820    0.8200   51.8670 C   0  0  0  0  0  3  0  0  0  0  0  0
   22.0360   -0.2800   52.6550 C   0  0  0  0  0  2  0  0  0  0  0  0
   22.9160    2.7390   49.7000 O   0  0  0  0  0  0  0  0  0  0  0  0
   21.9690    3.7710   49.6990 C   0  0  0  0  0  1  0  0  0  0  0  0
  1 20  1  0  0  0  0
  1  2  2  0  0  0  0
  2  3  1  0  0  0  0
  4  5  1  1  0  0  0
  4  8  1  0  0  0  0
  4  3  1  0  0  0  0
  6  7  2  0  0  0  0
  6  5  1  0  0  0  0
  7  1  1  0  0  0  0
  8 14  1  0  0  0  0
  8  9  1  1  0  0  0
  9 10  2  0  0  0  0
 11 10  1  0  0  0  0
 12 11  1  0  0  0  0
 13 12  2  0  0  0  0
 14 12  1  0  0  0  0
 14 17  1  1  0  0  0
 15 16  2  0  0  0  0
 15 13  1  0  0  0  0
 16 14  1  0  0  0  0
 18 19  1  0  0  0  0
 18  6  1  0  0  0  0
 20 21  2  0  0  0  0
 22  7  1  0  0  0  0
 23 22  1  0  0  0  0
M  END
>  <TORSDO>
F 4

$$$$
