C:\Qe-CaDD\Project\Data\Stage_6_Molecular_Dynamics\ligands_top\out_14187_EGFR_extracted.pdbqt
 OpenBabel01082506443D

 27 28  0  0  1  0  0  0  0  0999 V2000
   23.3830    2.5740   51.6890 N   0  0  0  0  0  0  0  0  0  0  0  0
   22.3710    2.2850   51.8110 H   0  0  0  0  0  0  0  0  0  0  0  0
   23.9580    3.7580   51.1470 C   0  0  1  0  0  3  0  0  0  0  0  0
   23.8890    3.9660   49.7670 N   0  0  0  0  0  0  0  0  0  0  0  0
   23.2800    3.0340   48.9150 C   0  0  0  0  0  2  0  0  0  0  0  0
   21.8200    3.4640   48.7270 C   0  0  0  0  0  2  0  0  0  0  0  0
   21.1280    3.6150   49.9670 N   0  0  0  0  0  0  0  0  0  0  0  0
   21.1160    4.4810   51.0950 C   0  0  0  0  0  2  0  0  0  0  0  0
   20.3980    2.8650   50.1040 H   0  0  0  0  0  0  0  0  0  0  0  0
   22.0040    5.2940   51.6330 C   0  0  0  0  0  2  0  0  0  0  0  0
   23.2020    4.8760   51.7690 N   0  0  0  0  0  2  0  0  0  0  0  0
   24.5530    5.0790   49.2260 C   0  0  0  0  0  2  0  0  0  0  0  0
   25.9700    5.3070   49.6850 C   0  0  0  0  0  2  0  0  0  0  0  0
   26.9100    4.2820   49.0740 C   0  0  0  0  0  1  0  0  0  0  0  0
   24.2910    1.5760   52.1680 C   0  0  0  0  0  0  0  0  0  0  0  0
   25.5210    1.3300   51.5980 C   0  0  0  0  0  3  0  0  0  0  0  0
   26.4040    0.3800   52.0530 C   0  0  0  0  0  3  0  0  0  0  0  0
   26.0670   -0.3860   53.1390 C   0  0  0  0  0  0  0  0  0  0  0  0
   24.8370   -0.2060   53.7840 C   0  0  0  0  0  0  0  0  0  0  0  0
   24.3940   -1.1680   55.1630 Cl  0  0  0  0  0  0  0  0  0  0  0  0
   24.0240    0.7710   53.2510 C   0  0  0  0  0  3  0  0  0  0  0  0
   26.9280   -1.3750   53.6570 O   0  0  0  0  0  0  0  0  0  0  0  0
   28.0800   -1.6410   52.8920 C   0  0  0  0  0  2  0  0  0  0  0  0
   29.3700   -1.3230   53.6160 C   0  0  0  0  0  2  0  0  0  0  0  0
   29.7110    0.1160   53.5060 C   0  0  0  0  0  2  0  0  0  0  0  0
   29.3740    1.0690   54.3020 C   0  0  0  0  0  2  0  0  0  0  0  0
   28.6140    0.5420   55.3190 F   0  0  0  0  0  0  0  0  0  0  0  0
  1  2  1  0  0  0  0
  1 15  1  0  0  0  0
  3  1  1  6  0  0  0
  3 11  1  0  0  0  0
  4  3  1  0  0  0  0
  5  4  1  0  0  0  0
  6  5  1  0  0  0  0
  6  7  1  0  0  0  0
  7  9  1  0  0  0  0
  7  8  1  0  0  0  0
  8 10  1  0  0  0  0
 10 11  1  0  0  0  0
 12 13  1  0  0  0  0
 12  4  1  0  0  0  0
 14 13  1  0  0  0  0
 15 21  1  0  0  0  0
 16 17  1  0  0  0  0
 16 15  2  0  0  0  0
 17 18  2  0  0  0  0
 18 22  1  0  0  0  0
 18 19  1  0  0  0  0
 19 20  1  0  0  0  0
 21 19  2  0  0  0  0
 23 24  1  0  0  0  0
 23 22  1  0  0  0  0
 25 24  1  0  0  0  0
 25 26  1  0  0  0  0
 26 27  1  0  0  0  0
M  END
>  <TORSDO>
F 8

$$$$
