C:\Qe-CaDD\Project\Data\Stage_6_Molecular_Dynamics\ligands_top\out_16841_EGFR_extracted.pdbqt
 OpenBabel01082506443D

 32 36  0  0  1  0  0  0  0  0999 V2000
   27.1650    4.4290   48.9550 C   0  0  0  0  0  2  0  0  0  0  0  0
   26.4100    5.5670   48.9580 C   0  0  0  0  0  2  0  0  0  0  0  0
   26.5520    6.9300   48.3510 C   0  0  0  0  0  2  0  0  0  0  0  0
   25.4280    7.5980   48.7180 C   0  0  1  0  0  3  0  0  0  0  0  0
   24.8700    8.9250   48.5240 N   0  0  0  0  0  2  0  0  0  0  0  0
   23.7840    8.7330   49.1310 C   0  0  0  0  0  2  0  0  0  0  0  0
   24.1810    7.3150   49.4260 C   0  0  1  0  0  3  0  0  0  0  0  0
   23.2290    6.4220   48.6960 C   0  0  0  0  0  0  0  0  0  0  0  0
   22.4320    6.7780   47.5980 C   0  0  0  0  0  3  0  0  0  0  0  0
   21.5140    5.9430   46.9630 C   0  0  0  0  0  3  0  0  0  0  0  0
   21.3460    4.6490   47.4260 N   0  0  0  0  0  0  0  0  0  0  0  0
   22.1030    4.3480   48.4500 C   0  0  0  0  0  0  0  0  0  0  0  0
   22.9800    5.1570   49.0470 N   0  0  0  0  0  0  0  0  0  0  0  0
   22.0500    3.1200   49.0950 N   0  0  0  0  0  0  0  0  0  0  0  0
   20.7710    2.8090   49.7130 C   0  0  0  0  0  2  0  0  0  0  0  0
   20.8670    2.4340   51.0350 C   0  0  2  0  0  3  0  0  0  0  0  0
   22.2140    2.1290   51.4000 C   0  0  0  0  0  3  0  0  0  0  0  0
   23.3320    2.1150   50.7450 C   0  0  0  0  0  0  0  0  0  0  0  0
   23.1510    2.1790   49.2410 C   0  0  0  0  0  2  0  0  0  0  0  0
   24.7790    2.0740   51.2830 C   0  0  1  0  0  3  0  0  0  0  0  0
   25.4140    3.1410   50.5160 C   0  0  0  0  0  3  0  0  0  0  0  0
   26.4550    3.4410   49.7560 C   0  0  0  0  0  3  0  0  0  0  0  0
   24.6930    2.3130   52.7540 C   0  0  0  0  0  2  0  0  0  0  0  0
   23.9930    1.0870   53.3630 C   0  0  0  0  0  3  0  0  0  0  0  0
   23.4850   -0.1750   53.1310 C   0  0  0  0  0  3  0  0  0  0  0  0
   22.8580   -0.8900   54.2820 C   0  0  0  0  0  2  0  0  0  0  0  0
   21.3910   -1.2250   53.9310 C   0  0  0  0  0  2  0  0  0  0  0  0
   20.9290   -0.1340   53.0780 N   0  0  0  0  0  0  0  0  0  0  0  0
   19.5400    0.0210   52.9240 C   0  0  0  0  0  2  0  0  0  0  0  0
   19.0470    0.9510   51.8980 C   0  0  0  0  0  2  0  0  0  0  0  0
   19.5660    2.3380   51.7710 C   0  0  0  0  0  2  0  0  0  0  0  0
   21.3340   -0.4060   52.1080 H   0  0  0  0  0  0  0  0  0  0  0  0
  1  2  1  0  0  0  0
  1 22  1  0  0  0  0
  3  2  1  0  0  0  0
  4  3  1  6  0  0  0
  4  7  1  0  0  0  0
  5  4  1  0  0  0  0
  5  6  1  0  0  0  0
  7  6  1  6  0  0  0
  8 13  2  0  0  0  0
  8  7  1  0  0  0  0
  9  8  1  0  0  0  0
 10 11  1  0  0  0  0
 10  9  2  0  0  0  0
 11 12  2  0  0  0  0
 12 13  1  0  0  0  0
 12 14  1  0  0  0  0
 14 19  1  0  0  0  0
 14 15  1  0  0  0  0
 16 15  1  6  0  0  0
 16 17  1  0  0  0  0
 16 31  1  0  0  0  0
 18 20  1  0  0  0  0
 18 17  2  0  0  0  0
 19 18  1  0  0  0  0
 20 21  1  6  0  0  0
 20 23  1  0  0  0  0
 22 21  2  0  0  0  0
 23 24  1  0  0  0  0
 25 24  2  0  0  0  0
 25 26  1  0  0  0  0
 27 26  1  0  0  0  0
 28 27  1  0  0  0  0
 29 28  1  0  0  0  0
 30 29  1  0  0  0  0
 31 30  1  0  0  0  0
 32 28  1  0  0  0  0
M  END
>  <TORSDO>
F 0

$$$$
