C:\Qe-CaDD\Project\Data\Stage_6_Molecular_Dynamics\ligands_top\out_13593_EGFR_extracted.pdbqt
 OpenBabel01082506443D

 25 25  0  0  0  0  0  0  0  0999 V2000
   22.6640    1.7180   50.6680 N   0  0  0  0  0  2  0  0  0  0  0  0
   21.7180    1.5750   51.5510 C   0  0  0  0  0  2  0  0  0  0  0  0
   22.6310    2.7300   49.6300 C   0  0  0  0  0  2  0  0  0  0  0  0
   23.9870    3.2860   49.3270 C   0  0  0  0  0  2  0  0  0  0  0  0
   24.7970    3.2990   50.5490 C   0  0  0  0  0  0  0  0  0  0  0  0
   25.9170    2.5580   50.6320 C   0  0  0  0  0  2  0  0  0  0  0  0
   26.9780    2.2970   51.6430 C   0  0  0  0  0  1  0  0  0  0  0  0
   24.7540    3.9340   51.8140 N   0  0  0  0  0  4  0  0  0  0  0  0
   23.7210    4.7930   52.2790 C   0  0  0  0  0  0  0  0  0  0  0  0
   23.6980    5.4220   53.5510 N   0  0  0  0  0  0  0  0  0  0  0  0
   22.6230    5.3220   51.9730 O   0  0  0  0  0  0  0  0  0  0  0  0
   24.0910    6.2870   54.0060 H   0  0  0  0  0  0  0  0  0  0  0  0
   23.2340    5.1680   54.4730 H   0  0  0  0  0  0  0  0  0  0  0  0
   25.5070    3.8300   52.5580 H   0  0  0  0  0  0  0  0  0  0  0  0
   22.4040    0.4860   52.1620 N   0  0  0  0  0  0  0  0  0  0  0  0
   23.3050    0.8220   53.0540 C   0  0  0  0  0  3  0  0  0  0  0  0
   23.9860   -0.2390   53.6610 N   0  0  0  0  0  0  0  0  0  0  0  0
   23.4370   -1.0290   54.1170 H   0  0  0  0  0  0  0  0  0  0  0  0
   25.3930   -0.3440   53.7210 C   0  0  0  0  0  0  0  0  0  0  0  0
   26.2200    0.2890   54.6180 C   0  0  0  0  0  3  0  0  0  0  0  0
   27.5880    0.1750   54.6530 C   0  0  0  0  0  3  0  0  0  0  0  0
   28.2220   -0.6310   53.7340 C   0  0  0  0  0  0  0  0  0  0  0  0
   30.1000   -0.8260   53.7360 Br  0  0  0  0  0  0  0  0  0  0  0  0
   27.4680   -1.2950   52.8090 C   0  0  0  0  0  3  0  0  0  0  0  0
   26.1010   -1.1410   52.8220 C   0  0  0  0  0  3  0  0  0  0  0  0
  1  2  1  0  0  0  0
  2 15  1  0  0  0  0
  3  1  1  0  0  0  0
  4  3  1  0  0  0  0
  4  5  1  0  0  0  0
  5  6  1  0  0  0  0
  5  8  2  0  0  0  0
  6  7  1  0  0  0  0
  8  9  1  0  0  0  0
  8 14  1  0  0  0  0
  9 10  1  0  0  0  0
 10 12  1  0  0  0  0
 10 13  1  0  0  0  0
 11  9  2  0  0  0  0
 15 16  2  0  0  0  0
 16 17  1  0  0  0  0
 17 19  1  0  0  0  0
 17 18  1  0  0  0  0
 19 20  1  0  0  0  0
 20 21  2  0  0  0  0
 22 23  1  0  0  0  0
 22 21  1  0  0  0  0
 24 25  1  0  0  0  0
 24 22  2  0  0  0  0
 25 19  2  0  0  0  0
M  END
>  <TORSDO>
F 7

$$$$
