C:\Qe-CaDD\Project\Data\Stage_6_Molecular_Dynamics\ligands_top\out_20659_EGFR_extracted.pdbqt
 OpenBabel01082506443D

 21 22  0  0  0  0  0  0  0  0999 V2000
   23.4520    3.9100   53.0180 O   0  0  0  0  0  0  0  0  0  0  0  0
   24.4930    3.2630   52.7830 C   0  0  0  0  0  0  0  0  0  0  0  0
   25.2930    2.6650   53.6730 O   0  0  0  0  0  0  0  0  0  0  0  0
   26.3680    2.0230   53.2040 C   0  0  0  0  0  0  0  0  0  0  0  0
   26.8480    1.8590   51.8870 C   0  0  0  0  0  3  0  0  0  0  0  0
   26.0190    2.4730   50.9790 C   0  0  0  0  0  3  0  0  0  0  0  0
   24.9300    3.1050   51.5000 C   0  0  0  0  0  0  0  0  0  0  0  0
   24.0470    3.4780   50.3770 C   0  0  0  0  0  2  0  0  0  0  0  0
   23.2740    2.3460   50.4250 C   0  0  0  0  0  2  0  0  0  0  0  0
   22.6980    1.0510   50.7790 O   0  0  0  0  0  0  0  0  0  0  0  0
   22.3130    1.0090   52.1540 C   0  0  0  0  0  2  0  0  0  0  0  0
   23.0640    0.5150   53.0940 C   0  0  0  0  0  2  0  0  0  0  0  0
   24.3210   -0.0110   52.5950 C   0  0  0  0  0  3  0  0  0  0  0  0
   25.4550   -0.5360   53.0950 C   0  0  0  0  0  0  0  0  0  0  0  0
   25.6220   -0.5950   54.5940 C   0  0  0  0  0  2  0  0  0  0  0  0
   26.8390    0.2900   54.9150 C   0  0  0  0  0  2  0  0  0  0  0  0
   26.6530    1.6620   54.5410 O   0  0  0  0  0  0  0  0  0  0  0  0
   26.6830   -1.0790   52.6540 O   0  0  0  0  0  0  0  0  0  0  0  0
   26.7630   -2.3930   52.3580 O   0  0  0  0  0  0  0  0  0  0  0  0
   27.7880   -2.9480   52.9420 O   0  0  0  0  0  0  0  0  0  0  0  0
   27.8190   -3.9350   52.8650 H   0  0  0  0  0  0  0  0  0  0  0  0
  2  1  2  0  0  0  0
  2  3  1  0  0  0  0
  4  3  1  0  0  0  0
  4 17  1  0  0  0  0
  5  4  2  0  0  0  0
  6  7  2  0  0  0  0
  6  5  1  0  0  0  0
  7  2  1  0  0  0  0
  8  9  1  0  0  0  0
  8  7  1  0  0  0  0
  9 10  1  0  0  0  0
 10 11  1  0  0  0  0
 11 12  1  0  0  0  0
 13 12  1  0  0  0  0
 13 14  2  0  0  0  0
 14 15  1  0  0  0  0
 15 16  1  0  0  0  0
 17 16  1  0  0  0  0
 18 14  1  0  0  0  0
 19 18  1  0  0  0  0
 19 20  1  0  0  0  0
 21 20  1  0  0  0  0
M  END
>  <TORSDO>
F 3

$$$$
