C:\Qe-CaDD\Project\Data\Stage_6_Molecular_Dynamics\ligands_top\out_11364_EGFR_extracted.pdbqt
 OpenBabel01082506443D

 26 27  0  0  1  0  0  0  0  0999 V2000
   26.5360    3.2780   49.9350 C   0  0  0  0  0  3  0  0  0  0  0  0
   26.1450    4.5380   49.8060 C   0  0  0  0  0  3  0  0  0  0  0  0
   26.0610    2.4340   51.0260 C   0  0  0  0  0  3  0  0  0  0  0  0
   26.9090    1.9970   51.9490 C   0  0  0  0  0  3  0  0  0  0  0  0
   26.5020    1.1340   53.0890 C   0  0  2  0  0  3  0  0  0  0  0  0
   26.7290    1.9420   54.2890 N   0  0  0  0  0  0  0  0  0  0  0  0
   27.1480    1.4160   55.0630 H   0  0  0  0  0  0  0  0  0  0  0  0
   27.1110    2.8730   54.0930 H   0  0  0  0  0  0  0  0  0  0  0  0
   27.3660   -0.0740   53.1020 C   0  0  0  0  0  0  0  0  0  0  0  0
   26.9660   -1.3370   52.7170 C   0  0  0  0  0  3  0  0  0  0  0  0
   27.8700   -2.3780   52.7770 C   0  0  0  0  0  3  0  0  0  0  0  0
   29.1570   -2.1040   53.2250 C   0  0  0  0  0  3  0  0  0  0  0  0
   29.5850   -0.8530   53.6160 C   0  0  0  0  0  3  0  0  0  0  0  0
   28.6530    0.1630   53.5430 C   0  0  0  0  0  3  0  0  0  0  0  0
   26.6530    5.3850   48.6680 C   0  0  0  0  0  2  0  0  0  0  0  0
   26.8170    6.7500   49.1040 N   0  0  0  0  0  0  0  0  0  0  0  0
   27.9710    7.0810   48.3560 C   0  0  0  0  0  3  0  0  0  0  0  0
   28.5890    7.0420   47.2330 N   0  0  0  0  0  0  0  0  0  0  0  0
   29.8990    7.6410   47.1030 C   0  0  0  0  0  3  0  0  0  0  0  0
   30.9230    8.1820   47.7280 C   0  0  0  0  0  3  0  0  0  0  0  0
   31.0210    8.3720   49.1910 C   0  0  0  0  0  2  0  0  0  0  0  0
   30.7710    9.8200   49.5520 C   0  0  0  0  0  2  0  0  0  0  0  0
   29.1850   10.4120   48.9890 S   0  0  0  0  0  0  0  0  0  0  0  0
   27.7640    9.6850   49.6980 C   0  0  0  0  0  2  0  0  0  0  0  0
   26.7190    8.9480   50.1290 C   0  0  0  0  0  2  0  0  0  0  0  0
   26.0970    7.6290   50.0030 C   0  0  0  0  0  2  0  0  0  0  0  0
  1  3  1  0  0  0  0
  2  1  2  0  0  0  0
  3  4  2  0  0  0  0
  5  4  1  6  0  0  0
  5  9  1  0  0  0  0
  5  6  1  0  0  0  0
  6  7  1  0  0  0  0
  8  6  1  0  0  0  0
  9 14  1  0  0  0  0
 10 11  1  0  0  0  0
 10  9  2  0  0  0  0
 11 12  2  0  0  0  0
 12 13  1  0  0  0  0
 14 13  2  0  0  0  0
 15 16  1  0  0  0  0
 15  2  1  0  0  0  0
 16 26  1  0  0  0  0
 17 16  1  0  0  0  0
 18 17  2  0  0  0  0
 19 18  1  0  0  0  0
 19 20  2  0  0  0  0
 20 21  1  0  0  0  0
 21 22  1  0  0  0  0
 23 22  1  0  0  0  0
 23 24  1  0  0  0  0
 24 25  1  0  0  0  0
 26 25  1  0  0  0  0
M  END
>  <TORSDO>
F 6

$$$$
