C:\Qe-CaDD\Project\Data\Stage_6_Molecular_Dynamics\ligands_top\out_10675_EGFR_extracted.pdbqt
 OpenBabel01082506443D

 23 25  0  0  1  0  0  0  0  0999 V2000
   26.3790    0.0980   51.8110 C   0  0  0  0  0  2  0  0  0  0  0  0
   26.6890    0.8720   52.8490 C   0  0  0  0  0  0  0  0  0  0  0  0
   27.8870    1.7560   52.9080 C   0  0  0  0  0  0  0  0  0  0  0  0
   27.7060    2.4970   51.8860 N   0  0  0  0  0  0  0  0  0  0  0  0
   26.5670    2.3410   51.0370 C   0  0  0  0  0  2  0  0  0  0  0  0
   25.6700    2.8030   51.8060 N   0  0  0  0  0  2  0  0  0  0  0  0
   24.2700    2.9330   51.5540 C   0  0  0  0  0  2  0  0  0  0  0  0
   23.4710    2.6130   52.7390 N   0  0  0  0  0  0  0  0  0  0  0  0
   23.6180    1.2860   53.2970 C   0  0  0  0  0  0  0  0  0  0  0  0
   24.5540    0.5170   53.8830 C   0  0  0  0  0  0  0  0  0  0  0  0
   24.0310   -0.8500   54.2490 C   0  0  1  0  0  3  0  0  0  0  0  0
   24.0490   -0.8630   55.6480 F   0  0  0  0  0  0  0  0  0  0  0  0
   22.6440   -0.7650   53.7880 C   0  0  0  0  0  0  0  0  0  0  0  0
   21.8710   -1.9860   54.0210 C   0  0  0  0  0  1  0  0  0  0  0  0
   22.4260    0.4290   53.2600 C   0  0  0  0  0  3  0  0  0  0  0  0
   25.9170    1.0020   54.1210 C   0  0  1  0  0  3  0  0  0  0  0  0
   26.6190    0.2860   55.0540 O   0  0  0  0  0  0  0  0  0  0  0  0
   27.9190    0.1020   54.6890 C   0  0  0  0  0  2  0  0  0  0  0  0
   28.6090    1.2830   54.1080 C   0  0  1  0  0  3  0  0  0  0  0  0
   22.7820    3.2500   53.2450 H   0  0  0  0  0  0  0  0  0  0  0  0
   29.9350    0.8430   53.6930 N   0  0  0  0  0  0  0  0  0  0  0  0
   29.9390   -0.2000   53.7240 H   0  0  0  0  0  0  0  0  0  0  0  0
   30.1080    1.2390   52.7420 H   0  0  0  0  0  0  0  0  0  0  0  0
  1  2  2  0  0  0  0
  2  3  1  0  0  0  0
  3 19  1  0  0  0  0
  4  3  2  0  0  0  0
  5  6  1  0  0  0  0
  5  4  1  0  0  0  0
  7  6  1  0  0  0  0
  7  8  1  0  0  0  0
  8 20  1  0  0  0  0
  8  9  1  0  0  0  0
  9 10  2  0  0  0  0
 10 16  1  0  0  0  0
 10 11  1  0  0  0  0
 11 12  1  1  0  0  0
 13 14  1  0  0  0  0
 13 11  1  0  0  0  0
 15  9  1  0  0  0  0
 15 13  2  0  0  0  0
 16  2  1  6  0  0  0
 16 17  1  0  0  0  0
 18 17  1  0  0  0  0
 19 21  1  6  0  0  0
 19 18  1  0  0  0  0
 21 22  1  0  0  0  0
 23 21  1  0  0  0  0
M  END
>  <TORSDO>
F 1

$$$$
