C:\Qe-CaDD\Project\Data\Stage_6_Molecular_Dynamics\ligands_top\out_10679_EGFR_extracted.pdbqt
 OpenBabel01082506443D

 32 37  0  0  1  0  0  0  0  0999 V2000
   23.0060   -0.8540   54.0860 O   0  0  0  0  0  0  0  0  0  0  0  0
   22.4530    0.0800   53.5950 C   0  0  0  0  0  0  0  0  0  0  0  0
   20.7810    0.6300   53.8060 C   0  0  0  0  0  2  0  0  0  0  0  0
   21.0180    1.1690   52.5960 C   0  0  1  0  0  0  0  0  0  0  0  0
   21.4530    2.4200   52.3280 C   0  0  2  0  0  0  0  0  0  0  0  0
   22.5740    3.4030   51.8500 C   0  0  0  0  0  2  0  0  0  0  0  0
   22.5220    2.5620   50.5980 C   0  0  2  0  0  0  0  0  0  0  0  0
   21.3140    3.3700   50.0780 N   0  0  0  0  0  0  0  0  0  0  0  0
   20.3060    3.7320   50.9160 C   0  0  0  0  0  3  0  0  0  0  0  0
   20.2080    3.2370   52.3650 N   0  0  0  0  0  0  0  0  0  0  0  0
   21.9240    1.2570   51.2330 C   0  0  1  0  0  0  0  0  0  0  0  0
   21.2810    0.1150   51.6630 C   0  0  0  0  0  2  0  0  0  0  0  0
   22.8980    1.1990   52.6040 N   0  0  0  0  0  2  0  0  0  0  0  0
   19.7680    3.1360   53.3150 H   0  0  0  0  0  0  0  0  0  0  0  0
   23.5420    2.4480   49.7720 N   0  0  0  0  0  0  0  0  0  0  0  0
   23.6140    1.5140   49.3100 H   0  0  0  0  0  0  0  0  0  0  0  0
   24.4770    3.4770   49.5090 C   0  0  0  0  0  0  0  0  0  0  0  0
   25.8150    3.2600   49.7630 C   0  0  0  0  0  3  0  0  0  0  0  0
   26.7550    4.2530   49.5130 C   0  0  0  0  0  3  0  0  0  0  0  0
   26.3420    5.4710   49.0040 C   0  0  0  0  0  3  0  0  0  0  0  0
   25.0000    5.7000   48.7450 C   0  0  0  0  0  0  0  0  0  0  0  0
   24.5670    6.8950   48.2420 F   0  0  0  0  0  0  0  0  0  0  0  0
   24.0700    4.6940   49.0010 C   0  0  0  0  0  3  0  0  0  0  0  0
   24.2440    1.6690   53.0900 C   0  0  0  0  0  2  0  0  0  0  0  0
   25.1330    0.5910   52.3390 C   0  0  0  0  0  2  0  0  0  0  0  0
   26.1570    0.0710   53.3300 C   0  0  0  0  0  2  0  0  0  0  0  0
   27.4540    0.2120   52.7470 N   0  0  0  0  0  0  0  0  0  0  0  0
   27.8340    1.5950   52.5370 C   0  0  0  0  0  2  0  0  0  0  0  0
   28.1160    2.3060   53.8510 C   0  0  0  0  0  2  0  0  0  0  0  0
   29.0130    1.5980   54.6340 O   0  0  0  0  0  0  0  0  0  0  0  0
   28.5720    0.2970   54.8550 C   0  0  0  0  0  2  0  0  0  0  0  0
   28.4960   -0.3970   53.5190 C   0  0  0  0  0  2  0  0  0  0  0  0
  2  3  1  0  0  0  0
  2  1  2  0  0  0  0
  4  3  1  1  0  0  0
  5  6  1  1  0  0  0
  5 10  1  0  0  0  0
  5  4  1  0  0  0  0
  7 15  1  6  0  0  0
  7 11  1  0  0  0  0
  7  6  1  0  0  0  0
  8  7  1  0  0  0  0
  8  9  2  0  0  0  0
  9 10  1  0  0  0  0
 10 14  1  0  0  0  0
 11 12  1  6  0  0  0
 11  5  1  0  0  0  0
 11  4  1  0  0  0  0
 12  4  1  0  0  0  0
 13 24  1  0  0  0  0
 13  2  1  0  0  0  0
 16 15  1  0  0  0  0
 17 18  1  0  0  0  0
 17 15  1  0  0  0  0
 19 18  2  0  0  0  0
 20 19  1  0  0  0  0
 21 23  1  0  0  0  0
 21 20  2  0  0  0  0
 22 21  1  0  0  0  0
 23 17  2  0  0  0  0
 25 24  1  0  0  0  0
 25 26  1  0  0  0  0
 27 26  1  0  0  0  0
 27 32  1  0  0  0  0
 28 27  1  0  0  0  0
 28 29  1  0  0  0  0
 29 30  1  0  0  0  0
 30 31  1  0  0  0  0
 32 31  1  0  0  0  0
M  END
>  <TORSDO>
F 6

$$$$
