C:\Qe-CaDD\Project\Data\Stage_6_Molecular_Dynamics\ligands_top\out_1460_EGFR_extracted.pdbqt
 OpenBabel01082506443D

 28 30  0  0  1  0  0  0  0  0999 V2000
   27.2680    0.8890   53.5420 C   0  0  0  0  0  0  0  0  0  0  0  0
   26.2030    1.3500   53.0970 C   0  0  0  0  0  0  0  0  0  0  0  0
   25.5590    0.4090   53.7330 C   0  0  0  0  0  0  0  0  0  0  0  0
   25.0190   -0.3430   54.2400 C   0  0  0  0  0  0  0  0  0  0  0  0
   24.2670   -1.3440   54.9080 O   0  0  0  0  0  0  0  0  0  0  0  0
   22.7980   -0.9060   54.4280 C   0  0  0  0  0  0  0  0  0  0  0  0
   21.7280   -1.6060   54.7080 N   0  0  0  0  0  0  0  0  0  0  0  0
   20.5160   -1.2150   54.2860 C   0  0  0  0  0  2  0  0  0  0  0  0
   20.4340   -0.1040   53.5790 N   0  0  0  0  0  0  0  0  0  0  0  0
   21.3680    0.7230   53.2010 C   0  0  0  0  0  0  0  0  0  0  0  0
   22.6150    0.3260   53.6350 C   0  0  1  0  0  3  0  0  0  0  0  0
   23.6420    1.3340   53.1930 N   0  0  0  0  0  0  0  0  0  0  0  0
   24.8800    1.7840   52.6450 C   0  0  0  0  0  2  0  0  0  0  0  0
   23.0420    2.1930   53.4620 H   0  0  0  0  0  0  0  0  0  0  0  0
   21.2870    1.8820   52.4240 N   0  0  0  0  0  0  0  0  0  0  0  0
   21.1080    2.8500   52.7370 H   0  0  0  0  0  0  0  0  0  0  0  0
   21.4910    1.9060   51.0260 C   0  0  0  0  0  0  0  0  0  0  0  0
   21.2450    0.8300   50.2110 C   0  0  0  0  0  3  0  0  0  0  0  0
   21.4510    0.8200   48.8540 C   0  0  0  0  0  3  0  0  0  0  0  0
   21.9370    1.9330   48.2020 C   0  0  0  0  0  3  0  0  0  0  0  0
   22.2000    3.0430   48.9720 C   0  0  0  0  0  0  0  0  0  0  0  0
   22.8770    4.6270   48.1510 Br  0  0  0  0  0  0  0  0  0  0  0  0
   21.9710    2.9850   50.3250 C   0  0  0  0  0  3  0  0  0  0  0  0
   27.9450   -0.1100   54.3540 C   0  0  0  0  0  2  0  0  0  0  0  0
   28.4230   -1.1690   53.5640 O   0  0  0  0  0  0  0  0  0  0  0  0
   29.8100   -1.1490   53.6810 C   0  0  0  0  0  1  0  0  0  0  0  0
   28.1200    1.8100   52.9370 O   0  0  0  0  0  0  0  0  0  0  0  0
   29.0550    2.5110   53.7360 C   0  0  0  0  0  1  0  0  0  0  0  0
  1 24  1  0  0  0  0
  2  1  2  3  0  0  0
  2  3  1  0  0  0  0
  3  4  3  0  0  0  0
  4  5  1  0  0  0  0
  6  7  2  0  0  0  0
  6  5  1  0  0  0  0
  8  7  1  0  0  0  0
  9  8  1  0  0  0  0
 10  9  2  0  0  0  0
 11 10  1  1  0  0  0
 11  6  1  0  0  0  0
 12 14  1  0  0  0  0
 12 11  1  0  0  0  0
 13  2  1  0  0  0  0
 13 12  1  0  0  0  0
 15 16  1  0  0  0  0
 15 10  1  0  0  0  0
 17 15  1  0  0  0  0
 18 17  2  0  0  0  0
 19 18  1  0  0  0  0
 20 19  2  0  0  0  0
 20 21  1  0  0  0  0
 21 23  2  0  0  0  0
 22 21  1  0  0  0  0
 23 17  1  0  0  0  0
 25 26  1  0  0  0  0
 25 24  1  0  0  0  0
 27  1  1  0  0  0  0
 27 28  1  0  0  0  0
M  END
>  <TORSDO>
F 5

$$$$
