C:\Qe-CaDD\Project\Data\Stage_6_Molecular_Dynamics\ligands_top\out_22901_EGFR_extracted.pdbqt
 OpenBabel01082506443D

 33 35  0  0  1  0  0  0  0  0999 V2000
   26.1060    2.7830   50.9060 C   0  0  0  0  0  0  0  0  0  0  0  0
   24.7800    2.4920   50.6510 C   0  0  0  0  0  3  0  0  0  0  0  0
   24.1170    1.6670   51.5330 C   0  0  0  0  0  0  0  0  0  0  0  0
   22.8010    1.4310   51.2000 C   0  0  0  0  0  0  0  0  0  0  0  0
   22.0490    0.6290   52.0020 N   0  0  0  0  0  0  0  0  0  0  0  0
   22.6000    0.0720   53.1130 C   0  0  0  0  0  3  0  0  0  0  0  0
   23.9030    0.3060   53.4420 N   0  0  0  0  0  0  0  0  0  0  0  0
   24.6600    1.0950   52.6650 C   0  0  0  0  0  0  0  0  0  0  0  0
   25.9770    1.3990   52.8970 C   0  0  0  0  0  3  0  0  0  0  0  0
   26.7020    2.2250   52.0430 C   0  0  0  0  0  0  0  0  0  0  0  0
   22.0410    1.9130   50.0970 N   0  0  0  0  0  0  0  0  0  0  0  0
   21.8630    1.4520   48.7080 C   0  0  0  0  0  2  0  0  0  0  0  0
   21.8330    2.6500   47.7930 C   0  0  0  0  0  3  0  0  0  0  0  0
   21.8920    3.8540   48.1860 N   0  0  0  0  0  0  0  0  0  0  0  0
   21.9920    4.1930   49.5590 C   0  0  2  0  0  3  0  0  0  0  0  0
   21.2590    3.1300   50.3580 C   0  0  1  0  0  3  0  0  0  0  0  0
   21.5070    5.5870   49.8640 C   0  0  0  0  0  2  0  0  0  0  0  0
   21.8120    5.8470   51.3250 C   0  0  0  0  0  1  0  0  0  0  0  0
   19.9530    2.9220   49.7840 N   0  0  0  0  0  0  0  0  0  0  0  0
   19.7350    3.6080   49.0190 H   0  0  0  0  0  0  0  0  0  0  0  0
   18.6900    3.1310   50.9420 S   0  0  0  0  0  0  0  0  0  0  0  0
   17.7530    4.2280   50.5380 O   0  0  0  0  0  0  0  0  0  0  0  0
   19.2070    3.4240   52.3090 O   0  0  0  0  0  0  0  0  0  0  0  0
   17.7150    1.6320   51.0880 C   0  0  0  0  0  2  0  0  0  0  0  0
   18.5620    0.4110   50.9430 C   0  0  0  0  0  1  0  0  0  0  0  0
   26.8840    3.6200   50.0660 N   0  0  0  0  0  0  0  0  0  0  0  0
   26.3900    4.7530   49.3930 C   0  0  0  0  0  0  0  0  0  0  0  0
   25.2590    5.2870   49.3460 O   0  0  0  0  0  0  0  0  0  0  0  0
   27.8820    3.3520   49.9590 H   0  0  0  0  0  0  0  0  0  0  0  0
   27.3290    5.5330   48.5450 C   0  0  0  0  0  2  0  0  0  0  0  0
   26.7760    6.9090   48.2190 C   0  0  0  0  0  1  0  0  0  0  0  0
   28.0380    2.5320   52.2800 O   0  0  0  0  0  0  0  0  0  0  0  0
   28.5380    2.3420   53.5870 C   0  0  0  0  0  1  0  0  0  0  0  0
  1 10  1  0  0  0  0
  2  1  2  0  0  0  0
  2  3  1  0  0  0  0
  3  8  1  0  0  0  0
  4  3  2  0  0  0  0
  4  5  1  0  0  0  0
  5  6  2  0  0  0  0
  6  7  1  0  0  0  0
  8  9  1  0  0  0  0
  8  7  2  0  0  0  0
 10 32  1  0  0  0  0
 10  9  2  0  0  0  0
 11 16  1  0  0  0  0
 11  4  1  0  0  0  0
 12 11  1  0  0  0  0
 13 14  2  0  0  0  0
 13 12  1  0  0  0  0
 14 15  1  0  0  0  0
 15 17  1  6  0  0  0
 15 16  1  0  0  0  0
 16 19  1  6  0  0  0
 17 18  1  0  0  0  0
 19 21  1  0  0  0  0
 20 19  1  0  0  0  0
 21 24  1  0  0  0  0
 21 23  2  0  0  0  0
 22 21  2  0  0  0  0
 25 24  1  0  0  0  0
 26  1  1  0  0  0  0
 27 26  1  0  0  0  0
 28 27  2  0  0  0  0
 29 26  1  0  0  0  0
 30 27  1  0  0  0  0
 31 30  1  0  0  0  0
 32 33  1  0  0  0  0
M  END
>  <TORSDO>
F 8

$$$$
