C:\Qe-CaDD\Project\Data\Stage_6_Molecular_Dynamics\ligands_top\out_13326_EGFR_extracted.pdbqt
 OpenBabel01082506443D

 31 32  0  0  1  0  0  0  0  0999 V2000
   22.3220   -0.4420   53.6410 C   0  0  0  0  0  0  0  0  0  0  0  0
   22.0150   -1.2890   54.6890 C   0  0  0  0  0  3  0  0  0  0  0  0
   23.0000   -1.5840   55.5550 N   0  0  0  0  0  0  0  0  0  0  0  0
   24.2210   -1.0540   55.3690 C   0  0  0  0  0  3  0  0  0  0  0  0
   24.5480   -0.2080   54.3320 C   0  0  0  0  0  0  0  0  0  0  0  0
   23.5460    0.0780   53.4720 N   0  0  0  0  0  0  0  0  0  0  0  0
   21.2260   -0.1370   52.7100 C   0  0  0  0  0  0  0  0  0  0  0  0
   19.8640   -0.2320   52.9050 C   0  0  0  0  0  3  0  0  0  0  0  0
   19.1830    0.1380   51.8160 N   0  0  0  0  0  0  0  0  0  0  0  0
   20.0630    0.4790   50.8970 N   0  0  0  0  0  0  0  0  0  0  0  0
   21.3230    0.3270   51.3980 C   0  0  0  0  0  3  0  0  0  0  0  0
   17.7270    0.1630   51.6640 C   0  0  0  0  0  3  0  0  0  0  0  0
   17.1100   -0.9690   52.4550 C   0  0  0  0  0  2  0  0  0  0  0  0
   15.6340   -0.8930   52.3380 C   0  0  0  0  0  2  0  0  0  0  0  0
   15.0730   -0.5260   51.1030 N   0  0  0  0  0  0  0  0  0  0  0  0
   15.8750    0.0320   50.0940 C   0  0  0  0  0  2  0  0  0  0  0  0
   17.3580   -0.1200   50.2220 C   0  0  0  0  0  2  0  0  0  0  0  0
   13.8760   -1.1880   50.7250 C   0  0  0  0  0  2  0  0  0  0  0  0
   14.1570   -2.6580   50.5160 C   0  0  0  0  0  1  0  0  0  0  0  0
   25.8990    0.3750   54.1320 C   0  0  2  0  0  3  0  0  0  0  0  0
   25.9640    1.3580   53.0430 C   0  0  2  0  0  3  0  0  0  0  0  0
   26.3740    0.6680   51.9680 C   0  0  0  0  0  2  0  0  0  0  0  0
   26.5810   -0.7590   52.3300 C   0  0  0  0  0  2  0  0  0  0  0  0
   26.7940   -0.6930   53.7550 N   0  0  0  0  0  0  0  0  0  0  0  0
   28.1360   -0.3080   54.1130 C   0  0  0  0  0  1  0  0  0  0  0  0
   25.7220    2.7470   52.8570 N   0  0  0  0  0  0  0  0  0  0  0  0
   24.9890    3.1530   52.2510 H   0  0  0  0  0  0  0  0  0  0  0  0
   26.2710    3.5260   53.3240 H   0  0  0  0  0  0  0  0  0  0  0  0
   25.2360   -1.3890   56.3050 N   0  0  0  0  0  1  0  0  0  0  0  0
   26.0990   -1.9760   56.2910 H   0  0  0  0  0 15  0  0  0  0  0  0
   26.1130   -1.9470   56.3930 H   0  0  0  0  0  0  0  0  0  0  0  0
  1  2  1  0  0  0  0
  2  3  2  0  0  0  0
  4  3  1  0  0  0  0
  5  4  2  0  0  0  0
  6  1  2  0  0  0  0
  6  5  1  0  0  0  0
  7  8  2  0  0  0  0
  7  1  1  0  0  0  0
  9  8  1  0  0  0  0
 10 11  2  0  0  0  0
 10  9  1  0  0  0  0
 11  7  1  0  0  0  0
 12  9  1  0  0  0  0
 12 13  1  0  0  0  0
 14 13  1  0  0  0  0
 15 14  1  0  0  0  0
 16 17  1  0  0  0  0
 16 15  1  0  0  0  0
 17 12  1  0  0  0  0
 18 15  1  0  0  0  0
 19 18  1  0  0  0  0
 20  5  1  6  0  0  0
 21 26  1  1  0  0  0
 21 20  1  0  0  0  0
 22 23  1  0  0  0  0
 22 21  1  0  0  0  0
 23 24  1  0  0  0  0
 24 25  1  0  0  0  0
 24 20  1  0  0  0  0
 26 28  1  0  0  0  0
 27 26  1  0  0  0  0
 29 31  1  0  0  0  0
M  END
>  <TORSDO>
F 6

$$$$
