C:\Qe-CaDD\Project\Data\Stage_6_Molecular_Dynamics\ligands_top\out_20038_EGFR_extracted.pdbqt
 OpenBabel01082506443D

 25 28  0  0  1  0  0  0  0  0999 V2000
   24.8410    2.5750   52.1840 C   0  0  1  0  0  3  0  0  0  0  0  0
   23.3820    2.4590   52.5360 C   0  0  0  0  0  2  0  0  0  0  0  0
   23.3200    1.0320   52.9790 C   0  0  2  0  0  3  0  0  0  0  0  0
   24.5030    0.5780   53.1350 N   0  0  0  0  0  2  0  0  0  0  0  0
   25.4940    1.5100   52.8570 N   0  0  2  0  0  0  0  0  0  0  0  0
   22.0860    0.2820   53.1950 C   0  0  0  0  0  0  0  0  0  0  0  0
   20.9120    0.6690   52.5470 C   0  0  0  0  0  3  0  0  0  0  0  0
   19.7240   -0.0070   52.7180 C   0  0  0  0  0  3  0  0  0  0  0  0
   19.7570   -1.0760   53.5580 C   0  0  0  0  0  0  0  0  0  0  0  0
   18.2460   -1.9510   53.7860 Cl  0  0  0  0  0  0  0  0  0  0  0  0
   20.8740   -1.4930   54.2130 C   0  0  0  0  0  3  0  0  0  0  0  0
   22.0700   -0.8080   54.0380 C   0  0  0  0  0  3  0  0  0  0  0  0
   25.1150    2.7980   50.7500 C   0  0  2  0  0  3  0  0  0  0  0  0
   25.3370    4.0880   50.1390 C   0  0  0  0  0  0  0  0  0  0  0  0
   26.6680    4.2180   49.3970 C   0  0  0  0  0  1  0  0  0  0  0  0
   24.9250    5.3730   50.8210 C   0  0  0  0  0  1  0  0  0  0  0  0
   24.2710    3.7230   49.1970 C   0  0  0  0  0  2  0  0  0  0  0  0
   24.0810    2.5730   49.7500 C   0  0  0  0  0  2  0  0  0  0  0  0
   26.8350    1.2250   53.2850 C   0  0  2  0  0  3  0  0  0  0  0  0
   27.7220    2.1220   53.8880 N   0  0  0  0  0  0  0  0  0  0  0  0
   28.8810    1.5170   54.1300 C   0  0  0  0  0  0  0  0  0  0  0  0
   29.3130    0.1920   53.8820 C   0  0  0  0  0  2  0  0  0  0  0  0
   27.6600   -0.3410   53.1090 S   0  0  0  0  0  0  0  0  0  0  0  0
   29.7220    2.4780   54.7360 O   0  0  0  0  0  0  0  0  0  0  0  0
   30.7190    2.2990   54.7910 H   0  0  0  0  0  0  0  0  0  0  0  0
  1  2  1  6  0  0  0
  1  5  1  0  0  0  0
  2  3  1  0  0  0  0
  3  4  1  0  0  0  0
  3  6  1  6  0  0  0
  5  4  1  1  0  0  0
  5 19  1  0  0  0  0
  6 12  1  0  0  0  0
  7  8  1  0  0  0  0
  7  6  2  0  0  0  0
  8  9  2  0  0  0  0
  9 10  1  0  0  0  0
  9 11  1  0  0  0  0
 12 11  2  0  0  0  0
 13 18  1  6  0  0  0
 13  1  1  0  0  0  0
 14 13  1  0  0  0  0
 14 16  1  0  0  0  0
 15 14  1  0  0  0  0
 17 18  1  0  0  0  0
 17 14  1  0  0  0  0
 19 23  1  6  0  0  0
 19 20  1  0  0  0  0
 20 21  2  0  0  0  0
 21 24  1  0  0  0  0
 22 21  1  0  0  0  0
 23 22  1  0  0  0  0
 24 25  1  0  0  0  0
M  END
>  <TORSDO>
F 4

$$$$
