C:\Qe-CaDD\Project\Data\Stage_6_Molecular_Dynamics\ligands_top\out_11041_EGFR_extracted.pdbqt
 OpenBabel01082506443D

 29 31  0  0  0  0  0  0  0  0999 V2000
   25.0990    3.4060   49.7510 N   0  0  0  0  0  0  0  0  0  0  0  0
   24.6340    2.8210   49.0230 H   0  0  0  0  0  0  0  0  0  0  0  0
   24.9360    3.1640   51.1590 C   0  0  0  0  0  2  0  0  0  0  0  0
   26.1420    2.5270   51.6450 N   0  0  0  0  0  0  0  0  0  0  0  0
   26.0370    1.3820   52.2240 C   0  0  0  0  0  0  0  0  0  0  0  0
   24.6910    0.8950   52.3010 C   0  0  0  0  0  3  0  0  0  0  0  0
   23.9100    0.4440   53.2610 C   0  0  0  0  0  3  0  0  0  0  0  0
   22.6130   -0.0580   53.5030 N   0  0  0  0  0  2  0  0  0  0  0  0
   22.2850   -1.0360   54.7600 S   0  0  0  0  0  1  0  0  0  0  0  0
   27.2000    0.6890   52.7340 C   0  0  0  0  0  0  0  0  0  0  0  0
   27.4200   -0.6710   52.7870 C   0  0  0  0  0  3  0  0  0  0  0  0
   28.5660   -1.2320   53.2940 C   0  0  0  0  0  3  0  0  0  0  0  0
   29.5690   -0.4240   53.7840 C   0  0  0  0  0  3  0  0  0  0  0  0
   29.3600    0.9130   53.7350 N   0  0  0  0  0  0  0  0  0  0  0  0
   28.2530    1.4560   53.2460 C   0  0  0  0  0  3  0  0  0  0  0  0
   25.9190    4.4780   49.3020 C   0  0  0  0  0  0  0  0  0  0  0  0
   25.4670    5.7730   49.1790 C   0  0  0  0  0  3  0  0  0  0  0  0
   26.2980    6.8000   48.7360 C   0  0  0  0  0  3  0  0  0  0  0  0
   27.6100    6.5560   48.3990 C   0  0  0  0  0  3  0  0  0  0  0  0
   28.1070    5.2520   48.5090 C   0  0  0  0  0  0  0  0  0  0  0  0
   27.2380    4.2970   48.9510 C   0  0  0  0  0  3  0  0  0  0  0  0
   29.4270    4.9760   48.1770 O   0  0  0  0  0  0  0  0  0  0  0  0
   30.3370    6.0590   48.1530 C   0  0  0  0  0  2  0  0  0  0  0  0
   31.7050    5.6340   48.6760 C   0  0  0  0  0  2  0  0  0  0  0  0
   32.3210    4.8470   47.6080 N   0  0  0  0  0  0  0  0  0  0  0  0
   32.7740    3.5820   47.7250 C   0  0  0  0  0  3  0  0  0  0  0  0
   33.2950    3.1410   46.5220 C   0  0  0  0  0  3  0  0  0  0  0  0
   33.1310    4.1950   45.6970 N   0  0  0  0  0  0  0  0  0  0  0  0
   32.5520    5.2140   46.3340 C   0  0  0  0  0  3  0  0  0  0  0  0
  1  3  1  0  0  0  0
  2  1  1  0  0  0  0
  3  4  1  0  0  0  0
  4  5  2  0  0  0  0
  5  6  1  0  0  0  0
  5 10  1  0  0  0  0
  6  7  2  0  0  0  0
  7  8  1  0  0  0  0
  8  9  1  0  0  0  0
 10 11  2  0  0  0  0
 10 15  1  0  0  0  0
 11 12  1  0  0  0  0
 12 13  2  0  0  0  0
 14 13  1  0  0  0  0
 15 14  2  0  0  0  0
 16  1  1  0  0  0  0
 17 16  1  0  0  0  0
 18 17  2  0  0  0  0
 19 20  2  0  0  0  0
 19 18  1  0  0  0  0
 20 21  1  0  0  0  0
 21 16  2  0  0  0  0
 22 20  1  0  0  0  0
 23 22  1  0  0  0  0
 23 24  1  0  0  0  0
 25 26  1  0  0  0  0
 25 24  1  0  0  0  0
 27 26  2  0  0  0  0
 28 29  2  0  0  0  0
 28 27  1  0  0  0  0
 29 25  1  0  0  0  0
M  END
>  <TORSDO>
F 10

$$$$
