C:\Qe-CaDD\Project\Data\Stage_6_Molecular_Dynamics\ligands_top\out_11838_EGFR_extracted.pdbqt
 OpenBabel01082506443D

 28 30  0  0  1  0  0  0  0  0999 V2000
   23.9140    1.7670   51.5570 C   0  0  0  0  0  0  0  0  0  0  0  0
   22.6430    1.2820   51.5910 C   0  0  0  0  0  3  0  0  0  0  0  0
   22.2740    0.2360   52.4090 C   0  0  0  0  0  3  0  0  0  0  0  0
   23.2530   -0.3240   53.2150 C   0  0  0  0  0  3  0  0  0  0  0  0
   24.5430    0.1510   53.1960 C   0  0  0  0  0  0  0  0  0  0  0  0
   24.9020    1.1990   52.3730 C   0  0  0  0  0  3  0  0  0  0  0  0
   24.4620    2.8250   50.7520 N   0  0  0  0  0  0  0  0  0  0  0  0
   24.8100    2.1950   49.9670 H   0  0  0  0  0  0  0  0  0  0  0  0
   24.5970    4.2350   50.7980 C   0  0  2  0  0  3  0  0  0  0  0  0
   25.4740    4.9520   50.1480 C   0  0  0  0  0  0  0  0  0  0  0  0
   25.6150    6.3930   50.1910 C   0  0  0  0  0  0  0  0  0  0  0  0
   26.4160    4.1730   49.2680 C   0  0  0  0  0  3  0  0  0  0  0  0
   26.4560    7.1200   49.4860 C   0  0  0  0  0  3  0  0  0  0  0  0
   27.3940    6.4480   48.5650 C   0  0  0  0  0  3  0  0  0  0  0  0
   27.2780    5.1510   48.5590 C   0  0  0  0  0  3  0  0  0  0  0  0
   24.6900    6.9890   51.0990 N   0  0  0  0  0  0  0  0  0  0  0  0
   23.9400    8.1040   50.5400 C   0  0  0  0  0  1  0  0  0  0  0  0
   24.7280    6.5050   52.0080 H   0  0  0  0  0  0  0  0  0  0  0  0
   23.6200    4.7580   51.6710 O   0  0  0  0  0  0  0  0  0  0  0  0
   23.4510    4.2180   52.5070 H   0  0  0  0  0  0  0  0  0  0  0  0
   25.5170   -0.4980   54.0270 C   0  0  0  0  0  0  0  0  0  0  0  0
   25.1030   -1.1150   55.0680 O   0  0  0  0  0  0  0  0  0  0  0  0
   26.9490   -0.5780   53.8890 C   0  0  0  0  0  0  0  0  0  0  0  0
   27.6870    0.3640   54.5950 C   0  0  0  0  0  3  0  0  0  0  0  0
   29.0760    0.3950   54.5320 C   0  0  0  0  0  3  0  0  0  0  0  0
   29.7910   -0.5100   53.7650 C   0  0  0  0  0  3  0  0  0  0  0  0
   29.0250   -1.4500   53.0640 C   0  0  0  0  0  3  0  0  0  0  0  0
   27.6400   -1.4880   53.1210 C   0  0  0  0  0  3  0  0  0  0  0  0
  1  2  2  0  0  0  0
  1  6  1  0  0  0  0
  2  3  1  0  0  0  0
  3  4  2  0  0  0  0
  5  4  1  0  0  0  0
  5 21  1  0  0  0  0
  6  5  2  0  0  0  0
  7  9  1  0  0  0  0
  7  1  1  0  0  0  0
  8  7  1  0  0  0  0
  9 19  1  1  0  0  0
 10 11  1  0  0  0  0
 10  9  1  0  0  0  0
 11 16  1  0  0  0  0
 12 10  2  0  0  0  0
 13 11  2  0  0  0  0
 14 13  1  0  0  0  0
 15 14  2  0  0  0  0
 15 12  1  0  0  0  0
 16 18  1  0  0  0  0
 17 16  1  0  0  0  0
 19 20  1  0  0  0  0
 21 22  2  0  0  0  0
 23 21  1  0  0  0  0
 23 24  1  0  0  0  0
 25 24  2  0  0  0  0
 26 25  1  0  0  0  0
 27 28  1  0  0  0  0
 27 26  2  0  0  0  0
 28 23  2  0  0  0  0
M  END
>  <TORSDO>
F 6

$$$$
