C:\Qe-CaDD\Project\Data\Stage_6_Molecular_Dynamics\ligands_top\out_12434_EGFR_extracted.pdbqt
 OpenBabel01082506443D

 24 24  0  0  0  0  0  0  0  0999 V2000
   28.6060   -2.3500   53.4380 N   0  0  0  0  0  0  0  0  0  0  0  0
   29.2100   -1.3840   53.4070 C   0  0  0  0  0  0  0  0  0  0  0  0
   29.9780   -0.1160   53.3810 C   0  0  0  0  0  2  0  0  0  0  0  0
   29.1760    0.9480   54.0240 C   0  0  0  0  0  0  0  0  0  0  0  0
   29.5050    1.4330   55.2270 F   0  0  0  0  0  0  0  0  0  0  0  0
   28.1160    1.5140   53.5450 C   0  0  0  0  0  3  0  0  0  0  0  0
   27.2760    1.4540   52.3640 C   0  0  0  0  0  3  0  0  0  0  0  0
   26.0990    1.2390   51.7080 C   0  0  0  0  0  2  0  0  0  0  0  0
   25.8030    1.1320   51.9320 C   0  0  0  0  0  3  0  0  0  0  0  0
   25.1930    0.7730   53.0630 C   0  0  0  0  0  2  0  0  0  0  0  0
   25.3020    0.9590   52.3260 P   0  0  0  0  0  4  0  0  0  0  0  0
   24.7620    0.7580   52.7640 N   0  0  0  0  0  0  0  0  0  0  0  0
   24.4540   -0.6220   53.9850 C   0  0  0  0  0  2  0  0  0  0  0  0
   23.6220    0.4310   53.6170 N   0  0  0  0  0  0  0  0  0  0  0  0
   25.8520   -0.4280   53.6250 N   0  0  0  0  0  0  0  0  0  0  0  0
   26.6000   -1.1640   53.8980 H   0  0  0  0  0  0  0  0  0  0  0  0
   22.1470    0.5180   53.2420 C   0  0  0  0  0  3  0  0  0  0  0  0
   21.2620   -0.4750   52.9310 C   0  0  0  0  0  3  0  0  0  0  0  0
   19.9370   -0.1720   52.6050 C   0  0  0  0  0  0  0  0  0  0  0  0
   19.3630    0.5700   51.6810 C   0  0  0  0  0  3  0  0  0  0  0  0
   18.0290    0.8240   51.4150 O   0  0  0  0  0  0  0  0  0  0  0  0
   17.0350    0.1060   52.0830 C   0  0  0  0  0  2  0  0  0  0  0  0
   17.6530   -1.0590   52.8170 C   0  0  0  0  0  2  0  0  0  0  0  0
   18.9240   -0.7350   53.3700 O   0  0  0  0  0  0  0  0  0  0  0  0
  2  1  3  0  0  0  0
  3  2  1  0  0  0  0
  3  4  1  0  0  0  0
  4  5  1  0  0  0  0
  6  4  2  0  0  0  0
  7  6  1  0  0  0  0
  8  7  2  0  0  0  0
  9 11  3  0  0  0  0
 10 15  1  0  0  0  0
 11 12  1  0  0  0  0
 12 10  1  0  0  0  0
 12 14  1  0  0  0  0
 14 13  1  0  0  0  0
 15 16  1  0  0  0  0
 15 13  1  0  0  0  0
 17 14  1  0  0  0  0
 18 17  2  0  0  0  0
 19 18  1  0  0  0  0
 19 24  1  0  0  0  0
 20 19  2  0  0  0  0
 21 20  1  0  0  0  0
 21 22  1  0  0  0  0
 22 23  1  0  0  0  0
 23 24  1  0  0  0  0
M  END
>  <TORSDO>
F 6

$$$$
