C:\Qe-CaDD\Project\Data\Stage_6_Molecular_Dynamics\ligands_top\out_16438_EGFR_extracted.pdbqt
 OpenBabel01082506443D

 34 39  0  0  1  0  0  0  0  0999 V2000
   21.4770    3.8080   51.6520 C   0  0  0  0  0  0  0  0  0  0  0  0
   20.8880    4.9950   51.1580 C   0  0  0  0  0  3  0  0  0  0  0  0
   21.7680    5.7210   50.3900 C   0  0  0  0  0  3  0  0  0  0  0  0
   22.8910    4.9940   50.4090 N   0  0  0  0  0  0  0  0  0  0  0  0
   24.0290    5.1880   49.8060 N   0  0  0  0  0  0  0  0  0  0  0  0
   25.0290    4.3410   49.8870 C   0  0  0  0  0  3  0  0  0  0  0  0
   24.8910    3.2440   50.6110 N   0  0  0  0  0  0  0  0  0  0  0  0
   23.7440    2.9680   51.2720 C   0  0  0  0  0  0  0  0  0  0  0  0
   22.7360    3.8870   51.1410 C   0  0  0  0  0  0  0  0  0  0  0  0
   23.7670    1.7400   52.0290 C   0  0  0  0  0  0  0  0  0  0  0  0
   23.0530    0.6960   52.3410 C   0  0  0  0  0  3  0  0  0  0  0  0
   23.1420   -0.5190   53.1100 C   0  0  0  0  0  3  0  0  0  0  0  0
   24.3030   -0.6610   53.7100 C   0  0  0  0  0  2  0  0  0  0  0  0
   25.2220    0.3860   53.4910 N   0  0  0  0  0  0  0  0  0  0  0  0
   25.1310    1.5090   52.6240 C   0  0  0  0  0  0  0  0  0  0  0  0
   26.5110    0.7330   53.9930 C   0  0  2  0  0  3  0  0  0  0  0  0
   25.6120    2.6930   53.3350 C   0  0  0  0  0  2  0  0  0  0  0  0
   26.4520    2.1810   54.1610 N   0  0  0  0  0  2  0  0  0  0  0  0
   27.6640    0.3660   53.1200 C   0  0  2  0  0  3  0  0  0  0  0  0
   27.6650   -1.1040   52.8120 C   0  0  0  0  0  3  0  0  0  0  0  0
   28.7330   -1.6970   53.3210 C   0  0  0  0  0  3  0  0  0  0  0  0
   29.5620   -0.6940   54.0230 C   0  0  0  0  0  3  0  0  0  0  0  0
   28.9310    0.4680   53.8910 C   0  0  0  0  0  0  0  0  0  0  0  0
   29.2360    1.7150   54.3340 F   0  0  0  0  0  0  0  0  0  0  0  0
   20.6340    2.8830   52.3640 C   0  0  0  0  0  2  0  0  0  0  0  0
   19.5680    2.3950   51.5260 N   0  0  0  0  0  0  0  0  0  0  0  0
   18.2490    2.7780   51.8180 C   0  0  0  0  0  2  0  0  0  0  0  0
   17.2660    2.0750   50.8780 C   0  0  0  0  0  2  0  0  0  0  0  0
   17.3780    0.5780   50.9420 C   0  0  2  0  0  3  0  0  0  0  0  0
   18.6640    0.1830   51.6660 C   0  0  0  0  0  2  0  0  0  0  0  0
   19.7550    1.0450   51.0680 C   0  0  0  0  0  2  0  0  0  0  0  0
   17.4160    0.0730   49.5870 N   0  0  0  0  0  0  0  0  0  0  0  0
   16.5180   -0.3280   49.2860 H   0  0  0  0  0  0  0  0  0  0  0  0
   18.1880   -0.6300   49.4430 H   0  0  0  0  0  0  0  0  0  0  0  0
  1 25  1  0  0  0  0
  2  1  1  0  0  0  0
  3  4  1  0  0  0  0
  3  2  2  0  0  0  0
  4  9  1  0  0  0  0
  5  6  2  0  0  0  0
  5  4  1  0  0  0  0
  6  7  1  0  0  0  0
  7  8  2  0  0  0  0
  8 10  1  0  0  0  0
  9  8  1  0  0  0  0
  9  1  2  0  0  0  0
 10 11  1  0  0  0  0
 10 15  2  0  0  0  0
 11 12  2  0  0  0  0
 12 13  1  0  0  0  0
 14 13  1  0  0  0  0
 14 16  1  0  0  0  0
 15 17  1  0  0  0  0
 15 14  1  0  0  0  0
 16 18  1  6  0  0  0
 17 18  1  0  0  0  0
 19 20  1  1  0  0  0
 19 23  1  0  0  0  0
 19 16  1  0  0  0  0
 20 21  2  0  0  0  0
 21 22  1  0  0  0  0
 23 22  2  0  0  0  0
 23 24  1  0  0  0  0
 26 27  1  0  0  0  0
 26 25  1  0  0  0  0
 28 29  1  0  0  0  0
 28 27  1  0  0  0  0
 29 32  1  6  0  0  0
 29 30  1  0  0  0  0
 31 26  1  0  0  0  0
 31 30  1  0  0  0  0
 33 32  1  0  0  0  0
 34 32  1  0  0  0  0
M  END
>  <TORSDO>
F 5

$$$$
