C:\Qe-CaDD\Project\Data\Stage_6_Molecular_Dynamics\ligands_top\out_22013_EGFR_extracted.pdbqt
 OpenBabel01082506443D

 25 26  0  0  1  0  0  0  0  0999 V2000
   24.9280    3.1990   50.2110 N   0  0  0  0  0  0  0  0  0  0  0  0
   24.2910    2.4520   50.8900 C   0  0  0  0  0  0  0  0  0  0  0  0
   23.4840    1.5250   51.7110 C   0  0  0  0  0  0  0  0  0  0  0  0
   22.1660    1.4060   51.5330 C   0  0  0  0  0  0  0  0  0  0  0  0
   20.7770    0.9550   51.6960 C   0  0  0  0  0  3  0  0  0  0  0  0
   20.2390    0.0820   52.5180 C   0  0  0  0  0  0  0  0  0  0  0  0
   20.5890   -0.8450   53.6170 C   0  0  0  0  0  0  0  0  0  0  0  0
   21.7230   -1.1720   54.2530 C   0  0  0  0  0  3  0  0  0  0  0  0
   23.1730   -0.8890   54.3010 C   0  0  0  0  0  3  0  0  0  0  0  0
   23.8790   -0.0500   53.5360 C   0  0  0  0  0  2  0  0  0  0  0  0
   24.4820    0.9020   52.6220 C   0  0  2  0  0  3  0  0  0  0  0  0
   25.2040    2.0020   53.2930 N   0  0  0  0  0  0  0  0  0  0  0  0
   25.1950    2.9730   53.6690 H   0  0  0  0  0  0  0  0  0  0  0  0
   26.5290    1.6410   53.6130 C   0  0  0  0  0  0  0  0  0  0  0  0
   27.6800    1.9990   53.0120 C   0  0  0  0  0  0  0  0  0  0  0  0
   28.9720    1.5020   53.5080 C   0  0  0  0  0  2  0  0  0  0  0  0
   29.0220    0.3820   54.1760 C   0  0  0  0  0  3  0  0  0  0  0  0
   27.9430    0.0130   54.8380 C   0  0  0  0  0  3  0  0  0  0  0  0
   26.6190    0.7360   54.7810 C   0  0  0  0  0  2  0  0  0  0  0  0
   27.4580    2.8530   51.9280 O   0  0  0  0  0  0  0  0  0  0  0  0
   26.8460    2.5290   51.1930 H   0  0  0  0  0  0  0  0  0  0  0  0
   18.8430    0.0100   52.2640 O   0  0  0  0  0  0  0  0  0  0  0  0
   18.4670   -0.1920   51.3630 H   0  0  0  0  0  0  0  0  0  0  0  0
   19.4820   -1.5690   54.1350 O   0  0  0  0  0  0  0  0  0  0  0  0
   19.0400   -2.2160   53.4690 H   0  0  0  0  0  0  0  0  0  0  0  0
  1  2  3  0  0  0  0
  2  3  1  0  0  0  0
  3 11  1  0  0  0  0
  4  5  2  0  0  0  0
  4  3  2  0  0  0  0
  5  6  1  0  0  0  0
  6  7  2  0  0  0  0
  7 24  1  0  0  0  0
  7  8  1  0  0  0  0
  8  9  2  0  0  0  0
 10  9  1  0  0  0  0
 11 12  1  1  0  0  0
 11 10  1  0  0  0  0
 12 14  1  0  0  0  0
 12 13  1  0  0  0  0
 14 19  1  0  0  0  0
 15 16  1  0  0  0  0
 15 14  2  0  0  0  0
 16 17  1  0  0  0  0
 17 18  2  0  0  0  0
 19 18  1  0  0  0  0
 20 15  1  0  0  0  0
 21 20  1  0  0  0  0
 22  6  1  0  0  0  0
 23 22  1  0  0  0  0
 25 24  1  0  0  0  0
M  END
>  <TORSDO>
F 5

$$$$
