C:\Qe-CaDD\Project\Data\Stage_6_Molecular_Dynamics\ligands_top\out_20800_EGFR_extracted.pdbqt
 OpenBabel01082506443D

 23 23  0  0  1  0  0  0  0  0999 V2000
   26.2790    2.7750   50.1550 N   0  0  0  0  0  0  0  0  0  0  0  0
   26.3950    2.5290   51.4230 C   0  0  0  0  0  3  0  0  0  0  0  0
   26.6960    4.0070   49.5840 C   0  0  0  0  0  3  0  0  0  0  0  0
   27.2930    4.6680   48.6500 N   0  0  0  0  0  0  0  0  0  0  0  0
   27.3200    6.0430   48.7470 C   0  0  0  0  0  2  0  0  0  0  0  0
   27.3320    7.8930   48.8960 S   0  0  0  0  0  0  0  0  0  0  0  0
   27.3150    9.7290   49.0310 C   0  0  0  0  0  0  0  0  0  0  0  0
   27.2920   11.1040   49.1090 N   0  0  0  0  0  0  0  0  0  0  0  0
   28.3780   11.7700   49.0430 C   0  0  0  0  0  0  0  0  0  0  0  0
   29.6860   11.1580   48.8850 C   0  0  0  0  0  3  0  0  0  0  0  0
   30.7240   11.9370   49.0290 C   0  0  0  0  0  2  0  0  0  0  0  0
   28.1740   13.1380   49.1380 O   0  0  0  0  0  0  0  0  0  0  0  0
   27.3750   13.8300   48.1860 C   0  0  0  0  0  1  0  0  0  0  0  0
   25.9420    1.2650   51.8570 N   0  0  0  0  0  0  0  0  0  0  0  0
   24.9560    1.0650   52.0810 H   0  0  0  0  0  0  0  0  0  0  0  0
   26.9030    0.1840   52.0000 C   0  0  1  0  0  3  0  0  0  0  0  0
   27.9690    0.6550   52.9240 C   0  0  0  0  0  2  0  0  0  0  0  0
   27.5250    0.6360   54.1750 C   0  0  2  0  0  3  0  0  0  0  0  0
   26.1860    0.2180   54.5920 C   0  0  0  0  0  2  0  0  0  0  0  0
   25.5760   -0.7200   53.7950 O   0  0  0  0  0  0  0  0  0  0  0  0
   26.2720   -1.0290   52.6380 C   0  0  0  0  0  2  0  0  0  0  0  0
   28.4890    1.0700   55.0790 O   0  0  0  0  0  0  0  0  0  0  0  0
   29.5010    1.9340   54.5780 C   0  0  0  0  0  1  0  0  0  0  0  0
  1  2  2  0  0  0  0
  2 14  1  0  0  0  0
  3  1  1  0  0  0  0
  4  5  1  0  0  0  0
  4  3  2  0  0  0  0
  5  6  1  0  0  0  0
  6  7  3  0  0  0  0
  7  8  1  0  0  0  0
  9  8  2  0  0  0  0
  9 12  1  0  0  0  0
 10 11  2  0  0  0  0
 10  9  1  0  0  0  0
 13 12  1  0  0  0  0
 14 15  1  0  0  0  0
 16 14  1  1  0  0  0
 16 21  1  0  0  0  0
 16 17  1  0  0  0  0
 17 18  1  0  0  0  0
 18 19  1  0  0  0  0
 18 22  1  6  0  0  0
 20 19  1  0  0  0  0
 21 20  1  0  0  0  0
 23 22  1  0  0  0  0
M  END
>  <TORSDO>
F 10

$$$$
