C:\Qe-CaDD\Project\Data\Stage_6_Molecular_Dynamics\ligands_top\out_16587_EGFR_extracted.pdbqt
 OpenBabel01082506443D

 23 26  0  0  1  0  0  0  0  0999 V2000
   22.0410    4.4480   52.3220 C   0  0  0  0  0  2  0  0  0  0  0  0
   21.9580    4.4480   51.0320 N   0  0  0  0  0  2  0  0  0  0  0  0
   20.7040    4.1390   50.3650 C   0  0  0  0  0  2  0  0  0  0  0  0
   20.4550    2.7630   50.5170 N   0  0  0  0  0  0  0  0  0  0  0  0
   21.2140    1.7820   49.8660 C   0  0  0  0  0  2  0  0  0  0  0  0
   22.6060    1.6320   50.2850 C   0  0  0  0  0  2  0  0  0  0  0  0
   23.6020    2.6400   50.0060 C   0  0  1  0  0  3  0  0  0  0  0  0
   24.5540    2.4140   50.9410 C   0  0  0  0  0  2  0  0  0  0  0  0
   26.0270    2.5920   50.9580 C   0  0  0  0  0  0  0  0  0  0  0  0
   26.8000    3.3710   50.2350 N   0  0  0  0  0  0  0  0  0  0  0  0
   26.4710    4.4060   49.2300 C   0  0  0  0  0  2  0  0  0  0  0  0
   25.4360    5.2650   49.6960 N   0  0  1  0  0  0  0  0  0  0  0  0
   24.0990    5.0230   49.3280 C   0  0  1  0  0  3  0  0  0  0  0  0
   23.6640    3.6740   48.9660 C   0  0  0  0  0  2  0  0  0  0  0  0
   24.4820    5.0880   51.0900 S   0  0  1  0  0  3  0  0  0  0  0  0
   23.4510    4.8070   52.2990 C   0  0  0  0  0  2  0  0  0  0  0  0
   19.5970    2.4750   51.0130 H   0  0  0  0  0  0  0  0  0  0  0  0
   26.7680    1.7920   51.9160 C   0  0  0  0  0  0  0  0  0  0  0  0
   26.4710    0.4460   51.8680 C   0  0  0  0  0  3  0  0  0  0  0  0
   27.1000   -0.4520   52.7340 C   0  0  0  0  0  3  0  0  0  0  0  0
   28.0300   -0.0320   53.6600 C   0  0  0  0  0  3  0  0  0  0  0  0
   28.3160    1.3140   53.6970 C   0  0  0  0  0  3  0  0  0  0  0  0
   27.6830    2.1660   52.8350 C   0  0  0  0  0  3  0  0  0  0  0  0
  2  1  1  0  0  0  0
  3  4  1  0  0  0  0
  3  2  1  0  0  0  0
  4 17  1  0  0  0  0
  5  6  1  0  0  0  0
  5  4  1  0  0  0  0
  7 14  1  6  0  0  0
  7  6  1  0  0  0  0
  7  8  1  0  0  0  0
  8  9  1  0  0  0  0
  9 18  1  0  0  0  0
 10  9  2  0  0  0  0
 11 10  1  0  0  0  0
 12 11  1  6  0  0  0
 12 15  1  0  0  0  0
 13 14  1  6  0  0  0
 13 12  1  0  0  0  0
 13 15  1  0  0  0  0
 15 16  1  6  0  0  0
 16  1  1  0  0  0  0
 18 23  1  0  0  0  0
 19 18  2  0  0  0  0
 19 20  1  0  0  0  0
 20 21  2  0  0  0  0
 21 22  1  0  0  0  0
 23 22  2  0  0  0  0
M  END
>  <TORSDO>
F 1

$$$$
