C:\Qe-CaDD\Project\Data\Stage_6_Molecular_Dynamics\ligands_top\out_12410_EGFR_extracted.pdbqt
 OpenBabel01082506443D

 28 31  0  0  1  0  0  0  0  0999 V2000
   26.4140    0.3300   52.4610 C   0  0  0  0  0  0  0  0  0  0  0  0
   26.8410    1.4120   51.6850 C   0  0  0  0  0  2  0  0  0  0  0  0
   25.9560    2.3520   51.1370 C   0  0  0  0  0  0  0  0  0  0  0  0
   24.6410    2.0810   51.4510 C   0  0  0  0  0  0  0  0  0  0  0  0
   24.2360    1.0200   52.2100 C   0  0  1  0  0  3  0  0  0  0  0  0
   25.1050    0.1070   52.7420 C   0  0  0  0  0  0  0  0  0  0  0  0
   24.4350   -0.8410   53.4500 O   0  0  0  0  0  0  0  0  0  0  0  0
   23.2550   -0.6780   54.1730 C   0  0  0  0  0  2  0  0  0  0  0  0
   22.2960    0.2960   53.5300 C   0  0  0  0  0  2  0  0  0  0  0  0
   22.8760    0.9330   52.4050 O   0  0  0  0  0  0  0  0  0  0  0  0
   24.0050    3.0460   50.8700 C   0  0  0  0  0  0  0  0  0  0  0  0
   23.1200    4.0220   50.3070 C   0  0  0  0  0  0  0  0  0  0  0  0
   22.7900    5.2310   50.8720 C   0  0  0  0  0  2  0  0  0  0  0  0
   23.7200    6.1710   50.1070 C   0  0  0  0  0  2  0  0  0  0  0  0
   24.3500    5.4220   49.0390 N   0  0  1  0  0  0  0  0  0  0  0  0
   25.7480    5.2840   49.1550 N   0  0  0  0  0  2  0  0  0  0  0  0
   26.2400    4.2760   49.8010 C   0  0  0  0  0  2  0  0  0  0  0  0
   26.6920    3.1770   50.5030 N   0  0  0  0  0  0  0  0  0  0  0  0
   23.2630    4.9740   48.1350 C   0  0  2  0  0  3  0  0  0  0  0  0
   22.3120    6.4080   47.7300 Cl  0  0  0  0  0  0  0  0  0  0  0  0
   22.4240    3.9480   48.9420 C   0  0  1  0  0  3  0  0  0  0  0  0
   22.4640    2.5870   48.3580 C   0  0  0  0  0  1  0  0  0  0  0  0
   27.3300   -0.5320   52.9560 O   0  0  0  0  0  0  0  0  0  0  0  0
   28.5900   -0.4170   53.4400 C   0  0  2  0  0  3  0  0  0  0  0  0
   29.3910   -1.7200   53.3680 C   0  0  0  0  0  1  0  0  0  0  0  0
   28.6390   -0.0370   54.9270 C   0  0  0  0  0  2  0  0  0  0  0  0
   28.4240    1.3370   55.0060 O   0  0  0  0  0  0  0  0  0  0  0  0
   29.4250    1.9890   54.3000 C   0  0  0  0  0  1  0  0  0  0  0  0
  1  6  2  0  0  0  0
  1 23  1  0  0  0  0
  2  1  1  0  0  0  0
  3  4  1  0  0  0  0
  3  2  1  0  0  0  0
  5  4  1  1  0  0  0
  5 10  1  0  0  0  0
  5  6  1  0  0  0  0
  6  7  1  0  0  0  0
  7  8  1  0  0  0  0
  9  8  1  0  0  0  0
 10  9  1  0  0  0  0
 11  4  2  0  0  0  0
 12 11  2  0  0  0  0
 12 13  1  0  0  0  0
 14 13  1  0  0  0  0
 15 16  1  0  0  0  0
 15 14  1  1  0  0  0
 16 17  1  0  0  0  0
 17 18  1  0  0  0  0
 18  3  2  0  0  0  0
 19 20  1  1  0  0  0
 19 21  1  0  0  0  0
 19 15  1  0  0  0  0
 21 22  1  6  0  0  0
 21 12  1  0  0  0  0
 23 24  1  0  0  0  0
 24 25  1  1  0  0  0
 24 26  1  0  0  0  0
 26 27  1  0  0  0  0
 28 27  1  0  0  0  0
M  END
>  <TORSDO>
F 4

$$$$
