C:\Qe-CaDD\Project\Data\Stage_6_Molecular_Dynamics\ligands_top\out_21914_EGFR_extracted.pdbqt
 OpenBabel01082506443D

 33 34  0  0  1  0  0  0  0  0999 V2000
   29.9070    0.8510   54.2000 C   0  0  0  0  0  1  0  0  0  0  0  0
   28.6040    0.5640   53.4790 C   0  0  0  0  0  0  0  0  0  0  0  0
   27.9070    1.6510   53.2300 C   0  0  0  0  0  3  0  0  0  0  0  0
   26.6640    2.1310   52.6190 C   0  0  0  0  0  0  0  0  0  0  0  0
   27.0880    2.3280   51.3880 N   0  0  0  0  0  0  0  0  0  0  0  0
   26.2930    2.8220   50.3210 C   0  0  0  0  0  3  0  0  0  0  0  0
   25.0190    3.1660   50.4310 C   0  0  0  0  0  0  0  0  0  0  0  0
   24.3110    3.6360   49.3160 C   0  0  0  0  0  0  0  0  0  0  0  0
   23.7120    4.0220   48.4080 N   0  0  0  0  0  0  0  0  0  0  0  0
   24.4500    3.1100   51.8040 C   0  0  0  0  0  0  0  0  0  0  0  0
   25.3070    2.4190   52.7500 C   0  0  0  0  0  0  0  0  0  0  0  0
   24.6800    1.9540   53.8430 C   0  0  0  0  0  2  0  0  0  0  0  0
   24.0750    0.8490   53.4730 C   0  0  2  0  0  3  0  0  0  0  0  0
   25.1440   -0.1130   53.2770 C   0  0  0  0  0  0  0  0  0  0  0  0
   25.8750   -0.3690   52.3100 O   0  0  0  0  0  0  0  0  0  0  0  0
   25.9040   -1.1730   53.9070 N   0  0  0  0  0  2  0  0  0  0  0  0
   27.1540   -1.6800   52.7010 S   0  0  0  0  0  1  0  0  0  0  0  0
   28.6620   -0.8870   53.4020 C   0  0  0  0  0  2  0  0  0  0  0  0
   25.3550   -1.1460   54.7930 H   0  0  0  0  0  0  0  0  0  0  0  0
   24.0140    4.3950   52.3040 N   0  0  0  0  0  0  0  0  0  0  0  0
   24.1730    4.4590   53.3550 H   0  0  0  0  0  0  0  0  0  0  0  0
   23.4430    5.5270   51.6790 C   0  0  0  0  0  0  0  0  0  0  0  0
   22.1200    5.7290   51.4380 C   0  0  0  0  0  3  0  0  0  0  0  0
   21.5780    6.8300   50.8110 C   0  0  0  0  0  3  0  0  0  0  0  0
   22.4520    7.8090   50.3920 C   0  0  0  0  0  0  0  0  0  0  0  0
   22.0070    8.9230   49.7690 F   0  0  0  0  0  0  0  0  0  0  0  0
   23.7920    7.6520   50.6120 C   0  0  0  0  0  0  0  0  0  0  0  0
   24.8970    8.8960   50.0800 Cl  0  0  0  0  0  0  0  0  0  0  0  0
   24.2790    6.5320   51.2430 C   0  0  0  0  0  3  0  0  0  0  0  0
   22.9540   -0.0250   53.1140 C   0  0  0  0  0  2  0  0  0  0  0  0
   22.0150   -0.2050   54.1860 N   0  0  0  0  0  0  0  0  0  0  0  0
   20.7920    0.5390   53.9360 C   0  0  0  0  0  1  0  0  0  0  0  0
   21.6860   -1.6000   54.3620 C   0  0  0  0  0  1  0  0  0  0  0  0
  2  1  1  0  0  0  0
  3  2  2  0  0  0  0
  4 11  1  0  0  0  0
  4  3  1  0  0  0  0
  5  4  2  0  0  0  0
  6  7  2  0  0  0  0
  6  5  1  0  0  0  0
  7 10  1  0  0  0  0
  8  7  1  0  0  0  0
  9  8  3  0  0  0  0
 10 20  1  0  0  0  0
 10 11  2  0  0  0  0
 11 12  1  0  0  0  0
 13 30  1  6  0  0  0
 13 12  1  0  0  0  0
 14 13  1  0  0  0  0
 14 16  1  0  0  0  0
 15 14  2  0  0  0  0
 16 19  1  0  0  0  0
 17 18  1  0  0  0  0
 18  2  1  0  0  0  0
 20 21  1  0  0  0  0
 22 20  1  0  0  0  0
 23 22  1  0  0  0  0
 24 23  2  0  0  0  0
 25 27  2  0  0  0  0
 25 24  1  0  0  0  0
 26 25  1  0  0  0  0
 27 29  1  0  0  0  0
 28 27  1  0  0  0  0
 29 22  2  0  0  0  0
 30 31  1  0  0  0  0
 31 33  1  0  0  0  0
 32 31  1  0  0  0  0
M  END
>  <TORSDO>
F 4

$$$$
