C:\Qe-CaDD\Project\Data\Stage_6_Molecular_Dynamics\ligands_top\out_22336_EGFR_extracted.pdbqt
 OpenBabel01082506443D

 31 34  0  0  0  0  0  0  0  0999 V2000
   19.9290   -0.2660   52.7630 C   0  0  0  0  0  0  0  0  0  0  0  0
   20.3650   -0.9240   53.8940 C   0  0  0  0  0  3  0  0  0  0  0  0
   21.7000   -0.9050   54.2050 C   0  0  0  0  0  0  0  0  0  0  0  0
   22.1670   -1.5350   55.3040 N   0  0  0  0  0  0  0  0  0  0  0  0
   23.4780   -1.5060   55.5950 C   0  0  0  0  0  3  0  0  0  0  0  0
   24.3730   -0.8530   54.8080 N   0  0  0  0  0  0  0  0  0  0  0  0
   23.9630   -0.2000   53.6890 C   0  0  0  0  0  0  0  0  0  0  0  0
   22.6150   -0.2340   53.3970 C   0  0  0  0  0  0  0  0  0  0  0  0
   22.1770    0.4330   52.2510 C   0  0  0  0  0  3  0  0  0  0  0  0
   20.8150    0.4130   51.9340 C   0  0  0  0  0  0  0  0  0  0  0  0
   24.8950    0.4850   52.8640 N   0  0  0  0  0  0  0  0  0  0  0  0
   24.4420    1.0070   52.1010 H   0  0  0  0  0  0  0  0  0  0  0  0
   26.2990    0.4390   53.0890 C   0  0  0  0  0  0  0  0  0  0  0  0
   26.9450    1.6180   53.3930 C   0  0  0  0  0  3  0  0  0  0  0  0
   28.3270    1.5470   53.6080 C   0  0  0  0  0  3  0  0  0  0  0  0
   28.9630    0.3180   53.5090 C   0  0  0  0  0  0  0  0  0  0  0  0
   30.3060    0.2140   53.7140 F   0  0  0  0  0  0  0  0  0  0  0  0
   28.2880   -0.8480   53.2030 C   0  0  0  0  0  0  0  0  0  0  0  0
   29.0710   -2.4030   53.0720 Cl  0  0  0  0  0  0  0  0  0  0  0  0
   26.9270   -0.7870   52.9880 C   0  0  0  0  0  3  0  0  0  0  0  0
   20.2260    1.0210   50.8430 O   0  0  0  0  0  0  0  0  0  0  0  0
   20.8300    1.3190   49.6230 C   0  0  0  0  0  2  0  0  0  0  0  0
   21.0370    2.8260   49.4880 C   0  0  0  0  0  2  0  0  0  0  0  0
   22.1950    3.3210   50.1220 N   0  0  0  0  0  0  0  0  0  0  0  0
   22.0270    3.9370   51.3850 C   0  0  0  0  0  2  0  0  0  0  0  0
   23.2850    4.2740   52.1090 C   0  0  0  0  0  2  0  0  0  0  0  0
   24.3720    3.4800   51.8260 O   0  0  0  0  0  0  0  0  0  0  0  0
   24.5460    3.4750   50.4240 C   0  0  0  0  0  2  0  0  0  0  0  0
   23.4090    2.6200   49.9040 C   0  0  0  0  0  2  0  0  0  0  0  0
   18.5790   -0.3170   52.4960 O   0  0  0  0  0  0  0  0  0  0  0  0
   17.7570   -1.2700   53.1290 C   0  0  0  0  0  1  0  0  0  0  0  0
  1  2  1  0  0  0  0
  2  3  2  0  0  0  0
  3  4  1  0  0  0  0
  4  5  2  0  0  0  0
  6  5  1  0  0  0  0
  7  6  2  0  0  0  0
  8  7  1  0  0  0  0
  8  3  1  0  0  0  0
  9  8  2  0  0  0  0
 10  9  1  0  0  0  0
 10  1  2  0  0  0  0
 11 13  1  0  0  0  0
 11  7  1  0  0  0  0
 12 11  1  0  0  0  0
 13 14  1  0  0  0  0
 14 15  2  0  0  0  0
 16 15  1  0  0  0  0
 16 17  1  0  0  0  0
 18 16  2  0  0  0  0
 19 18  1  0  0  0  0
 20 13  2  0  0  0  0
 20 18  1  0  0  0  0
 21 10  1  0  0  0  0
 22 21  1  0  0  0  0
 23 22  1  0  0  0  0
 23 24  1  0  0  0  0
 24 25  1  0  0  0  0
 25 26  1  0  0  0  0
 27 26  1  0  0  0  0
 28 27  1  0  0  0  0
 29 24  1  0  0  0  0
 29 28  1  0  0  0  0
 30  1  1  0  0  0  0
 30 31  1  0  0  0  0
M  END
>  <TORSDO>
F 7

$$$$
