C:\Qe-CaDD\Project\Data\Stage_6_Molecular_Dynamics\ligands_top\out_22000_EGFR_extracted.pdbqt
 OpenBabel01082506443D

 29 30  0  0  0  0  0  0  0  0999 V2000
   24.2900    3.1220   50.6220 C   0  0  0  0  0  0  0  0  0  0  0  0
   24.2380    4.1920   49.7800 C   0  0  0  0  0  3  0  0  0  0  0  0
   25.3490    4.6970   49.1670 C   0  0  0  0  0  3  0  0  0  0  0  0
   26.5750    4.1080   49.4010 C   0  0  0  0  0  3  0  0  0  0  0  0
   26.6070    3.0290   50.2540 C   0  0  0  0  0  3  0  0  0  0  0  0
   25.4950    2.5140   50.8750 C   0  0  0  0  0  0  0  0  0  0  0  0
   23.0790    2.6320   51.2420 C   0  0  0  0  0  0  0  0  0  0  0  0
   22.5460    1.3710   50.8590 N   0  0  0  0  0  4  0  0  0  0  0  0
   22.9340    0.6950   50.1350 H   0  0  0  0  0  0  0  0  0  0  0  0
   22.2450    2.9820   52.1000 O   0  0  0  0  0  0  0  0  0  0  0  0
   21.3530    0.7720   51.4000 C   0  0  0  0  0  0  0  0  0  0  0  0
   20.2300    0.8370   50.7150 C   0  0  0  0  0  2  0  0  0  0  0  0
   19.0130    0.2410   51.2330 C   0  0  0  0  0  3  0  0  0  0  0  0
   17.9320    0.1680   50.4890 C   0  0  0  0  0  2  0  0  0  0  0  0
   21.4900    0.1240   52.6970 C   0  0  0  0  0  3  0  0  0  0  0  0
   22.5050   -0.4730   53.2820 C   0  0  0  0  0  3  0  0  0  0  0  0
   22.5020   -1.0920   54.6110 C   0  0  0  0  0  0  0  0  0  0  0  0
   23.7580   -1.1640   55.2020 F   0  0  0  0  0  0  0  0  0  0  0  0
   21.9520   -2.3460   54.6630 F   0  0  0  0  0  0  0  0  0  0  0  0
   21.7530   -0.2820   55.4520 F   0  0  0  0  0  0  0  0  0  0  0  0
   25.7080    1.3960   51.7100 N   0  0  0  0  0  0  0  0  0  0  0  0
   25.3920    0.5250   51.2550 H   0  0  0  0  0  0  0  0  0  0  0  0
   26.2340    1.1220   53.0060 C   0  0  0  0  0  2  0  0  0  0  0  0
   27.1870   -0.0010   53.0890 C   0  0  0  0  0  0  0  0  0  0  0  0
   28.4830   -0.1320   53.5050 C   0  0  0  0  0  3  0  0  0  0  0  0
   29.1340   -1.3440   53.4910 C   0  0  0  0  0  3  0  0  0  0  0  0
   28.5620   -2.4810   53.0720 N   0  0  0  0  0  0  0  0  0  0  0  0
   27.2900   -2.4070   52.6530 C   0  0  0  0  0  3  0  0  0  0  0  0
   26.6090   -1.2080   52.6550 C   0  0  0  0  0  3  0  0  0  0  0  0
  1  6  1  0  0  0  0
  1  7  1  0  0  0  0
  2  1  2  0  0  0  0
  3  4  2  0  0  0  0
  3  2  1  0  0  0  0
  4  5  1  0  0  0  0
  5  6  2  0  0  0  0
  6 21  1  0  0  0  0
  7 10  2  0  0  0  0
  8  7  1  0  0  0  0
  8 11  2  0  0  0  0
  9  8  1  0  0  0  0
 11 15  1  0  0  0  0
 12 13  1  0  0  0  0
 12 11  1  0  0  0  0
 14 13  2  0  0  0  0
 15 16  2  0  0  0  0
 16 17  1  0  0  0  0
 17 19  1  0  0  0  0
 17 18  1  0  0  0  0
 17 20  1  0  0  0  0
 21 23  1  0  0  0  0
 22 21  1  0  0  0  0
 23 24  1  0  0  0  0
 24 25  1  0  0  0  0
 26 25  2  0  0  0  0
 27 26  1  0  0  0  0
 28 29  1  0  0  0  0
 28 27  2  0  0  0  0
 29 24  2  0  0  0  0
M  END
>  <TORSDO>
F 8

$$$$
