C:\Qe-CaDD\Project\Data\Stage_6_Molecular_Dynamics\ligands_top\out_12329_EGFR_extracted.pdbqt
 OpenBabel01082506443D

 22 24  0  0  0  0  0  0  0  0999 V2000
   24.5890    1.9870   52.9830 C   0  0  0  0  0  0  0  0  0  0  0  0
   23.9600    3.1720   52.9250 N   0  0  0  0  0  0  0  0  0  0  0  0
   22.9350    3.1230   52.1260 O   0  0  0  0  0  0  0  0  0  0  0  0
   22.8790    1.9020   51.6460 C   0  0  0  0  0  0  0  0  0  0  0  0
   23.8900    1.1780   52.1590 N   0  0  0  0  0  0  0  0  0  0  0  0
   25.7770    1.4680   53.7060 C   0  0  0  0  0  2  0  0  0  0  0  0
   26.6750    0.9120   52.7750 O   0  0  0  0  0  0  0  0  0  0  0  0
   27.8750    0.3240   53.1130 C   0  0  0  0  0  0  0  0  0  0  0  0
   29.0550    0.8940   53.5560 C   0  0  0  0  0  0  0  0  0  0  0  0
   28.9980    2.6210   53.7010 Cl  0  0  0  0  0  0  0  0  0  0  0  0
   30.1450    0.0980   53.8390 C   0  0  0  0  0  3  0  0  0  0  0  0
   30.1100   -1.2800   53.6960 C   0  0  0  0  0  3  0  0  0  0  0  0
   28.9490   -1.8420   53.2600 C   0  0  0  0  0  3  0  0  0  0  0  0
   27.8270   -1.0670   52.9650 C   0  0  0  0  0  0  0  0  0  0  0  0
   26.4320   -1.9620   52.4190 Cl  0  0  0  0  0  0  0  0  0  0  0  0
   21.8780    1.3560   50.6880 C   0  0  0  0  0  2  0  0  0  0  0  0
   20.5030    0.5210   51.4700 S   0  0  0  0  0  0  0  0  0  0  0  0
   20.3520    0.8120   53.2300 C   0  0  0  0  0  2  0  0  0  0  0  0
   20.9760   -0.2380   53.9780 N   0  0  0  0  0  0  0  0  0  0  0  0
   20.6660   -1.6190   54.1440 C   0  0  0  0  0  2  0  0  0  0  0  0
   21.6520   -1.8280   54.9160 N   0  0  0  0  0  2  0  0  0  0  0  0
   22.0970   -0.4640   54.8510 C   0  0  0  0  0  2  0  0  0  0  0  0
  1  6  1  0  0  0  0
  2  1  2  0  0  0  0
  3  2  1  0  0  0  0
  4  3  1  0  0  0  0
  4  5  2  0  0  0  0
  5  1  1  0  0  0  0
  7  8  1  0  0  0  0
  7  6  1  0  0  0  0
  8  9  1  0  0  0  0
  9 10  1  0  0  0  0
  9 11  2  0  0  0  0
 12 11  1  0  0  0  0
 13 12  2  0  0  0  0
 14  8  2  0  0  0  0
 14 13  1  0  0  0  0
 15 14  1  0  0  0  0
 16 17  1  0  0  0  0
 16  4  1  0  0  0  0
 17 18  1  0  0  0  0
 18 19  1  0  0  0  0
 19 20  1  0  0  0  0
 19 22  1  0  0  0  0
 20 21  1  0  0  0  0
 22 21  1  0  0  0  0
M  END
>  <TORSDO>
F 7

$$$$
