C:\Qe-CaDD\Project\Data\Stage_6_Molecular_Dynamics\ligands_top\out_16826_EGFR_extracted.pdbqt
 OpenBabel01082506443D

 23 25  0  0  1  0  0  0  0  0999 V2000
   24.4300    2.2770   53.0410 C   0  0  0  0  0  2  0  0  0  0  0  0
   23.1200    1.6780   52.8610 N   0  0  0  0  0  0  0  0  0  0  0  0
   21.9100    2.1120   52.5160 N   0  0  0  0  0  0  0  0  0  0  0  0
   21.3480    3.4200   52.1550 C   0  0  0  0  0  1  0  0  0  0  0  0
   21.4010    0.8720   52.6290 C   0  0  2  0  0  3  0  0  0  0  0  0
   22.6540    0.4210   52.9870 C   0  0  0  0  0  2  0  0  0  0  0  0
   20.1220    0.1980   52.4690 C   0  0  0  0  0  0  0  0  0  0  0  0
   19.5880   -0.5600   53.4240 C   0  0  0  0  0  3  0  0  0  0  0  0
   18.3000   -1.2180   53.2190 C   0  0  0  0  0  3  0  0  0  0  0  0
   17.5950   -0.7490   52.2200 C   0  0  0  0  0  3  0  0  0  0  0  0
   18.1200   -0.1670   51.2120 C   0  0  0  0  0  3  0  0  0  0  0  0
   19.3460    0.3090   51.2590 C   0  0  0  0  0  3  0  0  0  0  0  0
   25.4270    1.2340   53.3450 C   0  0  0  0  0  3  0  0  0  0  0  0
   26.6990    1.3140   53.6870 C   0  0  0  0  0  0  0  0  0  0  0  0
   27.3050    2.5930   53.8090 N   0  0  0  0  0  0  0  0  0  0  0  0
   27.3770    0.0430   53.9110 C   0  0  0  0  0  0  0  0  0  0  0  0
   28.6670    2.5300   54.1790 N   0  0  0  0  0  0  0  0  0  0  0  0
   26.8330    3.4930   53.6510 H   0  0  0  0  0  0  0  0  0  0  0  0
   29.2890    1.4190   54.3830 C   0  0  0  0  0  3  0  0  0  0  0  0
   28.6590    0.0880   54.2570 C   0  0  0  0  0  3  0  0  0  0  0  0
   26.7370   -1.2120   53.7800 N   0  0  0  0  0  0  0  0  0  0  0  0
   25.8520   -1.2870   53.2340 H   0  0  0  0  0  0  0  0  0  0  0  0
   27.0420   -2.1500   54.1770 H   0  0  0  0  0  0  0  0  0  0  0  0
  1 13  1  0  0  0  0
  2  6  1  0  0  0  0
  2  1  1  0  0  0  0
  3  5  1  0  0  0  0
  3  2  1  0  0  0  0
  4  3  1  0  0  0  0
  5  7  1  6  0  0  0
  5  6  1  0  0  0  0
  7  8  1  0  0  0  0
  9  8  2  0  0  0  0
 10  9  1  0  0  0  0
 11 12  1  0  0  0  0
 11 10  2  0  0  0  0
 12  7  2  0  0  0  0
 13 14  2  0  0  0  0
 14 15  1  0  0  0  0
 14 16  1  0  0  0  0
 15 17  1  0  0  0  0
 16 20  2  0  0  0  0
 17 19  2  0  0  0  0
 18 15  1  0  0  0  0
 20 19  1  0  0  0  0
 21 16  1  0  0  0  0
 21 23  1  0  0  0  0
 22 21  1  0  0  0  0
M  END
>  <TORSDO>
F 4

$$$$
