C:\Qe-CaDD\Project\Data\Stage_6_Molecular_Dynamics\ligands_top\out_12551_EGFR_extracted.pdbqt
 OpenBabel01082506443D

 30 33  0  0  0  0  0  0  0  0999 V2000
   26.2020   -0.2550   53.0160 C   0  0  0  0  0  0  0  0  0  0  0  0
   26.7500   -1.4480   52.6600 C   0  0  0  0  0  3  0  0  0  0  0  0
   28.0890   -1.6290   52.9180 C   0  0  0  0  0  3  0  0  0  0  0  0
   28.8520   -0.6480   53.5120 C   0  0  0  0  0  0  0  0  0  0  0  0
   30.1540   -0.9570   53.7080 F   0  0  0  0  0  0  0  0  0  0  0  0
   28.3130    0.5600   53.8760 C   0  0  0  0  0  0  0  0  0  0  0  0
   29.1520    1.5480   54.5090 C   0  0  0  0  0  0  0  0  0  0  0  0
   29.8330    2.3400   54.9990 N   0  0  0  0  0  0  0  0  0  0  0  0
   26.9800    0.7220   53.6110 C   0  0  0  0  0  3  0  0  0  0  0  0
   24.8150   -0.0550   52.7800 N   0  0  0  0  0  0  0  0  0  0  0  0
   24.4920    0.3010   51.8350 H   0  0  0  0  0  0  0  0  0  0  0  0
   23.5570   -0.1830   53.4300 C   0  0  0  0  0  0  0  0  0  0  0  0
   23.3260   -1.1830   54.3230 N   0  0  0  0  0  0  0  0  0  0  0  0
   22.1010   -1.2780   54.9050 C   0  0  0  0  0  3  0  0  0  0  0  0
   21.1320   -0.4020   54.6060 N   0  0  0  0  0  0  0  0  0  0  0  0
   21.2740    0.6130   53.7370 C   0  0  0  0  0  0  0  0  0  0  0  0
   20.2400    1.4810   53.4560 C   0  0  0  0  0  3  0  0  0  0  0  0
   22.5330    0.7260   53.1290 C   0  0  0  0  0  0  0  0  0  0  0  0
   20.4370    2.4960   52.5500 C   0  0  0  0  0  0  0  0  0  0  0  0
   21.6790    2.6440   51.9220 C   0  0  0  0  0  0  0  0  0  0  0  0
   22.7110    1.7550   52.2200 C   0  0  0  0  0  0  0  0  0  0  0  0
   22.1060    3.5770   50.9910 O   0  0  0  0  0  0  0  0  0  0  0  0
   23.9700    1.8800   51.6030 O   0  0  0  0  0  0  0  0  0  0  0  0
   24.4880    3.1730   51.2940 C   0  0  0  0  0  2  0  0  0  0  0  0
   23.3930    4.1930   51.1740 C   0  0  0  0  0  2  0  0  0  0  0  0
   19.5320    3.4270   52.1570 O   0  0  0  0  0  0  0  0  0  0  0  0
   18.6200    3.3780   51.1020 C   0  0  0  0  0  2  0  0  0  0  0  0
   17.1980    3.1720   51.5900 C   0  0  0  0  0  2  0  0  0  0  0  0
   16.7220    4.2370   52.3470 O   0  0  0  0  0  0  0  0  0  0  0  0
   15.4110    4.0210   52.7550 C   0  0  0  0  0  1  0  0  0  0  0  0
  1  9  1  0  0  0  0
  2  3  1  0  0  0  0
  2  1  2  0  0  0  0
  3  4  2  0  0  0  0
  4  5  1  0  0  0  0
  4  6  1  0  0  0  0
  6  7  1  0  0  0  0
  7  8  3  0  0  0  0
  9  6  2  0  0  0  0
 10  1  1  0  0  0  0
 10 12  1  0  0  0  0
 11 10  1  0  0  0  0
 12 13  1  0  0  0  0
 13 14  2  0  0  0  0
 15 14  1  0  0  0  0
 16 15  2  0  0  0  0
 17 16  1  0  0  0  0
 18 12  2  0  0  0  0
 18 16  1  0  0  0  0
 19 17  2  0  0  0  0
 20 21  2  0  0  0  0
 20 19  1  0  0  0  0
 21 18  1  0  0  0  0
 22 25  1  0  0  0  0
 22 20  1  0  0  0  0
 23 21  1  0  0  0  0
 24 23  1  0  0  0  0
 25 24  1  0  0  0  0
 26 19  1  0  0  0  0
 27 28  1  0  0  0  0
 27 26  1  0  0  0  0
 28 29  1  0  0  0  0
 29 30  1  0  0  0  0
M  END
>  <TORSDO>
F 6

$$$$
