C:\Qe-CaDD\Project\Data\Stage_6_Molecular_Dynamics\ligands_top\out_12045_EGFR_extracted.pdbqt
 OpenBabel01082506443D

 27 30  0  0  1  0  0  0  0  0999 V2000
   24.4630    7.8590   50.4730 N   0  0  0  0  0  0  0  0  0  0  0  0
   25.0430    6.8350   50.4800 C   0  0  0  0  0  0  0  0  0  0  0  0
   25.7260    5.5870   50.4810 N   0  0  0  0  0  0  0  0  0  0  0  0
   25.2760    4.5150   49.6630 C   0  0  0  0  0  0  0  0  0  0  0  0
   24.2650    4.6320   48.9100 O   0  0  0  0  0  0  0  0  0  0  0  0
   26.5450    5.5950   51.1240 H   0  0  0  0  0  0  0  0  0  0  0  0
   26.1350    3.3270   49.8330 C   0  0  0  0  0  2  0  0  0  0  0  0
   25.7510    2.5250   51.0080 C   0  0  0  0  0  0  0  0  0  0  0  0
   26.3800    2.0950   52.1240 C   0  0  0  0  0  3  0  0  0  0  0  0
   26.3640    1.3510   53.4080 C   0  0  0  0  0  0  0  0  0  0  0  0
   25.0380    0.9490   53.6560 C   0  0  0  0  0  0  0  0  0  0  0  0
   24.3430    1.3740   52.4350 C   0  0  0  0  0  0  0  0  0  0  0  0
   24.6350   -0.4860   54.0250 C   0  0  0  0  0  1  0  0  0  0  0  0
   23.9330    0.0670   53.4890 C   0  0  2  0  0  0  0  0  0  0  0  0
   24.3460    2.0330   51.1730 C   0  0  0  0  0  3  0  0  0  0  0  0
   23.0240    0.8680   52.7230 C   0  0  0  0  0  0  0  0  0  0  0  0
   21.6820    0.6110   52.8180 C   0  0  0  0  0  3  0  0  0  0  0  0
   21.6460   -0.4780   53.7640 C   0  0  0  0  0  3  0  0  0  0  0  0
   23.0580   -0.7070   54.0870 C   0  0  0  0  0  3  0  0  0  0  0  0
   27.3990    0.2530   53.3830 C   0  0  0  0  0  0  0  0  0  0  0  0
   27.1590   -0.9070   52.6450 C   0  0  0  0  0  3  0  0  0  0  0  0
   28.0270   -1.9750   52.5600 C   0  0  0  0  0  3  0  0  0  0  0  0
   29.2170   -1.8260   53.2880 C   0  0  0  0  0  3  0  0  0  0  0  0
   29.5230   -0.7100   54.0400 C   0  0  0  0  0  3  0  0  0  0  0  0
   28.5920    0.3060   54.0630 C   0  0  0  0  0  0  0  0  0  0  0  0
   28.7290    1.5170   54.7720 O   0  0  0  0  0  0  0  0  0  0  0  0
   27.9130    1.9160   55.2170 H   0  0  0  0  0  0  0  0  0  0  0  0
  1  2  3  0  0  0  0
  2  3  1  0  0  0  0
  3  6  1  0  0  0  0
  4  7  1  0  0  0  0
  4  3  1  0  0  0  0
  5  4  2  0  0  0  0
  7  8  1  0  0  0  0
  8 15  2  0  0  0  0
  8  9  1  0  0  0  0
  9 10  2  0  0  0  0
 10 11  1  0  0  0  0
 12 16  1  0  0  0  0
 12 11  2  0  0  0  0
 14 11  1  0  0  0  0
 14 13  1  6  0  0  0
 14 19  1  0  0  0  0
 15 12  1  0  0  0  0
 16 17  2  0  0  0  0
 16 14  1  0  0  0  0
 17 18  1  0  0  0  0
 18 19  2  0  0  0  0
 20 10  1  0  0  0  0
 20 25  1  0  0  0  0
 21 20  2  0  0  0  0
 22 21  1  0  0  0  0
 22 23  2  0  0  0  0
 23 24  1  0  0  0  0
 24 25  2  0  0  0  0
 25 26  1  0  0  0  0
 26 27  1  0  0  0  0
M  END
>  <TORSDO>
F 4

$$$$
