C:\Qe-CaDD\Project\Data\Stage_6_Molecular_Dynamics\ligands_top\out_14594_EGFR_extracted.pdbqt
 OpenBabel01082506443D

 22 23  0  0  0  0  0  0  0  0999 V2000
   26.9130    2.4950   54.1850 O   0  0  0  0  0  0  0  0  0  0  0  0
   26.7520    1.3900   53.5690 C   0  0  0  0  0  0  0  0  0  0  0  0
   25.4550    1.6290   53.0500 N   0  0  0  0  0  0  0  0  0  0  0  0
   27.7160    0.3540   53.5380 N   0  0  0  0  0  0  0  0  0  0  0  0
   27.7340   -0.8610   52.9640 C   0  0  0  0  0  3  0  0  0  0  0  0
   28.9200   -1.5200   53.2110 C   0  0  0  0  0  3  0  0  0  0  0  0
   29.6010   -0.6010   53.9750 C   0  0  0  0  0  3  0  0  0  0  0  0
   28.8830    0.5370   54.1800 C   0  0  0  0  0  3  0  0  0  0  0  0
   24.9280    2.9300   53.4390 C   0  0  0  0  0  2  0  0  0  0  0  0
   23.9330    3.4530   52.5210 C   0  0  0  0  0  3  0  0  0  0  0  0
   24.3820    4.0880   51.4440 C   0  0  0  0  0  0  0  0  0  0  0  0
   25.0150    4.4880   50.3480 C   0  0  0  0  0  3  0  0  0  0  0  0
   26.4190    3.4050   49.6920 Br  0  0  0  0  0  0  0  0  0  0  0  0
   24.6270    0.7780   52.2040 C   0  0  0  0  0  2  0  0  0  0  0  0
   23.5490    0.0890   52.9130 C   0  0  0  0  0  0  0  0  0  0  0  0
   23.6380   -0.6210   54.0890 C   0  0  0  0  0  3  0  0  0  0  0  0
   22.6170   -1.2630   54.7550 C   0  0  0  0  0  3  0  0  0  0  0  0
   21.3600   -1.1960   54.1920 C   0  0  0  0  0  0  0  0  0  0  0  0
   21.1740   -0.5060   53.0140 C   0  0  0  0  0  3  0  0  0  0  0  0
   22.2440    0.1120   52.4050 C   0  0  0  0  0  3  0  0  0  0  0  0
   20.3170   -1.8360   54.8450 O   0  0  0  0  0  0  0  0  0  0  0  0
   20.5740   -2.5890   55.4830 H   0  0  0  0  0  0  0  0  0  0  0  0
  2  1  2  0  0  0  0
  3  9  1  0  0  0  0
  3  2  1  0  0  0  0
  4  2  1  0  0  0  0
  4  8  1  0  0  0  0
  5  6  2  0  0  0  0
  5  4  1  0  0  0  0
  6  7  1  0  0  0  0
  7  8  2  0  0  0  0
 10  9  1  0  0  0  0
 11 10  2  0  0  0  0
 12 11  2  0  0  0  0
 13 12  1  0  0  0  0
 14 15  1  0  0  0  0
 14  3  1  0  0  0  0
 15 16  1  0  0  0  0
 16 17  2  0  0  0  0
 18 17  1  0  0  0  0
 18 21  1  0  0  0  0
 19 18  2  0  0  0  0
 20 15  2  0  0  0  0
 20 19  1  0  0  0  0
 21 22  1  0  0  0  0
M  END
>  <TORSDO>
F 7

$$$$
