C:\Qe-CaDD\Project\Data\Stage_6_Molecular_Dynamics\ligands_top\out_1960_EGFR_extracted.pdbqt
 OpenBabel01082506443D

 28 30  0  0  1  0  0  0  0  0999 V2000
   21.7110    0.5910   52.1490 C   0  0  0  0  0  0  0  0  0  0  0  0
   22.3980   -0.0490   53.0810 C   0  0  0  0  0  3  0  0  0  0  0  0
   23.7760   -0.2390   53.3440 N   0  0  0  0  0  0  0  0  0  0  0  0
   24.9730    0.5320   53.1100 C   0  0  0  0  0  0  0  0  0  0  0  0
   25.9800    0.0640   53.9250 C   0  0  0  0  0  3  0  0  0  0  0  0
   27.2270    0.6420   53.8880 C   0  0  0  0  0  0  0  0  0  0  0  0
   28.5010    0.0400   54.9290 Cl  0  0  0  0  0  0  0  0  0  0  0  0
   27.4060    1.6890   53.0090 C   0  0  0  0  0  0  0  0  0  0  0  0
   28.6730    2.2210   53.0200 F   0  0  0  0  0  0  0  0  0  0  0  0
   26.4250    2.1840   52.1780 C   0  0  0  0  0  0  0  0  0  0  0  0
   25.1800    1.5970   52.2250 C   0  0  0  0  0  0  0  0  0  0  0  0
   24.3850    2.3520   51.2310 C   0  0  0  0  0  0  0  0  0  0  0  0
   23.1310    2.1630   50.8460 C   0  0  0  0  0  2  0  0  0  0  0  0
   21.8870    1.4070   50.9490 C   0  0  1  0  0  3  0  0  0  0  0  0
   25.2040    3.4460   50.6510 C   0  0  0  0  0  3  0  0  0  0  0  0
   26.4950    3.2510   51.2400 N   0  0  0  0  0  0  0  0  0  0  0  0
   24.0450   -1.1180   53.8120 H   0  0  0  0  0  0  0  0  0  0  0  0
   27.3380    3.8200   50.9970 H   0  0  0  0  0  0  0  0  0  0  0  0
   20.3650    0.3860   52.4650 O   0  0  0  0  0  0  0  0  0  0  0  0
   19.8950   -0.5030   53.4340 C   0  0  0  0  0  2  0  0  0  0  0  0
   18.4510   -0.9070   53.2030 C   0  0  0  0  0  2  0  0  0  0  0  0
   18.2580   -2.1930   53.8360 N   0  0  0  0  0  0  0  0  0  0  0  0
   18.7940   -2.6750   54.6020 H   0  0  0  0  0  0  0  0  0  0  0  0
   17.1700   -3.0180   53.4000 C   0  0  0  0  0  3  0  0  0  0  0  0
   17.0250   -4.2540   53.8880 C   0  0  0  0  0  3  0  0  0  0  0  0
   15.9110   -5.1280   53.4570 C   0  0  0  0  0  1  0  0  0  0  0  0
   21.7860    0.5600   49.8210 O   0  0  0  0  0  0  0  0  0  0  0  0
   21.1750    1.3560   48.8370 C   0  0  0  0  0  1  0  0  0  0  0  0
  1 19  1  0  0  0  0
  1  2  2  0  0  0  0
  2  3  1  0  0  0  0
  3 17  1  0  0  0  0
  4  3  1  0  0  0  0
  4  5  1  0  0  0  0
  6  5  2  0  0  0  0
  6  7  1  0  0  0  0
  8  9  1  0  0  0  0
  8  6  1  0  0  0  0
 10 11  1  0  0  0  0
 10  8  2  0  0  0  0
 11  4  2  0  0  0  0
 12 11  1  0  0  0  0
 13 14  1  0  0  0  0
 13 12  1  0  0  0  0
 14 27  1  6  0  0  0
 14  1  1  0  0  0  0
 15 12  2  0  0  0  0
 15 16  1  0  0  0  0
 16 10  1  0  0  0  0
 18 16  1  0  0  0  0
 19 20  1  0  0  0  0
 21 20  1  0  0  0  0
 21 22  1  0  0  0  0
 22 23  1  0  0  0  0
 24 22  1  0  0  0  0
 24 25  2  0  0  0  0
 26 25  1  0  0  0  0
 28 27  1  0  0  0  0
M  END
>  <TORSDO>
F 6

$$$$
