C:\Qe-CaDD\Project\Data\Stage_6_Molecular_Dynamics\ligands_top\out_12032_EGFR_extracted.pdbqt
 OpenBabel01082506443D

 27 28  0  0  0  0  0  0  0  0999 V2000
   27.2930    0.3840   53.7600 C   0  0  0  0  0  0  0  0  0  0  0  0
   27.4350    1.2160   52.6680 C   0  0  0  0  0  3  0  0  0  0  0  0
   26.3170    1.4910   51.9100 C   0  0  0  0  0  0  0  0  0  0  0  0
   25.0620    0.9910   52.1660 C   0  0  0  0  0  3  0  0  0  0  0  0
   24.9430    0.1630   53.2610 C   0  0  0  0  0  0  0  0  0  0  0  0
   26.0340   -0.1380   54.0460 C   0  0  0  0  0  0  0  0  0  0  0  0
   26.4640    2.3700   50.7600 C   0  0  0  0  0  3  0  0  0  0  0  0
   26.1030    3.6250   50.5550 C   0  0  0  0  0  3  0  0  0  0  0  0
   26.2770    4.4890   49.3510 C   0  0  0  0  0  2  0  0  0  0  0  0
   27.6520    4.4760   48.9550 N   0  0  0  0  0  0  0  0  0  0  0  0
   28.3170    4.1350   49.6580 H   0  0  0  0  0  0  0  0  0  0  0  0
   28.0470    5.6930   48.3580 N   0  0  0  0  0  0  0  0  0  0  0  0
   27.1030    6.7080   48.0460 C   0  0  0  0  0  2  0  0  0  0  0  0
   27.4930    7.8440   47.4860 C   0  0  0  0  0  3  0  0  0  0  0  0
   28.8930    8.0510   47.1920 C   0  0  0  0  0  3  0  0  0  0  0  0
   29.8030    7.1220   47.4720 C   0  0  0  0  0  3  0  0  0  0  0  0
   29.4650    5.8190   48.0980 C   0  0  0  0  0  0  0  0  0  0  0  0
   30.2190    5.6960   49.2540 O   0  0  0  0  0  0  0  0  0  0  0  0
   30.1970    6.5940   49.7060 H   0  0  0  0  0  0  0  0  0  0  0  0
   28.3550   -0.0260   54.6890 C   0  0  0  0  0  2  0  0  0  0  0  0
   29.7320   -0.8570   53.8640 S   0  0  0  0  0  0  0  0  0  0  0  0
   29.1110   -2.4130   53.1670 C   0  0  0  0  0  1  0  0  0  0  0  0
   23.6070   -0.4140   53.5860 C   0  0  0  0  0  2  0  0  0  0  0  0
   22.2820    0.7710   53.1850 S   0  0  0  0  0  0  0  0  0  0  0  0
   21.2590    0.1580   51.8390 C   0  0  0  0  0  1  0  0  0  0  0  0
   25.8130   -0.9930   55.1430 O   0  0  0  0  0  0  0  0  0  0  0  0
   24.8750   -1.3140   55.3440 H   0  0  0  0  0  0  0  0  0  0  0  0
  1  6  1  0  0  0  0
  1 20  1  0  0  0  0
  2  1  2  0  0  0  0
  3  4  2  0  0  0  0
  3  2  1  0  0  0  0
  4  5  1  0  0  0  0
  5 23  1  0  0  0  0
  5  6  2  0  0  0  0
  6 26  1  0  0  0  0
  7  3  1  0  0  0  0
  8  7  2  0  0  0  0
  9  8  1  0  0  0  0
 10  9  1  0  0  0  0
 10 11  1  0  0  0  0
 12 10  1  0  0  0  0
 13 12  1  0  0  0  0
 14 13  1  0  0  0  0
 15 16  1  0  0  0  0
 15 14  2  0  0  0  0
 16 17  2  0  0  0  0
 17 12  1  0  0  0  0
 17 18  1  0  0  0  0
 18 19  1  0  0  0  0
 21 20  1  0  0  0  0
 22 21  1  0  0  0  0
 24 23  1  0  0  0  0
 25 24  1  0  0  0  0
 26 27  1  0  0  0  0
M  END
>  <TORSDO>
F 10

$$$$
