C:\Qe-CaDD\Project\Data\Stage_6_Molecular_Dynamics\ligands_top\out_10561_EGFR_extracted.pdbqt
 OpenBabel01082506443D

 27 29  0  0  0  0  0  0  0  0999 V2000
   22.6840    0.0780   54.0350 O   0  0  0  0  0  0  0  0  0  0  0  0
   23.4030   -0.2340   52.9070 C   0  0  0  0  0  2  0  0  0  0  0  0
   24.8350   -0.0080   53.1580 C   0  0  0  0  0  0  0  0  0  0  0  0
   25.8340   -0.9660   53.0470 C   0  0  0  0  0  3  0  0  0  0  0  0
   27.1500   -0.6510   53.3050 C   0  0  0  0  0  0  0  0  0  0  0  0
   28.1330   -1.5680   53.2030 N   0  0  0  0  0  0  0  0  0  0  0  0
   27.5540    0.6130   53.6820 C   0  0  0  0  0  0  0  0  0  0  0  0
   29.4270   -1.2510   53.4600 C   0  0  0  0  0  3  0  0  0  0  0  0
   29.7980    0.0090   53.8320 N   0  0  0  0  0  0  0  0  0  0  0  0
   28.8510    0.9850   53.9530 C   0  0  0  0  0  0  0  0  0  0  0  0
   26.5430    1.5720   53.7910 C   0  0  0  0  0  3  0  0  0  0  0  0
   25.2150    1.2640   53.5330 C   0  0  0  0  0  3  0  0  0  0  0  0
   29.1950    2.3180   54.3390 N   0  0  0  0  0  0  0  0  0  0  0  0
   29.9760    2.5810   55.2530 O   0  0  0  0  0  0  0  0  0  0  0  0
   22.2990   -1.0300   54.7900 C   0  0  0  0  0  2  0  0  0  0  0  0
   20.8780   -1.4150   54.4080 C   0  0  0  0  0  2  0  0  0  0  0  0
   20.1890   -0.2520   53.9640 N   0  0  0  0  0  0  0  0  0  0  0  0
   19.9060    0.3900   54.7080 H   0  0  0  0  0  0  0  0  0  0  0  0
   19.1420   -0.5450   53.0110 C   0  0  0  0  0  2  0  0  0  0  0  0
   19.6830   -0.0150   51.6670 C   0  0  0  0  0  2  0  0  0  0  0  0
   18.9770    1.2900   51.4460 C   0  0  0  0  0  2  0  0  0  0  0  0
   19.8240    2.3790   51.0440 N   0  0  0  0  0  0  0  0  0  0  0  0
   20.9850    1.9460   50.3590 C   0  0  0  0  0  2  0  0  0  0  0  0
   22.2930    2.4580   50.8280 C   0  0  0  0  0  2  0  0  0  0  0  0
   22.2920    2.9120   52.1400 O   0  0  0  0  0  0  0  0  0  0  0  0
   21.3310    3.9150   52.2670 C   0  0  0  0  0  2  0  0  0  0  0  0
   19.9880    3.2790   52.1300 C   0  0  0  0  0  2  0  0  0  0  0  0
  1 15  1  0  0  0  0
  2  3  1  0  0  0  0
  2  1  1  0  0  0  0
  3 12  1  0  0  0  0
  4  3  2  0  0  0  0
  4  5  1  0  0  0  0
  5  7  2  0  0  0  0
  6  5  1  0  0  0  0
  6  8  2  0  0  0  0
  7 11  1  0  0  0  0
  7 10  1  0  0  0  0
  8  9  1  0  0  0  0
  9 10  2  0  0  0  0
 10 13  1  0  0  0  0
 12 11  2  0  0  0  0
 13 14  2  0  0  0  0
 16 15  1  0  0  0  0
 17 16  1  0  0  0  0
 17 18  1  0  0  0  0
 19 17  1  0  0  0  0
 20 19  1  0  0  0  0
 21 20  1  0  0  0  0
 22 21  1  0  0  0  0
 22 27  1  0  0  0  0
 23 24  1  0  0  0  0
 23 22  1  0  0  0  0
 24 25  1  0  0  0  0
 25 26  1  0  0  0  0
 27 26  1  0  0  0  0
M  END
>  <TORSDO>
F 10

$$$$
