C:\Qe-CaDD\Project\Data\Stage_6_Molecular_Dynamics\ligands_top\out_10552_EGFR_extracted.pdbqt
 OpenBabel01082506443D

 23 24  0  0  1  0  0  0  0  0999 V2000
   25.7780    1.0020   52.1790 C   0  0  0  0  0  0  0  0  0  0  0  0
   24.5480    0.8850   52.6790 C   0  0  0  0  0  2  0  0  0  0  0  0
   23.1580    1.0970   53.0290 C   0  0  0  0  0  2  0  0  0  0  0  0
   22.2170    0.1570   52.3690 C   0  0  0  0  0  2  0  0  0  0  0  0
   22.0330    0.6930   50.9460 C   0  0  0  0  0  2  0  0  0  0  0  0
   21.4590    2.0680   51.0880 N   0  0  0  0  0  0  0  0  0  0  0  0
   20.2870    2.1730   51.9210 C   0  0  0  0  0  2  0  0  0  0  0  0
   19.5260    3.4430   51.8060 C   0  0  0  0  0  2  0  0  0  0  0  0
   20.2860    4.5200   51.3560 O   0  0  0  0  0  0  0  0  0  0  0  0
   20.8920    4.1830   50.1240 C   0  0  0  0  0  2  0  0  0  0  0  0
   21.9860    3.2630   50.4690 C   0  0  0  0  0  0  0  0  0  0  0  0
   23.0800    3.8600   50.0770 C   0  0  0  0  0  0  0  0  0  0  0  0
   24.4540    4.1660   49.7950 C   0  0  0  0  0  3  0  0  0  0  0  0
   25.7650    3.9270   49.7980 C   0  0  1  0  0  3  0  0  0  0  0  0
   26.5610    5.4460   48.9050 Br  0  0  0  0  0  0  0  0  0  0  0  0
   26.5850    2.9300   50.4380 C   0  0  0  0  0  2  0  0  0  0  0  0
   25.8590    2.1230   51.2590 C   0  0  0  0  0  3  0  0  0  0  0  0
   26.7620   -0.0550   52.5250 C   0  0  0  0  0  3  0  0  0  0  0  0
   27.9150    0.1350   53.1080 C   0  0  0  0  0  3  0  0  0  0  0  0
   28.8520   -0.9600   53.4280 C   0  0  0  0  0  2  0  0  0  0  0  0
   28.6600   -2.2200   53.0880 C   0  0  0  0  0  2  0  0  0  0  0  0
   28.5520   -3.5050   53.0940 N   0  0  0  0  0  2  0  0  0  0  0  0
   27.7640   -3.9000   53.6880 H   0  0  0  0  0  0  0  0  0  0  0  0
  1 18  1  0  0  0  0
  1  2  1  0  0  0  0
  2  3  1  0  0  0  0
  4  3  1  0  0  0  0
  5  6  1  0  0  0  0
  5  4  1  0  0  0  0
  6  7  1  0  0  0  0
  8  7  1  0  0  0  0
  9  8  1  0  0  0  0
 10 11  1  0  0  0  0
 10  9  1  0  0  0  0
 11  6  1  0  0  0  0
 12 11  2  0  0  0  0
 13 14  1  0  0  0  0
 13 12  2  0  0  0  0
 14 15  1  1  0  0  0
 14 16  1  0  0  0  0
 16 17  1  0  0  0  0
 17  1  2  0  0  0  0
 18 19  2  0  0  0  0
 19 20  1  0  0  0  0
 21 22  1  0  0  0  0
 21 20  1  0  0  0  0
 22 23  1  0  0  0  0
M  END
>  <TORSDO>
F 4

$$$$
