C:\Qe-CaDD\Project\Data\Stage_6_Molecular_Dynamics\ligands_top\out_20282_EGFR_extracted.pdbqt
 OpenBabel01082506443D

 32 35  0  0  1  0  0  0  0  0999 V2000
   23.5400    0.1460   53.4790 C   0  0  0  0  0  0  0  0  0  0  0  0
   22.5060    0.9860   53.1040 C   0  0  0  0  0  3  0  0  0  0  0  0
   22.6960    1.9310   52.1210 C   0  0  0  0  0  0  0  0  0  0  0  0
   21.6250    2.7150   51.8140 N   0  0  0  0  0  0  0  0  0  0  0  0
   21.7380    3.6550   50.8670 C   0  0  0  0  0  3  0  0  0  0  0  0
   22.9140    3.7950   50.2440 N   0  0  0  0  0  0  0  0  0  0  0  0
   24.0120    3.0710   50.4810 C   0  0  0  0  0  0  0  0  0  0  0  0
   23.8840    2.1120   51.4540 C   0  0  0  0  0  0  0  0  0  0  0  0
   24.8640    1.2630   51.8600 C   0  0  0  0  0  3  0  0  0  0  0  0
   24.7540    0.2900   52.8380 C   0  0  0  0  0  0  0  0  0  0  0  0
   25.2570    3.2160   49.8250 N   0  0  0  0  0  0  0  0  0  0  0  0
   25.8590    2.4030   49.6010 H   0  0  0  0  0  0  0  0  0  0  0  0
   25.8970    4.3940   49.3700 C   0  0  0  0  0  0  0  0  0  0  0  0
   25.3110    5.6440   49.2710 C   0  0  0  0  0  3  0  0  0  0  0  0
   25.9370    6.7710   48.8250 C   0  0  0  0  0  3  0  0  0  0  0  0
   27.2550    6.7160   48.4300 C   0  0  0  0  0  0  0  0  0  0  0  0
   27.8110    7.8570   48.0020 F   0  0  0  0  0  0  0  0  0  0  0  0
   27.8720    5.4930   48.5120 C   0  0  0  0  0  0  0  0  0  0  0  0
   29.5570    5.4850   47.9900 Cl  0  0  0  0  0  0  0  0  0  0  0  0
   27.2080    4.3860   48.9640 C   0  0  0  0  0  3  0  0  0  0  0  0
   25.8330   -0.5920   53.2340 C   0  0  0  0  0  2  0  0  0  0  0  0
   27.2180   -0.3620   52.8880 C   0  0  2  0  0  3  0  0  0  0  0  0
   27.8610   -1.6160   52.5740 N   0  0  0  0  0  0  0  0  0  0  0  0
   28.9870   -1.9840   53.3180 C   0  0  0  0  0  2  0  0  0  0  0  0
   27.2070   -2.3630   52.3110 H   0  0  0  0  0  0  0  0  0  0  0  0
   29.9480   -0.9390   53.7100 C   0  0  0  0  0  2  0  0  0  0  0  0
   29.3800    0.4330   53.6170 C   0  0  0  0  0  2  0  0  0  0  0  0
   27.9230    0.3390   54.0480 C   0  0  2  0  0  3  0  0  0  0  0  0
   27.7790   -0.3390   55.2320 O   0  0  0  0  0  0  0  0  0  0  0  0
   26.8540   -0.5250   55.5080 H   0  0  0  0  0  0  0  0  0  0  0  0
   23.3700   -0.7960   54.4510 O   0  0  0  0  0  0  0  0  0  0  0  0
   22.1800   -1.4070   54.8550 C   0  0  0  0  0  1  0  0  0  0  0  0
  1 31  1  0  0  0  0
  2  1  1  0  0  0  0
  3  2  2  0  0  0  0
  4  3  1  0  0  0  0
  5  4  2  0  0  0  0
  6  7  2  0  0  0  0
  6  5  1  0  0  0  0
  7  8  1  0  0  0  0
  8  9  2  0  0  0  0
  8  3  1  0  0  0  0
  9 10  1  0  0  0  0
 10 21  1  0  0  0  0
 10  1  2  0  0  0  0
 11  7  1  0  0  0  0
 12 11  1  0  0  0  0
 13 11  1  0  0  0  0
 14 13  1  0  0  0  0
 15 14  2  0  0  0  0
 16 18  2  0  0  0  0
 16 15  1  0  0  0  0
 17 16  1  0  0  0  0
 18 20  1  0  0  0  0
 19 18  1  0  0  0  0
 20 13  2  0  0  0  0
 22 21  1  1  0  0  0
 22 28  1  0  0  0  0
 23 22  1  0  0  0  0
 23 24  1  0  0  0  0
 24 26  1  0  0  0  0
 25 23  1  0  0  0  0
 27 26  1  0  0  0  0
 27 28  1  0  0  0  0
 28 29  1  1  0  0  0
 29 30  1  0  0  0  0
 31 32  1  0  0  0  0
M  END
>  <TORSDO>
F 6

$$$$
