C:\Qe-CaDD\Project\Data\Stage_6_Molecular_Dynamics\ligands_top\out_18516_EGFR_extracted.pdbqt
 OpenBabel01082506443D

 27 29  0  0  1  0  0  0  0  0999 V2000
   24.4420    2.7950   51.5070 C   0  0  0  0  0  0  0  0  0  0  0  0
   24.2020    3.3630   50.3240 N   0  0  0  0  0  0  0  0  0  0  0  0
   25.0990    3.6460   49.3790 C   0  0  0  0  0  3  0  0  0  0  0  0
   26.3750    3.3200   49.6510 N   0  0  0  0  0  0  0  0  0  0  0  0
   26.6620    2.7470   50.8290 C   0  0  0  0  0  3  0  0  0  0  0  0
   25.7290    2.4450   51.8340 C   0  0  0  0  0  0  0  0  0  0  0  0
   26.1230    1.8290   53.1170 C   0  0  2  0  0  3  0  0  0  0  0  0
   26.7240    2.7090   54.0690 N   0  0  0  0  0  0  0  0  0  0  0  0
   27.7350    2.5510   54.1740 H   0  0  0  0  0  0  0  0  0  0  0  0
   26.4980    3.6940   54.0230 H   0  0  0  0  0  0  0  0  0  0  0  0
   26.7220    0.4890   53.0140 C   0  0  0  0  0  0  0  0  0  0  0  0
   26.1780   -0.6900   52.5570 C   0  0  0  0  0  3  0  0  0  0  0  0
   26.8230   -1.8850   52.5180 C   0  0  0  0  0  3  0  0  0  0  0  0
   28.1180   -1.9950   52.9530 C   0  0  0  0  0  0  0  0  0  0  0  0
   28.7540   -3.1850   52.9130 F   0  0  0  0  0  0  0  0  0  0  0  0
   28.7540   -0.8690   53.4300 C   0  0  0  0  0  3  0  0  0  0  0  0
   28.0480    0.3150   53.4440 C   0  0  0  0  0  3  0  0  0  0  0  0
   23.3420    2.5400   52.3640 N   0  0  0  0  0  0  0  0  0  0  0  0
   23.4730    2.8930   53.3300 H   0  0  0  0  0  0  0  0  0  0  0  0
   22.0800    1.8880   52.1850 C   0  0  2  0  0  3  0  0  0  0  0  0
   20.9640    2.9230   52.3600 C   0  0  0  0  0  1  0  0  0  0  0  0
   21.8130    0.7010   52.9790 C   0  0  0  0  0  0  0  0  0  0  0  0
   20.6380    0.0090   53.1650 C   0  0  0  0  0  3  0  0  0  0  0  0
   20.4630   -1.1150   53.9310 C   0  0  0  0  0  3  0  0  0  0  0  0
   21.5440   -1.6330   54.5940 C   0  0  0  0  0  3  0  0  0  0  0  0
   22.7720   -1.0330   54.4880 C   0  0  0  0  0  3  0  0  0  0  0  0
   22.8510    0.0910   53.6970 C   0  0  0  0  0  3  0  0  0  0  0  0
  1  6  1  0  0  0  0
  1 18  1  0  0  0  0
  2  1  2  0  0  0  0
  3  4  2  0  0  0  0
  3  2  1  0  0  0  0
  4  5  1  0  0  0  0
  5  6  2  0  0  0  0
  6  7  1  0  0  0  0
  7  8  1  6  0  0  0
  8  9  1  0  0  0  0
 10  8  1  0  0  0  0
 11  7  1  0  0  0  0
 11 17  1  0  0  0  0
 12 11  2  0  0  0  0
 13 12  1  0  0  0  0
 13 14  2  0  0  0  0
 14 16  1  0  0  0  0
 15 14  1  0  0  0  0
 16 17  2  0  0  0  0
 18 19  1  0  0  0  0
 20 21  1  1  0  0  0
 20 18  1  0  0  0  0
 20 22  1  0  0  0  0
 22 23  2  0  0  0  0
 22 27  1  0  0  0  0
 23 24  1  0  0  0  0
 24 25  2  0  0  0  0
 26 25  1  0  0  0  0
 27 26  2  0  0  0  0
M  END
>  <TORSDO>
F 6

$$$$
