C:\Qe-CaDD\Project\Data\Stage_6_Molecular_Dynamics\ligands_top\out_21423_EGFR_extracted.pdbqt
 OpenBabel01082506443D

 25 25  0  0  0  0  0  0  0  0999 V2000
   23.8650    2.6950   52.3310 C   0  0  0  0  0  0  0  0  0  0  0  0
   22.4940    2.7510   52.2460 C   0  0  0  0  0  3  0  0  0  0  0  0
   21.6570    1.7140   52.6580 C   0  0  0  0  0  0  0  0  0  0  0  0
   22.2840    0.5820   53.1730 C   0  0  0  0  0  0  0  0  0  0  0  0
   23.6830    0.5410   53.2510 C   0  0  0  0  0  3  0  0  0  0  0  0
   24.4980    1.6020   52.8290 C   0  0  0  0  0  0  0  0  0  0  0  0
   24.6640    3.7530   51.8850 N   0  0  0  0  0  0  0  0  0  0  0  0
   25.0620    3.8370   50.5280 C   0  0  0  0  0  0  0  0  0  0  0  0
   24.7080    2.9570   49.6720 O   0  0  0  0  0  0  0  0  0  0  0  0
   25.0870    4.5830   52.3960 H   0  0  0  0  0  0  0  0  0  0  0  0
   25.9020    4.8910   49.9060 C   0  0  0  0  0  2  0  0  0  0  0  0
   26.9180    4.3250   49.0700 N   0  0  0  0  0  0  0  0  0  0  0  0
   27.7760    5.1580   48.5680 C   0  0  0  0  0  2  0  0  0  0  0  0
   25.8420    1.1800   53.0340 N   0  0  0  0  0  0  0  0  0  0  0  0
   26.3540    0.5440   51.8260 C   0  0  0  0  0  1  0  0  0  0  0  0
   26.6250    1.2420   54.2040 C   0  0  0  0  0  2  0  0  0  0  0  0
   27.3570    0.1270   54.7780 C   0  0  0  0  0  2  0  0  0  0  0  0
   28.7790    0.1070   54.8290 N   0  0  0  0  0  0  0  0  0  0  0  0
   29.2860   -0.8380   53.7710 C   0  0  0  0  0  1  0  0  0  0  0  0
   29.2980    1.3860   54.3170 C   0  0  0  0  0  1  0  0  0  0  0  0
   20.1920    1.8950   52.5190 C   0  0  0  0  0  2  0  0  0  0  0  0
   19.8030    3.2580   52.3980 N   0  0  0  0  0  0  0  0  0  0  0  0
   18.9290    3.5710   51.5400 C   0  0  0  0  0  2  0  0  0  0  0  0
   21.3560   -0.3700   53.5430 O   0  0  0  0  0  0  0  0  0  0  0  0
   21.5020   -1.4220   54.4290 C   0  0  0  0  0  1  0  0  0  0  0  0
  1  6  1  0  0  0  0
  2  1  2  0  0  0  0
  2  3  1  0  0  0  0
  3  4  2  0  0  0  0
  4  5  1  0  0  0  0
  4 24  1  0  0  0  0
  6 14  1  0  0  0  0
  6  5  2  0  0  0  0
  7  1  1  0  0  0  0
  7 10  1  0  0  0  0
  8  7  1  0  0  0  0
  9  8  2  0  0  0  0
 11  8  1  0  0  0  0
 12 11  1  0  0  0  0
 13 12  2  0  0  0  0
 14 16  1  0  0  0  0
 15 14  1  0  0  0  0
 16 17  1  0  0  0  0
 17 18  1  0  0  0  0
 19 18  1  0  0  0  0
 20 18  1  0  0  0  0
 21  3  1  0  0  0  0
 22 21  1  0  0  0  0
 23 22  2  0  0  0  0
 24 25  1  0  0  0  0
M  END
>  <TORSDO>
F 10

$$$$
