C:\Qe-CaDD\Project\Data\Stage_6_Molecular_Dynamics\ligands_top\out_11965_EGFR_extracted.pdbqt
 OpenBabel01082506443D

 30 33  0  0  1  0  0  0  0  0999 V2000
   21.4500    0.5740   53.4620 C   0  0  0  0  0  0  0  0  0  0  0  0
   20.5460    1.5740   53.0960 C   0  0  0  0  0  3  0  0  0  0  0  0
   21.0030    2.6450   52.3740 C   0  0  0  0  0  0  0  0  0  0  0  0
   22.3390    2.6990   52.0310 C   0  0  2  0  0  3  0  0  0  0  0  0
   23.2370    1.7170   52.3880 C   0  0  0  0  0  3  0  0  0  0  0  0
   22.8050    0.6310   53.1140 C   0  0  0  0  0  0  0  0  0  0  0  0
   22.6000    3.7880   51.3430 C   0  0  0  0  0  0  0  0  0  0  0  0
   21.3350    4.5500   51.1980 C   0  0  0  0  0  3  0  0  0  0  0  0
   20.3840    3.6990   51.9090 N   0  0  0  0  0  0  0  0  0  0  0  0
   23.7680    4.3410   50.7540 N   0  0  0  0  0  0  0  0  0  0  0  0
   24.8130    3.6750   50.0580 C   0  0  0  0  0  2  0  0  0  0  0  0
   25.8350    4.3970   49.6310 C   0  0  0  0  0  0  0  0  0  0  0  0
   26.8230    3.7320   48.9690 F   0  0  0  0  0  0  0  0  0  0  0  0
   25.9240    5.8190   49.8250 C   0  0  0  0  0  0  0  0  0  0  0  0
   24.9490    6.4500   50.4550 C   0  0  0  0  0  3  0  0  0  0  0  0
   23.7450    5.7870   50.9880 C   0  0  0  0  0  3  0  0  0  0  0  0
   27.0210    6.6000   49.3690 N   0  0  0  0  0  0  0  0  0  0  0  0
   28.0280    6.3580   49.4290 H   0  0  0  0  0  0  0  0  0  0  0  0
   26.8540    7.5410   48.9100 H   0  0  0  0  0  0  0  0  0  0  0  0
   23.5860   -0.5320   53.6020 C   0  0  0  0  0  2  0  0  0  0  0  0
   25.0200   -0.4880   53.1370 C   0  0  0  0  0  2  0  0  0  0  0  0
   25.9820   -0.2200   54.2470 C   0  0  0  0  0  2  0  0  0  0  0  0
   27.2730    0.2140   53.8950 N   0  0  0  0  0  0  0  0  0  0  0  0
   28.2790    0.2320   54.8920 C   0  0  0  0  0  2  0  0  0  0  0  0
   29.3730    1.2020   54.4520 C   0  0  0  0  0  2  0  0  0  0  0  0
   28.7440    2.4340   54.3250 O   0  0  0  0  0  0  0  0  0  0  0  0
   27.9420    2.4280   53.2170 C   0  0  0  0  0  2  0  0  0  0  0  0
   27.4380    1.0720   52.7840 C   0  0  0  0  0  2  0  0  0  0  0  0
   20.9060   -0.4740   54.1920 O   0  0  0  0  0  0  0  0  0  0  0  0
   19.7990   -1.2310   53.8010 C   0  0  0  0  0  1  0  0  0  0  0  0
  1 29  1  0  0  0  0
  2  1  2  0  0  0  0
  3  2  1  0  0  0  0
  4  3  1  0  0  0  0
  4  5  1  1  0  0  0
  5  6  2  0  0  0  0
  6  1  1  0  0  0  0
  6 20  1  0  0  0  0
  7  4  1  0  0  0  0
  8  7  2  0  0  0  0
  8  9  1  0  0  0  0
  9  3  2  0  0  0  0
 10 16  1  0  0  0  0
 10  7  1  0  0  0  0
 11 10  1  0  0  0  0
 12 14  2  0  0  0  0
 12 11  1  0  0  0  0
 13 12  1  0  0  0  0
 14 15  1  0  0  0  0
 15 16  2  0  0  0  0
 17 18  1  0  0  0  0
 17 14  1  0  0  0  0
 19 17  1  0  0  0  0
 21 20  1  0  0  0  0
 21 22  1  0  0  0  0
 23 22  1  0  0  0  0
 23 24  1  0  0  0  0
 25 24  1  0  0  0  0
 26 25  1  0  0  0  0
 27 26  1  0  0  0  0
 28 27  1  0  0  0  0
 28 23  1  0  0  0  0
 30 29  1  0  0  0  0
M  END
>  <TORSDO>
F 7

$$$$
