C:\Qe-CaDD\Project\Data\Stage_6_Molecular_Dynamics\ligands_top\out_12100_EGFR_extracted.pdbqt
 OpenBabel01082506443D

 24 25  0  0  0  0  0  0  0  0999 V2000
   24.6250    0.0630   53.3570 C   0  0  0  0  0  0  0  0  0  0  0  0
   24.8770   -0.6380   54.6040 C   0  0  0  0  0  0  0  0  0  0  0  0
   25.0940   -1.2180   55.6140 N   0  0  0  0  0  0  0  0  0  0  0  0
   25.6150    0.1790   52.4730 C   0  0  0  0  0  3  0  0  0  0  0  0
   23.2610    0.6020   53.1340 C   0  0  0  0  0  0  0  0  0  0  0  0
   23.2420    1.7850   52.5390 C   0  0  0  0  0  3  0  0  0  0  0  0
   22.1020    2.5950   52.1730 C   0  0  0  0  0  3  0  0  0  0  0  0
   20.8150    2.3650   52.3930 C   0  0  0  0  0  0  0  0  0  0  0  0
   19.8940    3.4160   51.8750 C   0  0  0  0  0  1  0  0  0  0  0  0
   20.1600    1.2570   53.0540 C   0  0  0  0  0  3  0  0  0  0  0  0
   20.8400    0.2120   53.5260 C   0  0  0  0  0  0  0  0  0  0  0  0
   22.2060   -0.2860   53.6310 C   0  0  0  0  0  2  0  0  0  0  0  0
   20.0850   -0.7930   54.1430 O   0  0  0  0  0  0  0  0  0  0  0  0
   20.4830   -1.7090   54.2990 H   0  0  0  0  0  0  0  0  0  0  0  0
   26.9150   -0.4090   52.8280 C   0  0  0  0  0  0  0  0  0  0  0  0
   27.8550    0.5560   53.2220 C   0  0  0  0  0  3  0  0  0  0  0  0
   29.1160    0.1330   53.6190 C   0  0  0  0  0  3  0  0  0  0  0  0
   29.4240   -1.2120   53.6190 C   0  0  0  0  0  0  0  0  0  0  0  0
   28.5140   -2.1640   53.2360 C   0  0  0  0  0  0  0  0  0  0  0  0
   27.2400   -1.7590   52.8340 C   0  0  0  0  0  3  0  0  0  0  0  0
   30.6790   -1.6500   54.0130 O   0  0  0  0  0  0  0  0  0  0  0  0
   31.3230   -2.0550   53.3130 H   0  0  0  0  0  0  0  0  0  0  0  0
   28.7680   -3.5200   53.2190 O   0  0  0  0  0  0  0  0  0  0  0  0
   29.2960   -3.9030   52.4380 H   0  0  0  0  0  0  0  0  0  0  0  0
  1  2  1  0  0  0  0
  2  3  3  0  0  0  0
  4 15  1  0  0  0  0
  4  1  2  0  0  0  0
  5  1  1  0  0  0  0
  5 12  1  0  0  0  0
  6  5  2  0  0  0  0
  7  8  2  0  0  0  0
  7  6  1  0  0  0  0
  8 10  1  0  0  0  0
  9  8  1  0  0  0  0
 10 11  2  0  0  0  0
 11 12  1  0  0  0  0
 11 13  1  0  0  0  0
 13 14  1  0  0  0  0
 15 20  2  0  0  0  0
 15 16  1  0  0  0  0
 16 17  2  0  0  0  0
 17 18  1  0  0  0  0
 18 21  1  0  0  0  0
 19 18  2  0  0  0  0
 20 19  1  0  0  0  0
 22 21  1  0  0  0  0
 23 19  1  0  0  0  0
 24 23  1  0  0  0  0
M  END
>  <TORSDO>
F 5

$$$$
