C:\Qe-CaDD\Project\Data\Stage_6_Molecular_Dynamics\ligands_top\out_13599_EGFR_extracted.pdbqt
 OpenBabel01082506443D

 27 29  0  0  0  0  0  0  0  0999 V2000
   25.7880    1.6720   53.3960 C   0  0  0  0  0  0  0  0  0  0  0  0
   24.9050    0.6960   53.3810 C   0  0  0  0  0  3  0  0  0  0  0  0
   23.7220    0.6400   52.5620 C   0  0  0  0  0  3  0  0  0  0  0  0
   23.4640    1.6220   51.7250 C   0  0  0  0  0  0  0  0  0  0  0  0
   22.2820    1.5700   50.9340 N   0  0  0  0  0  2  0  0  0  0  0  0
   21.9630    2.6780   50.3040 C   0  0  0  0  0  3  0  0  0  0  0  0
   22.7620    3.8420   50.3870 N   0  0  0  0  0  0  0  0  0  0  0  0
   23.8630    3.9090   51.0490 C   0  0  0  0  0  0  0  0  0  0  0  0
   24.4560    2.6960   51.5800 C   0  0  0  0  0  0  0  0  0  0  0  0
   25.4300    2.7910   52.5970 N   0  0  0  0  0  0  0  0  0  0  0  0
   25.8960    3.7180   52.7550 H   0  0  0  0  0  0  0  0  0  0  0  0
   24.5270    5.1390   51.0540 N   0  0  0  0  0  0  0  0  0  0  0  0
   24.2360    5.8350   51.8010 H   0  0  0  0  0  0  0  0  0  0  0  0
   25.5510    5.5560   50.1660 C   0  0  0  0  0  0  0  0  0  0  0  0
   26.3960    4.7410   49.4510 C   0  0  0  0  0  3  0  0  0  0  0  0
   27.3730    5.1820   48.5910 C   0  0  0  0  0  3  0  0  0  0  0  0
   27.5490    6.5380   48.4060 C   0  0  0  0  0  0  0  0  0  0  0  0
   28.8810    7.2220   47.2300 Br  0  0  0  0  0  0  0  0  0  0  0  0
   26.7320    7.4050   49.0970 C   0  0  0  0  0  3  0  0  0  0  0  0
   25.7790    6.8970   49.9360 C   0  0  0  0  0  3  0  0  0  0  0  0
   26.9720    1.7950   54.1600 N   0  0  0  0  0  0  0  0  0  0  0  0
   28.2610    2.1810   53.7180 C   0  0  0  0  0  0  0  0  0  0  0  0
   29.4140    2.2840   54.5430 N   0  0  0  0  0  0  0  0  0  0  0  0
   28.4360    2.4590   52.5250 O   0  0  0  0  0  0  0  0  0  0  0  0
   29.5560    3.0710   55.2320 H   0  0  0  0  0  0  0  0  0  0  0  0
   30.0350    1.4780   54.3310 H   0  0  0  0  0  0  0  0  0  0  0  0
   26.9880    1.5960   55.1820 H   0  0  0  0  0  0  0  0  0  0  0  0
  1 21  1  0  0  0  0
  2  1  2  0  0  0  0
  3  2  1  0  0  0  0
  4  3  2  0  0  0  0
  5  4  1  0  0  0  0
  6  7  2  0  0  0  0
  6  5  1  0  0  0  0
  7  8  1  0  0  0  0
  8 12  1  0  0  0  0
  8  9  2  0  0  0  0
  9  4  1  0  0  0  0
  9 10  1  0  0  0  0
 10 11  1  0  0  0  0
 10  1  1  0  0  0  0
 12 13  1  0  0  0  0
 14 12  1  0  0  0  0
 15 14  2  0  0  0  0
 16 15  1  0  0  0  0
 17 16  2  0  0  0  0
 17 19  1  0  0  0  0
 18 17  1  0  0  0  0
 19 20  2  0  0  0  0
 20 14  1  0  0  0  0
 21 27  1  0  0  0  0
 22 21  1  0  0  0  0
 22 23  1  0  0  0  0
 23 25  1  0  0  0  0
 24 22  2  0  0  0  0
 26 23  1  0  0  0  0
M  END
>  <TORSDO>
F 3

$$$$
