C:\Qe-CaDD\Project\Data\Stage_6_Molecular_Dynamics\ligands_top\out_21385_EGFR_extracted.pdbqt
 OpenBabel01082506443D

 20 21  0  0  0  0  0  0  0  0999 V2000
   24.4480    1.8920   52.5670 S   0  0  0  0  0  0  0  0  0  0  0  0
   24.5850    3.2070   53.2680 O   0  0  0  0  0  1  0  0  0  0  0  0
   23.2940    1.0910   53.0880 O   0  0  0  0  0  1  0  0  0  0  0  0
   24.2530    2.1920   50.8990 O   0  0  0  0  0  0  0  0  0  0  0  0
   24.9480    3.2250   50.2810 C   0  0  0  0  0  0  0  0  0  0  0  0
   24.3570    4.4480   50.0160 C   0  0  0  0  0  3  0  0  0  0  0  0
   25.0310    5.4700   49.4080 C   0  0  0  0  0  3  0  0  0  0  0  0
   26.3450    5.2970   49.0390 C   0  0  0  0  0  0  0  0  0  0  0  0
   26.9350    4.0660   49.3080 C   0  0  0  0  0  3  0  0  0  0  0  0
   26.2790    3.0200   49.9190 C   0  0  0  0  0  3  0  0  0  0  0  0
   27.1890    6.2100   48.4170 O   0  0  0  0  0  0  0  0  0  0  0  0
   28.5670    5.9960   48.2610 C   0  0  0  0  0  1  0  0  0  0  0  0
   25.9030    0.9820   52.8330 C   0  0  0  0  0  0  0  0  0  0  0  0
   25.8600   -0.4020   52.6950 C   0  0  0  0  0  3  0  0  0  0  0  0
   27.0300   -1.1010   52.9120 C   0  0  0  0  0  3  0  0  0  0  0  0
   28.2440   -0.5370   53.2580 C   0  0  0  0  0  0  0  0  0  0  0  0
   28.2690    0.8510   53.3930 C   0  0  0  0  0  3  0  0  0  0  0  0
   27.1120    1.5730   53.1810 C   0  0  0  0  0  3  0  0  0  0  0  0
   29.4330   -1.3630   53.4690 C   0  0  0  0  0  2  0  0  0  0  0  0
   29.2190   -2.6000   53.4180 O   0  0  0  0  0  1  0  0  0  0  0  0
  1 13  1  0  0  0  0
  1  3  1  0  0  0  0
  1  2  1  0  0  0  0
  4  1  1  0  0  0  0
  5  4  1  0  0  0  0
  6  5  1  0  0  0  0
  7  6  2  0  0  0  0
  8  9  2  0  0  0  0
  8  7  1  0  0  0  0
  9 10  1  0  0  0  0
 10  5  2  0  0  0  0
 11  8  1  0  0  0  0
 12 11  1  0  0  0  0
 13 18  1  0  0  0  0
 14 13  2  0  0  0  0
 14 15  1  0  0  0  0
 15 16  2  0  0  0  0
 16 17  1  0  0  0  0
 16 19  1  0  0  0  0
 18 17  2  0  0  0  0
 20 19  1  0  0  0  0
M  END
>  <TORSDO>
F 5

$$$$
