C:\Qe-CaDD\Project\Data\Stage_6_Molecular_Dynamics\ligands_top\out_12241_EGFR_extracted.pdbqt
 OpenBabel01082506443D

 22 24  0  0  1  0  0  0  0  0999 V2000
   25.4850   -0.6560   53.3100 C   0  0  1  0  0  3  0  0  0  0  0  0
   24.0640   -0.5840   53.2040 C   0  0  0  0  0  3  0  0  0  0  0  0
   23.4030    0.5350   53.0540 C   0  0  0  0  0  3  0  0  0  0  0  0
   23.9020    1.7400   53.0870 C   0  0  0  0  0  2  0  0  0  0  0  0
   25.3600    1.7520   53.3790 C   0  0  2  0  0  3  0  0  0  0  0  0
   26.4980    1.9360   54.1930 N   0  0  0  0  0  2  0  0  0  0  0  0
   27.6530    1.6070   53.4420 C   0  0  0  0  0  2  0  0  0  0  0  0
   27.2440    0.2120   53.8360 N   0  0  2  0  0  0  0  0  0  0  0  0
   28.2800   -0.4920   53.1110 C   0  0  0  0  0  2  0  0  0  0  0  0
   26.9460   -0.8130   52.9570 C   0  0  1  0  0  3  0  0  0  0  0  0
   25.5860    1.7400   51.9070 N   0  0  0  0  0  0  0  0  0  0  0  0
   25.8360    0.9830   51.1910 H   0  0  0  0  0  0  0  0  0  0  0  0
   25.5260    2.8050   50.9000 C   0  0  0  0  0  0  0  0  0  0  0  0
   24.2450    3.2360   50.4900 C   0  0  0  0  0  3  0  0  0  0  0  0
   24.0690    4.2180   49.5470 C   0  0  0  0  0  3  0  0  0  0  0  0
   25.1710    4.8030   48.9770 C   0  0  0  0  0  3  0  0  0  0  0  0
   26.4280    4.3980   49.3600 C   0  0  0  0  0  0  0  0  0  0  0  0
   27.9390    5.2300   48.5540 Br  0  0  0  0  0  0  0  0  0  0  0  0
   26.6230    3.4090   50.3130 C   0  0  0  0  0  3  0  0  0  0  0  0
   25.3120   -0.3140   54.5700 N   0  0  0  0  0  2  0  0  0  0  0  0
   24.8950   -1.0410   55.6610 C   0  0  0  0  0  3  0  0  0  0  0  0
   25.3070   -1.1900   56.8290 O   0  0  0  0  0  0  0  0  0  0  0  0
  1 20  1  6  0  0  0
  2  1  1  0  0  0  0
  3  4  1  0  0  0  0
  3  2  2  0  0  0  0
  4  5  1  0  0  0  0
  5 11  1  6  0  0  0
  5  6  1  0  0  0  0
  7  8  1  0  0  0  0
  7  6  1  0  0  0  0
  8  9  1  1  0  0  0
 10  9  1  1  0  0  0
 10  1  1  0  0  0  0
 10  8  1  0  0  0  0
 12 11  1  0  0  0  0
 13 11  1  0  0  0  0
 14 13  1  0  0  0  0
 15 14  2  0  0  0  0
 16 17  2  0  0  0  0
 16 15  1  0  0  0  0
 17 19  1  0  0  0  0
 18 17  1  0  0  0  0
 19 13  2  0  0  0  0
 20 21  1  0  0  0  0
 21 22  2  0  0  0  0
M  END
>  <TORSDO>
F 4

$$$$
