C:\Qe-CaDD\Project\Data\Stage_6_Molecular_Dynamics\ligands_top\out_11839_EGFR_extracted.pdbqt
 OpenBabel01082506443D

 29 30  0  0  1  0  0  0  0  0999 V2000
   23.4230    2.1660   51.7710 C   0  0  0  0  0  0  0  0  0  0  0  0
   22.7740    1.6740   50.6340 C   0  0  0  0  0  3  0  0  0  0  0  0
   22.6780    2.2990   49.4130 C   0  0  0  0  0  3  0  0  0  0  0  0
   23.2840    3.5330   49.3060 C   0  0  0  0  0  3  0  0  0  0  0  0
   23.9320    4.0570   50.3910 C   0  0  0  0  0  0  0  0  0  0  0  0
   24.0060    3.3970   51.6000 C   0  0  0  0  0  0  0  0  0  0  0  0
   23.4200    1.3240   53.0120 C   0  0  0  0  0  2  0  0  0  0  0  0
   24.6110    0.4370   53.0550 C   0  0  1  0  0  3  0  0  0  0  0  0
   24.6280   -0.8510   53.3290 C   0  0  0  0  0  2  0  0  0  0  0  0
   26.0660   -0.9650   53.1860 C   0  0  1  0  0  3  0  0  0  0  0  0
   27.3390   -1.3600   53.0590 C   0  0  0  0  0  3  0  0  0  0  0  0
   26.0450    0.4820   52.7980 C   0  0  2  0  0  3  0  0  0  0  0  0
   28.5210   -0.4750   53.1690 C   0  0  0  0  0  3  0  0  0  0  0  0
   28.3940    0.8250   53.4280 C   0  0  0  0  0  2  0  0  0  0  0  0
   26.9740    1.2900   53.6020 C   0  0  0  0  0  2  0  0  0  0  0  0
   27.7180   -2.7460   53.0010 N   0  0  0  0  0  1  0  0  0  0  0  0
   27.6760   -3.7650   52.7930 H   0  0  0  0  0 15  0  0  0  0  0  0
   27.0830   -3.4110   52.5490 H   0  0  0  0  0  0  0  0  0  0  0  0
   24.6580    3.9130   52.7120 O   0  0  0  0  0  0  0  0  0  0  0  0
   24.4760    4.8820   52.9910 H   0  0  0  0  0  0  0  0  0  0  0  0
   24.5910    5.3310   50.3600 N   0  0  0  0  0  0  0  0  0  0  0  0
   24.0780    6.3600   51.0690 O   0  0  0  0  0  0  0  0  0  0  0  0
   23.4290    6.8590   50.5040 H   0  0  0  0  0  0  0  0  0  0  0  0
   25.7810    5.6070   49.6200 C   0  0  0  0  0  0  0  0  0  0  0  0
   26.1240    6.8840   49.1790 C   0  0  0  0  0  3  0  0  0  0  0  0
   27.3020    7.0680   48.4680 C   0  0  0  0  0  3  0  0  0  0  0  0
   28.1610    6.0310   48.1720 C   0  0  0  0  0  3  0  0  0  0  0  0
   27.8420    4.7630   48.5970 C   0  0  0  0  0  3  0  0  0  0  0  0
   26.6760    4.5830   49.3010 C   0  0  0  0  0  3  0  0  0  0  0  0
  1  7  1  0  0  0  0
  2  1  2  0  0  0  0
  3  2  1  0  0  0  0
  4  3  2  0  0  0  0
  4  5  1  0  0  0  0
  5  6  2  0  0  0  0
  6  1  1  0  0  0  0
  6 19  1  0  0  0  0
  8  7  1  6  0  0  0
  8  9  1  0  0  0  0
 10 11  1  6  0  0  0
 10  9  1  0  0  0  0
 11 13  2  0  0  0  0
 12  8  1  0  0  0  0
 12 10  1  0  0  0  0
 12 15  1  1  0  0  0
 13 14  1  0  0  0  0
 14 15  1  0  0  0  0
 18 16  1  0  0  0  0
 19 20  1  0  0  0  0
 21  5  1  0  0  0  0
 21 22  1  0  0  0  0
 23 22  1  0  0  0  0
 24 21  1  0  0  0  0
 25 24  2  0  0  0  0
 26 25  1  0  0  0  0
 27 26  2  0  0  0  0
 27 28  1  0  0  0  0
 28 29  2  0  0  0  0
 29 24  1  0  0  0  0
M  END
>  <TORSDO>
F 7

$$$$
