C:\Qe-CaDD\Project\Data\Stage_6_Molecular_Dynamics\ligands_top\out_16447_EGFR_extracted.pdbqt
 OpenBabel01082506443D

 32 36  0  0  1  0  0  0  0  0999 V2000
   25.7900    4.5040   49.7490 C   0  0  0  0  0  0  0  0  0  0  0  0
   26.9690    4.5830   48.9910 C   0  0  0  0  0  3  0  0  0  0  0  0
   27.4340    5.8640   48.7460 C   0  0  0  0  0  0  0  0  0  0  0  0
   26.8000    6.9910   49.2070 N   0  0  0  0  0  0  0  0  0  0  0  0
   25.6550    6.8450   49.9380 C   0  0  0  0  0  3  0  0  0  0  0  0
   25.1910    5.6200   50.1830 N   0  0  0  0  0  0  0  0  0  0  0  0
   25.3370    3.1830   50.0030 N   0  0  0  0  0  0  0  0  0  0  0  0
   24.8300    3.0190   49.1110 H   0  0  0  0  0  0  0  0  0  0  0  0
   25.4620    2.2670   51.0800 C   0  0  0  0  0  0  0  0  0  0  0  0
   26.7160    1.9940   51.5810 C   0  0  0  0  0  3  0  0  0  0  0  0
   26.7840    1.1060   52.6330 C   0  0  0  0  0  0  0  0  0  0  0  0
   27.7730    0.5380   53.4450 C   0  0  0  0  0  3  0  0  0  0  0  0
   25.6160    0.5430   53.1240 C   0  0  0  0  0  0  0  0  0  0  0  0
   27.1620   -0.2830   54.3220 N   0  0  0  0  0  0  0  0  0  0  0  0
   25.8510   -0.2950   54.1450 N   0  0  0  0  0  0  0  0  0  0  0  0
   24.7650   -0.9960   54.8180 C   0  0  0  0  0  3  0  0  0  0  0  0
   23.4620   -0.6240   54.1870 C   0  0  0  0  0  3  0  0  0  0  0  0
   23.1980    0.2080   53.1710 C   0  0  0  0  0  0  0  0  0  0  0  0
   24.3690    0.8490   52.5850 C   0  0  0  0  0  0  0  0  0  0  0  0
   24.2640    1.7460   51.5190 C   0  0  0  0  0  2  0  0  0  0  0  0
   21.8580    0.5170   52.6110 C   0  0  0  0  0  2  0  0  0  0  0  0
   21.6090   -0.3140   51.5610 F   0  0  0  0  0  0  0  0  0  0  0  0
   28.6950    6.0240   47.9360 C   0  0  0  0  0  2  0  0  0  0  0  0
   29.6440    5.1460   48.3630 O   0  0  0  0  0  0  0  0  0  0  0  0
   30.8150    5.1100   47.6770 C   0  0  0  0  0  2  0  0  0  0  0  0
   32.0290    5.7150   48.3200 C   0  0  2  0  0  3  0  0  0  0  0  0
   31.8270    6.0460   49.7630 C   0  0  0  0  0  2  0  0  0  0  0  0
   31.5930    7.4020   50.0590 N   0  0  0  0  0  0  0  0  0  0  0  0
   32.0270    8.3940   49.1500 C   0  0  0  0  0  2  0  0  0  0  0  0
   30.9300    7.6530   50.7870 H   0  0  0  0  0  0  0  0  0  0  0  0
   31.7330    7.9240   47.7320 C   0  0  0  0  0  2  0  0  0  0  0  0
   32.5000    6.7680   47.5600 O   0  0  0  0  0  0  0  0  0  0  0  0
  1  7  1  0  0  0  0
  1  6  1  0  0  0  0
  2  1  2  0  0  0  0
  3  2  1  0  0  0  0
  3  4  2  0  0  0  0
  4  5  1  0  0  0  0
  5  6  2  0  0  0  0
  7  9  1  0  0  0  0
  8  7  1  0  0  0  0
  9 20  1  0  0  0  0
  9 10  2  0  0  0  0
 10 11  1  0  0  0  0
 11 13  2  0  0  0  0
 11 12  1  0  0  0  0
 12 14  2  0  0  0  0
 13 15  1  0  0  0  0
 15 14  1  0  0  0  0
 15 16  1  0  0  0  0
 17 16  2  0  0  0  0
 18 17  1  0  0  0  0
 19 13  1  0  0  0  0
 19 18  2  0  0  0  0
 20 19  1  0  0  0  0
 21 18  1  0  0  0  0
 22 21  1  0  0  0  0
 23 24  1  0  0  0  0
 23  3  1  0  0  0  0
 25 24  1  0  0  0  0
 26 25  1  6  0  0  0
 26 27  1  0  0  0  0
 27 28  1  0  0  0  0
 28 30  1  0  0  0  0
 29 28  1  0  0  0  0
 31 29  1  0  0  0  0
 32 31  1  0  0  0  0
 32 26  1  0  0  0  0
M  END
>  <TORSDO>
F 7

$$$$
