C:\Qe-CaDD\Project\Data\Stage_6_Molecular_Dynamics\ligands_top\out_10580_EGFR_extracted.pdbqt
 OpenBabel01082506443D

 22 23  0  0  1  0  0  0  0  0999 V2000
   26.2340    0.0770   54.4470 C   0  0  1  0  0  3  0  0  0  0  0  0
   26.0190    0.5990   53.0500 C   0  0  0  0  0  3  0  0  0  0  0  0
   24.8850    0.7690   52.3470 C   0  0  0  0  0  3  0  0  0  0  0  0
   23.4890    0.5170   52.6710 C   0  0  0  0  0  0  0  0  0  0  0  0
   22.8930   -0.1530   53.6430 C   0  0  0  0  0  0  0  0  0  0  0  0
   21.4870   -0.3910   53.9450 C   0  0  0  0  0  3  0  0  0  0  0  0
   20.3550   -0.2700   53.2300 C   0  0  0  0  0  0  0  0  0  0  0  0
   19.1990   -0.5950   53.8740 F   0  0  0  0  0  0  0  0  0  0  0  0
   20.0890    0.1580   51.8410 C   0  0  0  0  0  3  0  0  0  0  0  0
   20.7480    1.0300   51.0970 C   0  0  0  0  0  3  0  0  0  0  0  0
   21.8850    1.9500   51.0830 C   0  0  0  0  0  2  0  0  0  0  0  0
   23.0750    1.2710   51.5380 N   0  0  0  0  0  0  0  0  0  0  0  0
   23.2240   -0.9400   54.8250 C   0  0  0  0  0  0  0  0  0  0  0  0
   22.2230   -1.4530   55.3430 O   0  0  0  0  0  0  0  0  0  0  0  0
   24.5530   -1.1790   55.4380 C   0  0  0  0  0  2  0  0  0  0  0  0
   25.5820   -1.1360   54.5240 O   0  0  0  0  0  0  0  0  0  0  0  0
   23.9090    1.3140   50.8810 H   0  0  0  0  0  0  0  0  0  0  0  0
   27.6970    0.0020   54.6500 C   0  0  0  0  0  3  0  0  0  0  0  0
   28.4600   -0.6470   53.8120 N   0  0  0  0  0  0  0  0  0  0  0  0
   29.8520   -0.7660   53.9310 C   0  0  0  0  0  2  0  0  0  0  0  0
   30.0720    0.4260   53.4860 N   0  0  0  0  0  2  0  0  0  0  0  0
   29.3350    1.0940   53.1910 H   0  0  0  0  0  0  0  0  0  0  0  0
  1 16  1  0  0  0  0
  1 18  1  6  0  0  0
  2  1  1  0  0  0  0
  3  4  1  0  0  0  0
  3  2  2  0  0  0  0
  4  5  2  0  0  0  0
  5  6  1  0  0  0  0
  5 13  1  0  0  0  0
  7  8  1  0  0  0  0
  7  6  2  0  0  0  0
  9  7  1  0  0  0  0
 10  9  2  0  0  0  0
 11 10  1  0  0  0  0
 11 12  1  0  0  0  0
 12  4  1  0  0  0  0
 13 14  2  0  0  0  0
 13 15  1  0  0  0  0
 16 15  1  0  0  0  0
 17 12  1  0  0  0  0
 19 20  1  0  0  0  0
 19 18  2  0  0  0  0
 21 20  1  0  0  0  0
 22 21  1  0  0  0  0
M  END
>  <TORSDO>
F 2

$$$$
