C:\Qe-CaDD\Project\Data\Stage_6_Molecular_Dynamics\ligands_top\out_11529_EGFR_extracted.pdbqt
 OpenBabel01082506443D

 22 25  0  0  1  0  0  0  0  0999 V2000
   24.1400    2.2300   51.8080 C   0  0  0  0  0  0  0  0  0  0  0  0
   23.5600    1.1610   52.2940 C   0  0  0  0  0  0  0  0  0  0  0  0
   22.7300    0.2050   53.0150 C   0  0  0  0  0  0  0  0  0  0  0  0
   23.3510   -0.3230   54.1320 C   0  0  0  0  0  2  0  0  0  0  0  0
   22.7700   -1.2460   54.9950 C   0  0  0  0  0  3  0  0  0  0  0  0
   21.4990   -1.5560   54.5830 C   0  0  0  0  0  3  0  0  0  0  0  0
   20.8290   -1.0720   53.4900 C   0  0  0  0  0  3  0  0  0  0  0  0
   21.4500   -0.1620   52.6730 C   0  0  0  0  0  0  0  0  0  0  0  0
   20.6110    0.3240   51.5340 C   0  0  2  0  0  3  0  0  0  0  0  0
   21.4330    0.7840   50.3670 C   0  0  0  0  0  2  0  0  0  0  0  0
   20.8790    1.7220   51.3430 C   0  0  1  0  0  3  0  0  0  0  0  0
   20.0710    2.6950   50.7190 N   0  0  0  0  0  2  0  0  0  0  0  0
   20.3660    3.9310   51.0600 C   0  0  0  0  0  2  0  0  0  0  0  0
   21.4020    4.3570   51.9820 N   0  0  0  0  0  0  0  0  0  0  0  0
   22.5610    4.0530   52.6960 C   0  0  2  0  0  3  0  0  0  0  0  0
   23.7270    4.9230   52.4940 C   0  0  0  0  0  2  0  0  0  0  0  0
   23.7660    3.6050   52.2110 C   0  0  1  0  0  3  0  0  0  0  0  0
   21.2000    5.3700   52.2620 H   0  0  0  0  0  0  0  0  0  0  0  0
   25.1930    2.2020   50.8400 O   0  0  0  0  0  0  0  0  0  0  0  0
   26.5190    1.9920   51.2080 C   0  0  0  0  0  2  0  0  0  0  0  0
   27.1670    3.2330   51.2070 O   0  0  0  0  0  0  0  0  0  0  0  0
   26.6480    3.9350   51.6750 H   0  0  0  0  0  0  0  0  0  0  0  0
  1 17  1  0  0  0  0
  1  2  2  0  0  0  0
  2  3  2  0  0  0  0
  3  4  1  0  0  0  0
  4  5  1  0  0  0  0
  6  5  2  0  0  0  0
  7  6  1  0  0  0  0
  8  3  1  0  0  0  0
  8  7  2  0  0  0  0
  9 10  1  6  0  0  0
  9  8  1  0  0  0  0
 11 10  1  6  0  0  0
 11  9  1  0  0  0  0
 12 13  1  0  0  0  0
 12 11  1  0  0  0  0
 13 14  1  0  0  0  0
 14 18  1  0  0  0  0
 14 15  1  0  0  0  0
 15 16  1  6  0  0  0
 17 16  1  1  0  0  0
 17 15  1  0  0  0  0
 19 20  1  0  0  0  0
 19  1  1  0  0  0  0
 21 20  1  0  0  0  0
 21 22  1  0  0  0  0
M  END
>  <TORSDO>
F 3

$$$$
