C:\Qe-CaDD\Project\Data\Stage_6_Molecular_Dynamics\ligands_top\out_21566_EGFR_extracted.pdbqt
 OpenBabel01082506443D

 22 23  0  0  0  0  0  0  0  0999 V2000
   24.4590    1.4380   53.0320 C   0  0  0  0  0  0  0  0  0  0  0  0
   22.9520    1.4910   52.9710 C   0  0  0  0  0  3  0  0  0  0  0  0
   22.1380    1.9510   52.0270 C   0  0  0  0  0  2  0  0  0  0  0  0
   22.7340    2.4780   50.8930 O   0  0  0  0  0  0  0  0  0  0  0  0
   24.1170    2.4940   50.8140 C   0  0  0  0  0  0  0  0  0  0  0  0
   24.9300    2.0240   51.7790 C   0  0  0  0  0  3  0  0  0  0  0  0
   24.9180    0.0480   53.2830 C   0  0  0  0  0  0  0  0  0  0  0  0
   23.9900   -0.7880   53.5860 O   0  0  0  0  0  0  0  0  0  0  0  0
   26.3570   -0.3290   53.1840 C   0  0  0  0  0  0  0  0  0  0  0  0
   26.5540   -1.3590   52.3310 C   0  0  0  0  0  2  0  0  0  0  0  0
   27.1900    0.5200   54.0600 C   0  0  0  0  0  2  0  0  0  0  0  0
   28.3770    0.9530   53.3720 N   0  0  0  0  0  0  0  0  0  0  0  0
   28.5800    2.3990   53.5660 C   0  0  0  0  0  1  0  0  0  0  0  0
   29.5900    0.2620   53.8010 C   0  0  0  0  0  1  0  0  0  0  0  0
   24.7630    3.0120   49.7000 O   0  0  0  0  0  0  0  0  0  0  0  0
   26.1440    3.2930   49.8260 C   0  0  0  0  0  2  0  0  0  0  0  0
   26.5520    4.5650   49.1870 C   0  0  0  0  0  0  0  0  0  0  0  0
   27.8150    4.8340   48.7090 C   0  0  0  0  0  3  0  0  0  0  0  0
   28.0550    6.0680   48.1330 C   0  0  0  0  0  3  0  0  0  0  0  0
   27.0280    7.0020   48.0490 C   0  0  0  0  0  3  0  0  0  0  0  0
   25.7610    6.7480   48.5220 C   0  0  0  0  0  3  0  0  0  0  0  0
   25.5150    5.5020   49.1050 C   0  0  0  0  0  3  0  0  0  0  0  0
  1  7  1  0  0  0  0
  2  1  2  0  0  0  0
  3  2  1  0  0  0  0
  4  3  1  0  0  0  0
  5  4  1  0  0  0  0
  5  6  2  0  0  0  0
  6  1  1  0  0  0  0
  7  8  2  0  0  0  0
  9  7  1  0  0  0  0
  9 11  1  0  0  0  0
 10  9  2  0  0  0  0
 12 13  1  0  0  0  0
 12 14  1  0  0  0  0
 12 11  1  0  0  0  0
 15 16  1  0  0  0  0
 15  5  1  0  0  0  0
 17 16  1  0  0  0  0
 18 17  2  0  0  0  0
 19 18  1  0  0  0  0
 20 19  2  0  0  0  0
 20 21  1  0  0  0  0
 21 22  2  0  0  0  0
 22 17  1  0  0  0  0
M  END
>  <TORSDO>
F 7

$$$$
