C:\Qe-CaDD\Project\Data\Stage_6_Molecular_Dynamics\ligands_top\out_21665_EGFR_extracted.pdbqt
 OpenBabel01082506443D

 22 24  0  0  1  0  0  0  0  0999 V2000
   23.9370    0.2790   53.0410 C   0  0  0  0  0  2  0  0  0  0  0  0
   25.0760    0.8580   52.8420 C   0  0  0  0  0  0  0  0  0  0  0  0
   25.9870    1.7750   52.0030 C   0  0  0  0  0  0  0  0  0  0  0  0
   26.4240    2.5640   51.1080 C   0  0  0  0  0  3  0  0  0  0  0  0
   26.4710    1.1530   53.2470 C   0  0  2  0  0  3  0  0  0  0  0  0
   25.8480    3.2130   49.8990 C   0  0  0  0  0  3  0  0  0  0  0  0
   24.6050    3.6520   49.7250 C   0  0  0  0  0  3  0  0  0  0  0  0
   23.5400    3.5910   50.6890 C   0  0  0  0  0  0  0  0  0  0  0  0
   23.3680    4.0100   51.8650 O   0  0  0  0  0  0  0  0  0  0  0  0
   22.3300    2.9230   50.3700 N   0  0  0  0  0  0  0  0  0  0  0  0
   21.9440    2.2670   49.1640 C   0  0  0  0  0  2  0  0  0  0  0  0
   21.0850    2.6180   51.0260 C   0  0  0  0  0  2  0  0  0  0  0  0
   21.5420    0.8720   49.5750 C   0  0  0  0  0  2  0  0  0  0  0  0
   21.1390    1.0840   51.0070 C   0  0  2  0  0  3  0  0  0  0  0  0
   19.7120    0.6080   51.1780 C   0  0  0  0  0  1  0  0  0  0  0  0
   27.3750    0.0130   53.2210 C   0  0  0  0  0  0  0  0  0  0  0  0
   26.9370   -1.2200   52.7830 C   0  0  0  0  0  3  0  0  0  0  0  0
   27.6130   -2.3930   52.6790 C   0  0  0  0  0  3  0  0  0  0  0  0
   28.9250   -2.2920   53.0830 C   0  0  0  0  0  3  0  0  0  0  0  0
   29.5590   -1.1290   53.5570 C   0  0  0  0  0  3  0  0  0  0  0  0
   28.6980   -0.0090   53.5930 C   0  0  0  0  0  0  0  0  0  0  0  0
   29.4050    1.2030   54.0920 C   0  0  0  0  0  1  0  0  0  0  0  0
  2  1  2  0  0  0  0
  2  5  1  0  0  0  0
  3  2  1  0  0  0  0
  3  5  1  0  0  0  0
  4  3  2  0  0  0  0
  5 16  1  6  0  0  0
  6  4  1  0  0  0  0
  7  6  2  0  0  0  0
  7  8  1  0  0  0  0
  8  9  2  0  0  0  0
 10  8  1  0  0  0  0
 10 12  1  0  0  0  0
 11 13  1  0  0  0  0
 11 10  1  0  0  0  0
 13 14  1  0  0  0  0
 14 12  1  0  0  0  0
 14 15  1  6  0  0  0
 16 21  1  0  0  0  0
 17 16  2  0  0  0  0
 18 17  1  0  0  0  0
 18 19  2  0  0  0  0
 19 20  1  0  0  0  0
 20 21  2  0  0  0  0
 21 22  1  0  0  0  0
M  END
>  <TORSDO>
F 3

$$$$
