C:\Qe-CaDD\Project\Data\Stage_6_Molecular_Dynamics\ligands_top\out_23025_EGFR_extracted.pdbqt
 OpenBabel01082506443D

 32 35  0  0  1  0  0  0  0  0999 V2000
   22.6590    1.5370   50.6580 C   0  0  0  0  0  2  0  0  0  0  0  0
   22.6800    2.8380   50.8890 C   0  0  2  0  0  3  0  0  0  0  0  0
   23.8350    2.8260   49.9460 C   0  0  0  0  0  3  0  0  0  0  0  0
   23.6830    2.9560   48.6490 C   0  0  0  0  0  3  0  0  0  0  0  0
   22.4250    2.9710   48.2200 C   0  0  0  0  0  2  0  0  0  0  0  0
   22.4560    4.2470   48.7350 O   0  0  0  0  0  0  0  0  0  0  0  0
   22.7740    5.4060   48.0230 C   0  0  0  0  0  2  0  0  0  0  0  0
   23.7710    6.1770   48.7850 C   0  0  2  0  0  3  0  0  0  0  0  0
   24.5750    7.0020   47.9860 C   0  0  0  0  0  3  0  0  0  0  0  0
   25.5600    7.7620   48.6070 C   0  0  0  0  0  0  0  0  0  0  0  0
   26.3570    8.5720   47.8410 F   0  0  0  0  0  0  0  0  0  0  0  0
   25.8220    7.7790   49.9590 C   0  0  0  0  0  3  0  0  0  0  0  0
   25.0190    6.9600   50.7160 C   0  0  0  0  0  3  0  0  0  0  0  0
   24.0490    6.2080   50.1270 C   0  0  0  0  0  0  0  0  0  0  0  0
   23.1810    5.3340   50.8560 C   0  0  0  0  0  0  0  0  0  0  0  0
   22.6310    4.2160   51.2080 C   0  0  0  0  0  0  0  0  0  0  0  0
   21.4340    3.8350   52.4040 Cl  0  0  0  0  0  0  0  0  0  0  0  0
   21.5730    0.9400   51.4260 C   0  0  0  0  0  0  0  0  0  0  0  0
   21.6660    0.1940   52.5810 C   0  0  0  0  0  0  0  0  0  0  0  0
   23.0720    0.1560   52.9820 C   0  0  0  0  0  3  0  0  0  0  0  0
   20.6060   -0.3850   53.2410 C   0  0  0  0  0  0  0  0  0  0  0  0
   23.6300   -0.5150   53.9960 C   0  0  0  0  0  0  0  0  0  0  0  0
   22.9030   -1.3870   54.9570 C   0  0  0  0  0  2  0  0  0  0  0  0
   21.7880   -1.9840   54.4290 O   0  0  0  0  0  0  0  0  0  0  0  0
   20.6360   -1.2040   54.4850 C   0  0  0  0  0  2  0  0  0  0  0  0
   19.3690   -0.2240   52.7400 N   0  0  0  0  0  0  0  0  0  0  0  0
   19.2600    0.4980   51.6200 C   0  0  0  0  0  3  0  0  0  0  0  0
   20.2850    1.0590   50.9790 N   0  0  0  0  0  0  0  0  0  0  0  0
   25.0570   -0.3480   54.1360 C   0  0  0  0  0  0  0  0  0  0  0  0
   25.6490   -0.9280   55.0560 O   0  0  0  0  0  0  0  0  0  0  0  0
   25.8890    0.4840   53.2420 C   0  0  0  0  0  2  0  0  0  0  0  0
   26.6910   -0.3720   52.2840 C   0  0  0  0  0  1  0  0  0  0  0  0
  1 18  1  0  0  0  0
  2  1  1  1  0  0  0
  2 16  1  0  0  0  0
  3  2  1  0  0  0  0
  4  3  2  0  0  0  0
  5  4  1  0  0  0  0
  5  6  1  0  0  0  0
  7  6  1  0  0  0  0
  7  8  1  0  0  0  0
  8  9  1  6  0  0  0
  8 14  1  0  0  0  0
  9 10  2  0  0  0  0
 10 12  1  0  0  0  0
 11 10  1  0  0  0  0
 12 13  2  0  0  0  0
 14 13  1  0  0  0  0
 14 15  2  0  0  0  0
 15 16  2  0  0  0  0
 16 17  1  0  0  0  0
 18 19  1  0  0  0  0
 19 20  1  0  0  0  0
 19 21  2  0  0  0  0
 20 22  2  0  0  0  0
 21 25  1  0  0  0  0
 22 29  1  0  0  0  0
 22 23  1  0  0  0  0
 24 25  1  0  0  0  0
 24 23  1  0  0  0  0
 26 21  1  0  0  0  0
 27 26  2  0  0  0  0
 28 18  2  0  0  0  0
 28 27  1  0  0  0  0
 29 30  2  0  0  0  0
 31 29  1  0  0  0  0
 32 31  1  0  0  0  0
M  END
>  <TORSDO>
F 3

$$$$
