C:\Qe-CaDD\Project\Data\Stage_6_Molecular_Dynamics\ligands_top\out_17749_EGFR_extracted.pdbqt
 OpenBabel01082506443D

 36 39  0  0  1  0  0  0  0  0999 V2000
   24.5000    0.1800   52.9410 C   0  0  0  0  0  0  0  0  0  0  0  0
   24.9910    1.3900   52.4210 C   0  0  0  0  0  3  0  0  0  0  0  0
   24.2890    2.4990   52.0020 C   0  0  0  0  0  0  0  0  0  0  0  0
   22.9300    2.4410   52.0920 C   0  0  0  0  0  0  0  0  0  0  0  0
   22.3750    1.2900   52.5950 C   0  0  0  0  0  0  0  0  0  0  0  0
   23.1010    0.1580   53.0210 C   0  0  0  0  0  0  0  0  0  0  0  0
   21.7170    3.1250   51.8230 N   0  0  0  0  0  0  0  0  0  0  0  0
   20.5350    3.5860   52.4220 C   0  0  0  0  0  1  0  0  0  0  0  0
   21.7310    3.3840   50.4510 C   0  0  2  0  0  3  0  0  0  0  0  0
   21.3900    2.8680   49.3860 N   0  0  0  0  0  2  0  0  0  0  0  0
   21.7370    3.7670   48.2540 C   0  0  1  0  0  0  0  0  0  0  0  0
   20.4980    4.5220   47.8830 C   0  0  0  0  0  1  0  0  0  0  0  0
   22.6180    4.6890   48.9130 O   0  0  0  0  0  0  0  0  0  0  0  0
   22.4930    4.5450   50.2620 C   0  0  0  0  0  0  0  0  0  0  0  0
   23.0370    5.4520   51.0200 C   0  0  0  0  0  0  0  0  0  0  0  0
   23.7860    6.6080   51.3860 C   0  0  0  0  0  3  0  0  0  0  0  0
   24.4850    7.3900   50.5930 C   0  0  0  0  0  2  0  0  0  0  0  0
   24.5640    7.1000   49.2010 N   0  0  0  0  0  0  0  0  0  0  0  0
   25.5230    5.9820   49.3070 C   0  0  0  0  0  0  0  0  0  0  0  0
   25.4070    5.0420   50.1640 N   0  0  0  0  0  0  0  0  0  0  0  0
   25.9950    3.9810   50.5260 C   0  0  0  0  0  0  0  0  0  0  0  0
   27.0830    3.7490   49.8000 N   0  0  0  0  0  0  0  0  0  0  0  0
   27.4360    4.6180   48.8000 C   0  0  0  0  0  3  0  0  0  0  0  0
   26.6650    5.7530   48.5330 C   0  0  0  0  0  0  0  0  0  0  0  0
   26.9110    6.6900   47.5650 F   0  0  0  0  0  0  0  0  0  0  0  0
   25.2760    3.4080   51.5830 N   0  0  0  0  0  0  0  0  0  0  0  0
   24.4690    7.0710   48.1850 H   0  0  0  0  0  0  0  0  0  0  0  0
   25.7970    3.9110   52.3280 H   0  0  0  0  0  0  0  0  0  0  0  0
   22.3710    3.0340   47.1620 C   0  0  0  0  0  2  0  0  0  0  0  0
   22.4200    1.8590   47.5500 O   0  0  0  0  0  1  0  0  0  0  0  0
   21.0220    0.9550   52.8180 O   0  0  0  0  0  0  0  0  0  0  0  0
   20.4520    0.1230   51.7850 C   0  0  0  0  0  1  0  0  0  0  0  0
   22.6380   -1.0700   53.5450 O   0  0  0  0  0  0  0  0  0  0  0  0
   22.3740   -1.2160   54.9240 C   0  0  0  0  0  1  0  0  0  0  0  0
   25.2970   -0.8900   53.3380 O   0  0  0  0  0  0  0  0  0  0  0  0
   26.4770   -1.2430   52.6850 C   0  0  0  0  0  1  0  0  0  0  0  0
  1  6  1  0  0  0  0
  1 35  1  0  0  0  0
  2  1  2  0  0  0  0
  3  4  2  0  0  0  0
  3  2  1  0  0  0  0
  4  5  1  0  0  0  0
  5 31  1  0  0  0  0
  5  6  2  0  0  0  0
  6 33  1  0  0  0  0
  7  4  1  0  0  0  0
  7  8  1  0  0  0  0
  9 10  1  6  0  0  0
  9  7  1  0  0  0  0
 11 12  1  6  0  0  0
 11 13  1  0  0  0  0
 11 10  1  0  0  0  0
 13 14  1  0  0  0  0
 14  9  1  0  0  0  0
 14 15  2  0  0  0  0
 15 16  2  0  0  0  0
 17 16  1  0  0  0  0
 18 19  1  0  0  0  0
 18 17  1  0  0  0  0
 19 20  1  0  0  0  0
 20 21  2  0  0  0  0
 21 26  1  0  0  0  0
 22 21  1  0  0  0  0
 23 22  2  0  0  0  0
 24 23  1  0  0  0  0
 24 19  2  0  0  0  0
 25 24  1  0  0  0  0
 26  3  1  0  0  0  0
 26 28  1  0  0  0  0
 27 18  1  0  0  0  0
 29 30  1  0  0  0  0
 29 11  1  0  0  0  0
 32 31  1  0  0  0  0
 33 34  1  0  0  0  0
 36 35  1  0  0  0  0
M  END
>  <TORSDO>
F 4

$$$$
