C:\Qe-CaDD\Project\Data\Stage_6_Molecular_Dynamics\ligands_top\out_16740_EGFR_extracted.pdbqt
 OpenBabel01082506443D

 28 31  0  0  1  0  0  0  0  0999 V2000
   24.2550    1.5460   52.2990 C   0  0  0  0  0  0  0  0  0  0  0  0
   23.0790    2.0850   52.7390 C   0  0  0  0  0  3  0  0  0  0  0  0
   22.7500    3.4160   52.6630 C   0  0  0  0  0  3  0  0  0  0  0  0
   23.6470    4.3040   52.1090 C   0  0  0  0  0  0  0  0  0  0  0  0
   24.8520    3.8280   51.6450 C   0  0  0  0  0  3  0  0  0  0  0  0
   25.1480    2.4800   51.7390 C   0  0  0  0  0  0  0  0  0  0  0  0
   26.7550    2.1270   51.0730 Cl  0  0  0  0  0  0  0  0  0  0  0  0
   23.2910    5.6790   52.0390 N   0  0  0  0  0  0  0  0  0  0  0  0
   22.2980    5.9790   52.1200 H   0  0  0  0  0  0  0  0  0  0  0  0
   24.2830    6.6180   51.8600 N   0  0  0  0  0  0  0  0  0  0  0  0
   25.2460    6.2490   52.0340 H   0  0  0  0  0  0  0  0  0  0  0  0
   24.1870    7.3620   50.6420 C   0  0  2  0  0  3  0  0  0  0  0  0
   23.7960    6.8830   49.4340 N   0  0  0  0  0  2  0  0  0  0  0  0
   25.0790    6.9220   49.5280 C   0  0  1  0  0  3  0  0  0  0  0  0
   26.4330    6.7330   49.0460 C   0  0  0  0  0  0  0  0  0  0  0  0
   26.6680    5.4070   48.9430 C   0  0  0  0  0  3  0  0  0  0  0  0
   27.9650    4.9660   48.4770 C   0  0  0  0  0  3  0  0  0  0  0  0
   28.8580    6.6200   48.1840 S   0  0  0  0  0  0  0  0  0  0  0  0
   27.4610    7.6910   48.6960 C   0  0  0  0  0  3  0  0  0  0  0  0
   24.8380    0.3220   52.2420 O   0  0  0  0  0  0  0  0  0  0  0  0
   25.2200   -0.5580   53.2250 C   0  0  0  0  0  2  0  0  0  0  0  0
   26.6720   -0.7600   53.3330 C   0  0  0  0  0  0  0  0  0  0  0  0
   27.5280   -1.7110   52.8430 C   0  0  0  0  0  3  0  0  0  0  0  0
   28.8760   -1.6900   53.1020 C   0  0  0  0  0  3  0  0  0  0  0  0
   29.4520   -0.7170   53.8650 C   0  0  0  0  0  3  0  0  0  0  0  0
   28.6260    0.2660   54.3830 C   0  0  0  0  0  0  0  0  0  0  0  0
   29.2300    1.2120   55.1330 F   0  0  0  0  0  0  0  0  0  0  0  0
   27.2670    0.2390   54.1190 C   0  0  0  0  0  3  0  0  0  0  0  0
  1  2  1  0  0  0  0
  3  2  2  0  0  0  0
  4  3  1  0  0  0  0
  5  6  1  0  0  0  0
  5  4  2  0  0  0  0
  6  1  2  0  0  0  0
  7  6  1  0  0  0  0
  8  4  1  0  0  0  0
  8  9  1  0  0  0  0
 10 11  1  0  0  0  0
 10  8  1  0  0  0  0
 12 10  1  1  0  0  0
 13 14  1  0  0  0  0
 13 12  1  0  0  0  0
 14 15  1  6  0  0  0
 14 12  1  0  0  0  0
 16 15  1  0  0  0  0
 17 16  2  0  0  0  0
 18 17  1  0  0  0  0
 18 19  1  0  0  0  0
 19 15  2  0  0  0  0
 20  1  1  0  0  0  0
 20 21  1  0  0  0  0
 21 22  1  0  0  0  0
 22 28  1  0  0  0  0
 23 24  1  0  0  0  0
 23 22  2  0  0  0  0
 24 25  2  0  0  0  0
 25 26  1  0  0  0  0
 26 27  1  0  0  0  0
 28 26  2  0  0  0  0
M  END
>  <TORSDO>
F 7

$$$$
