C:\Qe-CaDD\Project\Data\Stage_6_Molecular_Dynamics\ligands_top\out_16644_EGFR_extracted.pdbqt
 OpenBabel01082506443D

 24 26  0  0  1  0  0  0  0  0999 V2000
   23.9680    2.9120   52.2800 N   0  0  0  0  0  0  0  0  0  0  0  0
   24.3810    2.8200   50.9220 C   0  0  0  0  0  2  0  0  0  0  0  0
   25.6590    2.1580   50.6650 C   0  0  0  0  0  3  0  0  0  0  0  0
   26.4910    1.7030   51.6020 C   0  0  0  0  0  3  0  0  0  0  0  0
   26.1050    1.8750   53.0070 C   0  0  2  0  0  0  0  0  0  0  0  0
   27.0500    2.5750   53.8490 N   0  0  0  0  0  0  0  0  0  0  0  0
   27.7820    1.5690   54.5360 N   0  0  0  0  0  2  0  0  0  0  0  0
   27.1050    0.4660   54.4540 C   0  0  0  0  0  2  0  0  0  0  0  0
   25.8790    0.6050   53.7260 N   0  0  2  0  0  0  0  0  0  0  0  0
   24.5750    0.6130   53.0430 C   0  0  2  0  0  3  0  0  0  0  0  0
   24.6600    2.1190   53.2220 C   0  0  2  0  0  3  0  0  0  0  0  0
   27.2110    3.6040   53.9720 H   0  0  0  0  0  0  0  0  0  0  0  0
   23.8420    4.2750   52.7530 C   0  0  0  0  0  2  0  0  0  0  0  0
   22.7260    5.0090   52.0310 C   0  0  0  0  0  2  0  0  0  0  0  0
   23.4060    6.1230   51.2340 C   0  0  1  0  0  3  0  0  0  0  0  0
   22.3300    7.0760   50.7980 C   0  0  0  0  0  1  0  0  0  0  0  0
   24.3730    6.7890   52.0940 N   0  0  0  0  0  0  0  0  0  0  0  0
   24.8360    6.1330   52.7630 H   0  0  0  0  0  0  0  0  0  0  0  0
   25.1710    7.0790   51.4480 H   0  0  0  0  0  0  0  0  0  0  0  0
   23.4880    0.0860   53.7730 N   0  0  0  0  0  0  0  0  0  0  0  0
   23.1120    0.6190   54.5540 H   0  0  0  0  0  0  0  0  0  0  0  0
   22.5950   -0.7900   53.1410 C   0  0  0  0  0  3  0  0  0  0  0  0
   21.7950   -0.0080   52.1170 C   0  0  0  0  0  1  0  0  0  0  0  0
   21.7070   -1.6210   53.9940 C   0  0  0  0  0  1  0  0  0  0  0  0
  1 13  1  0  0  0  0
  2  1  1  0  0  0  0
  3  2  1  0  0  0  0
  3  4  2  0  0  0  0
  5  4  1  6  0  0  0
  5 11  1  0  0  0  0
  5  9  1  0  0  0  0
  5  6  1  0  0  0  0
  6 12  1  0  0  0  0
  6  7  1  0  0  0  0
  8  7  1  0  0  0  0
  9  8  1  6  0  0  0
 10 11  1  0  0  0  0
 10  9  1  0  0  0  0
 10 20  1  1  0  0  0
 11  1  1  6  0  0  0
 14 13  1  0  0  0  0
 15 16  1  1  0  0  0
 15 14  1  0  0  0  0
 15 17  1  0  0  0  0
 17 18  1  0  0  0  0
 19 17  1  0  0  0  0
 20 21  1  0  0  0  0
 22 20  1  0  0  0  0
 22 24  1  0  0  0  0
 23 22  1  0  0  0  0
M  END
>  <TORSDO>
F 6

$$$$
