C:\Qe-CaDD\Project\Data\Stage_6_Molecular_Dynamics\ligands_top\out_22914_EGFR_extracted.pdbqt
 OpenBabel01082506443D

 31 36  0  0  1  0  0  0  0  0999 V2000
   24.8300    1.7090   52.5690 C   0  0  0  0  0  0  0  0  0  0  0  0
   24.6930    2.3400   51.4280 C   0  0  0  0  0  3  0  0  0  0  0  0
   25.2480    3.3630   50.5810 C   0  0  0  0  0  0  0  0  0  0  0  0
   26.4930    2.9890   50.1290 C   0  0  0  0  0  3  0  0  0  0  0  0
   27.3440    3.6730   49.3120 N   0  0  0  0  0  0  0  0  0  0  0  0
   26.8490    4.8830   48.9210 C   0  0  0  0  0  3  0  0  0  0  0  0
   25.6420    5.2780   49.3420 N   0  0  0  0  0  0  0  0  0  0  0  0
   24.8180    4.5890   50.1470 C   0  0  0  0  0  0  0  0  0  0  0  0
   23.6260    5.3910   50.3400 N   0  0  0  0  0  0  0  0  0  0  0  0
   22.4280    4.7080   50.6710 C   0  0  0  0  0  0  0  0  0  0  0  0
   21.8000    4.8380   51.8770 C   0  0  0  0  0  3  0  0  0  0  0  0
   20.7150    4.0250   52.1320 C   0  0  0  0  0  2  0  0  0  0  0  0
   20.8170    3.4150   50.8980 C   0  0  1  0  0  0  0  0  0  0  0  0
   21.1420    2.9750   49.6050 C   0  0  1  0  0  3  0  0  0  0  0  0
   22.1680    3.8830   49.6140 C   0  0  1  0  0  3  0  0  0  0  0  0
   19.9810    2.0150   49.7170 C   0  0  0  0  0  2  0  0  0  0  0  0
   20.1900    2.1030   51.1170 N   0  0  1  0  0  0  0  0  0  0  0  0
   19.9730    1.2720   52.2890 C   0  0  0  0  0  2  0  0  0  0  0  0
   21.2040    0.5290   52.6620 C   0  0  0  0  0  0  0  0  0  0  0  0
   22.4350    1.1180   52.5460 C   0  0  0  0  0  3  0  0  0  0  0  0
   23.7470    0.7250   52.8130 C   0  0  0  0  0  0  0  0  0  0  0  0
   23.7500   -0.5530   53.2990 C   0  0  0  0  0  3  0  0  0  0  0  0
   22.5620   -1.2280   53.4500 C   0  0  0  0  0  3  0  0  0  0  0  0
   21.3620   -0.7140   53.1480 N   0  0  0  0  0  0  0  0  0  0  0  0
   23.5420    6.4100   50.2700 H   0  0  0  0  0  0  0  0  0  0  0  0
   25.8820    1.9890   53.4780 N   0  0  0  0  0  0  0  0  0  0  0  0
   25.3530    2.8260   53.8090 H   0  0  0  0  0  0  0  0  0  0  0  0
   27.1750    1.5380   53.9520 C   0  0  2  0  0  3  0  0  0  0  0  0
   28.2880    2.4050   53.3950 C   0  0  0  0  0  1  0  0  0  0  0  0
   27.3680    0.1810   53.3180 C   0  0  0  0  0  3  0  0  0  0  0  0
   27.2100   -0.8400   53.9660 O   0  0  0  0  0  0  0  0  0  0  0  0
  1 21  1  0  0  0  0
  1 26  1  0  0  0  0
  2  1  2  0  0  0  0
  3  2  1  0  0  0  0
  4  3  2  0  0  0  0
  5  4  1  0  0  0  0
  6  5  2  0  0  0  0
  6  7  1  0  0  0  0
  7  8  2  0  0  0  0
  8  9  1  0  0  0  0
  8  3  1  0  0  0  0
  9 10  1  0  0  0  0
 10 11  2  0  0  0  0
 11 12  1  0  0  0  0
 13 17  1  0  0  0  0
 13 12  1  6  0  0  0
 14 15  1  0  0  0  0
 14 16  1  1  0  0  0
 14 13  1  0  0  0  0
 15 10  1  6  0  0  0
 15 13  1  0  0  0  0
 17 16  1  6  0  0  0
 17 18  1  0  0  0  0
 18 19  1  0  0  0  0
 19 24  1  0  0  0  0
 20 19  2  0  0  0  0
 20 21  1  0  0  0  0
 21 22  2  0  0  0  0
 22 23  1  0  0  0  0
 24 23  2  0  0  0  0
 25  9  1  0  0  0  0
 26 27  1  0  0  0  0
 26 28  1  0  0  0  0
 28 29  1  6  0  0  0
 30 28  1  0  0  0  0
 30 31  2  0  0  0  0
M  END
>  <TORSDO>
F 3

$$$$
