C:\Qe-CaDD\Project\Data\Stage_6_Molecular_Dynamics\ligands_top\out_10978_EGFR_extracted.pdbqt
 OpenBabel01082506443D

 23 24  0  0  0  0  0  0  0  0999 V2000
   27.1440    0.5070   53.0590 C   0  0  0  0  0  0  0  0  0  0  0  0
   28.2580   -0.2620   53.3970 C   0  0  0  0  0  0  0  0  0  0  0  0
   28.2980   -1.6930   53.2380 C   0  0  0  0  0  0  0  0  0  0  0  0
   28.3270   -2.8490   53.0880 N   0  0  0  0  0  0  0  0  0  0  0  0
   29.3550    0.4270   53.9000 C   0  0  0  0  0  3  0  0  0  0  0  0
   29.3950    1.7940   54.0750 C   0  0  0  0  0  3  0  0  0  0  0  0
   28.2870    2.5380   53.7350 C   0  0  0  0  0  3  0  0  0  0  0  0
   27.1880    1.8730   53.2360 C   0  0  0  0  0  0  0  0  0  0  0  0
   26.0650   -0.2820   52.5550 N   0  0  0  0  0  0  0  0  0  0  0  0
   26.2050   -0.5550   51.5690 H   0  0  0  0  0  0  0  0  0  0  0  0
   24.9560   -0.6200   53.3820 C   0  0  0  0  0  3  0  0  0  0  0  0
   23.7050   -0.2350   53.3200 C   0  0  0  0  0  3  0  0  0  0  0  0
   23.0940    0.6820   52.3440 C   0  0  0  0  0  1  0  0  0  0  0  0
   25.9840    2.5520   52.8510 N   0  0  0  0  0  0  0  0  0  0  0  0
   26.1550    2.8160   51.4740 C   0  0  0  0  0  0  0  0  0  0  0  0
   27.3010    2.3500   51.1060 O   0  0  0  0  0  0  0  0  0  0  0  0
   25.0450    2.9350   53.1420 H   0  0  0  0  0  0  0  0  0  0  0  0
   25.3840    3.4660   50.3860 C   0  0  0  0  0  3  0  0  0  0  0  0
   24.4250    4.5110   50.8350 C   0  0  0  0  0  2  0  0  0  0  0  0
   23.7210    5.0700   49.6080 C   0  0  0  0  0  2  0  0  0  0  0  0
   24.7300    5.9240   48.8520 C   0  0  0  0  0  2  0  0  0  0  0  0
   26.1430    5.4570   49.0230 C   0  0  0  0  0  2  0  0  0  0  0  0
   26.2760    3.9900   49.3170 C   0  0  0  0  0  2  0  0  0  0  0  0
  1  8  2  0  0  0  0
  1  2  1  0  0  0  0
  2  5  2  0  0  0  0
  3  2  1  0  0  0  0
  4  3  3  0  0  0  0
  5  6  1  0  0  0  0
  7  6  2  0  0  0  0
  8  7  1  0  0  0  0
  9  1  1  0  0  0  0
  9 11  1  0  0  0  0
 10  9  1  0  0  0  0
 12 11  2  0  0  0  0
 13 12  1  0  0  0  0
 14 17  1  0  0  0  0
 14  8  1  0  0  0  0
 15 14  1  0  0  0  0
 16 15  2  0  0  0  0
 18 19  1  0  0  0  0
 18 15  1  0  0  0  0
 20 19  1  0  0  0  0
 21 22  1  0  0  0  0
 21 20  1  0  0  0  0
 22 23  1  0  0  0  0
 23 18  1  0  0  0  0
M  END
>  <TORSDO>
F 4

$$$$
