C:\Qe-CaDD\Project\Data\Stage_6_Molecular_Dynamics\ligands_top\out_11344_EGFR_extracted.pdbqt
 OpenBabel01082506443D

 23 24  0  0  1  0  0  0  0  0999 V2000
   22.3250    0.1180   52.8340 C   0  0  0  0  0  0  0  0  0  0  0  0
   21.4190   -0.5570   53.6240 C   0  0  0  0  0  3  0  0  0  0  0  0
   21.9500   -1.2500   54.7170 C   0  0  0  0  0  3  0  0  0  0  0  0
   23.2740   -1.2470   54.9690 N   0  0  0  0  0  0  0  0  0  0  0  0
   24.1370   -0.5800   54.1810 C   0  0  0  0  0  0  0  0  0  0  0  0
   23.6390    0.0930   53.1230 N   0  0  0  0  0  0  0  0  0  0  0  0
   25.5380   -0.5790   54.4490 N   0  0  0  0  0  0  0  0  0  0  0  0
   25.8630   -0.9260   55.3780 H   0  0  0  0  0  0  0  0  0  0  0  0
   26.4850   -0.1130   53.4760 C   0  0  2  0  0  3  0  0  0  0  0  0
   27.6900   -0.9810   53.3520 C   0  0  0  0  0  3  0  0  0  0  0  0
   28.7950   -0.2550   53.5590 C   0  0  0  0  0  0  0  0  0  0  0  0
   30.1650   -0.8700   53.4960 C   0  0  0  0  0  1  0  0  0  0  0  0
   28.4090    1.1340   53.8340 C   0  0  0  0  0  3  0  0  0  0  0  0
   27.0760    1.2010   53.7820 C   0  0  0  0  0  0  0  0  0  0  0  0
   26.4840    2.4690   54.0210 N   0  0  0  0  0  0  0  0  0  0  0  0
   25.4290    2.4170   53.9980 H   0  0  0  0  0  0  0  0  0  0  0  0
   26.9200    3.4000   54.2070 H   0  0  0  0  0  0  0  0  0  0  0  0
   21.8620    0.8680   51.6720 C   0  0  0  0  0  3  0  0  0  0  0  0
   21.3010    0.3110   50.6320 C   0  0  0  0  0  3  0  0  0  0  0  0
   20.8300    1.0330   49.4650 C   0  0  0  0  0  3  0  0  0  0  0  0
   21.7450    1.6400   48.7220 C   0  0  0  0  0  0  0  0  0  0  0  0
   22.6510    2.4380   48.1730 C   0  0  0  0  0  3  0  0  0  0  0  0
   23.6060    3.0910   49.0940 C   0  0  0  0  0  1  0  0  0  0  0  0
  1  6  2  0  0  0  0
  1  2  1  0  0  0  0
  2  3  2  0  0  0  0
  3  4  1  0  0  0  0
  5  7  1  0  0  0  0
  5  4  2  0  0  0  0
  6  5  1  0  0  0  0
  7  8  1  0  0  0  0
  9 14  1  0  0  0  0
  9  7  1  1  0  0  0
 10  9  1  0  0  0  0
 10 11  2  0  0  0  0
 11 13  1  0  0  0  0
 12 11  1  0  0  0  0
 14 13  2  0  0  0  0
 14 15  1  0  0  0  0
 15 17  1  0  0  0  0
 16 15  1  0  0  0  0
 18  1  1  0  0  0  0
 19 18  2  0  0  0  0
 20 19  1  0  0  0  0
 21 20  2  0  0  0  0
 22 21  2  0  0  0  0
 22 23  1  0  0  0  0
M  END
>  <TORSDO>
F 7

$$$$
