C:\Qe-CaDD\Project\Data\Stage_6_Molecular_Dynamics\ligands_top\out_12147_EGFR_extracted.pdbqt
 OpenBabel01082506443D

 22 26  0  0  1  0  0  0  0  0999 V2000
   25.3110    6.6740   50.4330 N   0  0  0  0  0  0  0  0  0  0  0  0
   25.0150    5.6020   50.1410 C   0  0  0  0  0  0  0  0  0  0  0  0
   24.6290    4.2670   49.7940 C   0  0  0  0  0  0  0  0  0  0  0  0
   23.5270    4.0500   49.0310 C   0  0  0  0  0  0  0  0  0  0  0  0
   23.1050    2.6310   48.6520 C   0  0  0  0  0  2  0  0  0  0  0  0
   21.9260    2.3510   49.5770 C   0  0  0  0  0  2  0  0  0  0  0  0
   21.4870    2.8300   50.8200 C   0  0  1  0  0  0  0  0  0  0  0  0
   20.3470    3.8580   50.7500 C   0  0  0  0  0  2  0  0  0  0  0  0
   20.5710    4.6200   49.6300 O   0  0  0  0  0  0  0  0  0  0  0  0
   21.5630    5.5350   49.5960 C   0  0  0  0  0  2  0  0  0  0  0  0
   22.7620    5.2590   48.7030 C   0  0  0  0  0  2  0  0  0  0  0  0
   22.3350    2.1980   51.9060 C   0  0  2  0  0  0  0  0  0  0  0  0
   22.4710    3.5230   52.1560 C   0  0  1  0  0  3  0  0  0  0  0  0
   23.7290    3.7460   52.7440 C   0  0  0  0  0  3  0  0  0  0  0  0
   24.0590    2.4140   52.6950 C   0  0  0  0  0  0  0  0  0  0  0  0
   23.5490    1.2170   52.3020 C   0  0  1  0  0  3  0  0  0  0  0  0
   22.3590    0.8680   51.7300 C   0  0  0  0  0  2  0  0  0  0  0  0
   25.5540    2.2730   53.0080 C   0  0  0  0  0  2  0  0  0  0  0  0
   26.2560    2.9450   51.9030 N   0  0  0  0  0  0  0  0  0  0  0  0
   25.4140    2.7790   50.4040 S   0  0  0  0  0  0  0  0  0  0  0  0
   27.5520    2.7660   51.8530 O   0  0  0  0  0  0  0  0  0  0  0  0
   27.8090    2.2130   51.0690 H   0  0  0  0  0  0  0  0  0  0  0  0
  2  1  3  0  0  0  0
  3  2  1  0  0  0  0
  3 20  1  0  0  0  0
  4  3  2  0  0  0  0
  5  4  1  0  0  0  0
  5  6  1  0  0  0  0
  7  6  1  6  0  0  0
  7 12  1  0  0  0  0
  7 13  1  0  0  0  0
  8  7  1  0  0  0  0
  9  8  1  0  0  0  0
 10  9  1  0  0  0  0
 11  4  1  0  0  0  0
 11 10  1  0  0  0  0
 12 17  1  1  0  0  0
 12 13  1  0  0  0  0
 12 16  1  0  0  0  0
 13 14  1  6  0  0  0
 15 14  2  0  0  0  0
 15 18  1  0  0  0  0
 16 17  1  1  0  0  0
 16 15  1  0  0  0  0
 19 18  1  0  0  0  0
 20 19  1  0  0  0  0
 21 19  1  0  0  0  0
 22 21  1  0  0  0  0
M  END
>  <TORSDO>
F 1

$$$$
