C:\Qe-CaDD\Project\Data\Stage_6_Molecular_Dynamics\ligands_top\out_21170_EGFR_extracted.pdbqt
 OpenBabel01082506443D

 32 34  0  0  0  0  0  0  0  0999 V2000
   24.4270    3.2560   50.4390 C   0  0  0  0  0  0  0  0  0  0  0  0
   24.4520    2.4940   51.6140 C   0  0  0  0  0  3  0  0  0  0  0  0
   23.4660    1.5450   51.8660 C   0  0  0  0  0  0  0  0  0  0  0  0
   23.4220    0.7570   52.9970 C   0  0  0  0  0  0  0  0  0  0  0  0
   22.3920   -0.1460   53.1270 C   0  0  0  0  0  0  0  0  0  0  0  0
   22.3270   -0.9850   54.3070 C   0  0  0  0  0  0  0  0  0  0  0  0
   22.2700   -1.6600   55.2610 N   0  0  0  0  0  0  0  0  0  0  0  0
   21.3820   -0.3320   52.2050 C   0  0  0  0  0  3  0  0  0  0  0  0
   21.4470    0.4610   51.0940 N   0  0  0  0  0  0  0  0  0  0  0  0
   22.4510    1.3480   50.9560 C   0  0  0  0  0  0  0  0  0  0  0  0
   22.4740    2.1220   49.8200 C   0  0  0  0  0  3  0  0  0  0  0  0
   23.4030    3.0770   49.4900 C   0  0  0  0  0  0  0  0  0  0  0  0
   24.4420    0.9110   53.9760 N   0  0  0  0  0  0  0  0  0  0  0  0
   24.3500    1.4130   54.8680 H   0  0  0  0  0  0  0  0  0  0  0  0
   25.7100    0.3240   53.7130 C   0  0  0  0  0  0  0  0  0  0  0  0
   25.8020   -0.8920   53.0580 C   0  0  0  0  0  3  0  0  0  0  0  0
   26.9890   -1.5320   52.7580 C   0  0  0  0  0  3  0  0  0  0  0  0
   28.1470   -0.8910   53.1550 C   0  0  0  0  0  0  0  0  0  0  0  0
   29.3310   -1.4760   52.8870 F   0  0  0  0  0  0  0  0  0  0  0  0
   28.1230    0.3050   53.8020 C   0  0  0  0  0  0  0  0  0  0  0  0
   29.5780    1.1390   54.3110 Cl  0  0  0  0  0  0  0  0  0  0  0  0
   26.9080    0.8890   54.0690 C   0  0  0  0  0  3  0  0  0  0  0  0
   25.5250    4.1470   50.4140 N   0  0  0  0  0  0  0  0  0  0  0  0
   25.3350    4.9420   51.0930 H   0  0  0  0  0  0  0  0  0  0  0  0
   26.7590    4.1720   49.6900 C   0  0  0  0  0  2  0  0  0  0  0  0
   26.7850    5.3980   48.8020 C   0  0  0  0  0  1  0  0  0  0  0  0
   23.5780    3.9100   48.4490 O   0  0  0  0  0  0  0  0  0  0  0  0
   22.8010    4.9550   47.9800 C   0  0  0  0  0  2  0  0  0  0  0  0
   22.8900    6.2040   48.8040 C   0  0  0  0  0  2  0  0  0  0  0  0
   21.7530    6.3550   49.6800 N   0  0  0  0  0  0  0  0  0  0  0  0
   22.0140    6.1300   51.0600 C   0  0  0  0  0  1  0  0  0  0  0  0
   20.6240    5.6900   49.1240 C   0  0  0  0  0  1  0  0  0  0  0  0
  1  2  1  0  0  0  0
  2  3  2  0  0  0  0
  3  4  1  0  0  0  0
  4  5  2  0  0  0  0
  4 13  1  0  0  0  0
  5  6  1  0  0  0  0
  6  7  3  0  0  0  0
  8  5  1  0  0  0  0
  9  8  2  0  0  0  0
 10  9  1  0  0  0  0
 10  3  1  0  0  0  0
 11 10  2  0  0  0  0
 12 11  1  0  0  0  0
 12  1  2  0  0  0  0
 13 14  1  0  0  0  0
 15 13  1  0  0  0  0
 15 22  1  0  0  0  0
 16 15  2  0  0  0  0
 17 16  1  0  0  0  0
 17 18  2  0  0  0  0
 18 20  1  0  0  0  0
 19 18  1  0  0  0  0
 20 22  2  0  0  0  0
 20 21  1  0  0  0  0
 23  1  1  0  0  0  0
 23 24  1  0  0  0  0
 25 23  1  0  0  0  0
 26 25  1  0  0  0  0
 27 12  1  0  0  0  0
 28 27  1  0  0  0  0
 28 29  1  0  0  0  0
 29 30  1  0  0  0  0
 30 31  1  0  0  0  0
 32 30  1  0  0  0  0
M  END
>  <TORSDO>
F 8

$$$$
