C:\Qe-CaDD\Project\Data\Stage_6_Molecular_Dynamics\ligands_top\out_10916_EGFR_extracted.pdbqt
 OpenBabel01082506443D

 25 28  0  0  0  0  0  0  0  0999 V2000
   23.2130    3.6470   52.3170 N   0  0  0  0  0  0  0  0  0  0  0  0
   22.7070    4.1990   53.0670 H   0  0  0  0  0  0  0  0  0  0  0  0
   23.3280    4.2520   51.0400 C   0  0  0  0  0  0  0  0  0  0  0  0
   22.3290    4.5820   50.2260 N   0  0  0  0  0  0  0  0  0  0  0  0
   22.4220    5.1480   49.0280 C   0  0  0  0  0  3  0  0  0  0  0  0
   23.6860    5.4320   48.5630 C   0  0  0  0  0  3  0  0  0  0  0  0
   24.7410    5.1020   49.3820 C   0  0  0  0  0  0  0  0  0  0  0  0
   24.5440    4.5380   50.5630 N   0  0  0  0  0  0  0  0  0  0  0  0
   26.1090    5.3710   48.9570 C   0  0  0  0  0  0  0  0  0  0  0  0
   27.1550    4.4740   48.9910 C   0  0  0  0  0  3  0  0  0  0  0  0
   28.3960    4.7800   48.5860 N   0  0  0  0  0  0  0  0  0  0  0  0
   28.6910    5.9890   48.1190 C   0  0  0  0  0  3  0  0  0  0  0  0
   27.7360    6.9740   48.0340 C   0  0  0  0  0  3  0  0  0  0  0  0
   26.4750    6.6130   48.4620 C   0  0  0  0  0  3  0  0  0  0  0  0
   23.6940    2.3800   52.7280 C   0  0  0  0  0  0  0  0  0  0  0  0
   22.9410    1.2330   52.8300 C   0  0  0  0  0  3  0  0  0  0  0  0
   23.4150    0.0030   53.2300 C   0  0  0  0  0  3  0  0  0  0  0  0
   24.7430   -0.1200   53.5600 C   0  0  0  0  0  3  0  0  0  0  0  0
   25.5420    1.0000   53.4730 C   0  0  0  0  0  0  0  0  0  0  0  0
   25.0100    2.2030   53.0660 C   0  0  0  0  0  3  0  0  0  0  0  0
   26.9210    0.9090   53.8060 N   0  0  0  0  0  0  0  0  0  0  0  0
   28.1040    1.4490   53.4530 C   0  0  0  0  0  3  0  0  0  0  0  0
   29.0780    0.8600   54.2300 C   0  0  0  0  0  3  0  0  0  0  0  0
   28.4830   -0.0420   55.0600 N   0  0  0  0  0  0  0  0  0  0  0  0
   27.1630   -0.0020   54.7900 C   0  0  0  0  0  3  0  0  0  0  0  0
  1 15  1  0  0  0  0
  1  2  1  0  0  0  0
  3  1  1  0  0  0  0
  4  3  2  0  0  0  0
  5  4  1  0  0  0  0
  6  5  2  0  0  0  0
  6  7  1  0  0  0  0
  7  8  2  0  0  0  0
  8  3  1  0  0  0  0
  9 10  1  0  0  0  0
  9  7  1  0  0  0  0
 11 10  2  0  0  0  0
 12 11  1  0  0  0  0
 13 12  2  0  0  0  0
 13 14  1  0  0  0  0
 14  9  2  0  0  0  0
 15 16  2  0  0  0  0
 15 20  1  0  0  0  0
 16 17  1  0  0  0  0
 17 18  2  0  0  0  0
 19 18  1  0  0  0  0
 19 21  1  0  0  0  0
 20 19  2  0  0  0  0
 21 25  1  0  0  0  0
 22 21  1  0  0  0  0
 22 23  2  0  0  0  0
 23 24  1  0  0  0  0
 25 24  2  0  0  0  0
M  END
>  <TORSDO>
F 4

$$$$
