C:\Qe-CaDD\Project\Data\Stage_6_Molecular_Dynamics\ligands_top\out_22403_EGFR_extracted.pdbqt
 OpenBabel01082506443D

 28 30  0  0  0  0  0  0  0  0999 V2000
   23.9040    3.0540   52.2690 C   0  0  0  0  0  0  0  0  0  0  0  0
   22.7130    2.4060   52.4550 C   0  0  0  0  0  0  0  0  0  0  0  0
   21.2350    2.6640   52.3170 C   0  0  0  0  0  2  0  0  0  0  0  0
   21.2240    1.4450   52.7390 C   0  0  0  0  0  2  0  0  0  0  0  0
   22.5950    1.2410   52.8510 N   0  0  0  0  0  0  0  0  0  0  0  0
   23.1210    0.0840   53.1390 C   0  0  0  0  0  3  0  0  0  0  0  0
   24.5150    0.0230   53.2140 N   0  0  0  0  0  0  0  0  0  0  0  0
   25.2290    1.0520   52.9430 C   0  0  0  0  0  0  0  0  0  0  0  0
   25.2270    2.4700   52.5070 C   0  0  0  0  0  3  0  0  0  0  0  0
   24.3820    4.4100   51.8150 N   0  0  0  0  0  0  0  0  0  0  0  0
   24.5790    4.8290   50.4850 C   0  0  0  0  0  0  0  0  0  0  0  0
   24.4290    4.2170   49.3930 O   0  0  0  0  0  0  0  0  0  0  0  0
   24.5790    5.0730   52.6350 H   0  0  0  0  0  0  0  0  0  0  0  0
   25.0260    6.1910   50.3240 C   0  0  0  0  0  0  0  0  0  0  0  0
   25.4170    7.3340   50.1980 C   0  0  0  0  0  0  0  0  0  0  0  0
   25.8940    8.7220   50.0480 C   0  0  0  0  0  2  0  0  0  0  0  0
   27.2780    8.7650   50.0530 O   0  0  0  0  0  0  0  0  0  0  0  0
   27.6330    9.5440   51.1140 N   0  0  0  0  0  0  0  0  0  0  0  0
   28.0040   10.4630   50.7850 H   0  0  0  0  0  0  0  0  0  0  0  0
   26.8140    9.7090   51.7520 H   0  0  0  0  0  0  0  0  0  0  0  0
   26.6350    0.6090   53.1270 C   0  0  0  0  0  0  0  0  0  0  0  0
   27.6590    1.4950   53.4640 C   0  0  0  0  0  3  0  0  0  0  0  0
   28.9970    1.1300   53.6910 C   0  0  0  0  0  3  0  0  0  0  0  0
   29.3170   -0.2040   53.5700 C   0  0  0  0  0  0  0  0  0  0  0  0
   30.5950   -0.6010   53.7810 F   0  0  0  0  0  0  0  0  0  0  0  0
   28.3790   -1.1410   53.2400 C   0  0  0  0  0  0  0  0  0  0  0  0
   28.7440   -2.8420   53.0680 Cl  0  0  0  0  0  0  0  0  0  0  0  0
   27.1140   -0.6860   53.0420 C   0  0  0  0  0  3  0  0  0  0  0  0
  1  2  2  0  0  0  0
  1  9  1  0  0  0  0
  2  5  1  0  0  0  0
  3  2  1  0  0  0  0
  3  4  1  0  0  0  0
  4  5  1  0  0  0  0
  5  6  1  0  0  0  0
  6  7  2  0  0  0  0
  8 21  1  0  0  0  0
  8  7  1  0  0  0  0
  9  8  2  0  0  0  0
 10  1  1  0  0  0  0
 10 13  1  0  0  0  0
 11 10  1  0  0  0  0
 12 11  2  0  0  0  0
 14 11  1  0  0  0  0
 15 14  3  0  0  0  0
 16 17  1  0  0  0  0
 16 15  1  0  0  0  0
 17 18  1  0  0  0  0
 18 20  1  0  0  0  0
 19 18  1  0  0  0  0
 21 22  1  0  0  0  0
 22 23  2  0  0  0  0
 24 23  1  0  0  0  0
 24 25  1  0  0  0  0
 26 24  2  0  0  0  0
 27 26  1  0  0  0  0
 28 21  2  0  0  0  0
 28 26  1  0  0  0  0
M  END
>  <TORSDO>
F 6

$$$$
