C:\Qe-CaDD\Project\Data\Stage_6_Molecular_Dynamics\ligands_top\out_11985_EGFR_extracted.pdbqt
 OpenBabel01082506443D

 25 25  0  0  0  0  0  0  0  0999 V2000
   26.7830    1.2460   51.7750 C   0  0  0  0  0  3  0  0  0  0  0  0
   27.5370    1.1480   52.8580 C   0  0  0  0  0  0  0  0  0  0  0  0
   28.1540    2.2960   53.5290 C   0  0  0  0  0  2  0  0  0  0  0  0
   29.3250    1.9480   54.3260 N   0  0  0  0  0  0  0  0  0  0  0  0
   29.9000    1.2260   53.8530 H   0  0  0  0  0  0  0  0  0  0  0  0
   29.0490    1.6630   55.2840 H   0  0  0  0  0  0  0  0  0  0  0  0
   27.8220   -0.1690   53.4900 C   0  0  0  0  0  2  0  0  0  0  0  0
   26.6290   -1.0750   53.3890 C   0  0  0  0  0  2  0  0  0  0  0  0
   25.6440   -0.7870   54.3830 N   0  0  0  0  0  0  0  0  0  0  0  0
   25.9820   -0.6070   55.3760 H   0  0  0  0  0  0  0  0  0  0  0  0
   24.2370   -0.7080   54.2100 C   0  0  0  0  0  0  0  0  0  0  0  0
   23.3140   -1.2150   55.0960 C   0  0  0  0  0  3  0  0  0  0  0  0
   21.9460   -1.1540   54.9330 C   0  0  0  0  0  3  0  0  0  0  0  0
   21.4320   -0.5450   53.8080 C   0  0  0  0  0  3  0  0  0  0  0  0
   22.3190   -0.0200   52.8920 C   0  0  0  0  0  0  0  0  0  0  0  0
   21.6820    0.8370   51.3140 Br  0  0  0  0  0  0  0  0  0  0  0  0
   23.6770   -0.1080   53.1020 C   0  0  0  0  0  3  0  0  0  0  0  0
   26.5000    2.5050   51.1510 C   0  0  0  0  0  0  0  0  0  0  0  0
   26.2730    3.5900   50.6300 C   0  0  0  0  0  0  0  0  0  0  0  0
   26.0140    4.8370   50.0350 N   0  0  0  0  0  0  0  0  0  0  0  0
   26.9340    5.2260   49.0200 C   0  0  0  0  0  0  0  0  0  0  0  0
   27.9230    4.5090   48.6670 O   0  0  0  0  0  0  0  0  0  0  0  0
   25.2040    5.4370   50.3150 H   0  0  0  0  0  0  0  0  0  0  0  0
   26.7550    6.5360   48.3160 C   0  0  0  0  0  2  0  0  0  0  0  0
   26.6660    7.6310   49.3660 C   0  0  0  0  0  1  0  0  0  0  0  0
  1  2  2  0  0  0  0
  2  7  1  0  0  0  0
  2  3  1  0  0  0  0
  3  4  1  0  0  0  0
  4  6  1  0  0  0  0
  5  4  1  0  0  0  0
  8  7  1  0  0  0  0
  8  9  1  0  0  0  0
  9 10  1  0  0  0  0
 11  9  1  0  0  0  0
 11 12  1  0  0  0  0
 13 12  2  0  0  0  0
 14 13  1  0  0  0  0
 15 17  1  0  0  0  0
 15 14  2  0  0  0  0
 16 15  1  0  0  0  0
 17 11  2  0  0  0  0
 18  1  1  0  0  0  0
 19 18  3  0  0  0  0
 20 23  1  0  0  0  0
 20 19  1  0  0  0  0
 21 20  1  0  0  0  0
 22 21  2  0  0  0  0
 24 21  1  0  0  0  0
 24 25  1  0  0  0  0
M  END
>  <TORSDO>
F 9

$$$$
