C:\Qe-CaDD\Project\Data\Stage_6_Molecular_Dynamics\ligands_top\out_11970_EGFR_extracted.pdbqt
 OpenBabel01082506443D

 28 29  0  0  1  0  0  0  0  0999 V2000
   22.2190    0.5760   53.1080 C   0  0  0  0  0  3  0  0  0  0  0  0
   23.3050    1.4780   52.7360 C   0  0  0  0  0  3  0  0  0  0  0  0
   24.5780    1.3390   52.5920 C   0  0  0  0  0  3  0  0  0  0  0  0
   25.1300   -0.0240   52.8440 C   0  0  1  0  0  3  0  0  0  0  0  0
   26.2450   -0.2250   52.0460 O   0  0  0  0  0  0  0  0  0  0  0  0
   27.3630   -0.4340   52.8160 C   0  0  1  0  0  3  0  0  0  0  0  0
   27.0520    0.2210   54.1610 C   0  0  1  0  0  3  0  0  0  0  0  0
   25.5840   -0.2410   54.2590 C   0  0  0  0  0  2  0  0  0  0  0  0
   27.5070   -1.8990   52.9760 C   0  0  1  0  0  3  0  0  0  0  0  0
   28.7300   -1.5040   52.9100 O   0  0  0  0  0  1  0  0  0  0  0  0
   28.2880   -3.0200   53.0940 O   0  0  0  0  0  0  0  0  0  0  0  0
   29.2320   -3.1000   52.7090 H   0  0  0  0  0  0  0  0  0  0  0  0
   27.7600   -0.3930   55.1690 O   0  0  0  0  0  0  0  0  0  0  0  0
   28.7290   -0.5050   54.8650 H   0  0  0  0  0  0  0  0  0  0  0  0
   21.0860    0.6540   52.5290 C   0  0  0  0  0  0  0  0  0  0  0  0
   19.9100    1.0360   51.8120 C   0  0  0  0  0  3  0  0  0  0  0  0
   19.8860    0.9930   50.4830 C   0  0  0  0  0  2  0  0  0  0  0  0
   21.1000    0.5300   49.7900 C   0  0  0  0  0  2  0  0  0  0  0  0
   21.7590    1.5060   48.9360 C   0  0  0  0  0  3  0  0  0  0  0  0
   22.6810    2.4700   48.8560 C   0  0  0  0  0  0  0  0  0  0  0  0
   23.7590    3.4190   48.6530 C   0  0  0  0  0  3  0  0  0  0  0  0
   24.7680    3.3690   49.5950 C   0  0  0  0  0  2  0  0  0  0  0  0
   25.7230    4.4210   49.1860 C   0  0  0  0  0  0  0  0  0  0  0  0
   25.3480    5.6660   48.9410 C   0  0  0  0  0  3  0  0  0  0  0  0
   26.0340    6.9270   48.5190 C   0  0  0  0  0  3  0  0  0  0  0  0
   27.5060    6.7190   48.3270 C   0  0  0  0  0  3  0  0  0  0  0  0
   27.9030    5.3280   48.6090 C   0  0  0  0  0  3  0  0  0  0  0  0
   27.1750    4.2970   48.9820 C   0  0  0  0  0  3  0  0  0  0  0  0
  2  1  1  0  0  0  0
  3  2  2  0  0  0  0
  4  3  1  1  0  0  0
  4  8  1  0  0  0  0
  5  6  1  0  0  0  0
  5  4  1  0  0  0  0
  6  9  1  1  0  0  0
  6  7  1  0  0  0  0
  7  8  1  0  0  0  0
  7 13  1  1  0  0  0
  9 10  1  6  0  0  0
  9 11  1  0  0  0  0
 12 11  1  0  0  0  0
 14 13  1  0  0  0  0
 15  1  2  0  0  0  0
 16 15  2  0  0  0  0
 17 16  1  0  0  0  0
 18 17  1  0  0  0  0
 19 18  1  0  0  0  0
 20 19  2  0  0  0  0
 21 20  2  0  0  0  0
 21 22  1  0  0  0  0
 23 22  1  0  0  0  0
 24 23  2  0  0  0  0
 25 24  1  0  0  0  0
 26 25  2  0  0  0  0
 26 27  1  0  0  0  0
 27 28  2  0  0  0  0
 28 23  1  0  0  0  0
M  END
>  <TORSDO>
F 12

$$$$
