C:\Qe-CaDD\Project\Data\Stage_6_Molecular_Dynamics\ligands_top\out_18579_EGFR_extracted.pdbqt
 OpenBabel01082506443D

 24 25  0  0  1  0  0  0  0  0999 V2000
   27.6060    0.4540   53.1240 C   0  0  0  0  0  0  0  0  0  0  0  0
   28.9390    0.1000   53.3790 C   0  0  0  0  0  3  0  0  0  0  0  0
   29.4550   -1.1780   53.4200 C   0  0  0  0  0  3  0  0  0  0  0  0
   28.5580   -2.1970   53.1820 C   0  0  0  0  0  0  0  0  0  0  0  0
   29.0330   -3.4620   53.2130 F   0  0  0  0  0  0  0  0  0  0  0  0
   27.2380   -1.8900   52.9270 C   0  0  0  0  0  3  0  0  0  0  0  0
   26.7300   -0.6130   52.8900 C   0  0  0  0  0  0  0  0  0  0  0  0
   25.3610   -0.3390   52.6330 N   0  0  0  0  0  0  0  0  0  0  0  0
   25.0550    0.1280   51.7560 H   0  0  0  0  0  0  0  0  0  0  0  0
   24.3260   -0.6840   53.5570 C   0  0  0  0  0  0  0  0  0  0  0  0
   23.0930   -0.7790   53.1990 N   0  0  0  0  0  0  0  0  0  0  0  0
   22.2950   -1.1330   54.3190 C   0  0  0  0  0  0  0  0  0  0  0  0
   23.0560   -1.2590   55.3870 C   0  0  0  0  0  3  0  0  0  0  0  0
   24.4860   -0.9770   55.0060 C   0  0  0  0  0  2  0  0  0  0  0  0
   20.8570   -1.3220   54.2840 C   0  0  0  0  0  3  0  0  0  0  0  0
   19.9470   -0.7620   53.5140 C   0  0  0  0  0  3  0  0  0  0  0  0
   19.6380    0.1790   52.4230 C   0  0  0  0  0  2  0  0  0  0  0  0
   20.2890    1.5360   52.7140 C   0  0  0  0  0  2  0  0  0  0  0  0
   21.4810    1.9250   51.2600 Br  0  0  0  0  0  0  0  0  0  0  0  0
   27.2000    1.8820   53.1000 C   0  0  2  0  0  3  0  0  0  0  0  0
   26.9660    2.4020   51.6930 C   0  0  0  0  0  1  0  0  0  0  0  0
   27.9760    2.7470   53.9280 N   0  0  0  0  0  0  0  0  0  0  0  0
   27.7720    3.7540   53.7140 H   0  0  0  0  0  0  0  0  0  0  0  0
   27.7960    2.6030   54.9470 H   0  0  0  0  0  0  0  0  0  0  0  0
  1  2  1  0  0  0  0
  2  3  2  0  0  0  0
  4  5  1  0  0  0  0
  4  3  1  0  0  0  0
  6  4  2  0  0  0  0
  7  6  1  0  0  0  0
  7  1  2  0  0  0  0
  8  7  1  0  0  0  0
  8 10  1  0  0  0  0
  9  8  1  0  0  0  0
 10 14  1  0  0  0  0
 11 10  2  0  0  0  0
 11 12  1  0  0  0  0
 12 13  2  0  0  0  0
 14 13  1  0  0  0  0
 15 12  1  0  0  0  0
 16 15  2  0  0  0  0
 17 18  1  0  0  0  0
 17 16  1  0  0  0  0
 19 18  1  0  0  0  0
 20 21  1  6  0  0  0
 20  1  1  0  0  0  0
 20 22  1  0  0  0  0
 22 24  1  0  0  0  0
 23 22  1  0  0  0  0
M  END
>  <TORSDO>
F 7

$$$$
