C:\Qe-CaDD\Project\Data\Stage_6_Molecular_Dynamics\ligands_top\out_12293_EGFR_extracted.pdbqt
 OpenBabel01082506443D

 25 27  0  0  0  0  0  0  0  0999 V2000
   25.4400    3.5070   51.6070 N   0  0  0  0  0  0  0  0  0  0  0  0
   26.3260    3.1790   50.5490 C   0  0  0  0  0  0  0  0  0  0  0  0
   26.8710    2.0480   50.5860 O   0  0  0  0  0  0  0  0  0  0  0  0
   24.9850    4.4490   51.5750 H   0  0  0  0  0  0  0  0  0  0  0  0
   25.3940    2.3790   52.5070 C   0  0  0  0  0  0  0  0  0  0  0  0
   26.4960    2.1340   53.3010 C   0  0  0  0  0  3  0  0  0  0  0  0
   26.5210    1.0790   54.1850 C   0  0  0  0  0  0  0  0  0  0  0  0
   25.4160    0.2570   54.2690 C   0  0  0  0  0  0  0  0  0  0  0  0
   24.3030    0.4900   53.4790 C   0  0  0  0  0  0  0  0  0  0  0  0
   25.3500   -0.7680   55.0790 N   0  0  0  0  0  0  0  0  0  0  0  0
   24.2770    1.5540   52.5870 C   0  0  0  0  0  3  0  0  0  0  0  0
   23.2400   -0.2790   53.5420 C   0  0  0  0  0  3  0  0  0  0  0  0
   23.0860   -1.0060   54.5980 C   0  0  0  0  0  3  0  0  0  0  0  0
   24.1720   -1.5620   55.1020 C   0  0  0  0  0  3  0  0  0  0  0  0
   27.5550    0.7170   55.0380 O   0  0  0  0  0  0  0  0  0  0  0  0
   28.7900    0.3360   54.4650 C   0  0  0  0  0  1  0  0  0  0  0  0
   26.6620    4.0370   49.4240 C   0  0  0  0  0  3  0  0  0  0  0  0
   26.9130    5.3140   49.3280 C   0  0  0  0  0  3  0  0  0  0  0  0
   27.2560    6.2350   48.2260 C   0  0  0  0  0  2  0  0  0  0  0  0
   26.7370    7.5620   48.4360 N   0  0  0  0  0  0  0  0  0  0  0  0
   27.7390    8.5720   48.1950 C   0  0  0  0  0  2  0  0  0  0  0  0
   28.2920    9.1160   49.5200 C   0  0  0  0  0  2  0  0  0  0  0  0
   27.3150    9.5970   50.3550 O   0  0  0  0  0  0  0  0  0  0  0  0
   26.0350    9.1870   50.0210 C   0  0  0  0  0  2  0  0  0  0  0  0
   26.0160    7.7070   49.6600 C   0  0  0  0  0  2  0  0  0  0  0  0
  1  5  1  0  0  0  0
  2  3  2  0  0  0  0
  2  1  1  0  0  0  0
  4  1  1  0  0  0  0
  5 11  2  0  0  0  0
  5  6  1  0  0  0  0
  6  7  2  0  0  0  0
  7  8  1  0  0  0  0
  7 15  1  0  0  0  0
  8 10  1  0  0  0  0
  9 12  1  0  0  0  0
  9  8  2  0  0  0  0
 10 14  2  0  0  0  0
 11  9  1  0  0  0  0
 12 13  2  0  0  0  0
 13 14  1  0  0  0  0
 16 15  1  0  0  0  0
 17  2  1  0  0  0  0
 18 17  2  0  0  0  0
 19 20  1  0  0  0  0
 19 18  1  0  0  0  0
 20 25  1  0  0  0  0
 21 20  1  0  0  0  0
 21 22  1  0  0  0  0
 22 23  1  0  0  0  0
 24 23  1  0  0  0  0
 25 24  1  0  0  0  0
M  END
>  <TORSDO>
F 5

$$$$
