C:\Qe-CaDD\Project\Data\Stage_6_Molecular_Dynamics\ligands_top\out_22242_EGFR_extracted.pdbqt
 OpenBabel01082506443D

 28 30  0  0  1  0  0  0  0  0999 V2000
   25.3100   -0.1830   53.3590 C   0  0  0  0  0  2  0  0  0  0  0  0
   25.3900    0.7400   52.4430 C   0  0  0  0  0  0  0  0  0  0  0  0
   24.0000    1.1730   52.4600 C   0  0  0  0  0  2  0  0  0  0  0  0
   23.0670    0.4350   53.3940 C   0  0  0  0  0  2  0  0  0  0  0  0
   21.7430    1.0130   53.3880 N   0  0  0  0  0  0  0  0  0  0  0  0
   20.6230    1.2210   52.5870 C   0  0  0  0  0  3  0  0  0  0  0  0
   19.5650    1.8870   52.4390 N   0  0  0  0  0  0  0  0  0  0  0  0
   18.6660    1.7010   51.3240 C   0  0  0  0  0  0  0  0  0  0  0  0
   18.2510    0.5070   51.0340 C   0  0  0  0  0  3  0  0  0  0  0  0
   17.3880   -0.1100   50.0500 C   0  0  0  0  0  0  0  0  0  0  0  0
   16.7010   -0.5830   49.2740 N   0  0  0  0  0  0  0  0  0  0  0  0
   18.4110    3.0970   50.7320 C   0  0  1  0  0  3  0  0  0  0  0  0
   17.4240    3.7620   51.5950 C   0  0  0  0  0  0  0  0  0  0  0  0
   16.6400    4.2860   52.2980 N   0  0  0  0  0  0  0  0  0  0  0  0
   19.6860    3.8820   50.8770 C   0  0  0  0  0  0  0  0  0  0  0  0
   20.4840    4.7360   51.2160 N   0  0  0  0  0  0  0  0  0  0  0  0
   21.7920    4.6520   50.9090 C   0  0  0  0  0  0  0  0  0  0  0  0
   22.8200    5.4590   51.3290 C   0  0  0  0  0  3  0  0  0  0  0  0
   24.1100    5.0650   50.9840 C   0  0  0  0  0  3  0  0  0  0  0  0
   24.4930    3.9280   50.2460 C   0  0  0  0  0  0  0  0  0  0  0  0
   23.4190    3.1020   49.8030 C   0  0  0  0  0  3  0  0  0  0  0  0
   22.1790    3.5450   50.1820 C   0  0  0  0  0  0  0  0  0  0  0  0
   20.7620    2.6060   49.9050 S   0  0  0  0  0  0  0  0  0  0  0  0
   25.7930    3.2650   49.8840 C   0  0  0  0  0  2  0  0  0  0  0  0
   26.2480    2.2360   50.6820 C   0  0  0  0  0  2  0  0  0  0  0  0
   26.5050    1.1860   51.6790 N   0  0  0  0  0  0  0  0  0  0  0  0
   21.3600    1.4760   54.2340 H   0  0  0  0  0  0  0  0  0  0  0  0
   27.4060    0.7440   51.8820 H   0  0  0  0  0  0  0  0  0  0  0  0
  2  3  1  0  0  0  0
  2  1  2  0  0  0  0
  3  4  1  0  0  0  0
  5  4  1  0  0  0  0
  5 27  1  0  0  0  0
  6  5  1  0  0  0  0
  7  6  2  0  0  0  0
  8  7  1  0  0  0  0
  9  8  2  0  0  0  0
 10  9  1  0  0  0  0
 11 10  3  0  0  0  0
 12 15  1  0  0  0  0
 12  8  1  0  0  0  0
 12 13  1  1  0  0  0
 13 14  3  0  0  0  0
 15 16  2  0  0  0  0
 17 16  1  0  0  0  0
 17 18  1  0  0  0  0
 19 18  2  0  0  0  0
 20 19  1  0  0  0  0
 21 22  1  0  0  0  0
 21 20  2  0  0  0  0
 22 17  2  0  0  0  0
 23 22  1  0  0  0  0
 23 15  1  0  0  0  0
 24 20  1  0  0  0  0
 24 25  1  0  0  0  0
 25 26  1  0  0  0  0
 26 28  1  0  0  0  0
 26  2  1  0  0  0  0
M  END
>  <TORSDO>
F 0

$$$$
