C:\Qe-CaDD\Project\Data\Stage_6_Molecular_Dynamics\ligands_top\out_21490_EGFR_extracted.pdbqt
 OpenBabel01082506443D

 32 36  0  0  1  0  0  0  0  0999 V2000
   20.6250    2.0960   52.2850 C   0  0  1  0  0  3  0  0  0  0  0  0
   22.0150    1.4970   52.1600 C   0  0  0  0  0  0  0  0  0  0  0  0
   22.9240    1.8750   53.0850 C   0  0  0  0  0  3  0  0  0  0  0  0
   24.2900    1.5340   53.2660 C   0  0  1  0  0  3  0  0  0  0  0  0
   24.4470    0.0790   53.4690 C   0  0  0  0  0  2  0  0  0  0  0  0
   25.6890   -0.5690   53.9340 C   0  0  1  0  0  3  0  0  0  0  0  0
   26.0810   -1.6350   52.9010 C   0  0  0  0  0  2  0  0  0  0  0  0
   26.7090   -0.9390   51.6040 C   0  0  0  0  0  2  0  0  0  0  0  0
   26.8180    0.3860   52.2340 N   0  0  2  0  0  0  0  0  0  0  0  0
   27.8790    0.0530   53.2350 C   0  0  0  0  0  2  0  0  0  0  0  0
   26.7950    0.4450   54.2610 C   0  0  1  0  0  3  0  0  0  0  0  0
   27.6350    1.3870   54.6570 N   0  0  0  0  0  2  0  0  0  0  0  0
   27.6970    2.4460   53.5420 C   0  0  0  0  0  2  0  0  0  0  0  0
   26.5730    1.8340   52.6640 C   0  0  2  0  0  3  0  0  0  0  0  0
   25.2720    2.2030   52.3050 C   0  0  2  0  0  3  0  0  0  0  0  0
   24.9510    3.0930   51.1880 C   0  0  0  0  0  2  0  0  0  0  0  0
   24.0080    4.0740   51.2400 N   0  0  1  0  0  0  0  0  0  0  0  0
   23.5070    4.7540   52.3390 C   0  0  0  0  0  2  0  0  0  0  0  0
   21.9570    4.7650   52.2680 C   0  0  0  0  0  2  0  0  0  0  0  0
   21.6060    3.8630   51.1500 C   0  0  2  0  0  3  0  0  0  0  0  0
   22.0310    4.5680   49.8820 C   0  0  0  0  0  2  0  0  0  0  0  0
   23.5810    4.6150   49.9700 C   0  0  0  0  0  2  0  0  0  0  0  0
   20.4400    3.0810   51.1740 N   0  0  0  0  0  0  0  0  0  0  0  0
   19.3070    3.9390   51.5840 C   0  0  0  0  0  1  0  0  0  0  0  0
   19.5780    1.1650   52.3160 N   0  0  0  0  0  0  0  0  0  0  0  0
   19.4330   -0.0310   53.0510 C   0  0  0  0  0  0  0  0  0  0  0  0
   20.3920   -0.3460   53.8320 O   0  0  0  0  0  0  0  0  0  0  0  0
   18.7290    1.3540   51.7030 H   0  0  0  0  0  0  0  0  0  0  0  0
   18.3370   -0.9760   53.0520 C   0  0  0  0  0  3  0  0  0  0  0  0
   17.3270   -0.7640   52.2210 C   0  0  0  0  0  2  0  0  0  0  0  0
   22.5290    0.6120   51.2380 O   0  0  0  0  0  0  0  0  0  0  0  0
   21.9500    0.3200   50.0070 C   0  0  0  0  0  1  0  0  0  0  0  0
  1 25  1  6  0  0  0
  2  1  1  0  0  0  0
  2  3  2  0  0  0  0
  4  3  1  6  0  0  0
  4  5  1  0  0  0  0
  5  6  1  0  0  0  0
  6  7  1  6  0  0  0
  6 11  1  0  0  0  0
  8  7  1  0  0  0  0
  9  8  1  1  0  0  0
  9 14  1  0  0  0  0
  9 10  1  0  0  0  0
 11 10  1  6  0  0  0
 11 12  1  0  0  0  0
 13 12  1  0  0  0  0
 14 13  1  1  0  0  0
 15 16  1  1  0  0  0
 15 14  1  0  0  0  0
 15  4  1  0  0  0  0
 16 17  1  0  0  0  0
 17 22  1  6  0  0  0
 17 18  1  0  0  0  0
 19 18  1  0  0  0  0
 20 21  1  6  0  0  0
 20 23  1  0  0  0  0
 20 19  1  0  0  0  0
 21 22  1  0  0  0  0
 23 24  1  0  0  0  0
 23  1  1  0  0  0  0
 25 26  1  0  0  0  0
 26 29  1  0  0  0  0
 26 27  2  0  0  0  0
 28 25  1  0  0  0  0
 30 29  2  0  0  0  0
 31  2  1  0  0  0  0
 32 31  1  0  0  0  0
M  END
>  <TORSDO>
F 3

$$$$
