C:\Qe-CaDD\Project\Data\Stage_6_Molecular_Dynamics\ligands_top\out_11967_EGFR_extracted.pdbqt
 OpenBabel01082506443D

 30 31  0  0  1  0  0  0  0  0999 V2000
   20.1090    5.2630   45.2420 F   0  0  0  0  0  0  0  0  0  0  0  0
   20.7190    4.6340   46.2940 C   0  0  0  0  0  0  0  0  0  0  0  0
   21.6750    5.5390   46.5340 C   0  0  0  0  0  3  0  0  0  0  0  0
   22.7610    5.7430   47.4250 O   0  0  0  0  0  0  0  0  0  0  0  0
   22.4230    6.3730   48.6530 C   0  0  2  0  0  3  0  0  0  0  0  0
   21.2520    7.3410   48.4130 C   0  0  0  0  0  2  0  0  0  0  0  0
   20.8510    7.7750   49.6480 O   0  0  0  0  0  0  0  0  0  0  0  0
   21.7880    8.5800   50.2460 C   0  0  0  0  0  2  0  0  0  0  0  0
   23.1780    8.0130   50.2410 C   0  0  0  0  0  2  0  0  0  0  0  0
   23.4790    7.1650   49.1540 N   0  0  2  0  0  0  0  0  0  0  0  0
   24.4280    7.6830   48.2270 C   0  0  0  0  0  2  0  0  0  0  0  0
   25.7290    6.8010   48.2850 C   0  0  0  0  0  2  0  0  0  0  0  0
   26.5620    7.5110   47.3220 C   0  0  0  0  0  2  0  0  0  0  0  0
   27.7390    7.6710   47.8740 C   0  0  0  0  0  2  0  0  0  0  0  0
   28.4050    6.5260   47.7740 C   0  0  0  0  0  2  0  0  0  0  0  0
   27.7900    5.4860   48.6720 C   0  0  0  0  0  0  0  0  0  0  0  0
   27.1840    4.3950   49.1220 C   0  0  0  0  0  0  0  0  0  0  0  0
   26.5090    3.1430   49.3950 C   0  0  0  0  0  2  0  0  0  0  0  0
   26.5240    3.4230   50.6790 N   0  0  0  0  0  2  0  0  0  0  0  0
   25.9750    2.5540   51.6340 C   0  0  0  0  0  2  0  0  0  0  0  0
   25.1780    1.9810   52.4510 N   0  0  0  0  0  2  0  0  0  0  0  0
   23.8310    2.3220   52.7520 C   0  0  0  0  0  2  0  0  0  0  0  0
   23.0920    2.7930   51.6270 N   0  0  0  0  0  0  0  0  0  0  0  0
   23.0680    1.8000   50.5480 C   0  0  0  0  0  2  0  0  0  0  0  0
   22.2290    2.2430   49.4320 C   0  0  0  0  0  3  0  0  0  0  0  0
   21.2000    2.0020   48.6700 C   0  0  0  0  0  0  0  0  0  0  0  0
   21.2350    0.6410   49.7490 Cl  0  0  0  0  0  0  0  0  0  0  0  0
   20.4050    2.4660   47.6000 C   0  0  0  0  0  2  0  0  0  0  0  0
   21.0370    3.6240   47.3330 C   0  0  0  0  0  2  0  0  0  0  0  0
   23.4960    3.6800   51.2370 H   0  0  0  0  0  0  0  0  0  0  0  0
  1  2  1  0  0  0  0
  2  3  2  0  0  0  0
  2 29  1  0  0  0  0
  3  4  1  0  0  0  0
  4  5  1  0  0  0  0
  5  6  1  6  0  0  0
  5 10  1  0  0  0  0
  6  7  1  0  0  0  0
  7  8  1  0  0  0  0
  9  8  1  0  0  0  0
 10 11  1  6  0  0  0
 10  9  1  0  0  0  0
 11 12  1  0  0  0  0
 13 14  1  0  0  0  0
 13 12  1  0  0  0  0
 15 14  1  0  0  0  0
 15 16  1  0  0  0  0
 16 17  3  0  0  0  0
 17 18  1  0  0  0  0
 18 19  1  0  0  0  0
 19 20  1  0  0  0  0
 20 21  1  0  0  0  0
 21 22  1  0  0  0  0
 23 22  1  0  0  0  0
 24 23  1  0  0  0  0
 25 24  1  0  0  0  0
 26 25  2  0  0  0  0
 26 27  1  0  0  0  0
 28 26  1  0  0  0  0
 29 28  1  0  0  0  0
 30 23  1  0  0  0  0
M  END
>  <TORSDO>
F 0

$$$$
