C:\Qe-CaDD\Project\Data\Stage_6_Molecular_Dynamics\ligands_top\out_21816_EGFR_extracted.pdbqt
 OpenBabel01082506443D

 27 28  0  0  0  0  0  0  0  0999 V2000
   25.0380    1.5590   53.3380 C   0  0  0  0  0  0  0  0  0  0  0  0
   23.6790    1.6170   52.9980 C   0  0  0  0  0  3  0  0  0  0  0  0
   22.8560    0.5640   53.3390 C   0  0  0  0  0  0  0  0  0  0  0  0
   21.5130    0.5370   53.0730 C   0  0  0  0  0  0  0  0  0  0  0  0
   20.7970   -0.5780   53.4990 C   0  0  0  0  0  0  0  0  0  0  0  0
   19.3860   -0.6310   53.2390 C   0  0  0  0  0  0  0  0  0  0  0  0
   18.2400   -0.6890   53.0250 N   0  0  0  0  0  0  0  0  0  0  0  0
   21.4330   -1.6080   54.1590 C   0  0  0  0  0  3  0  0  0  0  0  0
   22.7750   -1.5650   54.4160 N   0  0  0  0  0  0  0  0  0  0  0  0
   23.4790   -0.4710   54.0010 C   0  0  0  0  0  0  0  0  0  0  0  0
   24.8110   -0.5540   54.3460 C   0  0  0  0  0  3  0  0  0  0  0  0
   25.6230    0.5030   54.0020 C   0  0  0  0  0  0  0  0  0  0  0  0
   20.8790    1.6680   52.3630 C   0  0  0  0  0  2  0  0  0  0  0  0
   20.3820    2.6400   53.1950 F   0  0  0  0  0  0  0  0  0  0  0  0
   25.7650    2.7380   52.9240 N   0  0  0  0  0  0  0  0  0  0  0  0
   25.9940    2.4650   51.5480 C   0  0  0  0  0  0  0  0  0  0  0  0
   25.4990    1.3310   51.1890 O   0  0  0  0  0  0  0  0  0  0  0  0
   26.2090    3.6670   53.0680 H   0  0  0  0  0  0  0  0  0  0  0  0
   26.6080    3.0130   50.3580 C   0  0  0  0  0  2  0  0  0  0  0  0
   25.9970    4.1680   50.1040 C   0  0  0  0  0  2  0  0  0  0  0  0
   26.3290    5.0240   48.9760 C   0  0  0  0  0  2  0  0  0  0  0  0
   25.3930    6.1440   48.8530 N   0  0  0  0  0  0  0  0  0  0  0  0
   24.0160    5.6290   48.8690 C   0  0  0  0  0  1  0  0  0  0  0  0
   25.4910    6.9180   50.1130 C   0  0  0  0  0  1  0  0  0  0  0  0
   26.9720    0.6320   54.2480 O   0  0  0  0  0  0  0  0  0  0  0  0
   27.8390   -0.2930   53.6440 C   0  0  0  0  0  2  0  0  0  0  0  0
   27.4160   -0.6120   52.3550 F   0  0  0  0  0  0  0  0  0  0  0  0
  1 12  1  0  0  0  0
  2  1  2  0  0  0  0
  2  3  1  0  0  0  0
  3 10  1  0  0  0  0
  4  3  2  0  0  0  0
  4  5  1  0  0  0  0
  5  8  2  0  0  0  0
  6  5  1  0  0  0  0
  7  6  3  0  0  0  0
  8  9  1  0  0  0  0
 10 11  1  0  0  0  0
 10  9  2  0  0  0  0
 12 25  1  0  0  0  0
 12 11  2  0  0  0  0
 13  4  1  0  0  0  0
 13 14  1  0  0  0  0
 15 18  1  0  0  0  0
 15  1  1  0  0  0  0
 16 15  1  0  0  0  0
 17 16  2  0  0  0  0
 19 16  1  0  0  0  0
 20 19  1  0  0  0  0
 21 20  1  0  0  0  0
 22 23  1  0  0  0  0
 22 21  1  0  0  0  0
 22 24  1  0  0  0  0
 26 25  1  0  0  0  0
 27 26  1  0  0  0  0
M  END
>  <TORSDO>
F 7

$$$$
