C:\Qe-CaDD\Project\Data\Stage_6_Molecular_Dynamics\ligands_top\out_11910_EGFR_extracted.pdbqt
 OpenBabel01082506443D

 28 31  0  0  0  0  0  0  0  0999 V2000
   22.1210    1.2800   52.6950 C   0  0  0  0  0  0  0  0  0  0  0  0
   21.1240    0.4750   53.1200 N   0  0  0  0  0  0  0  0  0  0  0  0
   21.4110   -0.7140   53.7350 C   0  0  0  0  0  3  0  0  0  0  0  0
   22.7080   -1.0940   53.9230 N   0  0  0  0  0  0  0  0  0  0  0  0
   23.6650   -0.2770   53.4920 C   0  0  0  0  0  0  0  0  0  0  0  0
   24.9730   -0.6630   53.6810 C   0  0  0  0  0  3  0  0  0  0  0  0
   26.0350    0.0780   53.2860 C   0  0  0  0  0  0  0  0  0  0  0  0
   25.8680    1.3170   52.6440 C   0  0  0  0  0  0  0  0  0  0  0  0
   24.5250    1.6670   52.4740 C   0  0  0  0  0  3  0  0  0  0  0  0
   23.4400    0.9280   52.8680 C   0  0  0  0  0  0  0  0  0  0  0  0
   26.8330    2.2650   52.1350 N   0  0  0  0  0  0  0  0  0  0  0  0
   28.0610    1.7250   52.4280 O   0  0  0  0  0  0  0  0  0  0  0  0
   28.6380    2.4820   53.4390 C   0  0  0  0  0  2  0  0  0  0  0  0
   29.0210    1.6440   54.6250 C   0  0  0  0  0  2  0  0  0  0  0  0
   29.9100    0.6860   54.3570 O   0  0  0  0  0  0  0  0  0  0  0  0
   29.7120   -0.2300   53.3910 C   0  0  0  0  0  2  0  0  0  0  0  0
   28.3560   -0.9370   53.4570 C   0  0  0  0  0  2  0  0  0  0  0  0
   27.3370   -0.0390   53.3350 O   0  0  0  0  0  0  0  0  0  0  0  0
   26.4750    3.1200   51.6760 H   0  0  0  0  0  0  0  0  0  0  0  0
   21.8690    2.5380   52.0390 N   0  0  0  0  0  0  0  0  0  0  0  0
   21.5980    3.3350   52.6230 H   0  0  0  0  0  0  0  0  0  0  0  0
   22.0140    2.6000   50.6140 C   0  0  0  0  0  0  0  0  0  0  0  0
   21.7860    1.5280   49.7950 C   0  0  0  0  0  3  0  0  0  0  0  0
   21.9040    1.5590   48.4190 C   0  0  0  0  0  3  0  0  0  0  0  0
   22.2820    2.7800   47.8500 C   0  0  0  0  0  3  0  0  0  0  0  0
   22.5260    3.9030   48.6460 C   0  0  0  0  0  0  0  0  0  0  0  0
   23.0430    5.5680   47.8330 Br  0  0  0  0  0  0  0  0  0  0  0  0
   22.3850    3.7850   50.0120 C   0  0  0  0  0  3  0  0  0  0  0  0
  1 10  2  0  0  0  0
  1  2  1  0  0  0  0
  2  3  2  0  0  0  0
  3  4  1  0  0  0  0
  5  6  1  0  0  0  0
  5  4  2  0  0  0  0
  7 18  1  0  0  0  0
  7  6  2  0  0  0  0
  8  7  1  0  0  0  0
  9  8  2  0  0  0  0
  9 10  1  0  0  0  0
 10  5  1  0  0  0  0
 11 12  1  0  0  0  0
 11  8  1  0  0  0  0
 12 13  1  0  0  0  0
 13 14  1  0  0  0  0
 15 14  1  0  0  0  0
 16 17  1  0  0  0  0
 16 15  1  0  0  0  0
 18 17  1  0  0  0  0
 19 11  1  0  0  0  0
 20 21  1  0  0  0  0
 20  1  1  0  0  0  0
 22 20  1  0  0  0  0
 23 22  2  0  0  0  0
 24 23  1  0  0  0  0
 25 24  2  0  0  0  0
 25 26  1  0  0  0  0
 26 28  2  0  0  0  0
 27 26  1  0  0  0  0
 28 22  1  0  0  0  0
M  END
>  <TORSDO>
F 2

$$$$
