C:\Qe-CaDD\Project\Data\Stage_6_Molecular_Dynamics\ligands_top\out_16831_EGFR_extracted.pdbqt
 OpenBabel01082506443D

 28 30  0  0  1  0  0  0  0  0999 V2000
   20.1760    3.0300   52.3870 C   0  0  1  0  0  3  0  0  0  0  0  0
   20.7330    4.1290   51.9540 C   0  0  0  0  0  3  0  0  0  0  0  0
   21.9800    4.7890   51.6590 C   0  0  0  0  0  0  0  0  0  0  0  0
   23.2670    5.0110   51.5240 C   0  0  0  0  0  3  0  0  0  0  0  0
   24.6310    4.6520   51.6030 N   0  0  0  0  0  0  0  0  0  0  0  0
   25.2260    4.0950   50.4610 C   0  0  0  0  0  3  0  0  0  0  0  0
   24.9570    3.4710   49.3840 N   0  0  0  0  0  0  0  0  0  0  0  0
   23.5980    3.1760   49.1400 C   0  0  0  0  0  2  0  0  0  0  0  0
   22.6650    2.2940   48.8880 C   0  0  0  0  0  2  0  0  0  0  0  0
   21.5850    1.4620   48.6190 N   0  0  0  0  0  0  0  0  0  0  0  0
   20.9150    0.8560   49.7560 C   0  0  0  0  0  0  0  0  0  0  0  0
   21.5960    0.4720   50.8310 C   0  0  0  0  0  3  0  0  0  0  0  0
   21.3960   -0.1380   52.1290 C   0  0  1  0  0  3  0  0  0  0  0  0
   22.5920   -0.7880   52.7450 C   0  0  0  0  0  2  0  0  0  0  0  0
   22.0580   -0.9440   54.1650 C   0  0  0  0  0  2  0  0  0  0  0  0
   21.2280    0.1020   54.4170 C   0  0  0  0  0  2  0  0  0  0  0  0
   21.1760    0.9670   53.2250 C   0  0  2  0  0  3  0  0  0  0  0  0
   19.8790    1.6320   52.9230 C   0  0  2  0  0  3  0  0  0  0  0  0
   19.2400    0.9770   51.9100 O   0  0  0  0  0  0  0  0  0  0  0  0
   17.8920    0.7910   51.9660 C   0  0  0  0  0  2  0  0  0  0  0  0
   17.5730    0.0360   50.8300 O   0  0  0  0  0  0  0  0  0  0  0  0
   18.0100    0.6600   49.6770 C   0  0  0  0  0  2  0  0  0  0  0  0
   19.4820    0.7040   49.6550 N   0  0  0  0  0  0  0  0  0  0  0  0
   25.2380    4.7560   52.4200 H   0  0  0  0  0  0  0  0  0  0  0  0
   21.2780    1.2840   47.6610 H   0  0  0  0  0  0  0  0  0  0  0  0
   19.7270   -0.0350   48.9190 H   0  0  0  0  0  0  0  0  0  0  0  0
   19.0650    3.8380   52.1280 O   0  0  0  0  0  0  0  0  0  0  0  0
   18.6270    4.1730   50.8270 C   0  0  0  0  0  1  0  0  0  0  0  0
  1 27  1  1  0  0  0
  1 18  1  0  0  0  0
  2  1  1  0  0  0  0
  3  2  2  0  0  0  0
  4  5  1  0  0  0  0
  4  3  2  0  0  0  0
  5 24  1  0  0  0  0
  6  5  1  0  0  0  0
  7  6  2  0  0  0  0
  8  7  1  0  0  0  0
  9  8  1  0  0  0  0
 10  9  1  0  0  0  0
 10 11  1  0  0  0  0
 11 12  2  0  0  0  0
 13 12  1  6  0  0  0
 13 14  1  0  0  0  0
 13 17  1  0  0  0  0
 14 15  1  0  0  0  0
 15 16  1  0  0  0  0
 17 16  1  1  0  0  0
 18 19  1  6  0  0  0
 18 17  1  0  0  0  0
 19 20  1  0  0  0  0
 21 20  1  0  0  0  0
 22 21  1  0  0  0  0
 23 22  1  0  0  0  0
 23 11  1  0  0  0  0
 25 10  1  0  0  0  0
 26 23  1  0  0  0  0
 28 27  1  0  0  0  0
M  END
>  <TORSDO>
F 1

$$$$
