C:\Qe-CaDD\Project\Data\Stage_6_Molecular_Dynamics\ligands_top\out_22366_EGFR_extracted.pdbqt
 OpenBabel01082506443D

 31 33  0  0  1  0  0  0  0  0999 V2000
   23.6030    2.6750   50.8730 C   0  0  2  0  0  3  0  0  0  0  0  0
   23.8380    3.8690   51.6760 N   0  0  0  0  0  2  0  0  0  0  0  0
   22.8350    4.7220   51.8100 C   0  0  0  0  0  2  0  0  0  0  0  0
   21.4650    5.2370   51.6030 C   0  0  0  0  0  3  0  0  0  0  0  0
   20.6910    4.5090   50.8870 N   0  0  0  0  0  0  0  0  0  0  0  0
   19.3620    4.7440   50.5340 C   0  0  0  0  0  2  0  0  0  0  0  0
   18.8720    3.7040   51.1730 N   0  0  0  0  0  2  0  0  0  0  0  0
   19.7390    2.8190   51.9070 C   0  0  0  0  0  2  0  0  0  0  0  0
   20.4920    1.9000   51.0680 N   0  0  0  0  0  0  0  0  0  0  0  0
   21.5820    1.2740   51.7870 C   0  0  0  0  0  0  0  0  0  0  0  0
   21.2610    0.2460   52.6340 C   0  0  0  0  0  3  0  0  0  0  0  0
   22.1490   -0.4650   53.4260 C   0  0  0  0  0  0  0  0  0  0  0  0
   21.5070   -1.7400   54.4330 Cl  0  0  0  0  0  0  0  0  0  0  0  0
   23.4530   -0.0760   53.3250 C   0  0  0  0  0  3  0  0  0  0  0  0
   23.8100    0.9620   52.4740 C   0  0  0  0  0  3  0  0  0  0  0  0
   22.9210    1.6630   51.6890 C   0  0  0  0  0  0  0  0  0  0  0  0
   20.7950    1.3480   50.2590 H   0  0  0  0  0  0  0  0  0  0  0  0
   24.7910    2.2080   50.2120 N   0  0  0  0  0  4  0  0  0  0  0  0
   24.8490    1.4640   49.4800 H   0  0  0  0  0  0  0  0  0  0  0  0
   26.0080    2.8200   50.5880 C   0  0  0  0  0  0  0  0  0  0  0  0
   26.4710    3.8530   49.8650 C   0  0  0  0  0  1  0  0  0  0  0  0
   26.8170    2.4280   51.7080 C   0  0  0  0  0  0  0  0  0  0  0  0
   27.4980    2.0800   52.6390 C   0  0  0  0  0  0  0  0  0  0  0  0
   28.3160    1.6520   53.7750 C   0  0  2  0  0  3  0  0  0  0  0  0
   29.6050    1.3050   53.3020 N   0  0  0  0  0  0  0  0  0  0  0  0
   30.0970    0.0190   53.5420 C   0  0  0  0  0  2  0  0  0  0  0  0
   29.8940    1.7900   52.4420 H   0  0  0  0  0  0  0  0  0  0  0  0
   29.1230   -1.0530   53.8450 C   0  0  0  0  0  2  0  0  0  0  0  0
   28.1220   -0.6640   54.7760 O   0  0  0  0  0  0  0  0  0  0  0  0
   27.6070    0.6150   54.5190 C   0  0  0  0  0  0  0  0  0  0  0  0
   26.4660    1.0410   54.8920 O   0  0  0  0  0  0  0  0  0  0  0  0
  1 18  1  1  0  0  0
  1  2  1  0  0  0  0
  1 16  1  0  0  0  0
  2  3  1  0  0  0  0
  4  3  1  0  0  0  0
  5  4  2  0  0  0  0
  6  5  1  0  0  0  0
  6  7  1  0  0  0  0
  7  8  1  0  0  0  0
  9 10  1  0  0  0  0
  9  8  1  0  0  0  0
 10 11  1  0  0  0  0
 11 12  2  0  0  0  0
 12 13  1  0  0  0  0
 14 12  1  0  0  0  0
 15 14  2  0  0  0  0
 16 10  2  0  0  0  0
 16 15  1  0  0  0  0
 17  9  1  0  0  0  0
 18 20  2  0  0  0  0
 19 18  1  0  0  0  0
 20 22  1  0  0  0  0
 21 20  1  0  0  0  0
 22 23  3  0  0  0  0
 24 23  1  6  0  0  0
 24 30  1  0  0  0  0
 25 26  1  0  0  0  0
 25 24  1  0  0  0  0
 26 28  1  0  0  0  0
 27 25  1  0  0  0  0
 28 29  1  0  0  0  0
 30 29  1  0  0  0  0
 30 31  2  0  0  0  0
M  END
>  <TORSDO>
F 4

$$$$
