C:\Qe-CaDD\Project\Data\Stage_6_Molecular_Dynamics\ligands_top\out_21481_EGFR_extracted.pdbqt
 OpenBabel01082506443D

 35 37  0  0  1  0  0  0  0  0999 V2000
   23.9970    2.5600   50.9950 C   0  0  0  0  0  0  0  0  0  0  0  0
   24.4160    1.4610   51.8900 C   0  0  0  0  0  0  0  0  0  0  0  0
   23.3650    0.9070   52.4230 N   0  0  0  0  0  2  0  0  0  0  0  0
   23.6060   -0.1690   53.3180 N   0  0  0  0  0  0  0  0  0  0  0  0
   24.8740   -0.8010   53.6060 C   0  0  0  0  0  0  0  0  0  0  0  0
   25.1270   -0.8750   55.0970 C   0  0  0  0  0  2  0  0  0  0  0  0
   23.9040   -1.4140   55.7840 C   0  0  0  0  0  3  0  0  0  0  0  0
   22.6960   -1.3530   55.3220 N   0  0  0  0  0  0  0  0  0  0  0  0
   22.5290   -0.7190   54.0650 N   0  0  0  0  0  0  0  0  0  0  0  0
   21.1790   -0.6320   53.5320 C   0  0  0  0  0  1  0  0  0  0  0  0
   25.9810   -0.0920   52.9630 C   0  0  0  0  0  0  0  0  0  0  0  0
   27.3940   -0.4500   53.1280 C   0  0  0  0  0  1  0  0  0  0  0  0
   25.7340    0.9260   52.1910 C   0  0  0  0  0  0  0  0  0  0  0  0
   26.6980    1.7400   51.4710 C   0  0  0  0  0  3  0  0  0  0  0  0
   26.4100    2.7070   50.7420 N   0  0  0  0  0  0  0  0  0  0  0  0
   25.1760    3.2610   50.4200 C   0  0  2  0  0  3  0  0  0  0  0  0
   22.9690    2.1410   50.0180 C   0  0  0  0  0  0  0  0  0  0  0  0
   21.9180    1.8570   49.2710 C   0  0  0  0  0  0  0  0  0  0  0  0
   20.8740    0.9720   49.6480 N   0  0  0  0  0  0  0  0  0  0  0  0
   19.7900    1.1680   50.5310 C   0  0  0  0  0  0  0  0  0  0  0  0
   19.6270    2.2560   51.1270 O   0  0  0  0  0  0  0  0  0  0  0  0
   20.7060   -0.0100   49.3400 H   0  0  0  0  0  0  0  0  0  0  0  0
   18.6930    0.3270   50.9650 C   0  0  0  0  0  2  0  0  0  0  0  0
   17.6740    0.3310   50.1220 C   0  0  0  0  0  1  0  0  0  0  0  0
   21.5610    2.3830   47.9330 C   0  0  0  0  0  2  0  0  0  0  0  0
   20.6550    3.4610   48.0390 N   0  0  0  0  0  0  0  0  0  0  0  0
   19.3990    3.3480   47.3820 C   0  0  0  0  0  1  0  0  0  0  0  0
   21.2480    4.7590   48.0830 C   0  0  0  0  0  2  0  0  0  0  0  0
   20.7940    5.5870   49.2650 C   0  0  0  0  0  2  0  0  0  0  0  0
   21.8690    5.8940   50.1910 N   0  0  0  0  0  0  0  0  0  0  0  0
   21.5190    5.2480   51.4590 C   0  0  0  0  0  1  0  0  0  0  0  0
   21.8550    7.3210   50.4730 C   0  0  0  0  0  1  0  0  0  0  0  0
   25.1740    4.6890   50.7700 N   0  0  0  0  0  0  0  0  0  0  0  0
   25.6650    5.2520   50.0280 H   0  0  0  0  0  0  0  0  0  0  0  0
   25.7450    4.7750   51.6300 H   0  0  0  0  0  0  0  0  0  0  0  0
  1  2  1  0  0  0  0
  2 13  2  0  0  0  0
  2  3  1  0  0  0  0
  3  4  1  0  0  0  0
  4  5  1  0  0  0  0
  4  9  1  0  0  0  0
  5  6  1  0  0  0  0
  6  7  1  0  0  0  0
  8  7  2  0  0  0  0
  9  8  1  0  0  0  0
 10  9  1  0  0  0  0
 11 12  1  0  0  0  0
 11  5  2  0  0  0  0
 13 11  1  0  0  0  0
 14 13  1  0  0  0  0
 15 14  2  0  0  0  0
 16 15  1  0  0  0  0
 16 33  1  1  0  0  0
 16  1  1  0  0  0  0
 17  1  2  0  0  0  0
 18 19  1  0  0  0  0
 18 17  2  0  0  0  0
 19 20  1  0  0  0  0
 20 23  1  0  0  0  0
 20 21  2  0  0  0  0
 22 19  1  0  0  0  0
 24 23  1  0  0  0  0
 25 26  1  0  0  0  0
 25 18  1  0  0  0  0
 26 28  1  0  0  0  0
 27 26  1  0  0  0  0
 28 29  1  0  0  0  0
 29 30  1  0  0  0  0
 30 32  1  0  0  0  0
 30 31  1  0  0  0  0
 33 35  1  0  0  0  0
 34 33  1  0  0  0  0
M  END
>  <TORSDO>
F 10

$$$$
