C:\Qe-CaDD\Project\Data\Stage_6_Molecular_Dynamics\ligands_top\out_12399_EGFR_extracted.pdbqt
 OpenBabel01082506443D

 27 29  0  0  1  0  0  0  0  0999 V2000
   18.8480   -0.6330   53.0380 C   0  0  0  0  0  3  0  0  0  0  0  0
   20.0070   -0.6460   53.3690 C   0  0  0  0  0  0  0  0  0  0  0  0
   21.3890   -0.6590   53.7400 C   0  0  0  0  0  0  0  0  0  0  0  0
   21.7840   -1.3580   54.8680 C   0  0  0  0  0  3  0  0  0  0  0  0
   23.1060   -1.4220   55.3260 C   0  0  0  0  0  3  0  0  0  0  0  0
   23.9720   -0.7190   54.5410 C   0  0  0  0  0  3  0  0  0  0  0  0
   23.7100    0.0060   53.4100 C   0  0  0  0  0  0  0  0  0  0  0  0
   22.3750   -0.0010   53.0540 C   0  0  0  0  0  3  0  0  0  0  0  0
   24.5910    0.7750   52.5610 C   0  0  0  0  0  0  0  0  0  0  0  0
   25.9030    0.5130   52.5860 N   0  0  0  0  0  2  0  0  0  0  0  0
   26.6080    1.3890   51.6600 C   0  0  0  0  0  2  0  0  0  0  0  0
   26.7560    2.2910   50.9300 N   0  0  0  0  0  2  0  0  0  0  0  0
   26.7080    3.3850   50.1370 C   0  0  0  0  0  2  0  0  0  0  0  0
   25.3490    3.9480   49.8550 C   0  0  0  0  0  0  0  0  0  0  0  0
   24.0540    3.7820   50.1500 C   0  0  0  0  0  0  0  0  0  0  0  0
   23.0720    4.5760   49.6200 O   0  0  0  0  0  0  0  0  0  0  0  0
   23.4080    2.7780   51.0540 C   0  0  0  0  0  0  0  0  0  0  0  0
   21.8370    4.0130   49.1970 C   0  0  0  0  0  2  0  0  0  0  0  0
   21.1510    3.2570   50.2870 C   0  0  0  0  0  2  0  0  0  0  0  0
   22.0570    2.7400   51.2490 O   0  0  0  0  0  0  0  0  0  0  0  0
   23.7580    1.8150   51.8060 C   0  0  0  0  0  0  0  0  0  0  0  0
   25.5770    5.0150   48.9710 O   0  0  0  0  0  0  0  0  0  0  0  0
   26.3070    6.1680   49.3080 C   0  0  1  0  0  3  0  0  0  0  0  0
   27.2590    6.4990   48.1870 C   0  0  0  0  0  1  0  0  0  0  0  0
   25.3940    7.3540   49.5290 C   0  0  0  0  0  2  0  0  0  0  0  0
   24.8230    7.2980   50.7930 O   0  0  0  0  0  0  0  0  0  0  0  0
   23.5600    7.8740   50.7500 C   0  0  0  0  0  1  0  0  0  0  0  0
  1  2  3  0  0  0  0
  2  3  1  0  0  0  0
  3  4  1  0  0  0  0
  4  5  2  0  0  0  0
  6  5  1  0  0  0  0
  7  6  2  0  0  0  0
  8  7  1  0  0  0  0
  8  3  2  0  0  0  0
  9 10  1  0  0  0  0
  9  7  1  0  0  0  0
 11 10  1  0  0  0  0
 12 11  1  0  0  0  0
 13 12  1  0  0  0  0
 14 13  1  0  0  0  0
 14 15  2  0  0  0  0
 15 17  1  0  0  0  0
 16 15  1  0  0  0  0
 17 20  1  0  0  0  0
 17 21  2  0  0  0  0
 18 16  1  0  0  0  0
 18 19  1  0  0  0  0
 19 20  1  0  0  0  0
 21  9  2  0  0  0  0
 22 23  1  0  0  0  0
 22 14  1  0  0  0  0
 23 24  1  6  0  0  0
 23 25  1  0  0  0  0
 25 26  1  0  0  0  0
 27 26  1  0  0  0  0
M  END
>  <TORSDO>
F 5

$$$$
