C:\Qe-CaDD\Project\Data\Stage_6_Molecular_Dynamics\ligands_top\out_16815_EGFR_extracted.pdbqt
 OpenBabel01082506443D

 24 26  0  0  1  0  0  0  0  0999 V2000
   25.5060    3.2670   50.4400 N   0  0  0  0  0  0  0  0  0  0  0  0
   26.6570    3.0850   50.9410 N   0  0  0  0  0  0  0  0  0  0  0  0
   26.7430    2.5390   52.2460 N   0  0  0  0  0  0  0  0  0  0  0  0
   26.5130    3.2570   52.9830 H   0  0  0  0  0  0  0  0  0  0  0  0
   27.0790    1.2290   52.6710 C   0  0  0  0  0  0  0  0  0  0  0  0
   27.7750    0.8990   53.7550 C   0  0  0  0  0  3  0  0  0  0  0  0
   27.8810   -0.5840   53.8010 C   0  0  2  0  0  3  0  0  0  0  0  0
   29.2770   -1.0360   53.6340 C   0  0  0  0  0  2  0  0  0  0  0  0
   27.1360   -1.0010   52.5760 C   0  0  0  0  0  0  0  0  0  0  0  0
   29.3130   -2.3010   53.3260 N   0  0  0  0  0  2  0  0  0  0  0  0
   28.1480   -3.0550   53.1920 N   0  0  0  0  0  0  0  0  0  0  0  0
   27.0900   -2.4760   52.3800 C   0  0  0  0  0  2  0  0  0  0  0  0
   27.9860   -3.9940   53.6300 H   0  0  0  0  0  0  0  0  0  0  0  0
   26.6690    0.0330   51.9190 C   0  0  0  0  0  3  0  0  0  0  0  0
   24.3010    2.9640   51.0890 C   0  0  0  0  0  0  0  0  0  0  0  0
   24.0170    4.1510   51.6130 C   0  0  0  0  0  2  0  0  0  0  0  0
   23.5190    1.7200   51.1980 C   0  0  0  0  0  2  0  0  0  0  0  0
   23.1320    1.4340   52.4840 O   0  0  0  0  0  0  0  0  0  0  0  0
   22.2240    0.3860   52.5970 C   0  0  0  0  0  3  0  0  0  0  0  0
   21.3910    0.6170   53.8320 C   0  0  0  0  0  2  0  0  0  0  0  0
   21.3370   -0.5500   54.7750 C   0  0  0  0  0  2  0  0  0  0  0  0
   22.6970   -1.0710   55.1600 C   0  0  0  0  0  2  0  0  0  0  0  0
   23.7540   -0.6930   54.1380 C   0  0  0  0  0  2  0  0  0  0  0  0
   23.0570   -0.8670   52.7810 C   0  0  0  0  0  2  0  0  0  0  0  0
  1  2  2  0  0  0  0
  1 15  1  0  0  0  0
  2  3  1  0  0  0  0
  3  5  1  0  0  0  0
  3  4  1  0  0  0  0
  5  6  2  0  0  0  0
  6  7  1  0  0  0  0
  7  8  1  6  0  0  0
  9  7  1  0  0  0  0
 10  8  1  0  0  0  0
 11 10  1  0  0  0  0
 11 13  1  0  0  0  0
 12  9  1  0  0  0  0
 12 11  1  0  0  0  0
 14  9  2  0  0  0  0
 14  5  1  0  0  0  0
 15 17  1  0  0  0  0
 15 16  2  0  0  0  0
 17 18  1  0  0  0  0
 18 19  1  0  0  0  0
 19 24  1  0  0  0  0
 19 20  1  0  0  0  0
 20 21  1  0  0  0  0
 21 22  1  0  0  0  0
 23 22  1  0  0  0  0
 24 23  1  0  0  0  0
M  END
>  <TORSDO>
F 6

$$$$
