C:\Qe-CaDD\Project\Data\Stage_6_Molecular_Dynamics\ligands_top\out_14227_EGFR_extracted.pdbqt
 OpenBabel01082506443D

 30 33  0  0  1  0  0  0  0  0999 V2000
   20.0060    3.5780   49.9720 O   0  0  0  0  0  0  0  0  0  0  0  0
   20.6640    3.2280   51.0120 C   0  0  0  0  0  0  0  0  0  0  0  0
   21.9660    3.1830   50.4930 N   0  0  0  0  0  0  0  0  0  0  0  0
   21.9940    3.5340   49.0970 C   0  0  0  0  0  2  0  0  0  0  0  0
   23.3770    3.9010   48.7230 C   0  0  0  0  0  3  0  0  0  0  0  0
   24.4820    3.7970   49.4350 C   0  0  0  0  0  0  0  0  0  0  0  0
   25.7300    4.2100   48.8920 N   0  0  0  0  0  0  0  0  0  0  0  0
   26.8300    4.1180   49.5710 C   0  0  0  0  0  3  0  0  0  0  0  0
   26.7430    3.5830   50.8920 N   0  0  0  0  0  0  0  0  0  0  0  0
   25.4980    3.1610   51.4600 C   0  0  2  0  0  3  0  0  0  0  0  0
   24.3730    3.2490   50.7800 C   0  0  0  0  0  0  0  0  0  0  0  0
   23.0730    2.8170   51.3540 C   0  0  0  0  0  3  0  0  0  0  0  0
   27.6730    3.5440   51.3680 H   0  0  0  0  0  0  0  0  0  0  0  0
   20.1620    2.9500   52.3780 C   0  0  0  0  0  2  0  0  0  0  0  0
   19.8860    1.5820   52.4980 O   0  0  0  0  0  0  0  0  0  0  0  0
   20.6320    0.6830   53.2340 C   0  0  0  0  0  0  0  0  0  0  0  0
   20.7660    0.4720   54.5740 C   0  0  0  0  0  3  0  0  0  0  0  0
   21.5770   -0.4900   55.0870 C   0  0  0  0  0  3  0  0  0  0  0  0
   22.3070   -1.2990   54.2410 C   0  0  0  0  0  3  0  0  0  0  0  0
   22.2060   -1.1270   52.8760 C   0  0  0  0  0  3  0  0  0  0  0  0
   21.3680   -0.1340   52.3670 C   0  0  0  0  0  3  0  0  0  0  0  0
   25.5090    2.6430   52.7830 N   0  0  0  0  0  0  0  0  0  0  0  0
   25.1650    2.9510   53.7160 H   0  0  0  0  0  0  0  0  0  0  0  0
   26.1540    1.3790   52.8640 C   0  0  0  0  0  0  0  0  0  0  0  0
   25.3690    0.2440   52.6390 C   0  0  0  0  0  3  0  0  0  0  0  0
   25.9520   -1.0180   52.7050 C   0  0  0  0  0  3  0  0  0  0  0  0
   27.3050   -1.1560   52.9910 C   0  0  0  0  0  3  0  0  0  0  0  0
   28.0880   -0.0430   53.2150 C   0  0  0  0  0  0  0  0  0  0  0  0
   29.9390   -0.2080   53.6090 Br  0  0  0  0  0  0  0  0  0  0  0  0
   27.4930    1.1990   53.1450 C   0  0  0  0  0  3  0  0  0  0  0  0
  1  2  2  0  0  0  0
  2 14  1  0  0  0  0
  3  2  1  0  0  0  0
  3 12  1  0  0  0  0
  4  3  1  0  0  0  0
  5  4  1  0  0  0  0
  5  6  2  0  0  0  0
  6 11  1  0  0  0  0
  7  6  1  0  0  0  0
  7  8  2  0  0  0  0
  8  9  1  0  0  0  0
  9 13  1  0  0  0  0
  9 10  1  0  0  0  0
 10 22  1  1  0  0  0
 11 12  2  0  0  0  0
 11 10  1  0  0  0  0
 14 15  1  0  0  0  0
 15 16  1  0  0  0  0
 16 17  1  0  0  0  0
 17 18  2  0  0  0  0
 19 18  1  0  0  0  0
 20 19  2  0  0  0  0
 21 20  1  0  0  0  0
 21 16  2  0  0  0  0
 22 24  1  0  0  0  0
 22 23  1  0  0  0  0
 24 30  1  0  0  0  0
 25 26  1  0  0  0  0
 25 24  2  0  0  0  0
 26 27  2  0  0  0  0
 27 28  1  0  0  0  0
 28 29  1  0  0  0  0
 30 28  2  0  0  0  0
M  END
>  <TORSDO>
F 5

$$$$
