C:\Qe-CaDD\Project\Data\Stage_6_Molecular_Dynamics\ligands_top\out_20860_EGFR_extracted.pdbqt
 OpenBabel01082506443D

 22 23  0  0  0  0  0  0  0  0999 V2000
   24.5390    0.2810   53.1490 C   0  0  0  0  0  0  0  0  0  0  0  0
   24.1180    0.9600   52.0050 C   0  0  0  0  0  3  0  0  0  0  0  0
   24.8260    2.0670   51.5820 C   0  0  0  0  0  0  0  0  0  0  0  0
   25.9400    2.5250   52.2590 C   0  0  0  0  0  3  0  0  0  0  0  0
   26.3770    1.8640   53.4030 C   0  0  0  0  0  0  0  0  0  0  0  0
   25.6620    0.7510   53.8230 C   0  0  0  0  0  0  0  0  0  0  0  0
   26.0180   -0.0630   55.0380 C   0  0  0  0  0  1  0  0  0  0  0  0
   24.4500    2.8210   50.4100 N   0  0  0  0  0  0  0  0  0  0  0  0
   23.4520    2.7910   50.0600 H   0  0  0  0  0  0  0  0  0  0  0  0
   25.5110    3.5810   49.7980 C   0  0  0  0  0  3  0  0  0  0  0  0
   25.2890    4.8110   49.4830 N   0  0  0  0  0  0  0  0  0  0  0  0
   26.3260    5.5700   48.8800 C   0  0  0  0  0  0  0  0  0  0  0  0
   26.3270    6.8640   48.4050 C   0  0  0  0  0  3  0  0  0  0  0  0
   27.4780    7.3840   47.8520 C   0  0  0  0  0  3  0  0  0  0  0  0
   28.6340    6.6580   47.7540 C   0  0  0  0  0  0  0  0  0  0  0  0
   30.0220    7.4320   47.0330 Cl  0  0  0  0  0  0  0  0  0  0  0  0
   28.6460    5.3700   48.2220 C   0  0  0  0  0  3  0  0  0  0  0  0
   27.4980    4.8130   48.7880 C   0  0  0  0  0  3  0  0  0  0  0  0
   23.8220   -0.8310   53.5660 O   0  0  0  0  0  0  0  0  0  0  0  0
   22.4290   -0.9350   53.4300 C   0  0  0  0  0  1  0  0  0  0  0  0
   27.4420    2.1470   54.2120 O   0  0  0  0  0  0  0  0  0  0  0  0
   28.7610    2.3490   53.7440 C   0  0  0  0  0  1  0  0  0  0  0  0
  1 19  1  0  0  0  0
  1  6  1  0  0  0  0
  2  1  2  0  0  0  0
  3  2  1  0  0  0  0
  3  4  2  0  0  0  0
  4  5  1  0  0  0  0
  5  6  2  0  0  0  0
  5 21  1  0  0  0  0
  6  7  1  0  0  0  0
  8  3  1  0  0  0  0
  9  8  1  0  0  0  0
 10  8  1  0  0  0  0
 11 10  2  0  0  0  0
 12 11  1  0  0  0  0
 13 12  2  0  0  0  0
 14 13  1  0  0  0  0
 15 14  2  0  0  0  0
 15 17  1  0  0  0  0
 16 15  1  0  0  0  0
 17 18  2  0  0  0  0
 18 12  1  0  0  0  0
 20 19  1  0  0  0  0
 22 21  1  0  0  0  0
M  END
>  <TORSDO>
F 5

$$$$
