C:\Qe-CaDD\Project\Data\Stage_6_Molecular_Dynamics\ligands_top\out_12345_EGFR_extracted.pdbqt
 OpenBabel01082506443D

 22 24  0  0  1  0  0  0  0  0999 V2000
   20.3600   -0.0330   53.7020 C   0  0  0  0  0  0  0  0  0  0  0  0
   20.2650    0.7260   52.5180 O   0  0  0  0  0  0  0  0  0  0  0  0
   21.3870    1.0920   51.7940 C   0  0  0  0  0  3  0  0  0  0  0  0
   22.6590    0.8020   52.0870 C   0  0  0  0  0  3  0  0  0  0  0  0
   22.9080    0.0290   53.2760 C   0  0  1  0  0  3  0  0  0  0  0  0
   24.1710   -0.3240   53.6930 C   0  0  0  0  0  0  0  0  0  0  0  0
   24.2620   -1.0390   54.8300 N   0  0  0  0  0  0  0  0  0  0  0  0
   23.1790   -1.4000   55.5410 C   0  0  0  0  0  3  0  0  0  0  0  0
   21.9470   -1.0530   55.1310 N   0  0  0  0  0  0  0  0  0  0  0  0
   21.7830   -0.3300   53.9890 C   0  0  0  0  0  0  0  0  0  0  0  0
   25.2140    0.1190   52.8420 N   0  0  0  0  0  0  0  0  0  0  0  0
   24.7710    0.1240   51.8960 H   0  0  0  0  0  0  0  0  0  0  0  0
   26.5450    0.4860   53.1060 C   0  0  0  0  0  0  0  0  0  0  0  0
   26.7850    1.8470   53.2570 C   0  0  0  0  0  3  0  0  0  0  0  0
   28.0820    2.2310   53.5280 C   0  0  0  0  0  3  0  0  0  0  0  0
   29.0620    1.2630   53.6350 C   0  0  0  0  0  3  0  0  0  0  0  0
   28.8120   -0.0980   53.4820 C   0  0  0  0  0  0  0  0  0  0  0  0
   29.9600   -1.0430   53.6260 C   0  0  0  0  0  1  0  0  0  0  0  0
   27.5040   -0.4890   53.2080 C   0  0  0  0  0  3  0  0  0  0  0  0
   19.5780   -1.1750   53.5040 O   0  0  0  0  0  0  0  0  0  0  0  0
   18.4540   -0.7140   52.7880 C   0  0  0  0  0  2  0  0  0  0  0  0
   17.2210   -1.5420   53.0780 C   0  0  0  0  0  1  0  0  0  0  0  0
  1 10  2  0  0  0  0
  2  1  1  0  0  0  0
  3  4  2  0  0  0  0
  3  2  1  0  0  0  0
  5  4  1  1  0  0  0
  5  6  1  0  0  0  0
  5 10  1  0  0  0  0
  6  7  2  0  0  0  0
  7  8  1  0  0  0  0
  9  8  2  0  0  0  0
 10  9  1  0  0  0  0
 11 13  1  0  0  0  0
 11  6  1  0  0  0  0
 12 11  1  0  0  0  0
 13 19  2  0  0  0  0
 13 14  1  0  0  0  0
 14 15  2  0  0  0  0
 15 16  1  0  0  0  0
 17 18  1  0  0  0  0
 17 16  2  0  0  0  0
 19 17  1  0  0  0  0
 20  1  1  0  0  0  0
 21 22  1  0  0  0  0
 21 20  1  0  0  0  0
M  END
>  <TORSDO>
F 4

$$$$
