C:\Qe-CaDD\Project\Data\Stage_6_Molecular_Dynamics\ligands_top\out_14241_EGFR_extracted.pdbqt
 OpenBabel01082506443D

 32 34  0  0  0  0  0  0  0  0999 V2000
   22.3520   -1.3350   55.0040 C   0  0  0  0  0  1  0  0  0  0  0  0
   22.5430   -0.5610   53.9540 C   0  0  0  0  0  2  0  0  0  0  0  0
   22.6140    0.3520   52.9920 C   0  0  0  0  0  0  0  0  0  0  0  0
   23.5360    1.4400   53.1630 C   0  0  0  0  0  2  0  0  0  0  0  0
   21.7770    0.1440   51.8700 N   0  0  0  0  0  4  0  0  0  0  0  0
   20.5220    0.7840   51.8810 C   0  0  0  0  0  0  0  0  0  0  0  0
   20.0070    1.5410   52.7840 O   0  0  0  0  0  0  0  0  0  0  0  0
   21.6320   -0.3090   50.9430 H   0  0  0  0  0  0  0  0  0  0  0  0
   19.3140    0.9480   51.0650 C   0  0  0  0  0  2  0  0  0  0  0  0
   19.6260    0.9340   49.6830 O   0  0  0  0  0  0  0  0  0  0  0  0
   20.3280    1.9660   49.1170 C   0  0  0  0  0  0  0  0  0  0  0  0
   20.0390    3.3070   49.1180 C   0  0  0  0  0  3  0  0  0  0  0  0
   20.9040    4.1900   48.4720 C   0  0  0  0  0  3  0  0  0  0  0  0
   22.0300    3.7310   47.8430 C   0  0  0  0  0  0  0  0  0  0  0  0
   22.8350    4.6230   47.2330 F   0  0  0  0  0  0  0  0  0  0  0  0
   22.3890    2.3810   47.8010 C   0  0  0  0  0  3  0  0  0  0  0  0
   21.4820    1.5510   48.4650 C   0  0  0  0  0  3  0  0  0  0  0  0
   23.7770    2.4390   52.3080 C   0  0  0  0  0  0  0  0  0  0  0  0
   22.9440    3.6460   52.1610 C   0  0  0  0  0  3  0  0  0  0  0  0
   23.4590    4.4780   51.1120 N   0  0  0  0  0  0  0  0  0  0  0  0
   24.4830    4.2540   50.4050 C   0  0  0  0  0  3  0  0  0  0  0  0
   25.3030    3.1100   50.5450 N   0  0  0  0  0  0  0  0  0  0  0  0
   24.9770    2.2370   51.4510 C   0  0  0  0  0  0  0  0  0  0  0  0
   25.8230    1.0790   51.5580 N   0  0  0  0  0  0  0  0  0  0  0  0
   25.5110    0.2430   50.9800 H   0  0  0  0  0  0  0  0  0  0  0  0
   26.9860    1.1410   52.4140 C   0  0  0  0  0  0  0  0  0  0  0  0
   27.4670    2.2700   53.0280 C   0  0  0  0  0  3  0  0  0  0  0  0
   28.5940    2.1830   53.8030 C   0  0  0  0  0  3  0  0  0  0  0  0
   29.2970    1.0280   54.0180 C   0  0  0  0  0  3  0  0  0  0  0  0
   28.8480   -0.1420   53.4180 C   0  0  0  0  0  0  0  0  0  0  0  0
   29.6220   -1.8860   53.5340 Br  0  0  0  0  0  0  0  0  0  0  0  0
   27.7050   -0.0420   52.6350 C   0  0  0  0  0  3  0  0  0  0  0  0
  2  1  1  0  0  0  0
  3  4  1  0  0  0  0
  3  2  1  0  0  0  0
  5  6  1  0  0  0  0
  5  3  2  0  0  0  0
  6  7  2  0  0  0  0
  8  5  1  0  0  0  0
  9  6  1  0  0  0  0
 10  9  1  0  0  0  0
 11 12  1  0  0  0  0
 11 10  1  0  0  0  0
 13 12  2  0  0  0  0
 14 13  1  0  0  0  0
 15 14  1  0  0  0  0
 16 14  2  0  0  0  0
 16 17  1  0  0  0  0
 17 11  2  0  0  0  0
 18  4  1  0  0  0  0
 19 18  1  0  0  0  0
 20 19  2  0  0  0  0
 21 22  2  0  0  0  0
 21 20  1  0  0  0  0
 22 23  1  0  0  0  0
 23 24  1  0  0  0  0
 23 18  2  0  0  0  0
 24 26  1  0  0  0  0
 25 24  1  0  0  0  0
 26 32  2  0  0  0  0
 26 27  1  0  0  0  0
 27 28  2  0  0  0  0
 28 29  1  0  0  0  0
 30 31  1  0  0  0  0
 30 29  2  0  0  0  0
 32 30  1  0  0  0  0
M  END
>  <TORSDO>
F 7

$$$$
