C:\Qe-CaDD\Project\Data\Stage_6_Molecular_Dynamics\ligands_top\out_16458_EGFR_extracted.pdbqt
 OpenBabel01082506443D

 29 31  0  0  1  0  0  0  0  0999 V2000
   24.1980   -0.3520   53.8050 C   0  0  0  0  0  0  0  0  0  0  0  0
   24.4130   -1.1290   54.8980 N   0  0  0  0  0  0  0  0  0  0  0  0
   23.3260   -1.5370   55.5920 C   0  0  0  0  0  3  0  0  0  0  0  0
   22.0810   -1.1940   55.2210 N   0  0  0  0  0  0  0  0  0  0  0  0
   21.8610   -0.4270   54.1430 N   0  0  0  0  0  0  0  0  0  0  0  0
   20.7640    0.0500   53.5330 C   0  0  0  0  0  3  0  0  0  0  0  0
   21.1790    0.7860   52.4160 C   0  0  0  0  0  3  0  0  0  0  0  0
   22.5870    0.7490   52.3610 C   0  0  0  0  0  0  0  0  0  0  0  0
   22.9150   -0.0060   53.4380 C   0  0  0  0  0  0  0  0  0  0  0  0
   25.4110   -0.0020   53.1230 N   0  0  0  0  0  0  0  0  0  0  0  0
   25.7280   -0.0840   52.1220 H   0  0  0  0  0  0  0  0  0  0  0  0
   26.7350    0.7000   54.1200 P   0  0  0  0  0  0  0  0  0  0  0  0
   26.2690    1.2260   55.3910 H   0  0  0  0  0  0  0  0  0  0  0  0
   27.6220    2.0010   53.1700 C   0  0  0  0  0  0  0  0  0  0  0  0
   28.7290    2.4360   53.7930 C   0  0  0  0  0  2  0  0  0  0  0  0
   27.1750    2.4910   51.9070 C   0  0  0  0  0  0  0  0  0  0  0  0
   26.8110    2.9040   50.8350 C   0  0  0  0  0  0  0  0  0  0  0  0
   26.3920    3.4140   49.5400 C   0  0  0  0  0  3  0  0  0  0  0  0
   27.0420    4.3850   48.9060 C   0  0  0  0  0  2  0  0  0  0  0  0
   23.2740    1.5330   51.3090 C   0  0  0  0  0  2  0  0  0  0  0  0
   23.0870    2.8960   51.4530 N   0  0  0  0  0  0  0  0  0  0  0  0
   22.1790    3.6600   50.7020 C   0  0  0  0  0  2  0  0  0  0  0  0
   22.9790    4.8710   50.1780 C   0  0  0  0  0  2  0  0  0  0  0  0
   23.4400    5.6940   51.3320 C   0  0  1  0  0  3  0  0  0  0  0  0
   23.1930    5.0100   52.6450 C   0  0  0  0  0  2  0  0  0  0  0  0
   23.5550    3.5360   52.6450 C   0  0  0  0  0  2  0  0  0  0  0  0
   24.8440    6.0220   51.1430 N   0  0  0  0  0  0  0  0  0  0  0  0
   25.4140    5.8470   52.0050 H   0  0  0  0  0  0  0  0  0  0  0  0
   25.2360    5.5620   50.3010 H   0  0  0  0  0  0  0  0  0  0  0  0
  1  2  2  0  0  0  0
  2  3  1  0  0  0  0
  4  3  2  0  0  0  0
  5  4  1  0  0  0  0
  6  5  1  0  0  0  0
  7  6  2  0  0  0  0
  8  7  1  0  0  0  0
  8  9  2  0  0  0  0
  9  1  1  0  0  0  0
  9  5  1  0  0  0  0
 10  1  1  0  0  0  0
 10 12  1  0  0  0  0
 11 10  1  0  0  0  0
 12 13  1  0  0  0  0
 14 15  2  0  0  0  0
 14 12  1  0  0  0  0
 16 14  1  0  0  0  0
 17 16  3  0  0  0  0
 18 17  1  0  0  0  0
 19 18  2  0  0  0  0
 20 21  1  0  0  0  0
 20  8  1  0  0  0  0
 21 26  1  0  0  0  0
 22 21  1  0  0  0  0
 23 22  1  0  0  0  0
 23 24  1  0  0  0  0
 24 27  1  6  0  0  0
 24 25  1  0  0  0  0
 25 26  1  0  0  0  0
 27 28  1  0  0  0  0
 29 27  1  0  0  0  0
M  END
>  <TORSDO>
F 8

$$$$
