C:\Qe-CaDD\Project\Data\Stage_6_Molecular_Dynamics\ligands_top\out_16370_EGFR_extracted.pdbqt
 OpenBabel01082506443D

 22 25  0  0  1  0  0  0  0  0999 V2000
   24.2380    1.5310   52.8650 C   0  0  0  0  0  0  0  0  0  0  0  0
   23.0270    0.8790   52.9230 C   0  0  0  0  0  3  0  0  0  0  0  0
   22.8130   -0.3140   53.5690 C   0  0  0  0  0  3  0  0  0  0  0  0
   23.8630   -0.8770   54.1860 N   0  0  0  0  0  0  0  0  0  0  0  0
   25.0790   -0.3200   54.1860 C   0  0  0  0  0  0  0  0  0  0  0  0
   26.2190   -0.6790   54.7050 O   0  0  0  0  0  0  0  0  0  0  0  0
   27.1660    0.1890   54.4490 C   0  0  0  0  0  0  0  0  0  0  0  0
   28.4920    0.2380   54.7790 C   0  0  0  0  0  3  0  0  0  0  0  0
   29.2710    1.2930   54.3670 C   0  0  0  0  0  3  0  0  0  0  0  0
   28.6710    2.3050   53.6080 C   0  0  0  0  0  3  0  0  0  0  0  0
   27.3320    2.2270   53.2910 C   0  0  0  0  0  3  0  0  0  0  0  0
   26.5660    1.1770   53.7040 C   0  0  0  0  0  0  0  0  0  0  0  0
   25.2420    0.8780   53.5220 C   0  0  0  0  0  0  0  0  0  0  0  0
   24.3280    2.7550   52.1680 N   0  0  0  0  0  0  0  0  0  0  0  0
   24.4150    3.7480   52.3920 H   0  0  0  0  0  0  0  0  0  0  0  0
   24.2990    2.7000   50.7320 C   0  0  0  0  0  2  0  0  0  0  0  0
   25.2510    3.5740   50.0410 C   0  0  1  0  0  3  0  0  0  0  0  0
   24.8100    4.9480   49.7260 C   0  0  0  0  0  2  0  0  0  0  0  0
   25.7450    5.4880   48.9620 C   0  0  0  0  0  2  0  0  0  0  0  0
   26.8710    4.7930   48.9600 C   0  0  1  0  0  3  0  0  0  0  0  0
   28.5050    5.1200   48.4240 Cl  0  0  0  0  0  0  0  0  0  0  0  0
   26.5040    3.5080   49.5660 C   0  0  0  0  0  2  0  0  0  0  0  0
  1  2  1  0  0  0  0
  1 13  2  0  0  0  0
  2  3  2  0  0  0  0
  3  4  1  0  0  0  0
  4  5  2  0  0  0  0
  5  6  1  0  0  0  0
  7  6  1  0  0  0  0
  7  8  1  0  0  0  0
  9  8  2  0  0  0  0
 10  9  1  0  0  0  0
 11 10  2  0  0  0  0
 11 12  1  0  0  0  0
 12  7  2  0  0  0  0
 13 12  1  0  0  0  0
 13  5  1  0  0  0  0
 14 15  1  0  0  0  0
 14  1  1  0  0  0  0
 16 14  1  0  0  0  0
 17 16  1  1  0  0  0
 18 17  1  0  0  0  0
 19 18  1  0  0  0  0
 20 21  1  1  0  0  0
 20 19  1  0  0  0  0
 20 22  1  0  0  0  0
 22 17  1  0  0  0  0
M  END
>  <TORSDO>
F 3

$$$$
