C:\Qe-CaDD\Project\Data\Stage_6_Molecular_Dynamics\ligands_top\out_18469_EGFR_extracted.pdbqt
 OpenBabel01082506443D

 25 28  0  0  1  0  0  0  0  0999 V2000
   21.6610    0.0050   52.9760 C   0  0  2  0  0  3  0  0  0  0  0  0
   22.4480   -0.8190   53.6280 C   0  0  0  0  0  3  0  0  0  0  0  0
   23.8780   -0.6150   53.9460 C   0  0  0  0  0  3  0  0  0  0  0  0
   24.4140    0.4840   53.5000 C   0  0  0  0  0  0  0  0  0  0  0  0
   23.5950    1.3940   52.6950 C   0  0  0  0  0  0  0  0  0  0  0  0
   24.3660    2.6120   52.5700 C   0  0  0  0  0  3  0  0  0  0  0  0
   25.5270    2.4530   53.1350 N   0  0  0  0  0  0  0  0  0  0  0  0
   25.6400    1.1740   53.7070 N   0  0  0  0  0  0  0  0  0  0  0  0
   22.2080    1.3390   52.7500 N   0  0  0  0  0  0  0  0  0  0  0  0
   21.6280    2.1980   52.6330 H   0  0  0  0  0  0  0  0  0  0  0  0
   20.2650   -0.2050   52.6470 C   0  0  0  0  0  0  0  0  0  0  0  0
   19.4410   -0.9350   53.4420 C   0  0  0  0  0  3  0  0  0  0  0  0
   18.1070   -1.1560   53.1590 C   0  0  0  0  0  3  0  0  0  0  0  0
   17.5320   -0.6320   52.0260 C   0  0  0  0  0  0  0  0  0  0  0  0
   18.3570    0.1110   51.2080 C   0  0  0  0  0  3  0  0  0  0  0  0
   19.6850    0.3100   51.5230 C   0  0  0  0  0  3  0  0  0  0  0  0
   16.2030   -0.8450   51.7330 O   0  0  0  0  0  0  0  0  0  0  0  0
   15.6570   -0.1280   51.2760 H   0  0  0  0  0  0  0  0  0  0  0  0
   26.7770    0.5920   54.4000 C   0  0  0  0  0  2  0  0  0  0  0  0
   27.8120    0.2460   53.3420 C   0  0  2  0  0  3  0  0  0  0  0  0
   27.6540   -1.1740   52.8940 C   0  0  0  0  0  3  0  0  0  0  0  0
   28.7640   -1.8420   53.1710 C   0  0  0  0  0  3  0  0  0  0  0  0
   29.7240   -0.9290   53.8140 C   0  0  0  0  0  0  0  0  0  0  0  0
   30.9110   -1.4870   54.1520 F   0  0  0  0  0  0  0  0  0  0  0  0
   29.1810    0.2720   53.9140 C   0  0  0  0  0  3  0  0  0  0  0  0
  1 11  1  1  0  0  0
  1  2  1  0  0  0  0
  2  3  2  0  0  0  0
  4  8  1  0  0  0  0
  4  3  1  0  0  0  0
  5  9  1  0  0  0  0
  5  4  2  0  0  0  0
  6  5  1  0  0  0  0
  6  7  2  0  0  0  0
  7  8  1  0  0  0  0
  8 19  1  0  0  0  0
  9  1  1  0  0  0  0
 10  9  1  0  0  0  0
 11 12  1  0  0  0  0
 13 12  2  0  0  0  0
 14 13  1  0  0  0  0
 15 16  1  0  0  0  0
 15 14  2  0  0  0  0
 16 11  2  0  0  0  0
 17 14  1  0  0  0  0
 18 17  1  0  0  0  0
 20 25  1  0  0  0  0
 20 19  1  1  0  0  0
 21 22  2  0  0  0  0
 21 20  1  0  0  0  0
 22 23  1  0  0  0  0
 23 25  2  0  0  0  0
 23 24  1  0  0  0  0
M  END
>  <TORSDO>
F 4

$$$$
