C:\Qe-CaDD\Project\Data\Stage_6_Molecular_Dynamics\ligands_top\out_12437_EGFR_extracted.pdbqt
 OpenBabel01082506443D

 29 32  0  0  1  0  0  0  0  0999 V2000
   25.0830   -0.1620   53.1170 C   0  0  0  0  0  0  0  0  0  0  0  0
   25.6130    0.7210   52.1740 C   0  0  0  0  0  3  0  0  0  0  0  0
   24.8200    1.7330   51.6120 C   0  0  0  0  0  0  0  0  0  0  0  0
   23.5040    1.8410   52.0070 C   0  0  0  0  0  0  0  0  0  0  0  0
   22.9530    0.9870   52.9310 C   0  0  0  0  0  0  0  0  0  0  0  0
   23.7640    0.0110   53.4580 C   0  0  0  0  0  0  0  0  0  0  0  0
   23.3090   -0.8930   54.3900 O   0  0  0  0  0  0  0  0  0  0  0  0
   21.9410   -1.0060   54.7310 C   0  0  0  0  0  2  0  0  0  0  0  0
   21.0920   -0.3120   53.6880 C   0  0  0  0  0  2  0  0  0  0  0  0
   21.6590    0.9610   53.4310 O   0  0  0  0  0  0  0  0  0  0  0  0
   22.8820    2.8350   51.3950 C   0  0  0  0  0  2  0  0  0  0  0  0
   23.8840    3.4600   50.4970 C   0  0  2  0  0  0  0  0  0  0  0  0
   24.1760    4.8710   50.9330 C   0  0  0  0  0  2  0  0  0  0  0  0
   24.8480    5.7010   49.9230 C   0  0  0  0  0  3  0  0  0  0  0  0
   24.5410    6.1670   48.7080 C   0  0  0  0  0  0  0  0  0  0  0  0
   25.4920    6.9280   48.1010 F   0  0  0  0  0  0  0  0  0  0  0  0
   23.3190    5.9910   47.8900 C   0  0  0  0  0  3  0  0  0  0  0  0
   22.3600    5.0480   47.9310 C   0  0  0  0  0  3  0  0  0  0  0  0
   22.1800    3.8390   48.8170 C   0  0  0  0  0  2  0  0  0  0  0  0
   23.5040    3.3440   49.1050 N   0  0  0  0  0  0  0  0  0  0  0  0
   25.0580    2.6550   50.7440 N   0  0  0  0  0  2  0  0  0  0  0  0
   23.5650    2.3530   48.8350 H   0  0  0  0  0  0  0  0  0  0  0  0
   26.0470   -1.0510   53.5130 O   0  0  0  0  0  0  0  0  0  0  0  0
   27.3790   -1.1430   53.1530 C   0  0  2  0  0  3  0  0  0  0  0  0
   27.7410   -2.5710   52.7070 C   0  0  0  0  0  1  0  0  0  0  0  0
   28.2470   -0.8920   54.2420 O   0  0  0  0  0  0  0  0  0  0  0  0
   29.4250    0.3290   53.8330 P   0  0  0  0  0  0  0  0  0  0  0  0
   28.6610    2.0220   53.8320 C   0  0  0  0  0  1  0  0  0  0  0  0
   30.0370    0.0330   52.5540 H   0  0  0  0  0  0  0  0  0  0  0  0
  1  6  1  0  0  0  0
  1 23  1  0  0  0  0
  2  1  2  0  0  0  0
  3  4  2  0  0  0  0
  3  2  1  0  0  0  0
  4  5  1  0  0  0  0
  5 10  1  0  0  0  0
  5  6  2  0  0  0  0
  6  7  1  0  0  0  0
  7  8  1  0  0  0  0
  9  8  1  0  0  0  0
 10  9  1  0  0  0  0
 11  4  1  0  0  0  0
 12 21  1  0  0  0  0
 12 13  1  1  0  0  0
 12 11  1  0  0  0  0
 14 13  1  0  0  0  0
 15 14  2  0  0  0  0
 16 15  1  0  0  0  0
 17 18  2  0  0  0  0
 17 15  1  0  0  0  0
 18 19  1  0  0  0  0
 19 20  1  0  0  0  0
 20 12  1  0  0  0  0
 21  3  1  0  0  0  0
 22 20  1  0  0  0  0
 24 25  1  1  0  0  0
 24 23  1  0  0  0  0
 24 26  1  0  0  0  0
 27 26  1  0  0  0  0
 28 27  1  0  0  0  0
 29 27  1  0  0  0  0
M  END
>  <TORSDO>
F 4

$$$$
