C:\Qe-CaDD\Project\Data\Stage_6_Molecular_Dynamics\ligands_top\out_22421_EGFR_extracted.pdbqt
 OpenBabel01082506443D

 22 24  0  0  0  0  0  0  0  0999 V2000
   27.4460    1.4450   53.6750 C   0  0  0  0  0  0  0  0  0  0  0  0
   26.3270    2.2010   53.3990 C   0  0  0  0  0  3  0  0  0  0  0  0
   25.1310    1.4900   53.2910 C   0  0  0  0  0  0  0  0  0  0  0  0
   24.0080    2.2380   53.0150 C   0  0  0  0  0  0  0  0  0  0  0  0
   22.8030    1.6160   52.8940 N   0  0  0  0  0  0  0  0  0  0  0  0
   22.7680    0.2620   53.0560 C   0  0  0  0  0  3  0  0  0  0  0  0
   23.8600   -0.4740   53.3250 N   0  0  0  0  0  0  0  0  0  0  0  0
   25.0680    0.1190   53.4500 C   0  0  0  0  0  0  0  0  0  0  0  0
   26.2230   -0.5630   53.7230 C   0  0  0  0  0  3  0  0  0  0  0  0
   27.3670    0.1110   53.8270 N   0  0  0  0  0  0  0  0  0  0  0  0
   23.9420    3.6330   52.8320 N   0  0  0  0  0  2  0  0  0  0  0  0
   23.6100    4.3630   51.4220 P   0  0  0  0  0  2  0  0  0  0  0  0
   25.0120    4.8110   50.3310 C   0  0  0  0  0  0  0  0  0  0  0  0
   25.8780    3.7400   50.0910 C   0  0  0  0  0  3  0  0  0  0  0  0
   27.0050    3.8690   49.2870 C   0  0  0  0  0  3  0  0  0  0  0  0
   27.2500    5.1070   48.7220 C   0  0  0  0  0  0  0  0  0  0  0  0
   28.3310    5.2930   47.9320 F   0  0  0  0  0  0  0  0  0  0  0  0
   26.3970    6.1670   48.9570 C   0  0  0  0  0  0  0  0  0  0  0  0
   26.6720    7.7640   48.2560 Cl  0  0  0  0  0  0  0  0  0  0  0  0
   25.2780    6.0310   49.7570 C   0  0  0  0  0  3  0  0  0  0  0  0
   28.7240    2.1100   53.8030 C   0  0  0  0  0  3  0  0  0  0  0  0
   29.3850    2.2790   54.8600 O   0  0  0  0  0  0  0  0  0  0  0  0
  1 21  1  0  0  0  0
  1 10  1  0  0  0  0
  2  1  2  0  0  0  0
  3  2  1  0  0  0  0
  3  8  2  0  0  0  0
  4  3  1  0  0  0  0
  5  4  2  0  0  0  0
  5  6  1  0  0  0  0
  6  7  2  0  0  0  0
  7  8  1  0  0  0  0
  8  9  1  0  0  0  0
  9 10  2  0  0  0  0
 11  4  1  0  0  0  0
 12 11  1  0  0  0  0
 13 12  1  0  0  0  0
 14 13  1  0  0  0  0
 15 14  2  0  0  0  0
 16 18  2  0  0  0  0
 16 15  1  0  0  0  0
 17 16  1  0  0  0  0
 18 20  1  0  0  0  0
 19 18  1  0  0  0  0
 20 13  2  0  0  0  0
 21 22  2  0  0  0  0
M  END
>  <TORSDO>
F 4

$$$$
