C:\Qe-CaDD\Project\Data\Stage_6_Molecular_Dynamics\ligands_top\out_13352_EGFR_extracted.pdbqt
 OpenBabel01082506443D

 21 22  0  0  0  0  0  0  0  0999 V2000
   21.8860   -0.9620   55.2810 F   0  0  0  0  0  0  0  0  0  0  0  0
   21.4690   -0.2840   54.1930 C   0  0  0  0  0  0  0  0  0  0  0  0
   20.2660    0.2960   53.8710 C   0  0  0  0  0  3  0  0  0  0  0  0
   20.2610    0.8680   52.6310 C   0  0  0  0  0  0  0  0  0  0  0  0
   21.2370    0.9590   51.6590 C   0  0  0  0  0  3  0  0  0  0  0  0
   22.4680    0.3960   51.9210 C   0  0  0  0  0  3  0  0  0  0  0  0
   22.3510   -0.1330   53.1800 C   0  0  0  0  0  0  0  0  0  0  0  0
   23.6920   -0.4210   53.2820 C   0  0  0  0  0  0  0  0  0  0  0  0
   24.8110   -0.6400   53.3670 C   0  0  0  0  0  0  0  0  0  0  0  0
   26.2200   -0.8900   53.4690 C   0  0  0  0  0  2  0  0  0  0  0  0
   26.9740    0.5150   54.4020 S   0  0  0  0  0  0  0  0  0  0  0  0
   26.6450    2.0390   53.4670 C   0  0  0  0  0  2  0  0  0  0  0  0
   25.4030    2.5000   53.7330 C   0  0  0  0  0  2  0  0  0  0  0  0
   24.6080    3.6050   53.3220 N   0  0  0  0  0  0  0  0  0  0  0  0
   23.8550    4.2240   52.2990 C   0  0  0  0  0  3  0  0  0  0  0  0
   22.5580    4.0350   52.1350 C   0  0  0  0  0  0  0  0  0  0  0  0
   21.2650    4.2180   51.4990 C   0  0  0  0  0  3  0  0  0  0  0  0
   19.9570    3.9130   51.4690 C   0  0  0  0  0  2  0  0  0  0  0  0
   19.5220    3.0430   52.4220 O   0  0  0  0  0  0  0  0  0  0  0  0
   19.0740    1.6990   52.1710 C   0  0  0  0  0  2  0  0  0  0  0  0
   24.3870    4.4340   53.9550 H   0  0  0  0  0  0  0  0  0  0  0  0
  2  1  1  0  0  0  0
  3  2  1  0  0  0  0
  4  3  2  0  0  0  0
  5  6  2  0  0  0  0
  5  4  1  0  0  0  0
  6  7  1  0  0  0  0
  7  8  1  0  0  0  0
  7  2  2  0  0  0  0
  8  9  3  0  0  0  0
  9 10  1  0  0  0  0
 10 11  1  0  0  0  0
 12 13  1  0  0  0  0
 12 11  1  0  0  0  0
 14 13  1  0  0  0  0
 14 21  1  0  0  0  0
 15 14  1  0  0  0  0
 16 15  2  0  0  0  0
 17 16  2  0  0  0  0
 18 17  1  0  0  0  0
 18 19  1  0  0  0  0
 20 19  1  0  0  0  0
 20  4  1  0  0  0  0
M  END
>  <TORSDO>
F 0

$$$$
