C:\Qe-CaDD\Project\Data\Stage_6_Molecular_Dynamics\ligands_top\out_16934_EGFR_extracted.pdbqt
 OpenBabel01082506443D

 24 26  0  0  1  0  0  0  0  0999 V2000
   23.5720    1.1780   51.9160 C   0  0  0  0  0  0  0  0  0  0  0  0
   22.9270    0.1780   52.5060 C   0  0  0  0  0  0  0  0  0  0  0  0
   23.5200   -0.6530   53.5620 C   0  0  0  0  0  2  0  0  0  0  0  0
   22.5280   -1.1610   54.5530 C   0  0  0  0  0  3  0  0  0  0  0  0
   21.2870   -0.9910   54.8880 N   0  0  0  0  0  0  0  0  0  0  0  0
   20.4150   -0.0660   54.2150 C   0  0  0  0  0  3  0  0  0  0  0  0
   20.5140    0.3820   52.9690 C   0  0  0  0  0  3  0  0  0  0  0  0
   21.5580    0.0390   51.9440 C   0  0  1  0  0  3  0  0  0  0  0  0
   21.5350    1.1300   50.9360 C   0  0  0  0  0  3  0  0  0  0  0  0
   22.6890    1.7790   50.9240 C   0  0  0  0  0  0  0  0  0  0  0  0
   24.8430    1.7170   52.0610 O   0  0  0  0  0  0  0  0  0  0  0  0
   25.1510    2.3830   53.2470 C   0  0  0  0  0  2  0  0  0  0  0  0
   26.4660    2.0200   53.8530 C   0  0  1  0  0  3  0  0  0  0  0  0
   26.4060    0.7870   54.7030 C   0  0  0  0  0  2  0  0  0  0  0  0
   27.7920    0.1960   54.8300 C   0  0  0  0  0  2  0  0  0  0  0  0
   28.3540   -0.2550   53.5960 N   0  0  0  0  0  0  0  0  0  0  0  0
   29.7700    0.1140   53.6220 C   0  0  0  0  0  1  0  0  0  0  0  0
   27.7540    0.4670   52.4870 C   0  0  0  0  0  2  0  0  0  0  0  0
   27.6130    1.9060   52.9090 C   0  0  1  0  0  3  0  0  0  0  0  0
   27.6170    2.8070   51.8630 O   0  0  0  0  0  0  0  0  0  0  0  0
   28.2770    3.4930   52.0670 H   0  0  0  0  0  0  0  0  0  0  0  0
   22.7940    3.1550   49.7190 P   0  0  0  0  0  0  0  0  0  0  0  0
   21.6260    3.9800   49.7800 H   0  0  0  0  0  0  0  0  0  0  0  0
   24.0420    3.8440   49.8800 H   0  0  0  0  0  0  0  0  0  0  0  0
  1 11  1  0  0  0  0
  1  2  2  0  0  0  0
  2  3  1  0  0  0  0
  3  4  1  0  0  0  0
  4  5  2  0  0  0  0
  6  5  1  0  0  0  0
  7  6  2  0  0  0  0
  8  9  1  6  0  0  0
  8  2  1  0  0  0  0
  8  7  1  0  0  0  0
 10  9  2  0  0  0  0
 10  1  1  0  0  0  0
 11 12  1  0  0  0  0
 13 12  1  6  0  0  0
 13 14  1  0  0  0  0
 14 15  1  0  0  0  0
 16 17  1  0  0  0  0
 16 15  1  0  0  0  0
 18 19  1  0  0  0  0
 18 16  1  0  0  0  0
 19 20  1  6  0  0  0
 19 13  1  0  0  0  0
 20 21  1  0  0  0  0
 22 23  1  0  0  0  0
 22 24  1  0  0  0  0
 22 10  1  0  0  0  0
M  END
>  <TORSDO>
F 5

$$$$
