C:\Qe-CaDD\Project\Data\Stage_6_Molecular_Dynamics\ligands_top\out_11831_EGFR_extracted.pdbqt
 OpenBabel01082506443D

 22 26  0  0  1  0  0  0  0  0999 V2000
   21.9770    2.5400   52.4100 O   0  0  0  0  0  0  0  0  0  0  0  0
   21.8200    1.8120   51.4580 C   0  0  0  0  0  0  0  0  0  0  0  0
   22.8410    1.3980   50.4430 N   0  0  0  0  0  0  0  0  0  0  0  0
   22.9570    2.5620   49.5470 C   0  0  1  0  0  3  0  0  0  0  0  0
   22.1910    2.2470   48.5470 C   0  0  0  0  0  2  0  0  0  0  0  0
   20.9000    1.9270   48.6710 C   0  0  0  0  0  2  0  0  0  0  0  0
   20.0730    1.1800   49.6860 C   0  0  0  0  0  2  0  0  0  0  0  0
   20.6470    1.0640   50.8990 C   0  0  2  0  0  3  0  0  0  0  0  0
   20.3310    0.2230   52.0640 C   0  0  0  0  0  2  0  0  0  0  0  0
   21.4910   -0.0790   52.9720 C   0  0  0  0  0  3  0  0  0  0  0  0
   22.8130   -0.0280   53.1970 C   0  0  0  0  0  0  0  0  0  0  0  0
   24.1700    0.2860   52.8780 C   0  0  0  0  0  0  0  0  0  0  0  0
   25.1010   -0.5660   53.4500 C   0  0  0  0  0  3  0  0  0  0  0  0
   26.4630   -0.5270   53.2820 C   0  0  0  0  0  3  0  0  0  0  0  0
   27.0940    0.4040   52.4920 C   0  0  0  0  0  2  0  0  0  0  0  0
   26.1700    1.2780   51.9010 C   0  0  0  0  0  0  0  0  0  0  0  0
   26.4260    2.3280   51.0000 C   0  0  0  0  0  2  0  0  0  0  0  0
   25.2550    2.9820   50.5680 C   0  0  2  0  0  3  0  0  0  0  0  0
   24.5220    2.1310   51.3510 N   0  0  0  0  0  0  0  0  0  0  0  0
   24.8350    1.1550   52.1320 C   0  0  0  0  0  0  0  0  0  0  0  0
   23.8790    3.1960   50.5160 C   0  0  2  0  0  3  0  0  0  0  0  0
   23.4250    0.6240   50.1990 H   0  0  0  0  0  0  0  0  0  0  0  0
  2  1  2  0  0  0  0
  3  2  1  0  0  0  0
  4  5  1  1  0  0  0
  4  3  1  0  0  0  0
  4 21  1  0  0  0  0
  5  6  1  0  0  0  0
  6  7  1  0  0  0  0
  8  7  1  1  0  0  0
  8  2  1  0  0  0  0
  8  9  1  0  0  0  0
  9 10  1  0  0  0  0
 10 11  2  0  0  0  0
 12 11  2  0  0  0  0
 12 13  1  0  0  0  0
 14 13  2  0  0  0  0
 15 14  1  0  0  0  0
 16 20  2  0  0  0  0
 16 15  1  0  0  0  0
 17 16  1  0  0  0  0
 18 17  1  6  0  0  0
 18 19  1  0  0  0  0
 19 20  1  0  0  0  0
 20 12  1  0  0  0  0
 21 18  1  0  0  0  0
 21 19  1  1  0  0  0
 22  3  1  0  0  0  0
M  END
>  <TORSDO>
F 0

$$$$
