C:\Qe-CaDD\Project\Data\Stage_6_Molecular_Dynamics\ligands_top\out_16420_EGFR_extracted.pdbqt
 OpenBabel01082506443D

 22 24  0  0  1  0  0  0  0  0999 V2000
   25.0780    0.2240   53.7620 C   0  0  0  0  0  0  0  0  0  0  0  0
   24.9700    1.2820   52.9080 C   0  0  0  0  0  3  0  0  0  0  0  0
   23.7560    1.4540   52.2310 C   0  0  0  0  0  0  0  0  0  0  0  0
   22.7830    0.5180   52.5060 C   0  0  0  0  0  3  0  0  0  0  0  0
   22.9230   -0.5420   53.3770 C   0  0  0  0  0  3  0  0  0  0  0  0
   24.1040   -0.6670   54.0020 N   0  0  0  0  0  0  0  0  0  0  0  0
   23.5040    2.5130   51.3270 N   0  0  0  0  0  0  0  0  0  0  0  0
   23.1980    3.3830   51.8420 H   0  0  0  0  0  0  0  0  0  0  0  0
   23.5480    2.7470   49.9030 C   0  0  0  0  0  2  0  0  0  0  0  0
   24.7650    3.5110   49.5740 C   0  0  0  0  0  0  0  0  0  0  0  0
   26.1100    3.2300   49.6310 C   0  0  0  0  0  3  0  0  0  0  0  0
   27.0540    4.1450   49.2770 C   0  0  0  0  0  3  0  0  0  0  0  0
   26.7390    5.4110   48.8370 C   0  0  0  0  0  3  0  0  0  0  0  0
   25.3990    5.7250   48.7680 C   0  0  0  0  0  3  0  0  0  0  0  0
   24.4250    4.7880   49.1300 C   0  0  0  0  0  3  0  0  0  0  0  0
   26.3170    0.1400   54.3830 O   0  0  0  0  0  0  0  0  0  0  0  0
   27.4450    0.0220   53.5830 C   0  0  1  0  0  3  0  0  0  0  0  0
   27.6500   -1.1740   53.0750 C   0  0  0  0  0  3  0  0  0  0  0  0
   28.8590   -1.7100   53.1290 C   0  0  0  0  0  3  0  0  0  0  0  0
   29.9330   -0.9150   53.7260 C   0  0  0  0  0  3  0  0  0  0  0  0
   29.7860    0.4120   53.7430 C   0  0  0  0  0  3  0  0  0  0  0  0
   28.5240    0.9580   53.1410 C   0  0  0  0  0  2  0  0  0  0  0  0
  1  6  2  0  0  0  0
  1 16  1  0  0  0  0
  2  1  1  0  0  0  0
  3  4  1  0  0  0  0
  3  2  2  0  0  0  0
  4  5  2  0  0  0  0
  5  6  1  0  0  0  0
  7  8  1  0  0  0  0
  7  3  1  0  0  0  0
  9  7  1  0  0  0  0
 10 11  1  0  0  0  0
 10  9  1  0  0  0  0
 12 11  2  0  0  0  0
 13 12  1  0  0  0  0
 14 13  2  0  0  0  0
 14 15  1  0  0  0  0
 15 10  2  0  0  0  0
 17 16  1  6  0  0  0
 18 19  2  0  0  0  0
 18 17  1  0  0  0  0
 19 20  1  0  0  0  0
 20 21  2  0  0  0  0
 22 17  1  0  0  0  0
 22 21  1  0  0  0  0
M  END
>  <TORSDO>
F 5

$$$$
