C:\Qe-CaDD\Project\Data\Stage_6_Molecular_Dynamics\ligands_top\out_21623_EGFR_extracted.pdbqt
 OpenBabel01082506443D

 24 25  0  0  0  0  0  0  0  0999 V2000
   26.5950    1.2120   52.7840 C   0  0  0  0  0  0  0  0  0  0  0  0
   26.1870    0.2090   53.5480 C   0  0  0  0  0  0  0  0  0  0  0  0
   26.7430    0.1400   54.9340 C   0  0  0  0  0  2  0  0  0  0  0  0
   28.2240    0.4140   54.8770 C   0  0  0  0  0  2  0  0  0  0  0  0
   28.6650    1.4150   54.1250 C   0  0  0  0  0  2  0  0  0  0  0  0
   27.5580    2.1240   53.4340 C   0  0  0  0  0  2  0  0  0  0  0  0
   26.1810    1.4700   51.4020 C   0  0  0  0  0  2  0  0  0  0  0  0
   26.6900    2.8180   50.9460 C   0  0  0  0  0  2  0  0  0  0  0  0
   25.7200    3.5080   50.1180 N   0  0  0  0  0  0  0  0  0  0  0  0
   26.0480    4.5310   49.1910 C   0  0  0  0  0  3  0  0  0  0  0  0
   27.2540    4.9460   48.7740 C   0  0  0  0  0  2  0  0  0  0  0  0
   24.3390    3.0890   50.2850 C   0  0  0  0  0  2  0  0  0  0  0  0
   23.3870    4.2230   50.5090 C   0  0  0  0  0  2  0  0  0  0  0  0
   23.2840    4.5040   52.3570 P   0  0  0  0  0  0  0  0  0  0  0  0
   24.1480    3.7050   53.3530 O   0  0  0  0  0  0  0  0  0  0  0  0
   25.2280   -0.8710   53.1900 C   0  0  0  0  0  2  0  0  0  0  0  0
   23.8430   -0.4410   53.5180 C   0  0  0  0  0  0  0  0  0  0  0  0
   23.1410    0.4060   52.6880 C   0  0  0  0  0  3  0  0  0  0  0  0
   21.8540    0.8180   52.9710 C   0  0  0  0  0  3  0  0  0  0  0  0
   21.2480    0.3670   54.1260 C   0  0  0  0  0  3  0  0  0  0  0  0
   21.9530   -0.4800   54.9550 C   0  0  0  0  0  3  0  0  0  0  0  0
   23.2580   -0.9130   54.6930 C   0  0  0  0  0  0  0  0  0  0  0  0
   23.9110   -1.7700   55.5760 O   0  0  0  0  0  0  0  0  0  0  0  0
   23.8320   -2.7780   55.5190 H   0  0  0  0  0  0  0  0  0  0  0  0
  1  6  1  0  0  0  0
  1  2  2  0  0  0  0
  2  3  1  0  0  0  0
  4  3  1  0  0  0  0
  5  4  1  0  0  0  0
  6  5  1  0  0  0  0
  7  1  1  0  0  0  0
  8  7  1  0  0  0  0
  9 12  1  0  0  0  0
  9  8  1  0  0  0  0
 10  9  1  0  0  0  0
 11 10  2  0  0  0  0
 12 13  1  0  0  0  0
 13 14  1  0  0  0  0
 14 15  2  0  0  0  0
 16 17  1  0  0  0  0
 16  2  1  0  0  0  0
 17 22  1  0  0  0  0
 18 19  1  0  0  0  0
 18 17  2  0  0  0  0
 19 20  2  0  0  0  0
 20 21  1  0  0  0  0
 22 21  2  0  0  0  0
 22 23  1  0  0  0  0
 24 23  1  0  0  0  0
M  END
>  <TORSDO>
F 10

$$$$
