C:\Qe-CaDD\Project\Data\Stage_6_Molecular_Dynamics\ligands_top\out_18549_EGFR_extracted.pdbqt
 OpenBabel01082506443D

 25 27  0  0  1  0  0  0  0  0999 V2000
   24.4350    2.4840   49.9190 C   0  0  0  0  0  2  0  0  0  0  0  0
   24.1470    3.2650   50.9220 C   0  0  0  0  0  0  0  0  0  0  0  0
   23.6340    4.5780   50.5460 C   0  0  0  0  0  3  0  0  0  0  0  0
   23.3000    5.4380   51.4980 C   0  0  0  0  0  3  0  0  0  0  0  0
   23.4500    5.0590   52.8950 C   0  0  0  0  0  3  0  0  0  0  0  0
   23.9120    3.8840   53.1690 C   0  0  0  0  0  3  0  0  0  0  0  0
   24.3620    2.7360   52.2780 C   0  0  2  0  0  0  0  0  0  0  0  0
   25.6680    2.5100   52.6930 N   0  0  0  0  0  0  0  0  0  0  0  0
   26.6530    1.8840   51.9410 C   0  0  2  0  0  3  0  0  0  0  0  0
   26.9110    0.4420   52.3370 C   0  0  0  0  0  2  0  0  0  0  0  0
   26.7740    0.4670   53.7960 N   0  0  1  0  0  0  0  0  0  0  0  0
   27.6160    1.4050   54.2970 N   0  0  0  0  0  0  0  0  0  0  0  0
   28.4680    2.2460   53.4770 C   0  0  0  0  0  2  0  0  0  0  0  0
   27.9210    2.5570   52.3210 N   0  0  0  0  0  2  0  0  0  0  0  0
   25.4110    0.4350   54.1980 C   0  0  2  0  0  3  0  0  0  0  0  0
   25.1730   -0.9690   54.7640 C   0  0  0  0  0  1  0  0  0  0  0  0
   24.6470    0.6330   53.0250 O   0  0  0  0  0  0  0  0  0  0  0  0
   23.2950    0.4470   53.0270 C   0  0  0  0  0  2  0  0  0  0  0  0
   23.3970    1.6580   52.6070 C   0  0  2  0  0  3  0  0  0  0  0  0
   26.0200    2.9940   53.5400 H   0  0  0  0  0  0  0  0  0  0  0  0
   27.6550    1.5360   55.3480 H   0  0  0  0  0  0  0  0  0  0  0  0
   21.9520    1.7430   52.4990 C   0  0  0  0  0  3  0  0  0  0  0  0
   21.0200    1.4790   51.6120 C   0  0  0  0  0  0  0  0  0  0  0  0
   21.0380    0.9450   50.2490 C   0  0  0  0  0  1  0  0  0  0  0  0
   19.7430    1.7720   52.0750 F   0  0  0  0  0  0  0  0  0  0  0  0
  1  2  2  0  0  0  0
  2  7  1  0  0  0  0
  3  2  1  0  0  0  0
  3  4  2  0  0  0  0
  4  5  1  0  0  0  0
  5  6  2  0  0  0  0
  7 19  1  0  0  0  0
  7  8  1  0  0  0  0
  7  6  1  1  0  0  0
  8 20  1  0  0  0  0
  9 14  1  0  0  0  0
  9 10  1  1  0  0  0
  9  8  1  0  0  0  0
 11 10  1  6  0  0  0
 11 15  1  0  0  0  0
 11 12  1  0  0  0  0
 12 21  1  0  0  0  0
 13 12  1  0  0  0  0
 14 13  1  0  0  0  0
 15 16  1  6  0  0  0
 17 18  1  0  0  0  0
 17 15  1  0  0  0  0
 19 22  1  6  0  0  0
 19 18  1  0  0  0  0
 23 25  1  0  0  0  0
 23 22  2  0  0  0  0
 24 23  1  0  0  0  0
M  END
>  <TORSDO>
F 1

$$$$
