REMARK  5 active torsions:
REMARK  status: ('A' for Active; 'I' for Inactive)
REMARK    1  A    between atoms: C2_2  and  C3_3 
REMARK    2  A    between atoms: C3_3  and  C4_4 
REMARK    3  A    between atoms: C4_4  and  C5_5 
REMARK    4  A    between atoms: C18_22  and  O2_23 
REMARK    5  A    between atoms: O2_23  and  C19_24 
ROOT
HETATM    1  C5  UNL     1      -0.411   1.616  -0.098  1.00  0.00     0.025 C 
HETATM    2  C6  UNL     1       1.044   2.054  -0.396  1.00  0.00     0.176 C 
HETATM    3  N1  UNL     1       1.554   0.928   0.394  1.00  0.00    -0.334 N 
HETATM    4  C7  UNL     1       0.924  -0.268  -0.132  1.00  0.00     0.049 C 
HETATM    5  C8  UNL     1       1.520  -1.692  -0.075  1.00  0.00     0.094 A 
HETATM    6  C9  UNL     1       2.707  -1.756  -0.912  1.00  0.00     0.071 C 
HETATM    7  C10 UNL     1       1.500  -2.038  -1.931  1.00  0.00    -0.052 A 
HETATM    8  C11 UNL     1       1.124  -2.019  -3.158  1.00  0.00     0.002 A 
HETATM    9  C12 UNL     1      -0.216  -2.008  -3.334  1.00  0.00    -0.012 A 
HETATM   10  C13 UNL     1      -1.358  -2.004  -2.642  1.00  0.00     0.028 A 
HETATM   11  C14 UNL     1      -0.517  -2.048  -1.360  1.00  0.00     0.064 A 
HETATM   12  C15 UNL     1       0.759  -2.077  -0.631  1.00  0.00     0.080 A 
HETATM   13  N2  UNL     1       0.484  -1.946   0.767  1.00  0.00    -0.218 NA
HETATM   14  C16 UNL     1       0.870  -1.797   2.022  1.00  0.00     0.219 C 
HETATM   15  O1  UNL     1       0.353  -2.973   2.141  1.00  0.00    -0.278 OA
HETATM   16  C17 UNL     1       1.510  -0.950   3.010  1.00  0.00     0.215 C 
HETATM   17  N3  UNL     1       1.858   0.371   2.766  1.00  0.00    -0.373 N 
HETATM   18  C18 UNL     1       2.443   0.881   1.582  1.00  0.00     0.327 C 
HETATM   19  C21 UNL     1      -2.182  -1.734  -1.555  1.00  0.00     0.065 A 
HETATM   20  C22 UNL     1      -1.757  -0.252  -1.029  1.00  0.00     0.019 C 
HETATM   21  C23 UNL     1      -0.533   0.175  -0.510  1.00  0.00     0.004 C 
HETATM   22  C24 UNL     1      -3.557  -1.294  -2.216  1.00  0.00     0.305 C 
HETATM   23  N4  UNL     1      -4.452  -1.229  -1.092  1.00  0.00     0.103 N 
HETATM   24  C25 UNL     1      -3.902  -2.032  -0.049  1.00  0.00     0.388 C 
HETATM   25  N5  UNL     1      -2.656  -2.512  -0.555  1.00  0.00    -0.385 N 
HETATM   26  H14 UNL     1       2.165   0.855   3.630  1.00  0.00     0.158 HD
HETATM   27  H24 UNL     1      -4.610  -0.233  -0.742  1.00  0.00     0.318 HD
HETATM   28  H27 UNL     1      -2.576  -3.551  -0.649  1.00  0.00     0.156 HD
ENDROOT
BRANCH   1  29
HETATM   29  C4  UNL     1      -1.244   2.457   0.433  1.00  0.00    -0.068 C 
BRANCH  29  30
HETATM   30  C3  UNL     1      -2.242   3.080   0.952  1.00  0.00    -0.096 C 
BRANCH  30  31
HETATM   31  C2  UNL     1      -3.012   3.896   1.658  1.00  0.00     0.076 C 
HETATM   32  C1  UNL     1      -4.350   4.257   1.131  1.00  0.00     0.025 C 
ENDBRANCH  30  31
ENDBRANCH  29  30
ENDBRANCH   1  29
BRANCH  18  33
HETATM   33  O2  UNL     1       3.527   0.114   1.228  1.00  0.00    -0.350 OA
BRANCH  33  34
HETATM   34  C19 UNL     1       4.737   0.729   1.167  1.00  0.00     0.167 C 
HETATM   35  C20 UNL     1       4.823   1.862   0.188  1.00  0.00     0.033 C 
ENDBRANCH  33  34
ENDBRANCH  18  33
TORSDOF 5
