REMARK  3 active torsions:
REMARK  status: ('A' for Active; 'I' for Inactive)
REMARK    1  A    between atoms: N1_4  and  O1_5 
REMARK    2  A    between atoms: C4_6  and  C18_21 
REMARK    3  A    between atoms: N2_15  and  C13_16 
ROOT
HETATM    1  C1  UNL     1      -0.717   1.156  -1.807  1.00  0.00     0.017 C 
HETATM    2  C2  UNL     1      -0.923   1.033  -0.429  1.00  0.00    -0.051 C 
HETATM    3  C3  UNL     1       0.061   2.079  -0.050  1.00  0.00     0.185 C 
HETATM    4  N1  UNL     1       0.848   1.746   1.063  1.00  0.00    -0.279 N 
HETATM    5  C4  UNL     1       1.481   0.509   0.883  1.00  0.00     0.081 C 
HETATM    6  C5  UNL     1       2.758   0.553   1.703  1.00  0.00     0.046 C 
HETATM    7  C6  UNL     1       0.520  -0.186   1.911  1.00  0.00     0.013 C 
HETATM    8  C7  UNL     1      -0.792  -0.433   2.304  1.00  0.00     0.049 C 
HETATM    9  C8  UNL     1      -2.244  -0.344   2.216  1.00  0.00     0.093 C 
HETATM   10  C9  UNL     1      -2.470   0.763   1.090  1.00  0.00     0.051 C 
HETATM   11  C10 UNL     1      -1.852   0.006   0.086  1.00  0.00     0.074 C 
HETATM   12  C11 UNL     1      -1.616  -1.456   0.522  1.00  0.00     0.042 C 
HETATM   13  C12 UNL     1      -0.358  -2.000  -0.037  1.00  0.00     0.120 C 
HETATM   14  N2  UNL     1      -0.522  -0.987  -1.060  1.00  0.00    -0.326 N 
HETATM   15  C19 UNL     1      -2.062  -0.729  -1.180  1.00  0.00     0.248 C 
HETATM   16  O2  UNL     1      -2.771  -1.871  -1.004  1.00  0.00    -0.346 OA
HETATM   17  C20 UNL     1      -3.638  -2.036   0.168  1.00  0.00     0.296 C 
HETATM   18  N3  UNL     1      -2.920  -1.193   1.184  1.00  0.00    -0.355 N 
ENDROOT
BRANCH   4  19
HETATM   19  O1  UNL     1       1.397   2.678   1.783  1.00  0.00    -0.291 OA
HETATM   20  H5  UNL     1       0.770   3.370   2.046  1.00  0.00     0.244 HD
ENDBRANCH   4  19
BRANCH   5  21
HETATM   21  C18 UNL     1       1.705  -0.013  -0.398  1.00  0.00    -0.001 A 
HETATM   22  C13 UNL     1       0.928  -0.793  -1.343  1.00  0.00     0.045 A 
HETATM   23  C14 UNL     1       1.253  -1.366  -2.547  1.00  0.00     0.030 A 
HETATM   24  C15 UNL     1       2.554  -1.177  -2.968  1.00  0.00     0.002 A 
HETATM   25  C16 UNL     1       3.332  -0.443  -2.116  1.00  0.00     0.001 A 
HETATM   26  C17 UNL     1       2.961   0.110  -0.913  1.00  0.00     0.012 A 
ENDBRANCH   5  21
TORSDOF 3
