REMARK  0 active torsions:
REMARK  status: ('A' for Active; 'I' for Inactive)
ROOT
HETATM    1  O1  UNL     1      -4.402  -4.247  -0.352  1.00  0.00    -0.273 OA
HETATM    2  C1  UNL     1      -3.847  -3.295   0.304  1.00  0.00     0.226 C 
HETATM    3  C2  UNL     1      -2.698  -2.745   1.132  1.00  0.00     0.143 C 
HETATM    4  C3  UNL     1      -2.228  -1.685   0.224  1.00  0.00    -0.030 C 
HETATM    5  C4  UNL     1      -1.595  -0.861  -0.551  1.00  0.00    -0.016 C 
HETATM    6  C5  UNL     1      -0.387  -0.385  -1.217  1.00  0.00     0.041 C 
HETATM    7  C6  UNL     1       0.852  -1.084  -0.681  1.00  0.00     0.043 A 
HETATM    8  C7  UNL     1       1.510  -1.739  -1.827  1.00  0.00    -0.017 A 
HETATM    9  C8  UNL     1       2.685  -1.170  -2.012  1.00  0.00     0.004 A 
HETATM   10  C9  UNL     1       2.947  -0.077  -1.023  1.00  0.00    -0.050 A 
HETATM   11  C10 UNL     1       1.845  -0.060  -0.263  1.00  0.00    -0.042 A 
HETATM   12  C11 UNL     1       1.667   0.884   0.870  1.00  0.00     0.119 C 
HETATM   13  C12 UNL     1       0.359   1.557   0.946  1.00  0.00     0.045 C 
HETATM   14  C13 UNL     1      -0.677   2.449   1.068  1.00  0.00    -0.023 C 
HETATM   15  C14 UNL     1      -2.135   2.385   1.005  1.00  0.00    -0.029 C 
HETATM   16  C15 UNL     1      -3.214   1.532   0.818  1.00  0.00     0.005 C 
HETATM   17  C16 UNL     1      -3.916   0.272   0.572  1.00  0.00     0.082 C 
HETATM   18  C17 UNL     1      -3.607  -1.048   0.333  1.00  0.00     0.024 C 
HETATM   19  N1  UNL     1      -4.597  -2.036   0.364  1.00  0.00    -0.330 N 
HETATM   20  N2  UNL     1       2.750   1.787   1.054  1.00  0.00    -0.390 N 
HETATM   21  C18 UNL     1       4.124   1.980   0.787  1.00  0.00     0.080 C 
HETATM   22  C19 UNL     1       4.706   1.377  -0.257  1.00  0.00    -0.006 C 
HETATM   23  C20 UNL     1       4.293   0.453  -1.353  1.00  0.00     0.067 C 
HETATM   24  H15 UNL     1      -5.612  -1.701   0.380  1.00  0.00     0.168 HD
HETATM   25  H16 UNL     1       2.416   2.657   1.596  1.00  0.00     0.159 HD
ENDROOT
TORSDOF 0
