REMARK  1 active torsions:
REMARK  status: ('A' for Active; 'I' for Inactive)
REMARK    1  A    between atoms: C17_20  and  O2_21 
ROOT
HETATM    1  C1  UNL     1      -4.479  -2.205  -0.525  1.00  0.00     0.036 C 
HETATM    2  C2  UNL     1      -3.031  -2.454  -0.418  1.00  0.00    -0.019 C 
HETATM    3  C3  UNL     1      -2.077  -1.514  -0.392  1.00  0.00    -0.001 C 
HETATM    4  C4  UNL     1      -2.210  -0.070  -0.458  1.00  0.00    -0.000 C 
HETATM    5  C5  UNL     1      -3.213   0.744  -0.182  1.00  0.00     0.007 C 
HETATM    6  C6  UNL     1      -3.444   2.161  -0.202  1.00  0.00     0.147 C 
HETATM    7  N1  UNL     1      -2.316   2.998  -0.536  1.00  0.00    -0.395 N 
HETATM    8  C7  UNL     1      -1.368   2.840   0.550  1.00  0.00     0.088 C 
HETATM    9  C8  UNL     1      -0.107   2.626   0.985  1.00  0.00    -0.041 C 
HETATM   10  C9  UNL     1       0.858   2.462   2.086  1.00  0.00     0.049 C 
HETATM   11  C10 UNL     1       1.360   1.062   1.711  1.00  0.00    -0.014 C 
HETATM   12  C11 UNL     1       1.635  -0.236   1.956  1.00  0.00     0.027 C 
HETATM   13  C12 UNL     1       1.746  -1.480   2.677  1.00  0.00    -0.007 C 
HETATM   14  C13 UNL     1       0.808  -2.389   2.926  1.00  0.00    -0.006 C 
HETATM   15  C14 UNL     1      -0.180  -2.487   2.027  1.00  0.00     0.149 C 
HETATM   16  O1  UNL     1      -0.241  -1.533   1.045  1.00  0.00    -0.333 OA
HETATM   17  C15 UNL     1      -0.624  -1.767  -0.297  1.00  0.00     0.264 C 
HETATM   18  N2  UNL     1      -0.101  -0.749  -1.157  1.00  0.00    -0.346 N 
HETATM   19  C16 UNL     1       1.092  -1.071  -1.871  1.00  0.00     0.158 C 
HETATM   20  C17 UNL     1       2.331  -0.764  -1.058  1.00  0.00     0.139 C 
HETATM   21  C19 UNL     1       2.577   0.557  -0.518  1.00  0.00     0.041 C 
HETATM   22  C20 UNL     1       1.874   1.400   0.375  1.00  0.00     0.025 C 
HETATM   23  C21 UNL     1       0.979   2.519  -0.066  1.00  0.00     0.116 C 
HETATM   24  N3  UNL     1       0.428   2.529  -1.384  1.00  0.00    -0.388 N 
HETATM   25  C22 UNL     1      -0.116   1.265  -1.247  1.00  0.00     0.114 C 
HETATM   26  C23 UNL     1      -0.975   0.380  -0.945  1.00  0.00     0.058 C 
HETATM   27  H8  UNL     1      -1.601   3.648  -0.930  1.00  0.00     0.159 HD
HETATM   28  H26 UNL     1       0.492   3.323  -2.088  1.00  0.00     0.159 HD
ENDROOT
BRANCH  20  29
HETATM   29  O2  UNL     1       3.442  -1.187  -1.883  1.00  0.00    -0.389 OA
HETATM   30  C18 UNL     1       4.008  -2.335  -1.406  1.00  0.00     0.202 C 
ENDBRANCH  20  29
TORSDOF 1
