REMARK  2 active torsions:
REMARK  status: ('A' for Active; 'I' for Inactive)
REMARK    1  A    between atoms: C2_2  and  N2_23 
REMARK    2  A    between atoms: N1_5  and  C10_12 
ROOT
HETATM    1  C1  UNL     1      -2.268   1.825   1.299  1.00  0.00     0.077 C 
HETATM    2  C2  UNL     1      -1.548   0.643   0.872  1.00  0.00     0.170 C 
HETATM    3  O1  UNL     1      -1.381  -0.172   2.060  1.00  0.00    -0.337 OA
HETATM    4  C3  UNL     1      -1.300  -1.647   1.864  1.00  0.00     0.303 C 
HETATM    5  N1  UNL     1      -1.326  -1.616   0.465  1.00  0.00    -0.322 N 
HETATM    6  C4  UNL     1      -2.437  -1.506  -0.414  1.00  0.00     0.048 A 
HETATM    7  C5  UNL     1      -3.303  -2.090  -1.285  1.00  0.00     0.030 A 
HETATM    8  C6  UNL     1      -4.277  -1.317  -1.873  1.00  0.00     0.002 A 
HETATM    9  C7  UNL     1      -4.375   0.027  -1.586  1.00  0.00     0.001 A 
HETATM   10  C8  UNL     1      -3.483   0.628  -0.689  1.00  0.00     0.014 A 
HETATM   11  C9  UNL     1      -2.434  -0.115  -0.031  1.00  0.00     0.024 A 
ENDROOT
BRANCH   2  12
HETATM   12  N2  UNL     1      -0.205   0.927   0.301  1.00  0.00    -0.306 N 
HETATM   13  C20 UNL     1       0.665   1.918  -0.005  1.00  0.00     0.049 A 
HETATM   14  C15 UNL     1       1.929   1.470  -0.314  1.00  0.00     0.004 A 
HETATM   15  C19 UNL     1       0.347   3.248   0.003  1.00  0.00     0.031 A 
HETATM   16  C14 UNL     1       1.919   0.123  -0.208  1.00  0.00     0.015 A 
HETATM   17  C16 UNL     1       2.985   2.251  -0.640  1.00  0.00     0.014 A 
HETATM   18  C13 UNL     1       2.680  -1.022  -0.181  1.00  0.00    -0.011 A 
HETATM   19  C21 UNL     1       0.634  -0.188   0.140  1.00  0.00     0.076 A 
HETATM   20  C12 UNL     1       2.209  -2.282   0.156  1.00  0.00     0.043 A 
HETATM   21  C22 UNL     1       4.121  -1.135  -0.490  1.00  0.00     0.163 A 
HETATM   22  C11 UNL     1       0.914  -2.638   0.513  1.00  0.00     0.050 A 
HETATM   23  C23 UNL     1       3.242  -3.289   0.162  1.00  0.00     0.252 A 
HETATM   24  C10 UNL     1       0.152  -1.520   0.474  1.00  0.00     0.066 A 
HETATM   25  N3  UNL     1       4.427  -2.532  -0.211  1.00  0.00    -0.353 N 
HETATM   26  O2  UNL     1       3.050  -4.517   0.444  1.00  0.00    -0.268 OA
HETATM   27  H17 UNL     1       5.359  -2.998  -0.253  1.00  0.00     0.163 HD
HETATM   28  C17 UNL     1       2.675   3.609  -0.636  1.00  0.00     0.001 A 
HETATM   29  C18 UNL     1       1.392   4.085  -0.323  1.00  0.00     0.002 A 
ENDBRANCH   2  12
TORSDOF 2
