REMARK  5 active torsions:
REMARK  status: ('A' for Active; 'I' for Inactive)
REMARK    1  A    between atoms: C1_2  and  C4_6 
REMARK    2  A    between atoms: C2_3  and  C3_4 
REMARK    3  A    between atoms: C3_4  and  S1_5 
REMARK    4  A    between atoms: C7_10  and  N2_11 
REMARK    5  A    between atoms: N2_11  and  C8_12 
ROOT
HETATM    1  C4  UNL     1       2.568   0.691   1.411  1.00  0.00     0.208 C 
HETATM    2  C5  UNL     1       1.816   1.872   0.849  1.00  0.00     0.159 C 
HETATM    3  N1  UNL     1       0.512   1.475   0.369  1.00  0.00    -0.382 N 
HETATM    4  C6  UNL     1      -0.025   0.173   0.331  1.00  0.00     0.111 A 
HETATM    5  C7  UNL     1      -1.032  -0.417  -0.297  1.00  0.00     0.158 A 
HETATM    6  N3  UNL     1      -1.011  -1.789   0.134  1.00  0.00    -0.224 NA
HETATM    7  C14 UNL     1      -0.037  -1.937   0.959  1.00  0.00     0.126 A 
HETATM    8  C15 UNL     1       0.644  -0.820   1.166  1.00  0.00     0.131 A 
HETATM    9  O1  UNL     1       1.711  -0.326   1.871  1.00  0.00    -0.332 OA
HETATM   10  H8  UNL     1      -0.060   2.281   0.020  1.00  0.00     0.160 HD
ENDROOT
BRANCH   5  11
HETATM   11  N2  UNL     1      -1.916   0.253  -1.206  1.00  0.00    -0.339 N 
HETATM   12  H9  UNL     1      -1.623   0.759  -2.067  1.00  0.00     0.167 HD
BRANCH  11  13
HETATM   13  C8  UNL     1      -3.312   0.223  -0.900  1.00  0.00     0.035 A 
HETATM   14  C9  UNL     1      -3.770  -0.434   0.233  1.00  0.00     0.029 A 
HETATM   15  C10 UNL     1      -5.135  -0.468   0.539  1.00  0.00     0.004 A 
HETATM   16  C11 UNL     1      -6.062   0.151  -0.282  1.00  0.00     0.019 A 
HETATM   17  C12 UNL     1      -5.614   0.804  -1.407  1.00  0.00     0.013 A 
HETATM   18 BR1  UNL     1      -6.894   1.667  -2.551  1.00  0.00    -0.051 Br
HETATM   19  C13 UNL     1      -4.249   0.828  -1.696  1.00  0.00     0.048 A 
ENDBRANCH  11  13
ENDBRANCH   5  11
BRANCH   1  20
HETATM   20  C1  UNL     1       3.404   0.123   0.316  1.00  0.00     0.121 C 
HETATM   21  F1  UNL     1       2.834  -0.345  -0.824  1.00  0.00    -0.208 F 
HETATM   22  C2  UNL     1       4.728   0.047   0.402  1.00  0.00     0.024 C 
BRANCH  22  23
HETATM   23  C3  UNL     1       5.474  -0.537  -0.743  1.00  0.00     0.100 C 
BRANCH  23  24
HETATM   24  S1  UNL     1       6.384  -1.993  -0.138  1.00  0.00    -0.178 SA
HETATM   25  H4  UNL     1       6.727  -1.834   1.232  1.00  0.00     0.101 HD
ENDBRANCH  23  24
ENDBRANCH  22  23
ENDBRANCH   1  20
TORSDOF 5
