REMARK  0 active torsions:
REMARK  status: ('A' for Active; 'I' for Inactive)
ROOT
HETATM    1  O1  UNL     1       1.312  -3.925  -0.370  1.00  0.00    -0.266 OA
HETATM    2  C1  UNL     1       0.346  -3.342   0.164  1.00  0.00     0.268 C 
HETATM    3  N1  UNL     1      -0.656  -3.683   1.162  1.00  0.00    -0.354 N 
HETATM    4  C2  UNL     1      -0.559  -2.596   2.187  1.00  0.00     0.150 C 
HETATM    5  C3  UNL     1      -0.653  -1.215   1.641  1.00  0.00     0.126 C 
HETATM    6  C4  UNL     1       0.341  -0.211   2.017  1.00  0.00     0.152 C 
HETATM    7  N2  UNL     1       0.738   0.901   1.134  1.00  0.00    -0.357 N 
HETATM    8  C5  UNL     1       0.525   2.312   1.011  1.00  0.00     0.293 C 
HETATM    9  O2  UNL     1      -0.754   2.650   1.050  1.00  0.00    -0.368 OA
HETATM   10  C6  UNL     1      -1.780   2.681   0.233  1.00  0.00     0.208 C 
HETATM   11  C7  UNL     1      -2.277   1.508  -0.483  1.00  0.00    -0.032 A 
HETATM   12  C8  UNL     1      -2.738   1.517  -1.782  1.00  0.00     0.009 A 
HETATM   13  C9  UNL     1      -2.868   0.254  -2.382  1.00  0.00     0.003 A 
HETATM   14  C10 UNL     1      -2.534  -0.928  -1.683  1.00  0.00     0.029 A 
HETATM   15  C11 UNL     1      -2.153  -0.429  -0.502  1.00  0.00     0.036 A 
HETATM   16  C12 UNL     1      -1.914   0.550   0.395  1.00  0.00     0.039 A 
HETATM   17  N3  UNL     1      -1.096  -1.117   0.266  1.00  0.00    -0.334 N 
HETATM   18  C13 UNL     1       0.008  -1.920  -0.234  1.00  0.00     0.104 C 
HETATM   19  C14 UNL     1       1.180  -1.654  -0.978  1.00  0.00     0.049 C 
HETATM   20  C15 UNL     1       1.961  -0.330  -0.905  1.00  0.00    -0.007 A 
HETATM   21  C16 UNL     1       2.864  -0.429  -1.885  1.00  0.00     0.014 A 
HETATM   22  C17 UNL     1       3.620   0.716  -1.936  1.00  0.00     0.001 A 
HETATM   23  C18 UNL     1       3.457   1.797  -1.092  1.00  0.00     0.002 A 
HETATM   24  C19 UNL     1       2.507   1.831  -0.104  1.00  0.00     0.030 A 
HETATM   25  C20 UNL     1       1.699   0.731   0.027  1.00  0.00     0.042 A 
HETATM   26  H1  UNL     1      -1.153  -4.573   0.924  1.00  0.00     0.162 HD
ENDROOT
TORSDOF 0
