REMARK  0 active torsions:
REMARK  status: ('A' for Active; 'I' for Inactive)
ROOT
HETATM    1  O1  UNL     1      -2.122   3.790  -0.609  1.00  0.00    -0.267 OA
HETATM    2  C1  UNL     1      -1.424   2.782  -0.598  1.00  0.00     0.256 C 
HETATM    3  N1  UNL     1      -0.709   2.171  -1.786  1.00  0.00    -0.323 N 
HETATM    4  C2  UNL     1      -0.315   0.795  -1.587  1.00  0.00     0.036 C 
HETATM    5  C3  UNL     1       0.987   0.717  -1.735  1.00  0.00     0.043 C 
HETATM    6  C4  UNL     1       1.426  -0.618  -1.496  1.00  0.00    -0.006 A 
HETATM    7  C5  UNL     1       1.968  -1.431  -2.395  1.00  0.00     0.014 A 
HETATM    8  C6  UNL     1       2.431  -2.637  -1.933  1.00  0.00     0.001 A 
HETATM    9  C7  UNL     1       2.336  -2.975  -0.606  1.00  0.00     0.002 A 
HETATM   10  C8  UNL     1       1.741  -2.015   0.226  1.00  0.00     0.031 A 
HETATM   11  C9  UNL     1       1.227  -0.759  -0.112  1.00  0.00     0.053 A 
HETATM   12  N2  UNL     1       0.702  -0.176   1.136  1.00  0.00    -0.317 N 
HETATM   13  N3  UNL     1      -0.281  -0.572   2.039  1.00  0.00    -0.214 NA
HETATM   14  C10 UNL     1      -1.156  -1.441   1.135  1.00  0.00     0.154 C 
HETATM   15  C11 UNL     1      -1.281  -0.353   0.076  1.00  0.00    -0.032 C 
HETATM   16  C12 UNL     1      -1.285  -0.309  -1.274  1.00  0.00     0.038 C 
HETATM   17  C13 UNL     1      -1.367   0.911   0.872  1.00  0.00    -0.012 A 
HETATM   18  C14 UNL     1      -1.411   2.278   0.828  1.00  0.00     0.041 A 
HETATM   19  C15 UNL     1      -1.327   2.733   2.193  1.00  0.00     0.015 A 
HETATM   20  C16 UNL     1      -1.245   1.625   2.998  1.00  0.00     0.000 A 
HETATM   21  C17 UNL     1      -1.282   0.388   2.315  1.00  0.00     0.137 A 
HETATM   22  H1  UNL     1      -0.467   2.668  -2.621  1.00  0.00     0.169 HD
HETATM   23  H7  UNL     1       1.442   0.480   0.848  1.00  0.00     0.181 HD
ENDROOT
TORSDOF 0
