REMARK  3 active torsions:
REMARK  status: ('A' for Active; 'I' for Inactive)
REMARK    1  A    between atoms: C3_3  and  C4_5 
REMARK    2  A    between atoms: C8_10  and  N2_11 
REMARK    3  A    between atoms: N2_11  and  C9_12 
ROOT
HETATM    1  C4  UNL     1       3.058  -0.647  -0.382  1.00  0.00     0.048 C 
HETATM    2  C5  UNL     1       2.348  -1.569   0.233  1.00  0.00    -0.035 C 
HETATM    3  C6  UNL     1       1.336  -2.256  -0.623  1.00  0.00     0.156 C 
HETATM    4  N1  UNL     1       0.010  -1.832  -0.232  1.00  0.00    -0.379 N 
HETATM    5  C7  UNL     1      -0.360  -0.909   0.778  1.00  0.00     0.128 A 
HETATM    6  C8  UNL     1      -1.497  -0.183   0.528  1.00  0.00     0.160 A 
HETATM    7  N3  UNL     1      -1.865   0.665   1.489  1.00  0.00    -0.222 NA
HETATM    8  C15 UNL     1      -1.239   0.870   2.654  1.00  0.00     0.238 A 
HETATM    9  N4  UNL     1      -0.123   0.156   2.895  1.00  0.00    -0.216 NA
HETATM   10  C16 UNL     1       0.334  -0.739   1.970  1.00  0.00     0.197 A 
HETATM   11  O1  UNL     1       1.498  -1.366   2.417  1.00  0.00    -0.328 OA
HETATM   12  C17 UNL     1       2.590  -1.839   1.661  1.00  0.00     0.213 C 
HETATM   13  H8  UNL     1      -0.842  -2.227  -0.719  1.00  0.00     0.160 HD
ENDROOT
BRANCH   6  14
HETATM   14  N2  UNL     1      -2.170  -0.334  -0.711  1.00  0.00    -0.339 N 
HETATM   15  H9  UNL     1      -1.803  -0.884  -1.510  1.00  0.00     0.167 HD
BRANCH  14  16
HETATM   16  C9  UNL     1      -3.415   0.229  -1.107  1.00  0.00     0.035 A 
HETATM   17  C10 UNL     1      -3.953   0.159  -2.393  1.00  0.00     0.029 A 
HETATM   18  C11 UNL     1      -5.159   0.703  -2.744  1.00  0.00     0.004 A 
HETATM   19  C12 UNL     1      -5.925   1.368  -1.820  1.00  0.00     0.019 A 
HETATM   20  C13 UNL     1      -5.434   1.460  -0.542  1.00  0.00     0.013 A 
HETATM   21 BR1  UNL     1      -6.562   2.405   0.698  1.00  0.00    -0.051 Br
HETATM   22  C14 UNL     1      -4.226   0.905  -0.223  1.00  0.00     0.048 A 
ENDBRANCH  14  16
ENDBRANCH   6  14
BRANCH   1  23
HETATM   23  C3  UNL     1       4.054   0.046   0.409  1.00  0.00     0.112 C 
HETATM   24  C2  UNL     1       4.792   0.998  -0.155  1.00  0.00     0.011 C 
HETATM   25  C1  UNL     1       5.861   1.916   0.225  1.00  0.00     0.039 C 
HETATM   26  F1  UNL     1       4.865   0.473   1.393  1.00  0.00    -0.206 F 
ENDBRANCH   1  23
TORSDOF 3
