REMARK  0 active torsions:
REMARK  status: ('A' for Active; 'I' for Inactive)
ROOT
HETATM    1  C1  UNL     1       4.006  -2.621  -1.974  1.00  0.00     0.044 C 
HETATM    2  C2  UNL     1       3.340  -2.015  -1.036  1.00  0.00     0.040 A 
HETATM    3  C3  UNL     1       3.313  -1.937   0.413  1.00  0.00     0.018 A 
HETATM    4  C4  UNL     1       3.766  -2.284   1.664  1.00  0.00     0.016 A 
HETATM    5  C5  UNL     1       3.212  -1.772   2.800  1.00  0.00     0.002 A 
HETATM    6  C6  UNL     1       2.172  -0.887   2.614  1.00  0.00     0.014 A 
HETATM    7  C7  UNL     1       1.705  -0.526   1.376  1.00  0.00    -0.007 A 
HETATM    8  C8  UNL     1       2.291  -1.067   0.284  1.00  0.00     0.059 A 
HETATM    9  N1  UNL     1       2.266  -1.102  -1.145  1.00  0.00    -0.323 N 
HETATM   10  C9  UNL     1       1.200  -0.218  -1.583  1.00  0.00     0.300 C 
HETATM   11  O1  UNL     1      -0.020  -0.789  -1.609  1.00  0.00    -0.362 OA
HETATM   12  C10 UNL     1      -1.048   0.099  -1.870  1.00  0.00     0.153 C 
HETATM   13  C11 UNL     1      -1.519  -0.202  -3.276  1.00  0.00     0.045 C 
HETATM   14  C12 UNL     1      -2.155  -0.026  -0.890  1.00  0.00    -0.019 A 
HETATM   15  C13 UNL     1      -2.784  -1.247  -1.191  1.00  0.00     0.010 A 
HETATM   16  C14 UNL     1      -3.889  -1.782  -0.507  1.00  0.00     0.001 A 
HETATM   17  C15 UNL     1      -4.413  -1.063   0.549  1.00  0.00     0.001 A 
HETATM   18  C16 UNL     1      -3.779   0.136   0.829  1.00  0.00     0.012 A 
HETATM   19  C17 UNL     1      -2.695   0.666   0.163  1.00  0.00    -0.027 A 
HETATM   20  C18 UNL     1      -2.301   1.930   0.738  1.00  0.00     0.022 C 
HETATM   21  C19 UNL     1      -1.149   2.350   1.228  1.00  0.00    -0.024 C 
HETATM   22  C20 UNL     1      -0.715   3.651   1.829  1.00  0.00     0.162 C 
HETATM   23  N2  UNL     1       0.435   3.942   0.937  1.00  0.00    -0.353 N 
HETATM   24  C21 UNL     1       1.038   2.640   1.061  1.00  0.00     0.252 C 
HETATM   25  O2  UNL     1       2.279   2.390   1.013  1.00  0.00    -0.268 OA
HETATM   26  C22 UNL     1       0.051   1.569   1.256  1.00  0.00     0.040 C 
HETATM   27  C23 UNL     1       0.664   0.414   1.346  1.00  0.00     0.031 C 
HETATM   28  H19 UNL     1       0.771   4.764   0.378  1.00  0.00     0.163 HD
ENDROOT
TORSDOF 0
