REMARK  0 active torsions:
REMARK  status: ('A' for Active; 'I' for Inactive)
ROOT
HETATM    1  O1  UNL     1       0.267   0.898   4.197  1.00  0.00    -0.427 OA
HETATM    2  C1  UNL     1       0.548   1.295   3.007  1.00  0.00     0.403 A 
HETATM    3  C2  UNL     1      -0.345   0.923   1.944  1.00  0.00    -0.036 A 
HETATM    4  C3  UNL     1       0.586   1.622   1.358  1.00  0.00     0.088 A 
HETATM    5  C4  UNL     1       1.764   2.221   1.928  1.00  0.00    -0.021 A 
HETATM    6  C5  UNL     1       2.450   3.272   2.436  1.00  0.00     0.010 A 
HETATM    7  C6  UNL     1       3.733   3.204   2.905  1.00  0.00     0.001 A 
HETATM    8  C7  UNL     1       4.480   2.063   2.918  1.00  0.00     0.002 A 
HETATM    9  C8  UNL     1       3.865   0.939   2.418  1.00  0.00     0.030 A 
HETATM   10  C9  UNL     1       2.542   0.968   1.924  1.00  0.00     0.037 A 
HETATM   11  N1  UNL     1       2.163  -0.365   1.448  1.00  0.00    -0.363 N 
HETATM   12  C10 UNL     1       1.895  -1.300   0.425  1.00  0.00     0.220 C 
HETATM   13  C11 UNL     1       1.152  -0.795  -0.806  1.00  0.00     0.054 C 
HETATM   14  C12 UNL     1       1.539   0.304  -1.633  1.00  0.00     0.005 C 
HETATM   15  C13 UNL     1       0.252   0.745  -2.408  1.00  0.00     0.014 C 
HETATM   16  C14 UNL     1      -0.781   1.361  -1.549  1.00  0.00     0.053 C 
HETATM   17  C15 UNL     1      -1.316   0.753  -0.383  1.00  0.00    -0.038 C 
HETATM   18  C16 UNL     1      -1.231   0.551   0.904  1.00  0.00     0.015 C 
HETATM   19  C17 UNL     1      -2.377  -0.237  -0.763  1.00  0.00    -0.020 C 
HETATM   20  C18 UNL     1      -2.737  -1.482  -0.342  1.00  0.00     0.015 C 
HETATM   21  C19 UNL     1      -2.040  -2.217   0.719  1.00  0.00     0.298 C 
HETATM   22  N2  UNL     1      -1.586  -3.503   0.186  1.00  0.00     0.088 N 
HETATM   23  C20 UNL     1      -0.505  -4.115   0.959  1.00  0.00     0.296 C 
HETATM   24  C21 UNL     1       0.850  -3.452   0.621  1.00  0.00     0.200 C 
HETATM   25  O2  UNL     1       0.839  -2.183   0.824  1.00  0.00    -0.365 OA
HETATM   26  C22 UNL     1      -2.779   0.334  -2.036  1.00  0.00    -0.019 A 
HETATM   27  C23 UNL     1      -3.882   0.089  -2.888  1.00  0.00     0.013 A 
HETATM   28  C24 UNL     1      -4.155   0.935  -3.967  1.00  0.00     0.001 A 
HETATM   29  C25 UNL     1      -3.361   2.045  -4.254  1.00  0.00     0.001 A 
HETATM   30  C26 UNL     1      -2.262   2.325  -3.449  1.00  0.00     0.009 A 
HETATM   31  C27 UNL     1      -2.069   1.444  -2.416  1.00  0.00    -0.038 A 
HETATM   32  H7  UNL     1       2.074  -0.928   2.358  1.00  0.00     0.162 HD
HETATM   33  H20 UNL     1      -2.416  -4.121   0.132  1.00  0.00     0.316 HD
ENDROOT
TORSDOF 0
