REMARK  5 active torsions:
REMARK  status: ('A' for Active; 'I' for Inactive)
REMARK    1  A    between atoms: N1_2  and  C2_3 
REMARK       I    between atoms: N1_2  and  C23_29 
REMARK    2  A    between atoms: C2_3  and  C3_4 
REMARK    3  A    between atoms: C23_29  and  C24_31 
REMARK    4  A    between atoms: C24_31  and  C25_32 
REMARK    5  A    between atoms: C25_32  and  O5_34 
ROOT
HETATM    1  C3  UNL     1       0.527  -0.163  -0.910  1.00  0.00     0.269 C 
HETATM    2  N2  UNL     1      -0.028   1.034  -0.303  1.00  0.00    -0.359 N 
HETATM    3  C4  UNL     1      -0.931   1.978  -0.753  1.00  0.00     0.056 A 
HETATM    4  C5  UNL     1      -2.028   2.199  -1.546  1.00  0.00    -0.009 A 
HETATM    5  C6  UNL     1      -2.876   3.127  -2.036  1.00  0.00     0.014 A 
HETATM    6  C7  UNL     1      -2.455   4.359  -1.500  1.00  0.00     0.002 A 
HETATM    7  C8  UNL     1      -1.352   4.549  -0.605  1.00  0.00     0.019 A 
HETATM    8  C9  UNL     1      -0.942   3.279  -0.517  1.00  0.00     0.059 A 
HETATM    9  C10 UNL     1      -0.624   3.239   1.027  1.00  0.00     0.254 C 
HETATM   10  O1  UNL     1      -0.009   3.796   1.898  1.00  0.00    -0.268 OA
HETATM   11  N3  UNL     1      -1.313   2.138   1.776  1.00  0.00    -0.353 N 
HETATM   12  C11 UNL     1      -1.994   1.049   2.516  1.00  0.00     0.161 C 
HETATM   13  C12 UNL     1      -2.153   0.054   1.346  1.00  0.00    -0.040 C 
HETATM   14  C13 UNL     1      -2.163  -1.152   1.874  1.00  0.00     0.022 C 
HETATM   15  C14 UNL     1      -2.287  -2.344   1.037  1.00  0.00    -0.007 A 
HETATM   16  C15 UNL     1      -3.489  -2.989   1.036  1.00  0.00     0.014 A 
HETATM   17  C16 UNL     1      -3.526  -4.083   0.200  1.00  0.00     0.001 A 
HETATM   18  C17 UNL     1      -2.521  -4.567  -0.596  1.00  0.00     0.002 A 
HETATM   19  C18 UNL     1      -1.320  -3.865  -0.548  1.00  0.00     0.032 A 
HETATM   20  C19 UNL     1      -1.200  -2.741   0.277  1.00  0.00     0.067 A 
HETATM   21  N4  UNL     1       0.143  -2.199   0.165  1.00  0.00    -0.260 N 
HETATM   22  C20 UNL     1       1.226  -3.197   0.270  1.00  0.00     0.186 C 
HETATM   23  O2  UNL     1       0.870  -1.086   0.010  1.00  0.00    -0.250 OA
HETATM   24  C21 UNL     1      -2.225   0.095  -0.131  1.00  0.00     0.010 C 
HETATM   25  C22 UNL     1      -2.211   0.744  -1.321  1.00  0.00     0.014 C 
HETATM   26  H7  UNL     1       0.387   1.166   0.636  1.00  0.00     0.162 HD
HETATM   27  H11 UNL     1      -1.824   1.942   0.929  1.00  0.00     0.163 HD
ENDROOT
BRANCH   1  28
HETATM   28  C2  UNL     1       1.675   0.137  -1.851  1.00  0.00     0.181 C 
BRANCH  28  29
HETATM   29  N1  UNL     1       2.851   0.645  -1.175  1.00  0.00    -0.352 N 
HETATM   30  C1  UNL     1       3.076   2.067  -0.933  1.00  0.00     0.152 C 
HETATM   31  C23 UNL     1       3.830  -0.271  -0.721  1.00  0.00     0.229 C 
HETATM   32  O3  UNL     1       3.725  -1.512  -0.882  1.00  0.00    -0.273 OA
BRANCH  31  33
HETATM   33  C24 UNL     1       5.072   0.138  -0.014  1.00  0.00     0.212 C 
BRANCH  33  34
HETATM   34  C25 UNL     1       4.865   0.001   1.451  1.00  0.00     0.148 C 
HETATM   35  O4  UNL     1       3.681  -0.419   1.525  1.00  0.00    -0.650 OA
BRANCH  34  36
HETATM   36  O5  UNL     1       4.702  -0.115   2.815  1.00  0.00    -0.776 OA
HETATM   37  H26 UNL     1       5.463  -0.484   3.399  1.00  0.00     0.167 HD
ENDBRANCH  34  36
ENDBRANCH  33  34
ENDBRANCH  31  33
ENDBRANCH  28  29
ENDBRANCH   1  28
TORSDOF 5
