REMARK  8 active torsions:
REMARK  status: ('A' for Active; 'I' for Inactive)
REMARK    1  A    between atoms: O1_2  and  N1_3 
REMARK    2  A    between atoms: N1_3  and  C2_4 
REMARK       I    between atoms: N1_3  and  C19_25 
REMARK    3  A    between atoms: C2_4  and  C3_5 
REMARK    4  A    between atoms: C19_25  and  C20_27 
REMARK    5  A    between atoms: C20_27  and  C21_28 
REMARK    6  A    between atoms: C21_28  and  C22_29 
REMARK    7  A    between atoms: C22_29  and  S1_30 
REMARK    8  A    between atoms: S1_30  and  O5_31 
ROOT
HETATM    1  C3  UNL     1       1.140   0.364   1.276  1.00  0.00     0.083 C 
HETATM    2  C4  UNL     1       1.212   0.675  -0.209  1.00  0.00     0.067 C 
HETATM    3  C5  UNL     1       0.215  -0.148  -0.969  1.00  0.00     0.222 C 
HETATM    4  N2  UNL     1      -0.192   0.485  -2.182  1.00  0.00    -0.373 N 
HETATM    5  C6  UNL     1      -1.177  -0.405  -2.724  1.00  0.00     0.084 C 
HETATM    6  C7  UNL     1      -2.407  -0.486  -2.262  1.00  0.00     0.025 C 
HETATM    7  C8  UNL     1      -3.376   0.006  -1.284  1.00  0.00     0.078 A 
HETATM    8  C9  UNL     1      -3.963  -1.026  -0.338  1.00  0.00     0.049 C 
HETATM    9  C10 UNL     1      -4.435   0.857  -1.895  1.00  0.00     0.000 A 
HETATM   10  C11 UNL     1      -5.487   0.777  -2.749  1.00  0.00     0.012 A 
HETATM   11  C12 UNL     1      -6.248   1.880  -3.072  1.00  0.00     0.001 A 
HETATM   12  C13 UNL     1      -5.862   3.081  -2.462  1.00  0.00     0.002 A 
HETATM   13  C14 UNL     1      -4.785   3.145  -1.593  1.00  0.00     0.030 A 
HETATM   14  C15 UNL     1      -4.028   2.013  -1.279  1.00  0.00     0.040 A 
HETATM   15  N3  UNL     1      -2.984   1.240  -0.642  1.00  0.00    -0.361 N 
HETATM   16  C16 UNL     1      -1.910   1.555   0.311  1.00  0.00     0.164 C 
HETATM   17  C17 UNL     1      -1.279   0.288   0.768  1.00  0.00     0.211 C 
HETATM   18  O2  UNL     1      -0.848  -0.576  -0.191  1.00  0.00    -0.352 OA
HETATM   19  C18 UNL     1      -0.236   0.617   1.779  1.00  0.00     0.163 C 
HETATM   20  O3  UNL     1      -0.588   1.036   2.855  1.00  0.00    -0.295 OA
HETATM   21  H10 UNL     1      -0.131   1.265  -2.864  1.00  0.00     0.161 HD
ENDROOT
BRANCH   1  22
HETATM   22  C2  UNL     1       1.448  -1.095   1.534  1.00  0.00     0.171 C 
BRANCH  22  23
HETATM   23  N1  UNL     1       2.784  -1.439   1.080  1.00  0.00    -0.226 N 
HETATM   24  C19 UNL     1       4.041  -1.421   1.745  1.00  0.00     0.244 C 
HETATM   25  O4  UNL     1       4.730  -1.797   0.744  1.00  0.00    -0.271 OA
BRANCH  23  26
HETATM   26  O1  UNL     1       3.140  -1.857  -0.133  1.00  0.00    -0.280 OA
HETATM   27  C1  UNL     1       3.090  -3.244  -0.205  1.00  0.00     0.238 C 
ENDBRANCH  23  26
BRANCH  24  28
HETATM   28  C20 UNL     1       4.060  -1.020   3.175  1.00  0.00     0.117 C 
BRANCH  28  29
HETATM   29  C21 UNL     1       5.464  -0.949   3.746  1.00  0.00     0.104 C 
BRANCH  29  30
HETATM   30  C22 UNL     1       6.214   0.023   3.024  1.00  0.00    -0.083 C 
BRANCH  30  31
HETATM   31  S1  UNL     1       6.878   0.913   2.389  1.00  0.00     0.066 SA
BRANCH  31  32
HETATM   32  O5  UNL     1       7.617   1.924   1.647  1.00  0.00    -0.319 OA
HETATM   33  H27 UNL     1       8.357   1.539   1.113  1.00  0.00     0.228 HD
ENDBRANCH  31  32
ENDBRANCH  30  31
ENDBRANCH  29  30
ENDBRANCH  28  29
ENDBRANCH  24  28
ENDBRANCH  22  23
ENDBRANCH   1  22
TORSDOF 8
