REMARK  5 active torsions:
REMARK  status: ('A' for Active; 'I' for Inactive)
REMARK    1  A    between atoms: C2_2  and  O1_3 
REMARK    2  A    between atoms: O1_3  and  C3_4 
REMARK    3  A    between atoms: C10_13  and  N3_14 
REMARK    4  A    between atoms: C12_16  and  C13_17 
REMARK    5  A    between atoms: C13_17  and  C14_18 
ROOT
HETATM    1  C14 UNL     1      -3.553   3.247   0.604  1.00  0.00     0.128 C 
HETATM    2  C15 UNL     1      -3.085   3.812   1.834  1.00  0.00     0.059 C 
HETATM    3  N4  UNL     1      -2.714   4.290   2.850  1.00  0.00    -0.197 NA
ENDROOT
BRANCH   1   4
HETATM    4  C13 UNL     1      -2.486   2.758  -0.286  1.00  0.00     0.053 C 
BRANCH   4   5
HETATM    5  C12 UNL     1      -1.631   1.652   0.194  1.00  0.00    -0.021 C 
HETATM    6  C10 UNL     1      -1.859   0.564  -0.582  1.00  0.00     0.033 C 
HETATM    7  C9  UNL     1      -1.868  -0.919  -0.475  1.00  0.00     0.038 C 
HETATM    8  C8  UNL     1      -1.816  -1.756   0.581  1.00  0.00    -0.028 C 
HETATM    9  C7  UNL     1      -2.222  -1.511   2.004  1.00  0.00     0.309 C 
HETATM   10  C19 UNL     1      -1.273  -2.935  -0.071  1.00  0.00     0.022 C 
HETATM   11  N2  UNL     1      -2.002  -0.124   2.321  1.00  0.00     0.098 N 
HETATM   12  C6  UNL     1      -0.685   0.358   2.124  1.00  0.00     0.278 C 
HETATM   13  H9  UNL     1      -2.405   0.024   3.273  1.00  0.00     0.317 HD
HETATM   14  C5  UNL     1       0.205  -0.709   1.693  1.00  0.00     0.036 C 
HETATM   15  C16 UNL     1      -0.646   1.624   1.295  1.00  0.00     0.193 C 
HETATM   16  C4  UNL     1       1.230  -0.854   0.830  1.00  0.00     0.011 C 
HETATM   17  N1  UNL     1       1.916   0.346   0.434  1.00  0.00    -0.318 N 
HETATM   18  C24 UNL     1       1.748  -2.105   0.238  1.00  0.00     0.068 C 
HETATM   19  C3  UNL     1       2.837   1.414   0.095  1.00  0.00     0.281 A 
HETATM   20  C17 UNL     1       1.310   1.589  -0.018  1.00  0.00     0.180 A 
HETATM   21  O2  UNL     1       0.599   2.083   1.019  1.00  0.00    -0.344 OA
HETATM   22  C18 UNL     1       0.903   1.800  -1.444  1.00  0.00     0.076 C 
HETATM   23  C23 UNL     1       1.057  -3.348   0.656  1.00  0.00     0.047 C 
HETATM   24  C20 UNL     1      -0.176  -3.661  -0.132  1.00  0.00     0.016 C 
HETATM   25  C22 UNL     1       2.015  -4.502   0.309  1.00  0.00     0.133 C 
HETATM   26  C21 UNL     1       0.041  -4.856  -0.940  1.00  0.00     0.248 C 
HETATM   27  O3  UNL     1      -0.553  -5.332  -1.941  1.00  0.00    -0.268 OA
HETATM   28  N5  UNL     1       1.174  -5.482  -0.348  1.00  0.00    -0.356 N 
HETATM   29  H26 UNL     1       1.480  -6.480  -0.313  1.00  0.00     0.162 HD
BRANCH   6  30
HETATM   30  N3  UNL     1      -2.212   0.910  -1.945  1.00  0.00    -0.394 N 
HETATM   31  C11 UNL     1      -3.413   0.301  -2.484  1.00  0.00     0.146 C 
HETATM   32  H13 UNL     1      -1.857   1.509  -2.749  1.00  0.00     0.159 HD
ENDBRANCH   6  30
BRANCH  19  33
HETATM   33  O1  UNL     1       3.566   1.174  -1.040  1.00  0.00    -0.362 OA
BRANCH  33  34
HETATM   34  C2  UNL     1       4.833   1.690  -0.982  1.00  0.00     0.166 C 
HETATM   35  C1  UNL     1       4.755   3.188  -0.793  1.00  0.00     0.033 C 
ENDBRANCH  33  34
ENDBRANCH  19  33
ENDBRANCH   4   5
ENDBRANCH   1   4
TORSDOF 5
