REMARK  3 active torsions:
REMARK  status: ('A' for Active; 'I' for Inactive)
REMARK    1  A    between atoms: C2_3  and  C3_4 
REMARK    2  A    between atoms: C7_9  and  N2_10 
REMARK    3  A    between atoms: N2_10  and  C8_11 
ROOT
HETATM    1  C3  UNL     1      -3.934   0.173  -0.251  1.00  0.00     0.077 C 
HETATM    2  C4  UNL     1      -3.488   0.442  -1.467  1.00  0.00     0.030 C 
HETATM    3  C5  UNL     1      -2.200   0.241  -2.190  1.00  0.00     0.150 C 
HETATM    4  N1  UNL     1      -1.067   0.510  -1.305  1.00  0.00    -0.380 N 
HETATM    5  C6  UNL     1      -0.824  -0.090  -0.026  1.00  0.00     0.129 A 
HETATM    6  C7  UNL     1       0.506  -0.222   0.247  1.00  0.00     0.160 A 
HETATM    7  N3  UNL     1       0.786  -0.759   1.429  1.00  0.00    -0.222 NA
HETATM    8  C14 UNL     1      -0.122  -1.162   2.326  1.00  0.00     0.238 A 
HETATM    9  N4  UNL     1      -1.455  -1.033   2.054  1.00  0.00    -0.215 NA
HETATM   10  C15 UNL     1      -1.823  -0.495   0.874  1.00  0.00     0.202 A 
HETATM   11  O1  UNL     1      -3.210  -0.438   0.762  1.00  0.00    -0.290 OA
HETATM   12  H6  UNL     1      -0.292   1.187  -1.507  1.00  0.00     0.160 HD
ENDROOT
BRANCH   6  13
HETATM   13  N2  UNL     1       1.520   0.174  -0.653  1.00  0.00    -0.339 N 
HETATM   14  H7  UNL     1       1.465   0.576  -1.608  1.00  0.00     0.167 HD
BRANCH  13  15
HETATM   15  C8  UNL     1       2.917   0.070  -0.421  1.00  0.00     0.035 A 
HETATM   16  C9  UNL     1       3.399  -0.887   0.430  1.00  0.00     0.029 A 
HETATM   17  C10 UNL     1       4.727  -1.026   0.716  1.00  0.00     0.004 A 
HETATM   18  C11 UNL     1       5.682  -0.187   0.148  1.00  0.00     0.019 A 
HETATM   19  C12 UNL     1       5.255   0.778  -0.703  1.00  0.00     0.013 A 
HETATM   20 BR1  UNL     1       6.469   1.995  -1.549  1.00  0.00    -0.051 Br
HETATM   21  C13 UNL     1       3.906   0.871  -0.954  1.00  0.00     0.048 A 
ENDBRANCH  13  15
ENDBRANCH   6  13
BRANCH   1  22
HETATM   22  C2  UNL     1      -5.298   0.573  -0.016  1.00  0.00     0.066 C 
HETATM   23  C1  UNL     1      -5.775   0.320   1.184  1.00  0.00     0.191 C 
HETATM   24  F1  UNL     1      -4.916  -0.289   2.057  1.00  0.00    -0.219 F 
ENDBRANCH   1  22
TORSDOF 3
