REMARK  0 active torsions:
REMARK  status: ('A' for Active; 'I' for Inactive)
ROOT
HETATM    1  O1  UNL     1       0.050   4.733  -0.661  1.00  0.00    -0.268 OA
HETATM    2  C1  UNL     1       0.667   3.684  -0.216  1.00  0.00     0.252 C 
HETATM    3  N1  UNL     1       2.073   3.654   0.123  1.00  0.00    -0.353 N 
HETATM    4  C2  UNL     1       1.928   2.733   1.305  1.00  0.00     0.159 C 
HETATM    5  C3  UNL     1       1.372   1.586   0.520  1.00  0.00    -0.037 C 
HETATM    6  C4  UNL     1       2.134   0.526   0.558  1.00  0.00     0.065 C 
HETATM    7  C5  UNL     1       2.446  -0.842   0.196  1.00  0.00    -0.022 A 
HETATM    8  C6  UNL     1       3.828  -0.728  -0.044  1.00  0.00     0.010 A 
HETATM    9  C7  UNL     1       4.712  -1.751  -0.429  1.00  0.00     0.001 A 
HETATM   10  C8  UNL     1       4.053  -2.947  -0.557  1.00  0.00     0.002 A 
HETATM   11  C9  UNL     1       2.712  -3.118  -0.338  1.00  0.00     0.030 A 
HETATM   12  C10 UNL     1       1.907  -2.086   0.034  1.00  0.00     0.037 A 
HETATM   13  N2  UNL     1       0.531  -2.370   0.200  1.00  0.00    -0.363 N 
HETATM   14  C11 UNL     1      -0.513  -1.512   0.579  1.00  0.00     0.230 C 
HETATM   15  O2  UNL     1      -1.611  -2.175   1.180  1.00  0.00    -0.337 OA
HETATM   16  C12 UNL     1      -2.340  -1.162   1.799  1.00  0.00     0.441 C 
HETATM   17  N3  UNL     1      -1.773   0.138   1.625  1.00  0.00     0.121 N 
HETATM   18  C13 UNL     1      -1.668   0.508   0.190  1.00  0.00     0.199 A 
HETATM   19  C14 UNL     1      -1.061   1.788  -0.043  1.00  0.00    -0.024 A 
HETATM   20  C15 UNL     1       0.159   2.296   0.058  1.00  0.00     0.041 C 
HETATM   21  C16 UNL     1      -2.440   2.285  -0.449  1.00  0.00     0.049 A 
HETATM   22  C17 UNL     1      -3.027   0.948  -0.274  1.00  0.00     0.056 A 
HETATM   23  C18 UNL     1      -3.434   0.370  -1.582  1.00  0.00    -0.023 C 
HETATM   24  C19 UNL     1      -3.084  -0.809  -2.057  1.00  0.00    -0.030 C 
HETATM   25  C20 UNL     1      -2.210  -1.559  -1.146  1.00  0.00     0.039 C 
HETATM   26  C21 UNL     1      -1.149  -0.683  -0.500  1.00  0.00     0.082 C 
HETATM   27  H1  UNL     1       2.814   4.172  -0.402  1.00  0.00     0.163 HD
HETATM   28  H9  UNL     1       0.173  -3.346   0.027  1.00  0.00     0.162 HD
HETATM   29  H13 UNL     1      -2.405   0.830   2.045  1.00  0.00     0.320 HD
ENDROOT
TORSDOF 0
