REMARK  6 active torsions:
REMARK  status: ('A' for Active; 'I' for Inactive)
REMARK    1  A    between atoms: O1_2  and  C2_3 
REMARK    2  A    between atoms: C2_3  and  C3_4 
REMARK    3  A    between atoms: C2_3  and  C18_22 
REMARK    4  A    between atoms: C3_4  and  N1_6 
REMARK    5  A    between atoms: C18_22  and  N3_24 
REMARK    6  A    between atoms: C18_22  and  C20_25 
ROOT
HETATM    1  C20 UNL     1      -2.687   2.206  -0.459  1.00  0.00     0.167 C 
HETATM    2  C21 UNL     1      -4.129   1.867  -0.252  1.00  0.00     0.061 C 
HETATM    3  N4  UNL     1      -5.250   1.586  -0.079  1.00  0.00    -0.197 NA
ENDROOT
BRANCH   1   4
HETATM    4  C18 UNL     1      -1.942   1.439   0.570  1.00  0.00     0.191 C 
HETATM    5  C19 UNL     1      -2.682   1.764   1.905  1.00  0.00     0.053 C 
BRANCH   4   6
HETATM    6  C2  UNL     1      -2.186  -0.040   0.365  1.00  0.00     0.182 C 
BRANCH   6   7
HETATM    7  O1  UNL     1      -1.883  -0.699   1.513  1.00  0.00    -0.386 OA
HETATM    8  C1  UNL     1      -2.911  -1.293   2.196  1.00  0.00     0.202 C 
ENDBRANCH   6   7
BRANCH   6   9
HETATM    9  C3  UNL     1      -1.482  -0.571  -0.863  1.00  0.00     0.118 C 
HETATM   10  C4  UNL     1      -1.870  -1.994  -1.102  1.00  0.00     0.035 C 
BRANCH   9  11
HETATM   11  N1  UNL     1      -0.030  -0.413  -0.813  1.00  0.00    -0.338 N 
HETATM   12  C5  UNL     1       0.761   0.485  -1.424  1.00  0.00     0.046 A 
HETATM   13  C6  UNL     1       0.496   1.522  -2.293  1.00  0.00     0.030 A 
HETATM   14  C10 UNL     1       2.098   0.331  -1.129  1.00  0.00     0.004 A 
HETATM   15  C7  UNL     1       1.444   2.357  -2.842  1.00  0.00     0.002 A 
HETATM   16  C8  UNL     1       2.773   2.159  -2.511  1.00  0.00     0.001 A 
HETATM   17  C9  UNL     1       3.084   1.131  -1.645  1.00  0.00     0.014 A 
HETATM   18  C11 UNL     1       2.153  -0.744  -0.270  1.00  0.00     0.014 A 
HETATM   19  C12 UNL     1       3.235  -1.342   0.335  1.00  0.00     0.006 A 
HETATM   20  C16 UNL     1       0.850  -1.165  -0.104  1.00  0.00     0.047 A 
HETATM   21  C13 UNL     1       3.056  -2.425   1.160  1.00  0.00     0.100 A 
HETATM   22  C17 UNL     1       4.700  -1.061   0.303  1.00  0.00     0.160 A 
HETATM   23  C14 UNL     1       1.757  -2.877   1.349  1.00  0.00     0.041 A 
HETATM   24  O2  UNL     1       4.294  -2.839   1.642  1.00  0.00    -0.263 OA
HETATM   25  C15 UNL     1       0.723  -2.254   0.731  1.00  0.00     0.033 A 
HETATM   26  N2  UNL     1       5.312  -2.076   1.134  1.00  0.00    -0.195 NA
HETATM   27  H15 UNL     1       5.885  -1.620   1.878  1.00  0.00     0.154 HD
ENDBRANCH   9  11
ENDBRANCH   6   9
ENDBRANCH   4   6
BRANCH   4  28
HETATM   28  N3  UNL     1      -0.594   1.800   0.832  1.00  0.00     0.091 N 
HETATM   29  H21 UNL     1      -0.436   2.797   0.633  1.00  0.00     0.314 HD
HETATM   30  H22 UNL     1      -0.327   1.538   1.801  1.00  0.00     0.314 HD
ENDBRANCH   4  28
ENDBRANCH   1   4
TORSDOF 6
