REMARK  5 active torsions:
REMARK  status: ('A' for Active; 'I' for Inactive)
REMARK    1  A    between atoms: C2_2  and  C3_3 
REMARK    2  A    between atoms: C3_3  and  C4_4 
REMARK    3  A    between atoms: C20_25  and  N3_26 
REMARK    4  A    between atoms: N3_26  and  C21_27 
REMARK       I    between atoms: N3_26  and  C23_29 
REMARK    5  A    between atoms: C23_29  and  O5_31 
ROOT
HETATM    1  C4  UNL     1      -0.577  -1.672  -0.792  1.00  0.00     0.064 C 
HETATM    2  C5  UNL     1      -1.840  -1.839  -1.582  1.00  0.00     0.132 C 
HETATM    3  N1  UNL     1      -2.945  -0.955  -1.209  1.00  0.00    -0.357 N 
HETATM    4  C6  UNL     1      -4.073  -0.054  -0.829  1.00  0.00     0.241 C 
HETATM    5  O1  UNL     1      -4.794  -0.884  -1.313  1.00  0.00    -0.269 OA
HETATM    6  C7  UNL     1      -3.835   1.268  -0.145  1.00  0.00     0.083 C 
HETATM    7  C8  UNL     1      -2.560   1.685  -0.404  1.00  0.00    -0.022 C 
HETATM    8  C9  UNL     1      -1.188   1.742  -0.942  1.00  0.00     0.166 C 
HETATM    9  N2  UNL     1      -0.494   0.772  -0.117  1.00  0.00    -0.340 N 
HETATM   10  C10 UNL     1      -0.810   1.521   1.119  1.00  0.00     0.043 A 
HETATM   11  C11 UNL     1       0.060   1.534   2.231  1.00  0.00     0.030 A 
HETATM   12  C12 UNL     1      -0.408   2.230   3.298  1.00  0.00     0.002 A 
HETATM   13  C13 UNL     1      -1.623   2.880   3.329  1.00  0.00     0.001 A 
HETATM   14  C14 UNL     1      -2.442   2.822   2.189  1.00  0.00     0.014 A 
HETATM   15  C15 UNL     1      -2.115   2.137   0.982  1.00  0.00    -0.001 A 
HETATM   16  C16 UNL     1       0.102  -0.299  -0.804  1.00  0.00     0.187 C 
HETATM   17  O2  UNL     1      -0.292  -0.055  -2.193  1.00  0.00    -0.349 OA
HETATM   18  C17 UNL     1       0.377  -0.710  -3.120  1.00  0.00     0.144 C 
HETATM   19  C18 UNL     1      -0.122  -0.089  -4.452  1.00  0.00     0.042 C 
HETATM   20  C19 UNL     1       1.896  -0.466  -3.175  1.00  0.00     0.202 C 
HETATM   21  O3  UNL     1       2.061   0.355  -2.092  1.00  0.00    -0.359 OA
HETATM   22  C20 UNL     1       1.558  -0.369  -0.958  1.00  0.00     0.284 C 
HETATM   23  H11 UNL     1      -2.295  -0.356  -0.717  1.00  0.00     0.162 HD
ENDROOT
BRANCH   1  24
HETATM   24  C3  UNL     1      -0.520  -2.335   0.528  1.00  0.00     0.011 C 
BRANCH  24  25
HETATM   25  C2  UNL     1      -1.434  -2.059   1.635  1.00  0.00    -0.004 C 
HETATM   26  C1  UNL     1      -2.881  -2.321   1.503  1.00  0.00     0.005 C 
ENDBRANCH  24  25
ENDBRANCH   1  24
BRANCH  22  27
HETATM   27  N3  UNL     1       2.576  -0.050  -0.056  1.00  0.00    -0.297 N 
HETATM   28  C23 UNL     1       2.852   1.226   0.447  1.00  0.00     0.364 C 
HETATM   29  O4  UNL     1       2.617   2.451   0.512  1.00  0.00    -0.238 OA
BRANCH  27  30
HETATM   30  C21 UNL     1       3.577  -0.998   0.473  1.00  0.00     0.126 C 
HETATM   31  C22 UNL     1       3.081  -1.528   1.782  1.00  0.00     0.027 C 
ENDBRANCH  27  30
BRANCH  28  32
HETATM   32  O5  UNL     1       3.818   1.649   1.348  1.00  0.00    -0.309 OA
HETATM   33  C24 UNL     1       4.033   2.940   1.803  1.00  0.00     0.215 C 
ENDBRANCH  28  32
ENDBRANCH  22  27
TORSDOF 5
