REMARK  0 active torsions:
REMARK  status: ('A' for Active; 'I' for Inactive)
ROOT
HETATM    1  O1  UNL     1       2.328  -3.258  -0.242  1.00  0.00    -0.268 OA
HETATM    2  C1  UNL     1       1.192  -2.762   0.148  1.00  0.00     0.253 C 
HETATM    3  N1  UNL     1       0.128  -3.468   0.758  1.00  0.00    -0.353 N 
HETATM    4  C2  UNL     1      -0.879  -2.662   0.057  1.00  0.00     0.163 C 
HETATM    5  C3  UNL     1      -0.447  -1.343   0.585  1.00  0.00    -0.015 C 
HETATM    6  C4  UNL     1      -1.010  -0.421   1.306  1.00  0.00    -0.018 C 
HETATM    7  C5  UNL     1      -0.600   0.943   1.873  1.00  0.00     0.177 C 
HETATM    8  N2  UNL     1      -1.679   1.582   1.054  1.00  0.00    -0.314 N 
HETATM    9  S1  UNL     1      -1.098   2.684  -0.127  1.00  0.00    -0.013 SA
HETATM   10  C6  UNL     1       0.380   2.162  -0.962  1.00  0.00     0.352 A 
HETATM   11  N3  UNL     1       1.498   2.258   0.103  1.00  0.00     0.124 N 
HETATM   12  C7  UNL     1       1.245   1.175  -0.804  1.00  0.00     0.257 A 
HETATM   13  C8  UNL     1       1.445  -0.179  -0.609  1.00  0.00     0.015 A 
HETATM   14  C9  UNL     1       0.891  -1.302  -0.021  1.00  0.00     0.050 C 
HETATM   15  C10 UNL     1       2.658  -0.193  -1.496  1.00  0.00    -0.017 A 
HETATM   16  C11 UNL     1       3.781  -0.690  -2.182  1.00  0.00     0.012 A 
HETATM   17  C12 UNL     1       4.562   0.005  -3.054  1.00  0.00     0.001 A 
HETATM   18  C13 UNL     1       4.289   1.319  -3.338  1.00  0.00     0.001 A 
HETATM   19  C14 UNL     1       3.201   1.845  -2.686  1.00  0.00     0.011 A 
HETATM   20  C15 UNL     1       2.415   1.093  -1.787  1.00  0.00    -0.001 A 
HETATM   21  C16 UNL     1      -2.879   0.960   1.522  1.00  0.00     0.051 A 
HETATM   22  C17 UNL     1      -4.124   1.505   1.712  1.00  0.00     0.031 A 
HETATM   23  C18 UNL     1      -5.065   0.561   2.142  1.00  0.00     0.002 A 
HETATM   24  C19 UNL     1      -4.741  -0.770   2.343  1.00  0.00     0.001 A 
HETATM   25  C20 UNL     1      -3.447  -1.279   2.133  1.00  0.00     0.014 A 
HETATM   26  C21 UNL     1      -2.453  -0.398   1.703  1.00  0.00    -0.000 A 
HETATM   27  H1  UNL     1       0.400  -4.209   1.402  1.00  0.00     0.163 HD
HETATM   28  H7  UNL     1       2.225   2.941  -0.101  1.00  0.00     0.319 HD
ENDROOT
TORSDOF 0
