REMARK  8 active torsions:
REMARK  status: ('A' for Active; 'I' for Inactive)
REMARK    1  A    between atoms: C2_2  and  C3_3 
REMARK    2  A    between atoms: C3_3  and  O1_4 
REMARK    3  A    between atoms: O1_4  and  C4_5 
REMARK    4  A    between atoms: C4_5  and  C5_6 
REMARK    5  A    between atoms: C5_6  and  P1_8 
REMARK    6  A    between atoms: P1_8  and  O2_9 
REMARK    7  A    between atoms: O2_9  and  C7_10 
REMARK    8  A    between atoms: C7_10  and  N1_12 
ROOT
HETATM    1  C7  UNL     1      -1.521  -0.971  -0.469  1.00  0.00     0.224 C 
HETATM    2  C8  UNL     1      -1.642  -1.952  -1.637  1.00  0.00     0.063 C 
ENDROOT
BRANCH   1   3
HETATM    3  O2  UNL     1      -0.676  -1.444   0.509  1.00  0.00    -0.328 OA
BRANCH   3   4
HETATM    4  P1  UNL     1       0.708  -0.389   0.580  1.00  0.00     0.113 P 
BRANCH   4   5
HETATM    5  C5  UNL     1       2.209  -1.070   0.769  1.00  0.00    -0.022 C 
HETATM    6  C6  UNL     1       2.388  -2.563   0.878  1.00  0.00     0.049 C 
BRANCH   5   7
HETATM    7  C4  UNL     1       3.510  -0.358   0.853  1.00  0.00     0.204 C 
BRANCH   7   8
HETATM    8  O1  UNL     1       3.410   1.004   0.759  1.00  0.00    -0.387 OA
BRANCH   8   9
HETATM    9  C3  UNL     1       4.600   1.680   0.834  1.00  0.00     0.167 C 
BRANCH   9  10
HETATM   10  C2  UNL     1       5.590   1.319  -0.243  1.00  0.00     0.022 C 
HETATM   11  C1  UNL     1       6.872   2.123  -0.069  1.00  0.00     0.007 C 
ENDBRANCH   9  10
ENDBRANCH   8   9
ENDBRANCH   7   8
ENDBRANCH   5   7
ENDBRANCH   4   5
ENDBRANCH   3   4
ENDBRANCH   1   3
BRANCH   1  12
HETATM   12  N1  UNL     1      -2.870  -0.729  -0.004  1.00  0.00    -0.353 N 
HETATM   13  C9  UNL     1      -3.659  -1.850   0.477  1.00  0.00     0.130 C 
HETATM   14  C10 UNL     1      -5.102  -1.424   0.236  1.00  0.00     0.060 C 
HETATM   15  C11 UNL     1      -5.008   0.078   0.251  1.00  0.00    -0.030 A 
HETATM   16  C12 UNL     1      -5.960   1.081   0.375  1.00  0.00     0.009 A 
HETATM   17  C16 UNL     1      -3.687   0.447   0.108  1.00  0.00     0.038 A 
HETATM   18  C13 UNL     1      -5.521   2.409   0.349  1.00  0.00     0.001 A 
HETATM   19  C14 UNL     1      -4.181   2.754   0.204  1.00  0.00     0.002 A 
HETATM   20  C15 UNL     1      -3.226   1.745   0.079  1.00  0.00     0.030 A 
ENDBRANCH   1  12
TORSDOF 8
