REMARK  4 active torsions:
REMARK  status: ('A' for Active; 'I' for Inactive)
REMARK    1  A    between atoms: C2_2  and  C3_3 
REMARK    2  A    between atoms: C3_3  and  N1_4 
REMARK    3  A    between atoms: N3_20  and  C17_21 
REMARK    4  A    between atoms: C18_23  and  O3_24 
ROOT
HETATM    1  N1  UNL     1       2.183  -0.152   0.659  1.00  0.00    -0.360 N 
HETATM    2  C4  UNL     1       1.894   1.266   0.431  1.00  0.00     0.113 C 
HETATM    3  C5  UNL     1       0.610   1.708   0.317  1.00  0.00     0.035 A 
HETATM    4  C6  UNL     1       0.209   3.116   0.424  1.00  0.00     0.099 A 
HETATM    5  C7  UNL     1      -1.250   3.104   0.303  1.00  0.00    -0.025 A 
HETATM    6  C8  UNL     1      -2.151   4.146   0.360  1.00  0.00     0.010 A 
HETATM    7  C9  UNL     1      -3.502   3.898   0.199  1.00  0.00     0.001 A 
HETATM    8  C10 UNL     1      -3.876   2.593  -0.013  1.00  0.00     0.002 A 
HETATM    9  C11 UNL     1      -2.984   1.544  -0.071  1.00  0.00     0.030 A 
HETATM   10  C12 UNL     1      -1.646   1.815   0.092  1.00  0.00     0.044 A 
HETATM   11  N2  UNL     1      -0.585   0.882   0.081  1.00  0.00    -0.312 N 
HETATM   12  C13 UNL     1      -0.484  -0.510  -0.110  1.00  0.00     0.183 C 
HETATM   13  C14 UNL     1       0.222  -0.657  -1.395  1.00  0.00     0.076 C 
HETATM   14  O1  UNL     1       0.127  -0.811   1.141  1.00  0.00    -0.330 OA
HETATM   15  C15 UNL     1       1.373  -1.293   1.006  1.00  0.00     0.243 C 
HETATM   16  C16 UNL     1       1.148  -2.414   0.103  1.00  0.00     0.176 C 
HETATM   17  N3  UNL     1      -0.278  -2.678  -0.214  1.00  0.00    -0.348 N 
HETATM   18  C18 UNL     1      -1.345  -1.605  -0.037  1.00  0.00     0.276 C 
ENDROOT
BRANCH   1  19
HETATM   19  C3  UNL     1       3.606  -0.465   0.501  1.00  0.00     0.130 C 
BRANCH  19  20
HETATM   20  C2  UNL     1       4.068  -0.344  -0.895  1.00  0.00     0.009 C 
HETATM   21  C1  UNL     1       5.041   0.511  -1.261  1.00  0.00     0.007 C 
ENDBRANCH  19  20
ENDBRANCH   1  19
BRANCH  17  22
HETATM   22  C17 UNL     1      -0.511  -3.982  -0.683  1.00  0.00     0.516 C 
HETATM   23  O2  UNL     1      -1.442  -4.711  -1.075  1.00  0.00    -0.412 OA
ENDBRANCH  17  22
BRANCH  18  24
HETATM   24  O3  UNL     1      -2.039  -1.903   1.126  1.00  0.00    -0.367 OA
HETATM   25  C19 UNL     1      -3.331  -2.313   0.930  1.00  0.00     0.204 C 
ENDBRANCH  18  24
TORSDOF 4
