REMARK  4 active torsions:
REMARK  status: ('A' for Active; 'I' for Inactive)
REMARK    1  A    between atoms: C2_2  and  C3_3 
REMARK    2  A    between atoms: C4_4  and  N1_5 
REMARK    3  A    between atoms: C9_11  and  O1_12 
REMARK    4  A    between atoms: C11_14  and  N3_15 
REMARK       I    between atoms: N3_15  and  C13_17 
ROOT
HETATM    1  N1  UNL     1       2.161  -0.529  -0.218  1.00  0.00    -0.338 N 
HETATM    2  C5  UNL     1       2.829  -1.820  -0.085  1.00  0.00     0.110 C 
HETATM    3  C6  UNL     1       2.422  -2.975   0.489  1.00  0.00     0.102 C 
HETATM    4  N2  UNL     1       1.191  -2.996   1.258  1.00  0.00    -0.372 N 
HETATM    5  C7  UNL     1       0.430  -1.907   1.908  1.00  0.00     0.225 C 
HETATM    6  C8  UNL     1      -0.989  -1.865   1.609  1.00  0.00     0.087 C 
HETATM    7  C9  UNL     1      -1.643  -0.940   0.704  1.00  0.00     0.147 C 
HETATM    8  C11 UNL     1      -1.306   0.490   0.602  1.00  0.00     0.119 C 
HETATM    9  C15 UNL     1       0.133   0.866   0.324  1.00  0.00     0.082 C 
HETATM   10  C16 UNL     1       0.842  -0.378   0.354  1.00  0.00     0.231 C 
HETATM   11  O3  UNL     1       1.014  -0.693   1.726  1.00  0.00    -0.342 OA
HETATM   12  H8  UNL     1       0.791  -3.955   1.358  1.00  0.00     0.161 HD
ENDROOT
BRANCH   8  13
HETATM   13  N3  UNL     1      -2.004   0.993  -0.605  1.00  0.00    -0.349 N 
HETATM   14  C12 UNL     1      -1.763   0.546  -1.975  1.00  0.00     0.153 C 
HETATM   15  C13 UNL     1      -2.949   1.990  -0.339  1.00  0.00     0.215 C 
HETATM   16  C14 UNL     1      -3.800   2.680  -1.345  1.00  0.00     0.117 C 
HETATM   17  O2  UNL     1      -3.095   2.340   0.881  1.00  0.00    -0.274 OA
ENDBRANCH   8  13
BRANCH   7  18
HETATM   18  O1  UNL     1      -3.031  -0.886   1.061  1.00  0.00    -0.388 OA
HETATM   19  C10 UNL     1      -3.901  -1.338   0.142  1.00  0.00     0.202 C 
ENDBRANCH   7  18
BRANCH   1  20
HETATM   20  C4  UNL     1       2.891   0.474  -0.913  1.00  0.00     0.093 C 
HETATM   21  C3  UNL     1       3.878   1.174  -0.385  1.00  0.00     0.013 C 
BRANCH  21  22
HETATM   22  C2  UNL     1       4.737   2.222  -0.903  1.00  0.00    -0.025 C 
HETATM   23  C1  UNL     1       5.705   2.849  -0.259  1.00  0.00     0.031 C 
ENDBRANCH  21  22
ENDBRANCH   1  20
TORSDOF 4
