REMARK  9 active torsions:
REMARK  status: ('A' for Active; 'I' for Inactive)
REMARK    1  A    between atoms: O1_2  and  C2_3 
REMARK    2  A    between atoms: C2_3  and  C3_4 
REMARK    3  A    between atoms: C2_3  and  C7_12 
REMARK    4  A    between atoms: C3_4  and  N1_5 
REMARK    5  A    between atoms: N1_5  and  C5_7 
REMARK    6  A    between atoms: C5_7  and  C6_8 
REMARK    7  A    between atoms: C6_8  and  O2_9 
REMARK    8  A    between atoms: C7_12  and  N2_14 
REMARK    9  A    between atoms: N2_14  and  C9_15 
ROOT
HETATM    1  C2  UNL     1       0.054  -0.532  -1.300  1.00  0.00     0.160 C 
ENDROOT
BRANCH   1   2
HETATM    2  O1  UNL     1      -0.936  -0.125  -2.263  1.00  0.00    -0.387 OA
HETATM    3  C1  UNL     1      -1.080  -1.148  -3.206  1.00  0.00     0.202 C 
ENDBRANCH   1   2
BRANCH   1   4
HETATM    4  C3  UNL     1      -0.566  -0.343   0.021  1.00  0.00     0.150 C 
BRANCH   4   5
HETATM    5  N1  UNL     1      -1.773  -1.013   0.289  1.00  0.00    -0.406 N 
HETATM    6  C4  UNL     1      -1.851  -2.397   0.419  1.00  0.00     0.143 C 
BRANCH   5   7
HETATM    7  C5  UNL     1      -2.968  -0.282   0.389  1.00  0.00     0.228 C 
BRANCH   7   8
HETATM    8  C6  UNL     1      -3.118   0.627   1.585  1.00  0.00     0.368 C 
HETATM    9  F1  UNL     1      -4.360   1.253   1.482  1.00  0.00    -0.174 F 
HETATM   10  F2  UNL     1      -3.126  -0.099   2.765  1.00  0.00    -0.174 F 
BRANCH   8  11
HETATM   11  O2  UNL     1      -2.155   1.616   1.679  1.00  0.00    -0.335 OA
HETATM   12  H12 UNL     1      -2.568   2.481   1.817  1.00  0.00     0.216 HD
ENDBRANCH   8  11
ENDBRANCH   7   8
ENDBRANCH   5   7
ENDBRANCH   4   5
ENDBRANCH   1   4
BRANCH   1  13
HETATM   13  C7  UNL     1       1.198   0.423  -1.566  1.00  0.00     0.108 C 
HETATM   14  C8  UNL     1       0.731   1.869  -1.525  1.00  0.00     0.035 C 
BRANCH  13  15
HETATM   15  N2  UNL     1       2.328   0.211  -0.730  1.00  0.00    -0.386 N 
HETATM   16  H17 UNL     1       3.123  -0.255  -1.284  1.00  0.00     0.160 HD
BRANCH  15  17
HETATM   17  C9  UNL     1       2.717   0.424   0.617  1.00  0.00     0.016 A 
HETATM   18  C10 UNL     1       2.057   1.036   1.660  1.00  0.00     0.022 A 
HETATM   19  C11 UNL     1       2.732   1.121   2.850  1.00  0.00    -0.012 A 
HETATM   20  C12 UNL     1       3.935   0.519   2.584  1.00  0.00     0.010 A 
HETATM   21  C13 UNL     1       5.063  -0.141   2.034  1.00  0.00     0.023 A 
HETATM   22  C14 UNL     1       3.939   0.082   1.204  1.00  0.00     0.034 A 
ENDBRANCH  15  17
ENDBRANCH  13  15
ENDBRANCH   1  13
TORSDOF 9
