REMARK  1 active torsions:
REMARK  status: ('A' for Active; 'I' for Inactive)
REMARK       I    between atoms: C2_2  and  N1_4 
REMARK    1  A    between atoms: N1_4  and  C4_6 
ROOT
HETATM    1  C4  UNL     1       2.049  -0.820   0.446  1.00  0.00     0.100 C 
HETATM    2  C5  UNL     1       1.271  -2.021   0.124  1.00  0.00     0.116 C 
HETATM    3  N2  UNL     1       0.467  -2.656   1.220  1.00  0.00    -0.276 NA
HETATM    4  C6  UNL     1      -0.674  -1.733   1.518  1.00  0.00     0.185 A 
HETATM    5  N3  UNL     1      -1.431  -1.801   2.603  1.00  0.00    -0.360 N 
HETATM    6  C7  UNL     1      -1.721  -1.080   1.210  1.00  0.00     0.152 A 
HETATM    7  C8  UNL     1      -2.109   0.218   0.978  1.00  0.00     0.051 A 
HETATM    8  C9  UNL     1      -3.109   0.665   0.147  1.00  0.00     0.037 A 
HETATM    9  C10 UNL     1      -3.610  -0.538  -0.389  1.00  0.00    -0.026 A 
HETATM   10  C11 UNL     1      -3.003  -1.797   0.020  1.00  0.00     0.037 A 
HETATM   11  C12 UNL     1      -1.938  -2.324   0.893  1.00  0.00     0.112 A 
HETATM   12  C13 UNL     1      -3.730  -2.798  -0.840  1.00  0.00     0.249 A 
HETATM   13  O2  UNL     1      -3.403  -4.032  -0.708  1.00  0.00    -0.268 OA
HETATM   14  N4  UNL     1      -4.692  -2.114  -1.678  1.00  0.00    -0.353 N 
HETATM   15  C14 UNL     1      -4.707  -0.688  -1.367  1.00  0.00     0.162 A 
HETATM   16  N5  UNL     1      -1.128   1.104   1.431  1.00  0.00    -0.319 N 
HETATM   17  C15 UNL     1      -1.089   2.469   1.229  1.00  0.00     0.043 A 
HETATM   18  C16 UNL     1      -2.173   3.254   1.178  1.00  0.00     0.030 A 
HETATM   19  C17 UNL     1      -1.765   4.565   0.850  1.00  0.00     0.002 A 
HETATM   20  C18 UNL     1      -0.424   4.929   0.628  1.00  0.00     0.001 A 
HETATM   21  C19 UNL     1       0.596   3.972   0.727  1.00  0.00     0.010 A 
HETATM   22  C20 UNL     1       0.330   2.616   1.049  1.00  0.00    -0.023 A 
HETATM   23  C21 UNL     1       1.136   1.381   1.276  1.00  0.00     0.072 C 
HETATM   24  C22 UNL     1       1.484   0.558   0.053  1.00  0.00     0.040 C 
HETATM   25  C23 UNL     1       0.130   0.523   2.036  1.00  0.00     0.241 C 
HETATM   26  O3  UNL     1       0.117  -0.675   1.376  1.00  0.00    -0.324 OA
HETATM   27  H10 UNL     1       1.079  -2.699   2.071  1.00  0.00     0.126 HD
HETATM   28  H11 UNL     1      -1.454  -2.202   3.594  1.00  0.00     0.159 HD
HETATM   29  H13 UNL     1      -5.212  -2.662  -2.345  1.00  0.00     0.163 HD
ENDROOT
BRANCH   1  30
HETATM   30  N1  UNL     1       3.315  -0.949  -0.304  1.00  0.00    -0.351 N 
HETATM   31  C2  UNL     1       3.183  -1.033  -1.718  1.00  0.00     0.215 C 
HETATM   32  C1  UNL     1       4.371  -1.166  -2.606  1.00  0.00     0.117 C 
HETATM   33  O1  UNL     1       2.073  -1.003  -2.329  1.00  0.00    -0.274 OA
HETATM   34  C3  UNL     1       4.671  -0.998   0.263  1.00  0.00     0.153 C 
ENDBRANCH   1  30
TORSDOF 1
