REMARK  5 active torsions:
REMARK  status: ('A' for Active; 'I' for Inactive)
REMARK    1  A    between atoms: C2_2  and  C3_3 
REMARK    2  A    between atoms: C8_10  and  C9_11 
REMARK    3  A    between atoms: C17_21  and  N3_22 
REMARK    4  A    between atoms: C19_24  and  C20_25 
REMARK    5  A    between atoms: C20_25  and  C21_26 
ROOT
HETATM    1  C3  UNL     1      -0.492   2.153   0.566  1.00  0.00     0.286 C 
HETATM    2  C4  UNL     1      -1.003   0.727   0.563  1.00  0.00    -0.004 C 
HETATM    3  C5  UNL     1      -0.868  -0.407   1.224  1.00  0.00    -0.015 C 
HETATM    4  C6  UNL     1      -1.703  -1.382   1.880  1.00  0.00     0.163 C 
HETATM    5  N1  UNL     1      -0.602  -2.058   2.649  1.00  0.00    -0.353 N 
HETATM    6  C7  UNL     1       0.766  -1.943   2.219  1.00  0.00     0.253 C 
HETATM    7  O1  UNL     1       1.846  -2.455   2.436  1.00  0.00    -0.268 OA
HETATM    8  C8  UNL     1       0.613  -0.873   1.274  1.00  0.00     0.054 C 
HETATM    9  N3  UNL     1       0.355   1.735  -0.665  1.00  0.00     0.167 NA
HETATM   10  C18 UNL     1      -0.622   1.255  -1.554  1.00  0.00     0.319 C 
HETATM   11  C19 UNL     1      -1.711   0.602  -0.703  1.00  0.00    -0.024 C 
HETATM   12  H7  UNL     1      -0.897  -2.599   3.480  1.00  0.00     0.163 HD
ENDROOT
BRANCH  11  13
HETATM   13  C20 UNL     1      -2.884   0.014  -0.598  1.00  0.00    -0.018 C 
BRANCH  13  14
HETATM   14  C21 UNL     1      -4.119  -0.641  -0.266  1.00  0.00     0.023 C 
HETATM   15  C22 UNL     1      -4.339  -1.989  -0.924  1.00  0.00     0.009 C 
ENDBRANCH  13  14
ENDBRANCH  11  13
BRANCH   1  16
HETATM   16  C2  UNL     1      -1.491   3.117   0.185  1.00  0.00     0.003 C 
HETATM   17  C1  UNL     1      -1.018   4.328  -0.096  1.00  0.00     0.009 C 
ENDBRANCH   1  16
BRANCH   9  18
HETATM   18  C17 UNL     1       1.453   1.117  -0.138  1.00  0.00     0.379 C 
HETATM   19  C9  UNL     1       1.444  -0.270   0.391  1.00  0.00     0.058 C 
HETATM   20  C10 UNL     1       2.523  -1.109  -0.215  1.00  0.00     0.005 A 
HETATM   21  C11 UNL     1       2.718  -2.455  -0.261  1.00  0.00     0.014 A 
HETATM   22  C15 UNL     1       3.350  -0.132  -0.790  1.00  0.00     0.047 A 
HETATM   23  C12 UNL     1       3.839  -2.849  -0.938  1.00  0.00     0.001 A 
HETATM   24  C13 UNL     1       4.687  -1.926  -1.520  1.00  0.00     0.002 A 
HETATM   25  C14 UNL     1       4.471  -0.551  -1.466  1.00  0.00     0.030 A 
HETATM   26  N2  UNL     1       2.833   1.198  -0.547  1.00  0.00    -0.297 N 
HETATM   27  C16 UNL     1       2.526   2.616  -0.353  1.00  0.00     0.304 C 
HETATM   28  O2  UNL     1       1.937   2.073   0.854  1.00  0.00    -0.312 OA
ENDBRANCH   9  18
TORSDOF 5
