REMARK  2 active torsions:
REMARK  status: ('A' for Active; 'I' for Inactive)
REMARK    1  A    between atoms: N1_2  and  C2_3 
REMARK    2  A    between atoms: C7_10  and  O3_11 
ROOT
HETATM    1  C2  UNL     1       3.576  -0.325  -0.321  1.00  0.00     0.250 C 
HETATM    2  C3  UNL     1       3.463   1.128  -0.650  1.00  0.00     0.203 C 
HETATM    3  O1  UNL     1       2.307   1.358  -1.350  1.00  0.00    -0.384 OA
HETATM    4  C4  UNL     1       1.408   2.116  -0.591  1.00  0.00     0.230 C 
HETATM    5  C5  UNL     1       0.636   1.242   0.374  1.00  0.00     0.183 C 
HETATM    6  C6  UNL     1       0.932   1.869   1.759  1.00  0.00     0.076 C 
HETATM    7  O2  UNL     1       1.126  -0.006   0.476  1.00  0.00    -0.296 OA
HETATM    8  C7  UNL     1       1.142  -0.888  -0.546  1.00  0.00     0.373 C 
HETATM    9  C8  UNL     1       2.559  -1.181  -1.041  1.00  0.00     0.142 C 
HETATM   10  N2  UNL     1       0.680  -2.179   0.034  1.00  0.00     0.147 N 
HETATM   11  C9  UNL     1      -0.315  -2.009   0.990  1.00  0.00     0.285 C 
HETATM   12  C10 UNL     1      -1.729  -1.750   0.279  1.00  0.00     0.040 C 
HETATM   13  C11 UNL     1      -1.993  -2.962  -0.496  1.00  0.00    -0.024 C 
HETATM   14  C12 UNL     1      -2.634  -2.688  -1.672  1.00  0.00    -0.027 C 
HETATM   15  C13 UNL     1      -3.075  -1.372  -2.150  1.00  0.00     0.053 C 
HETATM   16  C14 UNL     1      -2.510  -0.686  -3.261  1.00  0.00    -0.025 C 
HETATM   17  C15 UNL     1      -2.106   0.572  -2.920  1.00  0.00    -0.002 C 
HETATM   18  C16 UNL     1      -2.148   1.349  -1.650  1.00  0.00     0.229 C 
HETATM   19  O4  UNL     1      -0.934   1.732  -1.161  1.00  0.00    -0.271 OA
HETATM   20  N3  UNL     1      -0.768   1.364   0.166  1.00  0.00    -0.220 N 
HETATM   21  C17 UNL     1      -1.678   1.101   1.271  1.00  0.00     0.067 A 
HETATM   22  C18 UNL     1      -1.830   2.316   1.906  1.00  0.00     0.032 A 
HETATM   23  C19 UNL     1      -2.597   2.584   3.035  1.00  0.00     0.002 A 
HETATM   24  C20 UNL     1      -3.289   1.504   3.584  1.00  0.00     0.001 A 
HETATM   25  C21 UNL     1      -3.134   0.293   2.944  1.00  0.00     0.009 A 
HETATM   26  C22 UNL     1      -2.374   0.040   1.828  1.00  0.00    -0.029 A 
HETATM   27  C23 UNL     1      -2.583  -1.420   1.444  1.00  0.00     0.051 C 
HETATM   28  H16 UNL     1       0.447  -2.839  -0.727  1.00  0.00     0.323 HD
ENDROOT
BRANCH   1  29
HETATM   29  N1  UNL     1       4.885  -0.787  -0.741  1.00  0.00     0.086 N 
HETATM   30  C1  UNL     1       5.977  -0.109  -0.083  1.00  0.00     0.307 C 
HETATM   31  H4  UNL     1       5.003  -1.805  -0.747  1.00  0.00     0.315 HD
ENDBRANCH   1  29
BRANCH   8  32
HETATM   32  O3  UNL     1       0.392  -0.657  -1.656  1.00  0.00    -0.342 OA
HETATM   33  H13 UNL     1       0.817  -0.972  -2.477  1.00  0.00     0.215 HD
ENDBRANCH   8  32
TORSDOF 2
