REMARK  3 active torsions:
REMARK  status: ('A' for Active; 'I' for Inactive)
REMARK    1  A    between atoms: N1_1  and  C1_2 
REMARK    2  A    between atoms: C6_9  and  C9_12 
REMARK    3  A    between atoms: C13_16  and  C14_17 
ROOT
HETATM    1  C1  UNL     1       0.885   2.865   1.121  1.00  0.00     0.221 C 
HETATM    2  C2  UNL     1       1.772   2.319   2.123  1.00  0.00     0.061 C 
HETATM    3  C3  UNL     1       2.992   1.533   1.787  1.00  0.00     0.172 C 
HETATM    4  O1  UNL     1       2.992   0.302   1.268  1.00  0.00    -0.372 OA
HETATM    5  C4  UNL     1       4.286  -0.194   0.970  1.00  0.00     0.285 C 
HETATM    6  N2  UNL     1       4.237  -1.638   0.605  1.00  0.00    -0.389 N 
HETATM    7  C5  UNL     1       3.084  -1.870  -0.169  1.00  0.00     0.071 A 
HETATM    8  C6  UNL     1       2.288  -1.799   1.060  1.00  0.00     0.036 A 
HETATM    9  C7  UNL     1       1.029  -1.787   1.755  1.00  0.00     0.009 A 
HETATM   10  C8  UNL     1      -0.431  -1.880   1.267  1.00  0.00    -0.014 A 
HETATM   11  C9  UNL     1       0.668  -1.897   0.588  1.00  0.00     0.056 A 
HETATM   12  C10 UNL     1       1.761  -1.912  -0.072  1.00  0.00     0.017 A 
HETATM   13  C11 UNL     1       1.362  -2.235  -1.503  1.00  0.00    -0.017 C 
HETATM   14  C12 UNL     1       0.280  -2.939  -2.048  1.00  0.00    -0.014 C 
HETATM   15  C13 UNL     1      -0.973  -3.243  -1.197  1.00  0.00     0.100 C 
HETATM   16  C15 UNL     1      -1.037  -2.068  -0.207  1.00  0.00    -0.037 C 
HETATM   17  C16 UNL     1      -1.574  -1.014  -0.787  1.00  0.00     0.020 C 
HETATM   18  C17 UNL     1      -2.229  -0.832  -2.086  1.00  0.00     0.098 C 
HETATM   19  C18 UNL     1      -3.391   0.115  -1.811  1.00  0.00    -0.026 A 
HETATM   20  C19 UNL     1      -4.598   0.214  -2.407  1.00  0.00     0.010 A 
HETATM   21  C20 UNL     1      -5.200   1.440  -2.090  1.00  0.00     0.001 A 
HETATM   22  C21 UNL     1      -4.624   2.400  -1.278  1.00  0.00     0.002 A 
HETATM   23  C22 UNL     1      -3.353   2.163  -0.712  1.00  0.00     0.030 A 
HETATM   24  C23 UNL     1      -2.706   0.949  -0.993  1.00  0.00     0.041 A 
HETATM   25  N3  UNL     1      -1.557   0.343  -0.350  1.00  0.00    -0.349 N 
HETATM   26  C24 UNL     1      -0.449   0.892   0.417  1.00  0.00     0.131 C 
HETATM   27  C25 UNL     1      -0.441   2.348   0.677  1.00  0.00     0.055 C 
HETATM   28  H10 UNL     1       5.012  -2.231   0.959  1.00  0.00     0.156 HD
ENDROOT
BRANCH   1  29
HETATM   29  N1  UNL     1       0.523   4.299   1.475  1.00  0.00     0.083 N 
HETATM   30  H1  UNL     1       0.570   4.266   2.542  1.00  0.00     0.313 HD
HETATM   31  H2  UNL     1       1.336   4.895   1.206  1.00  0.00     0.313 HD
ENDBRANCH   1  29
BRANCH  15  32
HETATM   32  C14 UNL     1      -0.653  -4.408  -0.367  1.00  0.00     0.244 C 
HETATM   33  O2  UNL     1       0.045  -5.316   0.138  1.00  0.00    -0.306 OA
ENDBRANCH  15  32
TORSDOF 3
