REMARK  3 active torsions:
REMARK  status: ('A' for Active; 'I' for Inactive)
REMARK    1  A    between atoms: C3_3  and  N1_5 
REMARK    2  A    between atoms: N1_5  and  C4_6 
REMARK    3  A    between atoms: C9_12  and  O3_13 
ROOT
HETATM    1  C4  UNL     1       0.773  -0.270   0.643  1.00  0.00     0.136 C 
HETATM    2  C5  UNL     1       0.439  -1.004   1.920  1.00  0.00     0.078 C 
HETATM    3  C6  UNL     1      -0.143  -2.340   1.765  1.00  0.00     0.175 C 
HETATM    4  O2  UNL     1       0.274  -3.076   0.656  1.00  0.00    -0.357 OA
HETATM    5  C7  UNL     1       0.166  -2.195  -0.418  1.00  0.00     0.175 C 
HETATM    6  C8  UNL     1       0.012  -2.818  -1.746  1.00  0.00     0.075 C 
HETATM    7  C9  UNL     1       1.406  -1.313  -0.279  1.00  0.00     0.222 C 
HETATM    8  N2  UNL     1      -0.966  -1.280  -0.218  1.00  0.00    -0.281 N 
HETATM    9  C11 UNL     1      -2.345  -1.096  -0.052  1.00  0.00     0.113 C 
HETATM   10  C12 UNL     1      -2.638   0.149   0.319  1.00  0.00    -0.040 C 
HETATM   11  C13 UNL     1      -3.909   0.856   0.622  1.00  0.00     0.041 C 
HETATM   12  C14 UNL     1      -3.815   2.334   0.385  1.00  0.00     0.031 C 
HETATM   13  C15 UNL     1      -2.673   2.662  -0.507  1.00  0.00    -0.028 C 
HETATM   14  C16 UNL     1      -1.506   2.028  -0.538  1.00  0.00    -0.005 C 
HETATM   15  C17 UNL     1      -1.345   0.890   0.412  1.00  0.00     0.135 C 
HETATM   16  N3  UNL     1      -0.392  -0.004  -0.170  1.00  0.00    -0.183 NA
ENDROOT
BRANCH   1  17
HETATM   17  N1  UNL     1       1.580   0.845   0.948  1.00  0.00    -0.365 N 
HETATM   18  H4  UNL     1       1.857   1.068   1.930  1.00  0.00     0.158 HD
BRANCH  17  19
HETATM   19  C3  UNL     1       2.108   1.784   0.026  1.00  0.00     0.154 A 
HETATM   20  C2  UNL     1       2.942   2.957   0.295  1.00  0.00     0.057 A 
HETATM   21  C1  UNL     1       2.772   2.973  -1.109  1.00  0.00     0.243 A 
HETATM   22  O1  UNL     1       1.859   1.641  -1.210  1.00  0.00    -0.356 OA
ENDBRANCH  17  19
ENDBRANCH   1  17
BRANCH   7  23
HETATM   23  O3  UNL     1       2.437  -1.990   0.349  1.00  0.00    -0.382 OA
HETATM   24  C10 UNL     1       3.599  -2.052  -0.411  1.00  0.00     0.202 C 
ENDBRANCH   7  23
TORSDOF 3
