REMARK  1 active torsions:
REMARK  status: ('A' for Active; 'I' for Inactive)
REMARK    1  A    between atoms: C13_15  and  O1_16 
ROOT
HETATM    1  C1  UNL     1       4.814  -0.229  -2.443  1.00  0.00     0.099 C 
HETATM    2  C2  UNL     1       3.820   0.275  -1.419  1.00  0.00     0.138 C 
HETATM    3  N1  UNL     1       4.189   1.268  -0.688  1.00  0.00    -0.240 NA
HETATM    4  C3  UNL     1       3.493   1.953   0.340  1.00  0.00     0.136 C 
HETATM    5  C4  UNL     1       2.173   1.802   0.721  1.00  0.00     0.113 C 
HETATM    6  N2  UNL     1       1.147   0.876   0.145  1.00  0.00    -0.323 N 
HETATM    7  C5  UNL     1      -0.052   1.680   0.081  1.00  0.00     0.048 A 
HETATM    8  C6  UNL     1       0.110   3.045   0.089  1.00  0.00     0.030 A 
HETATM    9  C7  UNL     1      -0.791   4.072   0.024  1.00  0.00     0.002 A 
HETATM   10  C8  UNL     1      -2.092   3.650  -0.066  1.00  0.00     0.001 A 
HETATM   11  C9  UNL     1      -2.484   2.327  -0.092  1.00  0.00     0.015 A 
HETATM   12  C10 UNL     1      -1.456   1.464  -0.019  1.00  0.00     0.006 A 
HETATM   13  C11 UNL     1      -2.134   0.108  -0.067  1.00  0.00     0.043 C 
HETATM   14  C12 UNL     1      -3.099  -0.469   0.561  1.00  0.00     0.023 C 
HETATM   15  C13 UNL     1      -3.739  -1.856   0.475  1.00  0.00     0.147 C 
HETATM   16  C14 UNL     1      -3.616  -2.498   1.851  1.00  0.00     0.053 C 
HETATM   17  C15 UNL     1      -2.559  -2.769   2.698  1.00  0.00    -0.015 C 
HETATM   18  C16 UNL     1      -1.057  -2.629   2.759  1.00  0.00    -0.001 C 
HETATM   19  C17 UNL     1       0.090  -2.298   2.130  1.00  0.00     0.021 C 
HETATM   20  C18 UNL     1       0.705  -1.869   0.884  1.00  0.00    -0.012 C 
HETATM   21  C19 UNL     1       0.841  -1.561  -0.435  1.00  0.00    -0.017 C 
HETATM   22  C20 UNL     1       0.496  -1.395  -1.901  1.00  0.00     0.161 C 
HETATM   23  N3  UNL     1       0.221   0.025  -1.936  1.00  0.00    -0.353 N 
HETATM   24  C21 UNL     1      -0.944  -0.118  -1.016  1.00  0.00     0.252 C 
HETATM   25  O2  UNL     1      -1.135  -1.283  -0.831  1.00  0.00    -0.268 OA
HETATM   26  C22 UNL     1       1.725  -0.416  -0.134  1.00  0.00     0.267 C 
HETATM   27  O3  UNL     1       2.567  -0.338  -1.303  1.00  0.00    -0.308 OA
HETATM   28  H20 UNL     1       0.359   1.011  -2.218  1.00  0.00     0.163 HD
ENDROOT
BRANCH  15  29
HETATM   29  O1  UNL     1      -3.231  -2.540  -0.561  1.00  0.00    -0.391 OA
HETATM   30  H12 UNL     1      -3.775  -2.548  -1.386  1.00  0.00     0.210 HD
ENDBRANCH  15  29
TORSDOF 1
