REMARK  4 active torsions:
REMARK  status: ('A' for Active; 'I' for Inactive)
REMARK    1  A    between atoms: N1_2  and  C2_3 
REMARK    2  A    between atoms: C7_8  and  C8_9 
REMARK    3  A    between atoms: N2_13  and  C12_14 
REMARK    4  A    between atoms: C12_14  and  C13_15 
ROOT
HETATM    1  C8  UNL     1      -1.844  -0.798  -0.408  1.00  0.00     0.026 C 
HETATM    2  C9  UNL     1      -0.642  -0.246  -0.174  1.00  0.00     0.012 C 
HETATM    3  C10 UNL     1      -0.147   1.031   0.401  1.00  0.00     0.064 C 
HETATM    4  C11 UNL     1       0.972   1.399  -0.551  1.00  0.00     0.131 C 
HETATM    5  N2  UNL     1       1.518   0.134  -0.969  1.00  0.00    -0.344 N 
HETATM    6  C19 UNL     1       0.629  -0.916  -0.528  1.00  0.00     0.250 C 
HETATM    7  O1  UNL     1       0.920  -2.155  -0.473  1.00  0.00    -0.268 OA
ENDROOT
BRANCH   1   8
HETATM    8  C7  UNL     1      -3.116  -0.195  -0.122  1.00  0.00    -0.007 A 
HETATM    9  C2  UNL     1      -4.231  -0.674   0.527  1.00  0.00     0.065 A 
HETATM   10  C3  UNL     1      -5.374   0.080   0.664  1.00  0.00     0.032 A 
HETATM   11  C4  UNL     1      -5.464   1.358   0.158  1.00  0.00     0.002 A 
HETATM   12  C5  UNL     1      -4.354   1.863  -0.501  1.00  0.00     0.001 A 
HETATM   13  C6  UNL     1      -3.190   1.103  -0.643  1.00  0.00     0.014 A 
BRANCH   9  14
HETATM   14  N1  UNL     1      -4.054  -1.997   1.016  1.00  0.00    -0.271 NA
HETATM   15  C1  UNL     1      -5.035  -2.823   0.889  1.00  0.00     0.149 C 
ENDBRANCH   9  14
ENDBRANCH   1   8
BRANCH   5  16
HETATM   16  C12 UNL     1       2.756   0.020  -1.709  1.00  0.00     0.164 C 
BRANCH  16  17
HETATM   17  C13 UNL     1       3.867  -0.102  -0.764  1.00  0.00    -0.040 A 
HETATM   18  C14 UNL     1       4.288  -1.339  -0.320  1.00  0.00     0.009 A 
HETATM   19  C15 UNL     1       5.346  -1.473   0.576  1.00  0.00     0.001 A 
HETATM   20  C16 UNL     1       5.961  -0.318   1.006  1.00  0.00     0.000 A 
HETATM   21  C17 UNL     1       5.572   0.951   0.586  1.00  0.00     0.001 A 
HETATM   22  C18 UNL     1       4.512   1.054  -0.309  1.00  0.00     0.009 A 
ENDBRANCH  16  17
ENDBRANCH   5  16
TORSDOF 4
