REMARK  1 active torsions:
REMARK  status: ('A' for Active; 'I' for Inactive)
REMARK    1  A    between atoms: N1_2  and  C2_3 
ROOT
HETATM    1  C2  UNL     1      -0.412  -0.109   1.068  1.00  0.00     0.125 C 
HETATM    2  O1  UNL     1      -1.334  -1.057   0.613  1.00  0.00    -0.359 OA
HETATM    3  C3  UNL     1      -2.131  -0.683  -0.424  1.00  0.00     0.143 C 
HETATM    4  C4  UNL     1      -3.574  -0.900   0.046  1.00  0.00     0.042 C 
HETATM    5  C5  UNL     1      -2.029  -1.476  -1.698  1.00  0.00     0.201 C 
HETATM    6  O2  UNL     1      -0.956  -1.707  -2.376  1.00  0.00    -0.369 OA
HETATM    7  C6  UNL     1       0.016  -0.928  -2.830  1.00  0.00     0.294 C 
HETATM    8  N2  UNL     1       0.869  -0.341  -1.785  1.00  0.00    -0.348 N 
HETATM    9  C7  UNL     1       2.153  -0.976  -1.344  1.00  0.00     0.036 A 
HETATM   10  C8  UNL     1       3.319  -1.631  -1.592  1.00  0.00     0.004 A 
HETATM   11  C9  UNL     1       4.115  -1.909  -0.366  1.00  0.00     0.038 A 
HETATM   12  C10 UNL     1       3.289  -1.465   0.821  1.00  0.00     0.021 A 
HETATM   13  C11 UNL     1       4.142  -0.505   1.620  1.00  0.00     0.015 C 
HETATM   14  C12 UNL     1       2.104  -0.855   0.180  1.00  0.00    -0.019 A 
HETATM   15  C13 UNL     1       0.897  -0.224   0.328  1.00  0.00    -0.001 C 
HETATM   16  C14 UNL     1       0.900   0.773  -0.842  1.00  0.00     0.139 C 
HETATM   17  C15 UNL     1      -0.175   1.665  -0.692  1.00  0.00    -0.084 A 
HETATM   18  C16 UNL     1      -0.523   2.593  -1.550  1.00  0.00    -0.007 A 
HETATM   19  C17 UNL     1      -1.686   3.421  -1.175  1.00  0.00    -0.006 A 
HETATM   20  C18 UNL     1      -2.333   3.226  -0.013  1.00  0.00    -0.036 A 
HETATM   21  C19 UNL     1      -2.116   2.267   1.092  1.00  0.00    -0.011 A 
HETATM   22  B1  UNL     1      -0.902   1.319   0.673  1.00  0.00     0.286 B 
ENDROOT
BRANCH   1  23
HETATM   23  N1  UNL     1      -0.139  -0.198   2.453  1.00  0.00    -0.400 N 
HETATM   24  C1  UNL     1      -1.251  -0.101   3.343  1.00  0.00     0.142 C 
HETATM   25  H4  UNL     1       0.719   0.252   2.776  1.00  0.00     0.155 HD
ENDBRANCH   1  23
TORSDOF 1
