REMARK  5 active torsions:
REMARK  status: ('A' for Active; 'I' for Inactive)
REMARK    1  A    between atoms: C1_2  and  N1_3 
REMARK    2  A    between atoms: N1_3  and  C2_4 
REMARK    3  A    between atoms: C2_4  and  C3_5 
REMARK    4  A    between atoms: N3_24  and  C21_25 
REMARK    5  A    between atoms: C21_25  and  C22_26 
ROOT
HETATM    1  C3  UNL     1       0.432   1.743  -0.356  1.00  0.00    -0.047 A 
HETATM    2  C4  UNL     1       1.618   1.185  -0.191  1.00  0.00     0.020 A 
HETATM    3  C5  UNL     1       2.072  -0.186  -0.046  1.00  0.00     0.001 A 
HETATM    4  C6  UNL     1       3.097  -0.916   0.282  1.00  0.00    -0.019 C 
HETATM    5  C7  UNL     1       4.405  -0.463   0.733  1.00  0.00     0.010 C 
HETATM    6  C8  UNL     1       5.225  -1.465   1.113  1.00  0.00     0.001 C 
HETATM    7  C9  UNL     1       4.803  -2.858   1.019  1.00  0.00    -0.002 C 
HETATM    8  C10 UNL     1       3.620  -3.264   0.517  1.00  0.00     0.003 C 
HETATM    9  C11 UNL     1       2.687  -2.301  -0.004  1.00  0.00     0.139 C 
HETATM   10  N2  UNL     1       1.290  -2.436   0.129  1.00  0.00    -0.376 N 
HETATM   11  C12 UNL     1       0.873  -1.075  -0.109  1.00  0.00     0.064 A 
HETATM   12  C13 UNL     1      -0.351  -0.572  -0.307  1.00  0.00     0.052 A 
HETATM   13  C14 UNL     1      -0.675   0.833  -0.512  1.00  0.00     0.104 A 
HETATM   14  C15 UNL     1      -2.020   1.138  -0.120  1.00  0.00    -0.017 A 
HETATM   15  C16 UNL     1      -2.826   2.214   0.120  1.00  0.00     0.010 A 
HETATM   16  C17 UNL     1      -4.183   2.162   0.355  1.00  0.00     0.001 A 
HETATM   17  C18 UNL     1      -4.770   0.911   0.343  1.00  0.00     0.002 A 
HETATM   18  C19 UNL     1      -3.984  -0.200   0.105  1.00  0.00     0.030 A 
HETATM   19  C20 UNL     1      -2.596  -0.136  -0.130  1.00  0.00     0.042 A 
HETATM   20  N3  UNL     1      -1.628  -1.206  -0.248  1.00  0.00    -0.346 N 
HETATM   21  H11 UNL     1       0.844  -3.319   0.327  1.00  0.00     0.160 HD
ENDROOT
BRANCH   1  22
HETATM   22  C2  UNL     1       0.344   3.212  -0.460  1.00  0.00     0.157 C 
BRANCH  22  23
HETATM   23  N1  UNL     1      -0.282   3.625  -1.713  1.00  0.00    -0.364 N 
HETATM   24  H2  UNL     1      -0.716   3.315  -2.608  1.00  0.00     0.162 HD
BRANCH  23  25
HETATM   25  C1  UNL     1      -0.328   5.045  -1.738  1.00  0.00     0.348 C 
HETATM   26  O1  UNL     1       0.025   6.005  -0.974  1.00  0.00    -0.284 OA
ENDBRANCH  23  25
ENDBRANCH  22  23
ENDBRANCH   1  22
BRANCH  20  27
HETATM   27  C21 UNL     1      -2.040  -2.582  -0.177  1.00  0.00     0.144 C 
BRANCH  27  28
HETATM   28  C22 UNL     1      -1.836  -3.101   1.227  1.00  0.00     0.135 C 
HETATM   29 CL1  UNL     1      -2.292  -4.818   1.342  1.00  0.00    -0.129 Cl
ENDBRANCH  27  28
ENDBRANCH  20  27
TORSDOF 5
