REMARK  2 active torsions:
REMARK  status: ('A' for Active; 'I' for Inactive)
REMARK    1  A    between atoms: C6_11  and  N3_12 
REMARK    2  A    between atoms: N3_12  and  C7_13 
ROOT
HETATM    1  F1  UNL     1       6.849   0.404   0.805  1.00  0.00    -0.204 F 
HETATM    2  C1  UNL     1       5.648  -0.004   0.334  1.00  0.00     0.138 A 
HETATM    3  C2  UNL     1       5.726  -1.289   0.045  1.00  0.00     0.180 A 
HETATM    4  O1  UNL     1       4.580  -1.838  -0.444  1.00  0.00    -0.325 OA
HETATM    5  C3  UNL     1       3.358  -1.236  -0.703  1.00  0.00     0.306 A 
HETATM    6  O2  UNL     1       2.342  -1.976  -0.023  1.00  0.00    -0.296 OA
HETATM    7  C4  UNL     1       0.998  -1.635   0.093  1.00  0.00     0.199 A 
HETATM    8  N1  UNL     1       0.309  -2.702   0.534  1.00  0.00    -0.216 NA
HETATM    9  C5  UNL     1      -1.037  -2.563   0.711  1.00  0.00     0.238 A 
HETATM   10  N2  UNL     1      -1.603  -1.380   0.440  1.00  0.00    -0.222 NA
HETATM   11  C6  UNL     1      -0.910  -0.315  -0.000  1.00  0.00     0.160 A 
HETATM   12  C13 UNL     1       0.433  -0.397  -0.196  1.00  0.00     0.128 A 
HETATM   13  N4  UNL     1       1.001   0.814  -0.670  1.00  0.00    -0.379 N 
HETATM   14  C14 UNL     1       2.345   1.277  -0.392  1.00  0.00     0.159 C 
HETATM   15  C15 UNL     1       3.333   0.201  -0.347  1.00  0.00    -0.004 A 
HETATM   16  C16 UNL     1       4.434   0.760   0.138  1.00  0.00     0.053 A 
HETATM   17  H9  UNL     1       0.288   1.309  -1.253  1.00  0.00     0.160 HD
ENDROOT
BRANCH  11  18
HETATM   18  N3  UNL     1      -1.658   0.867  -0.224  1.00  0.00    -0.339 N 
HETATM   19  H4  UNL     1      -1.418   1.842  -0.495  1.00  0.00     0.167 HD
BRANCH  18  20
HETATM   20  C7  UNL     1      -3.087   0.876  -0.079  1.00  0.00     0.035 A 
HETATM   21  C8  UNL     1      -3.832   1.934   0.458  1.00  0.00     0.029 A 
HETATM   22  C9  UNL     1      -5.190   1.951   0.584  1.00  0.00     0.004 A 
HETATM   23  C10 UNL     1      -5.883   0.862   0.157  1.00  0.00     0.019 A 
HETATM   24  C11 UNL     1      -5.224  -0.243  -0.392  1.00  0.00     0.013 A 
HETATM   25 BR1  UNL     1      -6.308  -1.706  -0.955  1.00  0.00    -0.051 Br
HETATM   26  C12 UNL     1      -3.845  -0.208  -0.496  1.00  0.00     0.048 A 
ENDBRANCH  18  20
ENDBRANCH  11  18
TORSDOF 2
