REMARK  5 active torsions:
REMARK  status: ('A' for Active; 'I' for Inactive)
REMARK    1  A    between atoms: O1_2  and  C2_3 
REMARK    2  A    between atoms: C3_4  and  C24_32 
REMARK    3  A    between atoms: C5_7  and  N2_16 
REMARK    4  A    between atoms: C7_9  and  N1_10 
REMARK    5  A    between atoms: N1_10  and  S1_12 
ROOT
HETATM    1  N2  UNL     1       0.644   1.126  -0.234  1.00  0.00    -0.320 N 
HETATM    2  C10 UNL     1       1.742   0.464  -0.831  1.00  0.00     0.042 C 
HETATM    3  C11 UNL     1       2.652  -0.371  -0.387  1.00  0.00     0.037 A 
HETATM    4  C12 UNL     1       3.717  -0.914  -1.270  1.00  0.00     0.100 A 
HETATM    5  C13 UNL     1       4.573  -1.781  -0.470  1.00  0.00    -0.026 A 
HETATM    6  C14 UNL     1       5.684  -2.444  -0.907  1.00  0.00     0.010 A 
HETATM    7  C15 UNL     1       6.383  -3.255  -0.016  1.00  0.00     0.001 A 
HETATM    8  C16 UNL     1       5.903  -3.341   1.276  1.00  0.00     0.002 A 
HETATM    9  C17 UNL     1       4.764  -2.645   1.677  1.00  0.00     0.030 A 
HETATM   10  C18 UNL     1       4.070  -1.843   0.801  1.00  0.00     0.039 A 
HETATM   11  N3  UNL     1       2.935  -1.005   0.830  1.00  0.00    -0.357 N 
HETATM   12  C19 UNL     1       1.652   0.866  -2.258  1.00  0.00     0.100 C 
HETATM   13  C20 UNL     1       0.357   1.549  -2.450  1.00  0.00    -0.025 A 
HETATM   14  C21 UNL     1      -0.221   1.969  -3.621  1.00  0.00     0.010 A 
HETATM   15  C22 UNL     1      -1.428   2.656  -3.474  1.00  0.00     0.001 A 
HETATM   16  C23 UNL     1      -2.008   2.900  -2.248  1.00  0.00     0.010 A 
HETATM   17  C24 UNL     1      -1.391   2.457  -1.109  1.00  0.00    -0.022 A 
HETATM   18  C25 UNL     1      -0.181   1.764  -1.205  1.00  0.00     0.050 A 
HETATM   19  H24 UNL     1       2.426  -0.946   1.708  1.00  0.00     0.166 HD
ENDROOT
BRANCH   1  20
HETATM   20  C5  UNL     1       0.353   1.200   1.164  1.00  0.00     0.230 C 
HETATM   21  O2  UNL     1      -0.092   2.352   1.695  1.00  0.00    -0.365 OA
HETATM   22  C4  UNL     1      -0.897   3.225   1.116  1.00  0.00     0.182 C 
HETATM   23  C3  UNL     1      -2.017   2.718   0.227  1.00  0.00     0.076 C 
HETATM   24  C2  UNL     1      -2.652   1.533   0.849  1.00  0.00     0.155 C 
HETATM   25  C7  UNL     1      -1.929   0.236   0.769  1.00  0.00     0.129 C 
HETATM   26  C6  UNL     1      -0.665   0.130   1.570  1.00  0.00     0.083 C 
BRANCH  24  27
HETATM   27  O1  UNL     1      -3.852   1.312   0.130  1.00  0.00    -0.388 OA
HETATM   28  C1  UNL     1      -4.958   1.438   0.962  1.00  0.00     0.202 C 
ENDBRANCH  24  27
BRANCH  25  29
HETATM   29  N1  UNL     1      -2.850  -0.753   1.252  1.00  0.00    -0.308 N 
HETATM   30  C8  UNL     1      -2.697  -1.170   2.593  1.00  0.00     0.163 C 
BRANCH  29  31
HETATM   31  S1  UNL     1      -3.273  -1.942   0.115  1.00  0.00     0.224 S 
HETATM   32  C9  UNL     1      -1.921  -2.915  -0.460  1.00  0.00     0.186 C 
HETATM   33  O3  UNL     1      -3.938  -1.310  -1.088  1.00  0.00    -0.206 OA
HETATM   34  O4  UNL     1      -4.299  -2.843   0.741  1.00  0.00    -0.206 OA
ENDBRANCH  29  31
ENDBRANCH  25  29
ENDBRANCH   1  20
TORSDOF 5
