REMARK  4 active torsions:
REMARK  status: ('A' for Active; 'I' for Inactive)
REMARK    1  A    between atoms: C2_2  and  N1_3 
REMARK    2  A    between atoms: N1_3  and  C3_4 
REMARK    3  A    between atoms: N1_3  and  S1_30 
REMARK    4  A    between atoms: C18_24  and  O2_25 
ROOT
HETATM    1  C3  UNL     1      -1.419  -0.245  -0.152  1.00  0.00     0.155 C 
HETATM    2  C4  UNL     1      -0.438  -0.388  -1.340  1.00  0.00     0.269 C 
HETATM    3  N2  UNL     1       0.491   0.809  -0.807  1.00  0.00    -0.249 NA
HETATM    4  C5  UNL     1       0.151   1.978  -0.825  1.00  0.00     0.230 C 
HETATM    5  N3  UNL     1       1.327   2.678  -0.237  1.00  0.00    -0.236 NA
HETATM    6  C6  UNL     1       2.299   1.851   0.144  1.00  0.00     0.130 C 
HETATM    7  C7  UNL     1       3.250   2.898   0.654  1.00  0.00     0.270 C 
HETATM    8  O1  UNL     1       3.486   4.146   0.853  1.00  0.00    -0.266 OA
HETATM    9  N4  UNL     1       4.425   2.198   1.136  1.00  0.00    -0.352 N 
HETATM   10  C8  UNL     1       4.429   0.912   0.436  1.00  0.00     0.160 C 
HETATM   11  C9  UNL     1       2.983   0.587   0.375  1.00  0.00    -0.013 C 
HETATM   12  C10 UNL     1       2.096  -0.214   0.453  1.00  0.00     0.073 C 
HETATM   13  C11 UNL     1       3.083  -1.517   0.701  1.00  0.00     0.267 C 
HETATM   14  N5  UNL     1       2.253  -2.000  -0.320  1.00  0.00     0.009 N 
HETATM   15  C12 UNL     1       1.410  -2.822   0.060  1.00  0.00     0.162 A 
HETATM   16  C13 UNL     1       0.533  -3.770   0.428  1.00  0.00     0.036 A 
HETATM   17  C14 UNL     1      -0.550  -3.620   1.258  1.00  0.00     0.002 A 
HETATM   18  C15 UNL     1      -0.839  -2.348   1.808  1.00  0.00     0.008 A 
HETATM   19  C16 UNL     1       0.118  -1.517   1.370  1.00  0.00    -0.005 A 
HETATM   20  C17 UNL     1       1.228  -1.416   0.639  1.00  0.00     0.228 A 
HETATM   21  C18 UNL     1      -0.588  -0.126   1.192  1.00  0.00     0.175 C 
HETATM   22  C20 UNL     1       1.590  -1.745  -1.663  1.00  0.00     0.331 C 
HETATM   23  C21 UNL     1       1.567  -3.007  -2.409  1.00  0.00     0.071 C 
HETATM   24  O3  UNL     1       0.298  -1.426  -1.211  1.00  0.00    -0.330 OA
HETATM   25  H9  UNL     1       5.220   2.416   1.828  1.00  0.00     0.163 HD
ENDROOT
BRANCH   1  26
HETATM   26  N1  UNL     1      -2.304   0.836  -0.351  1.00  0.00    -0.222 NA
BRANCH  26  27
HETATM   27  C2  UNL     1      -3.562   0.623   0.338  1.00  0.00     0.101 C 
HETATM   28  C1  UNL     1      -4.545   1.754   0.125  1.00  0.00     0.021 C 
ENDBRANCH  26  27
BRANCH  26  29
HETATM   29  S1  UNL     1      -2.748   1.051  -2.021  1.00  0.00     0.088 S 
HETATM   30  C22 UNL     1      -3.032   2.695  -2.543  1.00  0.00     0.146 C 
HETATM   31  O4  UNL     1      -3.537  -0.040  -2.632  1.00  0.00    -0.242 OA
ENDBRANCH  26  29
ENDBRANCH   1  26
BRANCH  21  32
HETATM   32  O2  UNL     1      -1.506  -0.037   2.217  1.00  0.00    -0.384 OA
HETATM   33  C19 UNL     1      -1.294   1.096   3.025  1.00  0.00     0.202 C 
ENDBRANCH  21  32
TORSDOF 4
