REMARK  3 active torsions:
REMARK  status: ('A' for Active; 'I' for Inactive)
REMARK    1  A    between atoms: N1_2  and  C2_3 
REMARK    2  A    between atoms: N2_13  and  O1_14 
REMARK    3  A    between atoms: C12_15  and  O2_16 
ROOT
HETATM    1  C2  UNL     1      -1.987  -1.732   0.170  1.00  0.00     0.097 C 
HETATM    2  C3  UNL     1      -2.112  -0.337   0.380  1.00  0.00     0.091 C 
HETATM    3  C4  UNL     1      -3.101   0.539   0.900  1.00  0.00    -0.035 A 
HETATM    4  C5  UNL     1      -4.362   0.409   1.373  1.00  0.00     0.009 A 
HETATM    5  C6  UNL     1      -5.102   1.532   1.695  1.00  0.00     0.001 A 
HETATM    6  C7  UNL     1      -4.563   2.796   1.537  1.00  0.00     0.001 A 
HETATM    7  C8  UNL     1      -3.291   3.050   1.067  1.00  0.00     0.014 A 
HETATM    8  C9  UNL     1      -2.617   1.874   0.771  1.00  0.00    -0.001 A 
HETATM    9  C10 UNL     1      -1.215   2.207   0.453  1.00  0.00     0.065 C 
HETATM   10  C11 UNL     1      -0.626   3.366   0.283  1.00  0.00     0.150 C 
HETATM   11  N2  UNL     1       0.760   3.422  -0.047  1.00  0.00    -0.237 N 
HETATM   12  C12 UNL     1       2.127   3.423  -0.245  1.00  0.00     0.271 C 
HETATM   13  C13 UNL     1       2.960   2.211  -0.252  1.00  0.00     0.042 C 
HETATM   14  C14 UNL     1       2.933   0.897  -0.216  1.00  0.00     0.005 A 
HETATM   15  C15 UNL     1       1.716   0.297  -0.153  1.00  0.00     0.064 A 
HETATM   16  N3  UNL     1       1.717  -1.031   0.100  1.00  0.00    -0.311 N 
HETATM   17  C16 UNL     1       3.035  -1.286   0.177  1.00  0.00     0.049 A 
HETATM   18  C17 UNL     1       3.647  -2.468   0.399  1.00  0.00     0.030 A 
HETATM   19  C18 UNL     1       5.022  -2.501   0.436  1.00  0.00     0.002 A 
HETATM   20  C19 UNL     1       5.829  -1.382   0.256  1.00  0.00     0.001 A 
HETATM   21  C20 UNL     1       5.168  -0.167   0.026  1.00  0.00     0.014 A 
HETATM   22  C21 UNL     1       3.791  -0.141  -0.009  1.00  0.00     0.003 A 
HETATM   23  C22 UNL     1       0.511  -1.750   0.396  1.00  0.00     0.145 C 
HETATM   24  C23 UNL     1       0.747  -3.053   1.168  1.00  0.00     0.072 C 
HETATM   25  O3  UNL     1      -0.074  -0.993   1.517  1.00  0.00    -0.335 OA
HETATM   26  C24 UNL     1      -0.854   0.017   1.203  1.00  0.00     0.241 C 
HETATM   27  N4  UNL     1      -0.368   1.081   0.316  1.00  0.00    -0.325 N 
HETATM   28  C25 UNL     1       0.718   1.044  -0.515  1.00  0.00     0.124 C 
HETATM   29  C26 UNL     1      -0.588  -1.859  -0.576  1.00  0.00     0.060 C 
HETATM   30  C27 UNL     1      -0.592  -3.091  -1.419  1.00  0.00     0.017 C 
ENDROOT
BRANCH   1  31
HETATM   31  N1  UNL     1      -2.964  -2.432  -0.563  1.00  0.00    -0.420 N 
HETATM   32  C1  UNL     1      -3.215  -2.054  -1.900  1.00  0.00     0.140 C 
HETATM   33  H4  UNL     1      -3.100  -3.400  -0.285  1.00  0.00     0.153 HD
ENDBRANCH   1  31
BRANCH  11  34
HETATM   34  O1  UNL     1       0.187   3.942  -1.215  1.00  0.00    -0.285 OA
HETATM   35  H12 UNL     1       0.471   4.891  -1.207  1.00  0.00     0.245 HD
ENDBRANCH  11  34
BRANCH  12  36
HETATM   36  O2  UNL     1       2.456   4.087  -1.463  1.00  0.00    -0.371 OA
HETATM   37  H14 UNL     1       3.454   4.200  -1.435  1.00  0.00     0.212 HD
ENDBRANCH  12  36
TORSDOF 3
