REMARK  2 active torsions:
REMARK  status: ('A' for Active; 'I' for Inactive)
REMARK    1  A    between atoms: O1_2  and  C2_3 
REMARK    2  A    between atoms: C8_9  and  C9_10 
ROOT
HETATM    1  C2  UNL     1       5.251  -0.274  -0.448  1.00  0.00     0.069 A 
HETATM    2  C3  UNL     1       4.887  -1.586  -0.676  1.00  0.00     0.037 A 
HETATM    3  C4  UNL     1       3.626  -2.015  -0.309  1.00  0.00     0.015 A 
HETATM    4  C5  UNL     1       2.683  -1.205   0.282  1.00  0.00    -0.025 A 
HETATM    5  C6  UNL     1       3.035   0.101   0.512  1.00  0.00    -0.015 A 
HETATM    6  C7  UNL     1       4.294   0.520   0.144  1.00  0.00     0.049 A 
HETATM    7  C8  UNL     1       2.241   1.201   1.112  1.00  0.00    -0.021 C 
HETATM    8  C10 UNL     1       1.026   1.627   0.817  1.00  0.00     0.005 C 
HETATM    9  C11 UNL     1      -0.225   2.417   0.852  1.00  0.00     0.169 C 
HETATM   10  N1  UNL     1      -0.563   3.027  -0.389  1.00  0.00    -0.315 N 
HETATM   11  N2  UNL     1      -1.852   3.498  -0.473  1.00  0.00    -0.209 N 
HETATM   12  C12 UNL     1      -2.662   2.746  -1.461  1.00  0.00     0.229 C 
HETATM   13  C13 UNL     1      -3.830   2.276  -0.613  1.00  0.00     0.066 C 
HETATM   14  N3  UNL     1      -4.575   3.332  -0.349  1.00  0.00    -0.244 NA
HETATM   15  C14 UNL     1      -3.879   4.543   0.076  1.00  0.00     0.256 C 
HETATM   16  N4  UNL     1      -2.569   4.537   0.177  1.00  0.00    -0.150 NA
HETATM   17  C15 UNL     1      -3.776   0.838  -0.316  1.00  0.00     0.195 C 
HETATM   18  C16 UNL     1      -4.952   0.205   0.311  1.00  0.00     0.207 C 
HETATM   19  O2  UNL     1      -4.755  -1.215   0.343  1.00  0.00    -0.371 OA
HETATM   20  C17 UNL     1      -3.424  -1.380   0.362  1.00  0.00     0.242 C 
HETATM   21  C18 UNL     1      -2.896  -2.750   0.724  1.00  0.00     0.254 C 
HETATM   22  O3  UNL     1      -3.088  -3.941   1.013  1.00  0.00    -0.270 OA
HETATM   23  N5  UNL     1      -1.490  -2.762   0.785  1.00  0.00    -0.310 N 
HETATM   24  C19 UNL     1      -0.278  -3.451   1.012  1.00  0.00     0.122 C 
HETATM   25  N6  UNL     1      -0.819  -4.560   1.325  1.00  0.00    -0.284 NA
HETATM   26  C20 UNL     1       1.144  -3.152   0.925  1.00  0.00     0.051 C 
HETATM   27  C21 UNL     1       1.472  -1.952   0.523  1.00  0.00     0.016 C 
HETATM   28  C22 UNL     1      -2.868  -1.069  -0.981  1.00  0.00     0.156 C 
HETATM   29  C23 UNL     1      -3.410  -2.118  -1.940  1.00  0.00     0.042 C 
HETATM   30  O4  UNL     1      -3.376   0.163  -1.496  1.00  0.00    -0.370 OA
HETATM   31  H12 UNL     1       0.151   3.660  -0.762  1.00  0.00     0.182 HD
HETATM   32  H20 UNL     1      -1.005  -1.862   0.594  1.00  0.00     0.170 HD
HETATM   33  H21 UNL     1      -0.299  -5.404   1.582  1.00  0.00     0.188 HD
ENDROOT
BRANCH   1  34
HETATM   34  O1  UNL     1       6.507   0.201  -0.800  1.00  0.00    -0.356 OA
HETATM   35  C1  UNL     1       7.493  -0.591  -1.402  1.00  0.00     0.210 C 
ENDBRANCH   1  34
BRANCH   7  36
HETATM   36  C9  UNL     1       2.926   1.929   2.241  1.00  0.00     0.261 C 
HETATM   37  F1  UNL     1       3.232   1.041   3.261  1.00  0.00    -0.251 F 
ENDBRANCH   7  36
TORSDOF 2
