REMARK  4 active torsions:
REMARK  status: ('A' for Active; 'I' for Inactive)
REMARK    1  A    between atoms: C4_5  and  N1_6 
REMARK    2  A    between atoms: N1_6  and  C5_7 
REMARK    3  A    between atoms: C9_11  and  O1_12 
REMARK    4  A    between atoms: O1_12  and  C10_13 
ROOT
HETATM    1  C5  UNL     1       1.436   1.182   0.689  1.00  0.00     0.029 A 
HETATM    2  C6  UNL     1       0.419   0.983  -0.237  1.00  0.00    -0.021 A 
HETATM    3  C7  UNL     1      -0.034   0.526  -1.516  1.00  0.00     0.013 C 
HETATM    4  C8  UNL     1      -1.182  -0.100  -1.100  1.00  0.00     0.037 C 
HETATM    5  C9  UNL     1      -1.632  -0.067   0.329  1.00  0.00     0.066 C 
HETATM    6  C14 UNL     1      -1.092   0.586   1.389  1.00  0.00     0.025 C 
HETATM    7  C15 UNL     1       0.100   1.454   1.133  1.00  0.00     0.096 A 
ENDROOT
BRANCH   1   8
HETATM    8  N1  UNL     1       2.750   1.150   1.197  1.00  0.00    -0.358 N 
HETATM    9  H3  UNL     1       3.097   1.371   2.125  1.00  0.00     0.166 HD
BRANCH   8  10
HETATM   10  C4  UNL     1       3.950   0.794   0.531  1.00  0.00     0.034 A 
HETATM   11  C3  UNL     1       4.303  -0.543   0.525  1.00  0.00     0.032 A 
HETATM   12  C2  UNL     1       5.477  -0.891  -0.117  1.00  0.00     0.046 A 
HETATM   13  C1  UNL     1       6.274   0.063  -0.733  1.00  0.00     0.138 A 
HETATM   14  F1  UNL     1       7.426  -0.256  -1.366  1.00  0.00    -0.204 F 
HETATM   15  C17 UNL     1       5.884   1.402  -0.706  1.00  0.00     0.074 A 
HETATM   16  C16 UNL     1       4.723   1.767  -0.074  1.00  0.00     0.056 A 
HETATM   17 CL1  UNL     1       6.821   2.676  -1.450  1.00  0.00    -0.081 Cl
ENDBRANCH   8  10
ENDBRANCH   1   8
BRANCH   5  18
HETATM   18  O1  UNL     1      -2.787  -0.816   0.656  1.00  0.00    -0.344 OA
BRANCH  18  19
HETATM   19  C10 UNL     1      -3.597  -1.376  -0.355  1.00  0.00     0.154 C 
HETATM   20  C11 UNL     1      -4.737  -2.072   0.405  1.00  0.00     0.061 C 
HETATM   21  C12 UNL     1      -5.615  -0.834   0.640  1.00  0.00     0.170 C 
HETATM   22  O2  UNL     1      -5.612  -0.186  -0.592  1.00  0.00    -0.389 OA
HETATM   23  C13 UNL     1      -4.369  -0.378  -1.154  1.00  0.00     0.200 C 
ENDBRANCH  18  19
ENDBRANCH   5  18
TORSDOF 4
