REMARK  7 active torsions:
REMARK  status: ('A' for Active; 'I' for Inactive)
REMARK    1  A    between atoms: O1_2  and  C2_3 
REMARK    2  A    between atoms: C5_6  and  C6_7 
REMARK    3  A    between atoms: C7_8  and  C8_9 
REMARK       I    between atoms: C8_9  and  N1_11 
REMARK    4  A    between atoms: N1_11  and  C9_12 
REMARK    5  A    between atoms: C9_12  and  C10_13 
REMARK    6  A    between atoms: C11_14  and  C12_15 
REMARK    7  A    between atoms: C14_19  and  N4_20 
ROOT
HETATM    1  C10 UNL     1      -0.807   0.119  -0.116  1.00  0.00    -0.005 C 
HETATM    2  C11 UNL     1      -1.749  -0.210   0.714  1.00  0.00     0.031 C 
ENDROOT
BRANCH   1   3
HETATM    3  C9  UNL     1       0.572   0.170  -0.564  1.00  0.00     0.150 C 
BRANCH   3   4
HETATM    4  N1  UNL     1       1.411  -0.510   0.432  1.00  0.00    -0.354 N 
HETATM    5  C8  UNL     1       2.829  -0.567   0.162  1.00  0.00     0.241 C 
HETATM    6  O2  UNL     1       2.764   0.056  -0.935  1.00  0.00    -0.269 OA
HETATM    7  H8  UNL     1       1.002  -0.946   1.317  1.00  0.00     0.163 HD
BRANCH   5   8
HETATM    8  C7  UNL     1       3.707  -1.232   1.120  1.00  0.00     0.075 C 
HETATM    9  C6  UNL     1       4.979  -1.491   1.250  1.00  0.00     0.017 C 
BRANCH   9  10
HETATM   10  C5  UNL     1       6.159  -1.220   0.457  1.00  0.00    -0.036 A 
HETATM   11  C4  UNL     1       6.235  -0.565  -0.734  1.00  0.00     0.014 A 
HETATM   12  C3  UNL     1       7.355  -0.308  -1.485  1.00  0.00     0.037 A 
HETATM   13  C2  UNL     1       8.551  -0.767  -0.978  1.00  0.00     0.068 A 
HETATM   14  C22 UNL     1       8.578  -1.442   0.220  1.00  0.00     0.037 A 
HETATM   15  C21 UNL     1       7.395  -1.642   0.887  1.00  0.00     0.014 A 
BRANCH  13  16
HETATM   16  O1  UNL     1       9.747  -0.567  -1.650  1.00  0.00    -0.356 OA
HETATM   17  C1  UNL     1       9.744   0.133  -2.899  1.00  0.00     0.210 C 
ENDBRANCH  13  16
ENDBRANCH   9  10
ENDBRANCH   5   8
ENDBRANCH   3   4
ENDBRANCH   1   3
BRANCH   2  18
HETATM   18  C12 UNL     1      -3.152  -0.192   1.046  1.00  0.00     0.083 A 
HETATM   19  N2  UNL     1      -3.411  -0.812   2.212  1.00  0.00    -0.240 NA
HETATM   20  C13 UNL     1      -4.657  -0.898   2.688  1.00  0.00     0.236 A 
HETATM   21  N3  UNL     1      -5.607  -0.335   1.935  1.00  0.00    -0.223 NA
HETATM   22  C14 UNL     1      -5.391   0.288   0.774  1.00  0.00     0.151 A 
HETATM   23  C20 UNL     1      -4.123   0.387   0.270  1.00  0.00     0.108 A 
HETATM   24 CL1  UNL     1      -3.753   1.172  -1.221  1.00  0.00    -0.078 Cl
BRANCH  22  25
HETATM   25  N4  UNL     1      -6.459   0.879   0.003  1.00  0.00    -0.360 N 
HETATM   26  C15 UNL     1      -6.634   2.284  -0.401  1.00  0.00     0.154 C 
HETATM   27  C16 UNL     1      -7.892   2.727   0.266  1.00  0.00     0.030 C 
HETATM   28  C17 UNL     1      -8.837   1.861   0.606  1.00  0.00     0.093 C 
HETATM   29  F1  UNL     1      -9.983   2.281   1.216  1.00  0.00    -0.211 F 
HETATM   30  C18 UNL     1      -8.751   0.402   0.370  1.00  0.00     0.089 C 
HETATM   31  C19 UNL     1      -7.555   0.029  -0.480  1.00  0.00     0.131 C 
ENDBRANCH  22  25
ENDBRANCH   2  18
TORSDOF 7
