REMARK  2 active torsions:
REMARK  status: ('A' for Active; 'I' for Inactive)
REMARK    1  A    between atoms: C3_3  and  N1_4 
REMARK    2  A    between atoms: N1_4  and  C4_5 
ROOT
HETATM    1  C4  UNL     1      -1.276   0.021   0.176  1.00  0.00     0.160 A 
HETATM    2  N2  UNL     1      -2.067  -0.805   0.850  1.00  0.00    -0.222 NA
HETATM    3  C5  UNL     1      -1.518  -1.828   1.567  1.00  0.00     0.238 A 
HETATM    4  N3  UNL     1      -0.189  -1.991   1.587  1.00  0.00    -0.215 NA
HETATM    5  C6  UNL     1       0.572  -1.135   0.893  1.00  0.00     0.202 A 
HETATM    6  C7  UNL     1       0.097  -0.082   0.147  1.00  0.00     0.129 A 
HETATM    7  N4  UNL     1       0.716   0.921  -0.646  1.00  0.00    -0.379 N 
HETATM    8  C8  UNL     1       2.075   1.362  -0.449  1.00  0.00     0.161 C 
HETATM    9  C9  UNL     1       3.037   0.277  -0.225  1.00  0.00    -0.007 A 
HETATM   10  C10 UNL     1       4.277   0.577  -0.801  1.00  0.00     0.011 A 
HETATM   11  C11 UNL     1       5.398  -0.227  -0.775  1.00  0.00     0.001 A 
HETATM   12  C12 UNL     1       5.298  -1.440  -0.124  1.00  0.00     0.003 A 
HETATM   13  C13 UNL     1       4.095  -1.809   0.474  1.00  0.00     0.038 A 
HETATM   14  C14 UNL     1       3.008  -0.952   0.409  1.00  0.00     0.086 A 
HETATM   15  O1  UNL     1       1.914  -1.497   1.060  1.00  0.00    -0.289 OA
HETATM   16  H3  UNL     1       0.040   1.261  -1.363  1.00  0.00     0.160 HD
ENDROOT
BRANCH   1  17
HETATM   17  N1  UNL     1      -1.963   1.039  -0.527  1.00  0.00    -0.338 N 
HETATM   18  H1  UNL     1      -1.872   1.867  -1.145  1.00  0.00     0.167 HD
BRANCH  17  19
HETATM   19  C3  UNL     1      -3.384   1.137  -0.494  1.00  0.00     0.045 C 
HETATM   20  C2  UNL     1      -4.000   1.872   0.362  1.00  0.00     0.015 C 
HETATM   21  C1  UNL     1      -5.242   1.716   0.624  1.00  0.00    -0.011 C 
HETATM   22  C17 UNL     1      -5.953   0.739   0.119  1.00  0.00     0.013 C 
HETATM   23  C16 UNL     1      -5.456   0.192  -1.135  1.00  0.00     0.003 C 
HETATM   24  C15 UNL     1      -4.179   0.374  -1.469  1.00  0.00     0.030 C 
ENDBRANCH  17  19
ENDBRANCH   1  17
TORSDOF 2
