REMARK  8 active torsions:
REMARK  status: ('A' for Active; 'I' for Inactive)
REMARK    1  A    between atoms: N1_2  and  C3_4 
REMARK    2  A    between atoms: C3_4  and  C4_5 
REMARK    3  A    between atoms: C5_6  and  C6_7 
REMARK       I    between atoms: C6_7  and  N2_9 
REMARK    4  A    between atoms: N2_9  and  C7_10 
REMARK    5  A    between atoms: C10_13  and  N3_14 
REMARK    6  A    between atoms: N3_14  and  C11_15 
REMARK    7  A    between atoms: C18_26  and  O2_27 
REMARK    8  A    between atoms: O2_27  and  C19_28 
ROOT
HETATM    1  C7  UNL     1       0.105  -0.552   0.762  1.00  0.00     0.074 A 
HETATM    2  C8  UNL     1      -0.470  -0.638  -0.415  1.00  0.00     0.047 A 
HETATM    3  C9  UNL     1      -1.763  -0.435   0.217  1.00  0.00     0.051 A 
HETATM    4  C10 UNL     1      -3.068  -0.211   0.481  1.00  0.00     0.141 C 
HETATM    5  N4  UNL     1      -3.728  -0.383   1.759  1.00  0.00    -0.226 NA
HETATM    6  C17 UNL     1      -2.982  -0.814   2.757  1.00  0.00     0.208 C 
HETATM    7  N5  UNL     1      -1.570  -1.103   2.558  1.00  0.00    -0.344 N 
HETATM    8  C18 UNL     1      -1.091  -0.242   1.536  1.00  0.00     0.212 A 
HETATM    9  H18 UNL     1      -1.272  -1.872   3.222  1.00  0.00     0.164 HD
ENDROOT
BRANCH   1  10
HETATM   10  N2  UNL     1       1.502  -0.663   1.047  1.00  0.00    -0.323 N 
HETATM   11  C6  UNL     1       2.487  -0.877   0.058  1.00  0.00     0.245 C 
HETATM   12  O1  UNL     1       2.130  -0.975  -1.142  1.00  0.00    -0.268 OA
HETATM   13  H11 UNL     1       1.845  -0.586   2.028  1.00  0.00     0.169 HD
BRANCH  11  14
HETATM   14  C5  UNL     1       3.888  -0.987   0.360  1.00  0.00     0.072 C 
HETATM   15  C4  UNL     1       4.805  -1.180  -0.565  1.00  0.00     0.008 C 
BRANCH  15  16
HETATM   16  C3  UNL     1       6.245  -1.295  -0.269  1.00  0.00     0.299 C 
BRANCH  16  17
HETATM   17  N1  UNL     1       7.034  -0.284  -0.924  1.00  0.00     0.083 N 
HETATM   18  C1  UNL     1       7.038  -0.500  -2.337  1.00  0.00     0.309 C 
HETATM   19  C2  UNL     1       6.608   1.055  -0.590  1.00  0.00     0.309 C 
ENDBRANCH  16  17
ENDBRANCH  15  16
ENDBRANCH  11  14
ENDBRANCH   1  10
BRANCH   8  20
HETATM   20  O2  UNL     1      -1.137   1.099   1.979  1.00  0.00    -0.343 OA
BRANCH  20  21
HETATM   21  C19 UNL     1      -1.131   2.042   1.006  1.00  0.00     0.151 C 
HETATM   22  C20 UNL     1       0.054   2.975   1.294  1.00  0.00     0.060 C 
HETATM   23  C21 UNL     1      -0.572   4.024   2.145  1.00  0.00     0.170 C 
HETATM   24  O3  UNL     1      -1.938   3.938   2.084  1.00  0.00    -0.389 OA
HETATM   25  C22 UNL     1      -2.272   3.048   1.076  1.00  0.00     0.199 C 
ENDBRANCH  20  21
ENDBRANCH   8  20
BRANCH   4  26
HETATM   26  N3  UNL     1      -3.996   0.036  -0.606  1.00  0.00    -0.340 N 
HETATM   27  H13 UNL     1      -3.975   0.972  -1.068  1.00  0.00     0.167 HD
BRANCH  26  28
HETATM   28  C11 UNL     1      -4.889  -0.995  -0.996  1.00  0.00     0.035 A 
HETATM   29  C12 UNL     1      -4.837  -2.193  -0.303  1.00  0.00     0.032 A 
HETATM   30  C13 UNL     1      -5.745  -3.148  -0.754  1.00  0.00     0.046 A 
HETATM   31  C14 UNL     1      -6.635  -2.958  -1.795  1.00  0.00     0.138 A 
HETATM   32  F1  UNL     1      -7.468  -3.972  -2.135  1.00  0.00    -0.204 F 
HETATM   33  C15 UNL     1      -6.631  -1.747  -2.435  1.00  0.00     0.074 A 
HETATM   34 CL1  UNL     1      -7.746  -1.464  -3.765  1.00  0.00    -0.081 Cl
HETATM   35  C16 UNL     1      -5.753  -0.742  -2.042  1.00  0.00     0.056 A 
ENDBRANCH  26  28
ENDBRANCH   4  26
TORSDOF 8
