REMARK  4 active torsions:
REMARK  status: ('A' for Active; 'I' for Inactive)
REMARK    1  A    between atoms: C8_10  and  N1_11 
REMARK       I    between atoms: N1_11  and  C9_12 
REMARK    2  A    between atoms: C9_12  and  C10_14 
REMARK    3  A    between atoms: C11_15  and  C12_16 
REMARK    4  A    between atoms: C12_16  and  N2_17 
ROOT
HETATM    1  C1  UNL     1       4.765  -2.397   1.235  1.00  0.00     0.046 C 
HETATM    2  C2  UNL     1       3.661  -1.541   0.730  1.00  0.00    -0.048 C 
HETATM    3  C3  UNL     1       4.057  -0.450   0.128  1.00  0.00     0.077 C 
HETATM    4  O1  UNL     1       5.430  -0.258   0.053  1.00  0.00    -0.352 OA
HETATM    5  C4  UNL     1       5.698   1.112  -0.228  1.00  0.00     0.178 C 
HETATM    6  C5  UNL     1       4.494   1.631  -0.959  1.00  0.00     0.065 C 
HETATM    7  C6  UNL     1       3.393   0.719  -0.543  1.00  0.00     0.180 C 
HETATM    8  O2  UNL     1       2.661   0.167  -1.593  1.00  0.00    -0.373 OA
HETATM    9  C7  UNL     1       1.323   0.359  -1.334  1.00  0.00     0.225 C 
HETATM   10  C8  UNL     1       0.740  -0.599  -0.378  1.00  0.00     0.032 C 
HETATM   11  C15 UNL     1       1.213  -1.501   0.462  1.00  0.00     0.005 C 
HETATM   12  C16 UNL     1       2.351  -2.195   1.064  1.00  0.00     0.065 C 
ENDROOT
BRANCH  10  13
HETATM   13  N1  UNL     1      -0.677  -0.500  -0.402  1.00  0.00    -0.325 N 
HETATM   14  C9  UNL     1      -1.247   0.753  -0.055  1.00  0.00     0.245 C 
HETATM   15  O3  UNL     1      -0.674   1.796   0.276  1.00  0.00    -0.268 OA
HETATM   16  H11 UNL     1      -1.192  -1.363  -0.676  1.00  0.00     0.169 HD
BRANCH  14  17
HETATM   17  C10 UNL     1      -2.680   0.720  -0.122  1.00  0.00     0.072 C 
HETATM   18  C11 UNL     1      -3.727   1.490   0.064  1.00  0.00    -0.002 C 
BRANCH  18  19
HETATM   19  C12 UNL     1      -5.162   1.767   0.087  1.00  0.00     0.143 C 
BRANCH  19  20
HETATM   20  N2  UNL     1      -5.905   0.622  -0.306  1.00  0.00    -0.418 N 
HETATM   21  C13 UNL     1      -5.810   0.222  -1.665  1.00  0.00     0.142 C 
HETATM   22  C14 UNL     1      -6.068  -0.406   0.663  1.00  0.00     0.142 C 
ENDBRANCH  19  20
ENDBRANCH  18  19
ENDBRANCH  14  17
ENDBRANCH  10  13
TORSDOF 4
