REMARK  3 active torsions:
REMARK  status: ('A' for Active; 'I' for Inactive)
REMARK    1  A    between atoms: C2_2  and  C3_3 
REMARK    2  A    between atoms: C11_12  and  O1_13 
REMARK    3  A    between atoms: C14_17  and  C15_18 
ROOT
HETATM    1  C3  UNL     1       1.942  -0.713   1.403  1.00  0.00     0.069 A 
HETATM    2  C4  UNL     1       1.764  -0.017  -0.393  1.00  0.00     0.166 A 
HETATM    3  C5  UNL     1       0.818   0.457  -1.190  1.00  0.00     0.061 A 
HETATM    4  C6  UNL     1       0.286   1.726  -1.282  1.00  0.00     0.018 A 
HETATM    5  C7  UNL     1       1.083   2.347  -0.280  1.00  0.00    -0.018 A 
HETATM    6  C8  UNL     1       1.657   1.039  -0.146  1.00  0.00     0.119 A 
HETATM    7  C9  UNL     1       2.412  -0.400   0.122  1.00  0.00     0.183 A 
HETATM    8  N1  UNL     1       1.707  -1.141  -1.050  1.00  0.00    -0.013 N 
HETATM    9  C10 UNL     1       0.732  -0.752  -1.935  1.00  0.00     0.150 A 
HETATM   10  C11 UNL     1      -0.061  -0.864  -2.895  1.00  0.00     0.165 C 
HETATM   11  C12 UNL     1       1.717  -2.646  -1.213  1.00  0.00     0.272 C 
HETATM   12  C13 UNL     1       0.518  -3.135  -0.281  1.00  0.00     0.206 C 
HETATM   13  O2  UNL     1      -0.597  -2.248  -0.472  1.00  0.00    -0.331 OA
HETATM   14  C14 UNL     1      -1.190  -1.398   0.535  1.00  0.00     0.198 C 
HETATM   15  N2  UNL     1      -1.328  -0.030   1.004  1.00  0.00    -0.333 N 
HETATM   16  C16 UNL     1      -1.953   1.181   0.616  1.00  0.00     0.044 A 
HETATM   17  C17 UNL     1      -3.306   0.786   0.738  1.00  0.00     0.030 A 
HETATM   18  C18 UNL     1      -4.399   1.638   0.446  1.00  0.00     0.002 A 
HETATM   19  C19 UNL     1      -4.301   3.009  -0.011  1.00  0.00     0.001 A 
HETATM   20  C20 UNL     1      -2.933   3.182  -0.057  1.00  0.00     0.013 A 
HETATM   21  C21 UNL     1      -1.755   2.455   0.193  1.00  0.00    -0.010 A 
HETATM   22  C22 UNL     1      -0.860   3.532  -0.199  1.00  0.00     0.010 C 
HETATM   23  C23 UNL     1       0.480   3.592  -0.456  1.00  0.00    -0.020 C 
HETATM   24  H14 UNL     1      -0.931   0.249   1.900  1.00  0.00     0.168 HD
ENDROOT
BRANCH  10  25
HETATM   25  O1  UNL     1       0.013  -2.116  -3.488  1.00  0.00    -0.371 OA
HETATM   26  H9  UNL     1       0.565  -2.259  -4.339  1.00  0.00     0.216 HD
ENDBRANCH  10  25
BRANCH   1  27
HETATM   27  C2  UNL     1       2.555  -1.230   2.439  1.00  0.00    -0.005 C 
HETATM   28  C1  UNL     1       4.005  -1.512   2.299  1.00  0.00     0.011 C 
ENDBRANCH   1  27
BRANCH  14  29
HETATM   29  C15 UNL     1      -1.906  -2.097   1.417  1.00  0.00     0.276 C 
HETATM   30  O3  UNL     1      -2.864  -2.819   1.820  1.00  0.00    -0.279 OA
ENDBRANCH  14  29
TORSDOF 3
