REMARK  6 active torsions:
REMARK  status: ('A' for Active; 'I' for Inactive)
REMARK    1  A    between atoms: N1_2  and  C3_4 
REMARK    2  A    between atoms: C3_4  and  C4_5 
REMARK    3  A    between atoms: C5_6  and  C6_7 
REMARK       I    between atoms: C6_7  and  N2_9 
REMARK    4  A    between atoms: N2_9  and  C7_10 
REMARK    5  A    between atoms: C17_23  and  O2_24 
REMARK    6  A    between atoms: O2_24  and  C18_25 
ROOT
HETATM    1  C7  UNL     1      -0.076  -1.042   0.842  1.00  0.00     0.043 A 
HETATM    2  C8  UNL     1      -0.155  -2.328   1.111  1.00  0.00     0.040 A 
HETATM    3  C9  UNL     1      -1.545  -2.776   0.766  1.00  0.00     0.005 A 
HETATM    4  C10 UNL     1      -2.587  -3.654   0.614  1.00  0.00     0.134 C 
HETATM    5  N3  UNL     1      -2.879  -4.082  -0.799  1.00  0.00    -0.247 NA
HETATM    6  C11 UNL     1      -1.975  -3.414  -1.540  1.00  0.00     0.093 C 
HETATM    7  C12 UNL     1      -2.497  -2.003  -1.250  1.00  0.00     0.067 C 
HETATM    8  C13 UNL     1      -2.353  -1.641   0.255  1.00  0.00     0.061 A 
HETATM    9  C14 UNL     1      -3.582  -1.243   0.911  1.00  0.00     0.210 C 
HETATM   10  F1  UNL     1      -4.643  -1.610   0.051  1.00  0.00    -0.244 F 
HETATM   11  C15 UNL     1      -3.966  -1.744   2.281  1.00  0.00     0.028 C 
HETATM   12  C16 UNL     1      -4.159  -3.090   2.506  1.00  0.00     0.088 C 
HETATM   13  N4  UNL     1      -3.560  -4.135   1.630  1.00  0.00    -0.351 N 
HETATM   14  C17 UNL     1      -1.370  -0.487   0.292  1.00  0.00     0.188 A 
HETATM   15  H19 UNL     1      -3.619  -5.154   1.486  1.00  0.00     0.166 HD
ENDROOT
BRANCH   1  16
HETATM   16  N2  UNL     1       1.160  -0.396   1.094  1.00  0.00    -0.325 N 
HETATM   17  C6  UNL     1       1.952   0.258   0.101  1.00  0.00     0.245 C 
HETATM   18  O1  UNL     1       1.395   0.176  -1.023  1.00  0.00    -0.268 OA
HETATM   19  H11 UNL     1       1.504  -0.410   2.101  1.00  0.00     0.169 HD
BRANCH  17  20
HETATM   20  C5  UNL     1       3.215   0.904   0.428  1.00  0.00     0.072 C 
HETATM   21  C4  UNL     1       3.966   1.508  -0.444  1.00  0.00     0.008 C 
BRANCH  21  22
HETATM   22  C3  UNL     1       3.827   1.726  -1.879  1.00  0.00     0.299 C 
BRANCH  22  23
HETATM   23  N1  UNL     1       4.901   1.162  -2.670  1.00  0.00     0.083 N 
HETATM   24  C1  UNL     1       6.169   1.814  -2.483  1.00  0.00     0.309 C 
HETATM   25  C2  UNL     1       4.995  -0.267  -2.603  1.00  0.00     0.309 C 
ENDBRANCH  22  23
ENDBRANCH  21  22
ENDBRANCH  17  20
ENDBRANCH   1  16
BRANCH  14  26
HETATM   26  O2  UNL     1      -1.689   0.546   1.133  1.00  0.00    -0.371 OA
BRANCH  26  27
HETATM   27  C18 UNL     1      -1.575   1.794   0.629  1.00  0.00     0.148 C 
HETATM   28  C19 UNL     1      -2.859   2.565   0.777  1.00  0.00     0.060 C 
HETATM   29  C20 UNL     1      -2.395   3.952   1.240  1.00  0.00     0.170 C 
HETATM   30  O3  UNL     1      -1.057   3.950   0.869  1.00  0.00    -0.389 OA
HETATM   31  C21 UNL     1      -0.629   2.703   1.387  1.00  0.00     0.199 C 
ENDBRANCH  26  27
ENDBRANCH  14  26
TORSDOF 6
