REMARK  7 active torsions:
REMARK  status: ('A' for Active; 'I' for Inactive)
REMARK    1  A    between atoms: N1_2  and  C3_4 
REMARK    2  A    between atoms: C3_4  and  C4_5 
REMARK    3  A    between atoms: C5_6  and  N2_7 
REMARK    4  A    between atoms: N2_7  and  O1_8 
REMARK    5  A    between atoms: N2_7  and  C6_9 
REMARK    6  A    between atoms: C10_15  and  C11_16 
REMARK    7  A    between atoms: C14_21  and  O3_22 
ROOT
HETATM    1  C6  UNL     1      -0.505  -0.025   0.509  1.00  0.00     0.183 C 
HETATM    2  N3  UNL     1      -0.479  -0.288   1.775  1.00  0.00    -0.265 NA
HETATM    3  C7  UNL     1      -1.364  -0.600   2.847  1.00  0.00     0.180 C 
HETATM    4  C8  UNL     1      -2.778  -0.776   2.489  1.00  0.00     0.015 C 
HETATM    5  C9  UNL     1      -3.752  -0.292   1.709  1.00  0.00     0.020 C 
HETATM    6 CL1  UNL     1      -5.323  -1.059   1.817  1.00  0.00    -0.088 Cl
HETATM    7  C10 UNL     1      -3.757   0.821   0.722  1.00  0.00     0.090 C 
HETATM    8  C12 UNL     1      -2.912   0.401  -0.401  1.00  0.00    -0.026 C 
HETATM    9  C13 UNL     1      -1.619   0.068  -0.465  1.00  0.00     0.123 C 
HETATM   10  O2  UNL     1      -1.310  -0.250  -1.758  1.00  0.00    -0.316 OA
HETATM   11  C14 UNL     1      -2.482  -0.646  -2.459  1.00  0.00     0.267 C 
HETATM   12  C15 UNL     1      -3.487   0.288  -1.765  1.00  0.00     0.099 C 
ENDROOT
BRANCH   1  13
HETATM   13  N2  UNL     1       0.765   0.234  -0.134  1.00  0.00    -0.215 N 
BRANCH  13  14
HETATM   14  C5  UNL     1       1.957  -0.475   0.127  1.00  0.00     0.123 C 
HETATM   15  C4  UNL     1       3.131  -0.043   0.555  1.00  0.00     0.023 C 
BRANCH  15  16
HETATM   16  C3  UNL     1       4.361  -0.838   0.816  1.00  0.00     0.300 C 
BRANCH  16  17
HETATM   17  N1  UNL     1       5.467  -0.421   0.009  1.00  0.00     0.083 N 
HETATM   18  C1  UNL     1       5.344  -0.688  -1.392  1.00  0.00     0.309 C 
HETATM   19  C2  UNL     1       5.812   0.973   0.191  1.00  0.00     0.309 C 
ENDBRANCH  16  17
ENDBRANCH  15  16
ENDBRANCH  13  14
BRANCH  13  20
HETATM   20  O1  UNL     1       0.801   1.247  -1.062  1.00  0.00    -0.281 OA
HETATM   21  H11 UNL     1       0.240   1.973  -0.700  1.00  0.00     0.245 HD
ENDBRANCH  13  20
ENDBRANCH   1  13
BRANCH   7  22
HETATM   22  C11 UNL     1      -5.108   1.275   0.367  1.00  0.00     0.237 C 
HETATM   23  F1  UNL     1      -5.951   0.367  -0.189  1.00  0.00    -0.254 F 
ENDBRANCH   7  22
BRANCH  11  24
HETATM   24  O3  UNL     1      -2.427  -0.401  -3.813  1.00  0.00    -0.371 OA
HETATM   25  H19 UNL     1      -2.290  -1.242  -4.337  1.00  0.00     0.212 HD
ENDBRANCH  11  24
TORSDOF 7
