REMARK  0 active torsions:
REMARK  status: ('A' for Active; 'I' for Inactive)
ROOT
HETATM    1 BR1  UNL     1      -4.954  -4.297  -1.221  1.00  0.00    -0.051 Br
HETATM    2  C1  UNL     1      -3.726  -2.994  -0.848  1.00  0.00     0.013 A 
HETATM    3  C2  UNL     1      -2.868  -3.418   0.220  1.00  0.00     0.020 A 
HETATM    4  C3  UNL     1      -1.789  -2.626   0.783  1.00  0.00     0.013 A 
HETATM    5  C4  UNL     1      -1.657  -1.368   0.161  1.00  0.00     0.009 A 
HETATM    6  C5  UNL     1      -2.430  -0.807  -0.909  1.00  0.00     0.043 A 
HETATM    7  C6  UNL     1      -3.231  -1.821  -1.071  1.00  0.00     0.049 A 
HETATM    8  N1  UNL     1      -1.884   0.486  -1.132  1.00  0.00    -0.342 N 
HETATM    9  C7  UNL     1      -0.773   0.709  -0.192  1.00  0.00     0.144 A 
HETATM   10  N2  UNL     1      -0.559   1.913  -0.638  1.00  0.00    -0.226 NA
HETATM   11  C8  UNL     1       0.279   2.925  -0.388  1.00  0.00     0.231 C 
HETATM   12  N3  UNL     1       1.166   3.703  -0.977  1.00  0.00    -0.256 NA
HETATM   13  C9  UNL     1       1.840   4.723  -0.159  1.00  0.00     0.336 C 
HETATM   14  O1  UNL     1       3.132   4.106   0.266  1.00  0.00    -0.293 OA
HETATM   15  C10 UNL     1       2.838   2.912   0.825  1.00  0.00    -0.019 C 
HETATM   16  C11 UNL     1       2.568   1.863   1.298  1.00  0.00     0.037 A 
HETATM   17  C12 UNL     1       2.223   0.616   1.845  1.00  0.00     0.074 A 
HETATM   18  C13 UNL     1       2.182   0.484   0.517  1.00  0.00     0.032 A 
HETATM   19  C14 UNL     1       1.938  -0.310  -0.630  1.00  0.00    -0.023 C 
HETATM   20  C15 UNL     1       1.528  -1.432  -1.138  1.00  0.00    -0.001 C 
HETATM   21  C16 UNL     1       1.129  -2.134   0.096  1.00  0.00     0.298 C 
HETATM   22  N4  UNL     1       0.627  -1.075   0.968  1.00  0.00     0.103 N 
HETATM   23  C17 UNL     1      -0.577  -0.453   0.651  1.00  0.00     0.325 A 
HETATM   24  H4  UNL     1      -2.513   0.827  -1.936  1.00  0.00     0.167 HD
HETATM   25  H14 UNL     1       0.486  -1.594   1.887  1.00  0.00     0.317 HD
ENDROOT
TORSDOF 0
