REMARK  6 active torsions:
REMARK  status: ('A' for Active; 'I' for Inactive)
REMARK    1  A    between atoms: C3_3  and  P1_4 
REMARK    2  A    between atoms: P1_4  and  C4_5 
REMARK    3  A    between atoms: C4_5  and  C5_6 
REMARK    4  A    between atoms: C5_6  and  C6_7 
REMARK    5  A    between atoms: C6_7  and  N1_8 
REMARK    6  A    between atoms: N1_8  and  C7_9 
ROOT
HETATM    1  C1  UNL     1       5.949   2.731   0.118  1.00  0.00     0.013 C 
HETATM    2  C2  UNL     1       5.645   2.120  -0.836  1.00  0.00    -0.106 C 
HETATM    3  C3  UNL     1       5.292   1.407  -1.991  1.00  0.00     0.176 C 
ENDROOT
BRANCH   3   4
HETATM    4  P1  UNL     1       5.029  -0.244  -1.762  1.00  0.00    -0.113 P 
BRANCH   4   5
HETATM    5  C4  UNL     1       5.239  -0.902  -0.024  1.00  0.00     0.058 C 
BRANCH   5   6
HETATM    6  C5  UNL     1       3.895  -1.005   0.576  1.00  0.00    -0.006 C 
BRANCH   6   7
HETATM    7  C6  UNL     1       2.622  -0.851   0.475  1.00  0.00     0.086 C 
BRANCH   7   8
HETATM    8  N1  UNL     1       1.241  -0.744   0.523  1.00  0.00    -0.349 N 
HETATM    9  H7  UNL     1       1.510  -0.368   1.437  1.00  0.00     0.167 HD
BRANCH   8  10
HETATM   10  C7  UNL     1       0.322  -1.116  -0.467  1.00  0.00     0.159 A 
HETATM   11  N2  UNL     1       0.775  -1.642  -1.593  1.00  0.00    -0.222 NA
HETATM   12  C8  UNL     1      -0.070  -2.022  -2.597  1.00  0.00     0.238 A 
HETATM   13  N3  UNL     1      -1.372  -1.829  -2.371  1.00  0.00    -0.215 NA
HETATM   14  C9  UNL     1      -1.870  -1.296  -1.238  1.00  0.00     0.202 A 
HETATM   15  C10 UNL     1      -0.995  -0.920  -0.236  1.00  0.00     0.129 A 
HETATM   16  O1  UNL     1      -3.251  -1.167  -1.171  1.00  0.00    -0.289 OA
HETATM   17  N4  UNL     1      -1.177  -0.350   1.034  1.00  0.00    -0.379 N 
HETATM   18  C11 UNL     1      -2.371   0.232   1.602  1.00  0.00     0.161 C 
HETATM   19  H9  UNL     1      -0.422  -0.283   1.745  1.00  0.00     0.160 HD
HETATM   20  C12 UNL     1      -3.513   0.347   0.705  1.00  0.00    -0.007 A 
HETATM   21  C13 UNL     1      -4.354   1.311   1.280  1.00  0.00     0.011 A 
HETATM   22  C17 UNL     1      -3.965  -0.200  -0.477  1.00  0.00     0.086 A 
HETATM   23  C14 UNL     1      -5.550   1.706   0.728  1.00  0.00     0.001 A 
HETATM   24  C15 UNL     1      -5.950   1.122  -0.460  1.00  0.00     0.003 A 
HETATM   25  C16 UNL     1      -5.163   0.166  -1.073  1.00  0.00     0.038 A 
ENDBRANCH   8  10
ENDBRANCH   7   8
ENDBRANCH   6   7
ENDBRANCH   5   6
ENDBRANCH   4   5
ENDBRANCH   3   4
TORSDOF 6
