REMARK  6 active torsions:
REMARK  status: ('A' for Active; 'I' for Inactive)
REMARK    1  A    between atoms: C2_2  and  C3_3 
REMARK    2  A    between atoms: C4_4  and  C5_5 
REMARK    3  A    between atoms: C10_10  and  N1_11 
REMARK    4  A    between atoms: N1_11  and  C11_12 
REMARK    5  A    between atoms: C13_14  and  N2_15 
REMARK    6  A    between atoms: C15_17  and  O1_18 
ROOT
HETATM    1  C5  UNL     1       5.346  -0.052  -1.424  1.00  0.00     0.009 C 
HETATM    2  C6  UNL     1       4.338  -0.718  -0.905  1.00  0.00    -0.041 C 
HETATM    3  C7  UNL     1       3.213   0.074  -0.453  1.00  0.00     0.010 C 
HETATM    4  C8  UNL     1       2.027  -0.108   0.107  1.00  0.00     0.015 C 
HETATM    5  C9  UNL     1       1.269  -1.288   0.552  1.00  0.00     0.006 A 
HETATM    6  C10 UNL     1      -0.027  -0.887   0.527  1.00  0.00     0.041 A 
HETATM    7  C19 UNL     1      -0.897  -1.855   0.953  1.00  0.00     0.030 A 
HETATM    8  C20 UNL     1      -0.491  -3.102   1.361  1.00  0.00     0.003 A 
HETATM    9  C21 UNL     1       0.835  -3.477   1.372  1.00  0.00     0.018 A 
HETATM   10  C22 UNL     1       1.748  -2.539   0.952  1.00  0.00     0.044 A 
HETATM   11  C23 UNL     1       3.079  -3.182   1.041  1.00  0.00     0.252 C 
HETATM   12  O3  UNL     1       3.084  -4.128   1.863  1.00  0.00    -0.268 OA
HETATM   13  N3  UNL     1       4.287  -2.848   0.323  1.00  0.00    -0.353 N 
HETATM   14  C24 UNL     1       4.602  -2.154  -0.905  1.00  0.00     0.161 C 
HETATM   15  H29 UNL     1       5.087  -3.248   0.905  1.00  0.00     0.163 HD
ENDROOT
BRANCH   6  16
HETATM   16  N1  UNL     1      -0.524   0.339   0.065  1.00  0.00    -0.363 N 
HETATM   17  H9  UNL     1      -0.086   1.162  -0.377  1.00  0.00     0.162 HD
BRANCH  16  18
HETATM   18  C11 UNL     1      -1.929   0.688   0.114  1.00  0.00     0.223 C 
HETATM   19  C12 UNL     1      -2.390   0.897   1.528  1.00  0.00     0.091 C 
HETATM   20  C13 UNL     1      -3.886   1.131   1.551  1.00  0.00     0.255 C 
HETATM   21  C15 UNL     1      -4.546   0.140   0.664  1.00  0.00     0.182 C 
HETATM   22  C17 UNL     1      -3.945   0.062  -0.715  1.00  0.00     0.151 C 
HETATM   23  C18 UNL     1      -4.110   1.239  -1.591  1.00  0.00     0.042 C 
HETATM   24  O2  UNL     1      -2.627  -0.326  -0.555  1.00  0.00    -0.359 OA
BRANCH  20  25
HETATM   25  N2  UNL     1      -4.202   2.508   1.295  1.00  0.00     0.086 N 
HETATM   26  C14 UNL     1      -5.641   2.752   1.320  1.00  0.00     0.307 C 
HETATM   27  H14 UNL     1      -3.821   3.067   2.091  1.00  0.00     0.316 HD
ENDBRANCH  20  25
BRANCH  21  28
HETATM   28  O1  UNL     1      -5.901   0.064   0.723  1.00  0.00    -0.386 OA
HETATM   29  C16 UNL     1      -6.444  -1.070   1.248  1.00  0.00     0.202 C 
ENDBRANCH  21  28
ENDBRANCH  16  18
ENDBRANCH   6  16
BRANCH   1  30
HETATM   30  C4  UNL     1       5.866   1.252  -1.771  1.00  0.00     0.001 C 
HETATM   31  C3  UNL     1       6.862   1.908  -2.284  1.00  0.00    -0.001 C 
BRANCH  31  32
HETATM   32  C2  UNL     1       6.830   3.348  -2.389  1.00  0.00    -0.010 C 
HETATM   33  C1  UNL     1       7.971   3.705  -2.943  1.00  0.00     0.011 C 
ENDBRANCH  31  32
ENDBRANCH   1  30
TORSDOF 6
