REMARK  2 active torsions:
REMARK  status: ('A' for Active; 'I' for Inactive)
REMARK    1  A    between atoms: N1_2  and  C2_3 
REMARK    2  A    between atoms: C7_9  and  O2_10 
ROOT
HETATM    1  C2  UNL     1      -2.570  -0.923  -0.739  1.00  0.00     0.257 C 
HETATM    2  C3  UNL     1      -1.186  -1.584  -0.805  1.00  0.00     0.092 C 
HETATM    3  C4  UNL     1      -0.761  -1.790   0.618  1.00  0.00     0.228 C 
HETATM    4  O1  UNL     1      -1.180  -0.791   1.466  1.00  0.00    -0.334 OA
HETATM    5  C5  UNL     1      -1.352   0.465   0.974  1.00  0.00     0.168 C 
HETATM    6  C6  UNL     1      -1.775   1.347   2.135  1.00  0.00     0.074 C 
HETATM    7  C7  UNL     1      -2.471   0.417  -0.024  1.00  0.00     0.209 C 
HETATM    8  N2  UNL     1      -0.126   1.064   0.455  1.00  0.00    -0.309 N 
HETATM    9  C9  UNL     1       1.135   0.544   0.327  1.00  0.00     0.064 A 
HETATM   10  C10 UNL     1       2.030   1.390  -0.260  1.00  0.00     0.001 A 
HETATM   11  C11 UNL     1       1.309   2.519  -0.517  1.00  0.00     0.003 A 
HETATM   12  C12 UNL     1       1.731   3.694  -1.096  1.00  0.00     0.014 A 
HETATM   13  C13 UNL     1       0.821   4.714  -1.251  1.00  0.00     0.001 A 
HETATM   14  C14 UNL     1      -0.472   4.525  -0.823  1.00  0.00     0.002 A 
HETATM   15  C15 UNL     1      -0.813   3.322  -0.255  1.00  0.00     0.030 A 
HETATM   16  C16 UNL     1       0.030   2.266  -0.069  1.00  0.00     0.049 A 
HETATM   17  C17 UNL     1       3.205   0.865  -0.437  1.00  0.00    -0.008 C 
HETATM   18  C18 UNL     1       4.241  -0.126  -0.403  1.00  0.00     0.061 C 
HETATM   19  C19 UNL     1       3.910  -1.540  -0.085  1.00  0.00    -0.083 C 
HETATM   20  C20 UNL     1       5.225  -2.308  -0.183  1.00  0.00     0.043 C 
HETATM   21  C21 UNL     1       3.004  -2.491   0.261  1.00  0.00    -0.005 C 
HETATM   22  C22 UNL     1       1.643  -2.941   0.608  1.00  0.00     0.152 C 
HETATM   23  N3  UNL     1       0.684  -1.853   0.661  1.00  0.00    -0.358 N 
HETATM   24  C23 UNL     1       1.420  -0.653   0.807  1.00  0.00     0.119 C 
ENDROOT
BRANCH   1  25
HETATM   25  N1  UNL     1      -3.435  -1.838  -0.039  1.00  0.00     0.086 N 
HETATM   26  C1  UNL     1      -3.555  -3.106  -0.700  1.00  0.00     0.307 C 
HETATM   27  H4  UNL     1      -3.111  -2.020   0.949  1.00  0.00     0.316 HD
ENDBRANCH   1  25
BRANCH   7  28
HETATM   28  O2  UNL     1      -3.678   0.522   0.704  1.00  0.00    -0.384 OA
HETATM   29  C8  UNL     1      -4.508   1.516   0.255  1.00  0.00     0.202 C 
ENDBRANCH   7  28
TORSDOF 2
