REMARK  3 active torsions:
REMARK  status: ('A' for Active; 'I' for Inactive)
REMARK    1  A    between atoms: C2_2  and  C3_3 
REMARK    2  A    between atoms: C5_5  and  N1_6 
REMARK    3  A    between atoms: C7_8  and  O1_9 
ROOT
HETATM    1  C3  UNL     1      -1.137  -0.998  -0.586  1.00  0.00     0.070 C 
HETATM    2  C4  UNL     1      -2.424  -1.126   0.306  1.00  0.00     0.073 C 
HETATM    3  C5  UNL     1      -1.896   0.216   0.929  1.00  0.00     0.261 C 
HETATM    4  C7  UNL     1      -1.489   0.489  -0.446  1.00  0.00     0.146 C 
HETATM    5  C9  UNL     1      -0.559   1.471  -0.946  1.00  0.00     0.256 C 
HETATM    6  C10 UNL     1      -0.918   2.010  -2.360  1.00  0.00     0.046 C 
HETATM    7  N2  UNL     1      -0.323   2.654  -0.191  1.00  0.00     0.094 N 
HETATM    8  C11 UNL     1       0.786   3.432  -0.667  1.00  0.00     0.298 C 
HETATM    9  C12 UNL     1       2.128   2.890  -0.379  1.00  0.00     0.007 C 
HETATM   10  C13 UNL     1       2.945   2.015   0.161  1.00  0.00    -0.063 C 
HETATM   11  C14 UNL     1       4.447   1.814   0.206  1.00  0.00     0.156 C 
HETATM   12  N3  UNL     1       4.721   0.371   0.125  1.00  0.00    -0.356 N 
HETATM   13  C15 UNL     1       3.789  -0.732   0.290  1.00  0.00     0.228 C 
HETATM   14  O2  UNL     1       4.401  -1.823   0.519  1.00  0.00    -0.273 OA
HETATM   15  C16 UNL     1       2.349  -0.271   0.142  1.00  0.00     0.131 C 
HETATM   16  C17 UNL     1       2.257   0.973   0.965  1.00  0.00     0.056 C 
HETATM   17  C18 UNL     1       1.377  -1.313   0.487  1.00  0.00     0.021 C 
HETATM   18  C19 UNL     1       1.817  -1.946   1.566  1.00  0.00     0.025 C 
HETATM   19  C20 UNL     1       1.231  -3.082   2.269  1.00  0.00    -0.001 C 
HETATM   20  C21 UNL     1       0.149  -3.466   1.616  1.00  0.00    -0.007 C 
HETATM   21  C22 UNL     1      -0.393  -2.884   0.351  1.00  0.00     0.151 C 
HETATM   22  N4  UNL     1      -0.000  -1.547   0.023  1.00  0.00    -0.367 N 
HETATM   23  H20 UNL     1      -1.159   3.252  -0.145  1.00  0.00     0.316 HD
HETATM   24  H26 UNL     1       5.713   0.210  -0.074  1.00  0.00     0.162 HD
ENDROOT
BRANCH   3  25
HETATM   25  N1  UNL     1      -1.051  -0.032   2.012  1.00  0.00     0.087 N 
HETATM   26  C6  UNL     1      -1.799  -0.746   3.059  1.00  0.00     0.307 C 
HETATM   27  H9  UNL     1      -0.769   0.844   2.495  1.00  0.00     0.316 HD
ENDBRANCH   3  25
BRANCH   4  28
HETATM   28  O1  UNL     1      -2.731   0.602  -1.152  1.00  0.00    -0.378 OA
HETATM   29  C8  UNL     1      -3.411   1.741  -1.047  1.00  0.00     0.202 C 
ENDBRANCH   4  28
BRANCH   1  30
HETATM   30  C2  UNL     1      -1.442  -1.422  -1.980  1.00  0.00     0.030 C 
HETATM   31  C1  UNL     1      -1.948  -2.811  -2.193  1.00  0.00     0.007 C 
ENDBRANCH   1  30
TORSDOF 3
