REMARK  5 active torsions:
REMARK  status: ('A' for Active; 'I' for Inactive)
REMARK    1  A    between atoms: B1_1  and  C1_2 
REMARK    2  A    between atoms: C4_6  and  N2_7 
REMARK    3  A    between atoms: N2_7  and  C5_8 
REMARK    4  A    between atoms: C10_13  and  O1_14 
REMARK    5  A    between atoms: C12_16  and  C13_17 
REMARK       I    between atoms: C13_17  and  N3_19 
ROOT
HETATM    1  C1  UNL     1      -1.326  -1.967  -2.124  1.00  0.00    -0.034 A 
HETATM    2  N1  UNL     1      -2.310  -2.169  -3.199  1.00  0.00    -0.380 N 
HETATM    3  C2  UNL     1      -3.500  -1.412  -3.076  1.00  0.00     0.089 A 
HETATM    4  C3  UNL     1      -3.732  -0.584  -2.087  1.00  0.00     0.047 A 
HETATM    5  C4  UNL     1      -2.697  -0.430  -1.039  1.00  0.00     0.050 A 
HETATM    6  C12 UNL     1      -1.593  -1.057  -1.043  1.00  0.00     0.068 A 
HETATM    7  H2  UNL     1      -2.265  -2.783  -4.034  1.00  0.00     0.164 HD
ENDROOT
BRANCH   6   8
HETATM    8  C13 UNL     1      -0.509  -1.065  -0.169  1.00  0.00     0.257 C 
HETATM    9  O2  UNL     1      -0.999  -0.222   0.615  1.00  0.00    -0.267 OA
HETATM   10  N3  UNL     1       0.558  -1.069   0.697  1.00  0.00    -0.341 N 
HETATM   11  C14 UNL     1       1.612  -2.061   0.398  1.00  0.00     0.153 C 
HETATM   12  C23 UNL     1       1.086  -0.235   1.827  1.00  0.00     0.153 C 
HETATM   13  C15 UNL     1       2.623  -1.299  -0.419  1.00  0.00    -0.011 C 
HETATM   14  C16 UNL     1       3.936  -1.114  -0.181  1.00  0.00    -0.024 C 
HETATM   15  C17 UNL     1       4.861  -0.339  -1.030  1.00  0.00     0.008 C 
HETATM   16  C18 UNL     1       6.107  -0.019  -0.255  1.00  0.00     0.009 C 
HETATM   17  C25 UNL     1       4.258   0.983  -1.472  1.00  0.00     0.009 C 
HETATM   18  C19 UNL     1       5.799   0.664   1.035  1.00  0.00     0.009 C 
HETATM   19  C20 UNL     1       4.622   1.639   0.917  1.00  0.00     0.008 C 
HETATM   20  C21 UNL     1       3.373   0.933   1.294  1.00  0.00    -0.024 C 
HETATM   21  C24 UNL     1       4.527   2.117  -0.526  1.00  0.00     0.009 C 
HETATM   22  C22 UNL     1       2.095   0.672   1.189  1.00  0.00    -0.011 C 
ENDBRANCH   6   8
BRANCH   1  23
HETATM   23  B1  UNL     1       0.012  -3.086  -2.720  1.00  0.00     0.182 B 
HETATM   24  H1  UNL     1       1.556  -3.598  -2.257  1.00  0.00    -0.029 HD
ENDBRANCH   1  23
BRANCH   5  25
HETATM   25  N2  UNL     1      -3.058   0.507  -0.047  1.00  0.00    -0.353 N 
HETATM   26  H5  UNL     1      -2.575   1.383   0.333  1.00  0.00     0.166 HD
BRANCH  25  27
HETATM   27  C5  UNL     1      -4.346   0.211   0.555  1.00  0.00     0.066 A 
HETATM   28  C6  UNL     1      -4.888  -1.047   0.379  1.00  0.00     0.032 A 
HETATM   29  C7  UNL     1      -6.166  -1.379   0.857  1.00  0.00     0.002 A 
HETATM   30  C8  UNL     1      -6.926  -0.427   1.534  1.00  0.00     0.003 A 
HETATM   31  C9  UNL     1      -6.270   0.748   1.631  1.00  0.00     0.039 A 
HETATM   32  C10 UNL     1      -5.073   1.238   1.243  1.00  0.00     0.094 A 
BRANCH  32  33
HETATM   33  O1  UNL     1      -4.397   2.412   1.327  1.00  0.00    -0.354 OA
HETATM   34  C11 UNL     1      -4.909   3.607   1.929  1.00  0.00     0.210 C 
ENDBRANCH  32  33
ENDBRANCH  25  27
ENDBRANCH   5  25
TORSDOF 5
