REMARK  5 active torsions:
REMARK  status: ('A' for Active; 'I' for Inactive)
REMARK    1  A    between atoms: C7_7  and  C8_8 
REMARK    2  A    between atoms: C10_10  and  N1_11 
REMARK    3  A    between atoms: N1_11  and  C11_12 
REMARK    4  A    between atoms: C14_15  and  N2_16 
REMARK    5  A    between atoms: C21_24  and  O1_25 
ROOT
HETATM    1  N1  UNL     1      -1.091  -0.206  -0.079  1.00  0.00    -0.371 N 
HETATM    2  H10 UNL     1      -1.568   0.245  -0.917  1.00  0.00     0.161 HD
ENDROOT
BRANCH   1   3
HETATM    3  C10 UNL     1      -1.908  -1.020   0.826  1.00  0.00     0.198 C 
HETATM    4  C9  UNL     1      -3.288  -1.086   0.284  1.00  0.00     0.017 C 
HETATM    5  C8  UNL     1      -4.231  -0.193   0.308  1.00  0.00    -0.031 C 
HETATM    6  C23 UNL     1      -3.744   1.016   1.029  1.00  0.00     0.161 C 
HETATM    7  N4  UNL     1      -2.749   0.785   2.024  1.00  0.00    -0.355 N 
HETATM    8  C22 UNL     1      -1.957  -0.402   2.190  1.00  0.00     0.244 C 
HETATM    9  H26 UNL     1      -2.640   1.618   2.670  1.00  0.00     0.162 HD
HETATM   10  O2  UNL     1      -1.576  -0.522   3.406  1.00  0.00    -0.271 OA
BRANCH   5  11
HETATM   11  C7  UNL     1      -5.591  -0.211  -0.202  1.00  0.00    -0.023 A 
HETATM   12  C2  UNL     1      -6.373  -1.204  -0.675  1.00  0.00    -0.051 A 
HETATM   13  C1  UNL     1      -5.901  -2.581  -0.580  1.00  0.00     0.049 C 
HETATM   14  C3  UNL     1      -7.625  -0.993  -1.210  1.00  0.00     0.007 A 
HETATM   15  C4  UNL     1      -8.163   0.266  -1.293  1.00  0.00     0.001 A 
HETATM   16  C5  UNL     1      -7.409   1.309  -0.824  1.00  0.00     0.001 A 
HETATM   17  C6  UNL     1      -6.183   1.059  -0.306  1.00  0.00     0.012 A 
ENDBRANCH   5  11
ENDBRANCH   1   3
BRANCH   1  18
HETATM   18  C11 UNL     1       0.285   0.023   0.083  1.00  0.00     0.062 A 
HETATM   19  C12 UNL     1       1.041  -0.503   1.104  1.00  0.00     0.034 A 
HETATM   20  C13 UNL     1       2.390  -0.282   1.277  1.00  0.00     0.031 A 
HETATM   21  C14 UNL     1       3.074   0.515   0.390  1.00  0.00     0.033 A 
HETATM   22  C20 UNL     1       2.350   1.055  -0.638  1.00  0.00     0.068 A 
HETATM   23  C21 UNL     1       0.986   0.820  -0.796  1.00  0.00     0.094 A 
BRANCH  21  24
HETATM   24  N2  UNL     1       4.465   0.795   0.495  1.00  0.00    -0.377 N 
HETATM   25  C15 UNL     1       5.289   1.608  -0.376  1.00  0.00     0.153 C 
HETATM   26  C16 UNL     1       6.402   0.763  -0.961  1.00  0.00     0.291 C 
HETATM   27  N3  UNL     1       7.281   0.301   0.108  1.00  0.00     0.087 N 
HETATM   28  C17 UNL     1       8.314  -0.510  -0.540  1.00  0.00     0.310 C 
HETATM   29  C18 UNL     1       6.506  -0.504   1.001  1.00  0.00     0.291 C 
HETATM   30  C19 UNL     1       5.334   0.308   1.516  1.00  0.00     0.153 C 
ENDBRANCH  21  24
BRANCH  23  31
HETATM   31  O1  UNL     1       0.262   1.387  -1.864  1.00  0.00    -0.358 OA
HETATM   32  H25 UNL     1       0.494   1.123  -2.811  1.00  0.00     0.217 HD
ENDBRANCH  23  31
ENDBRANCH   1  18
TORSDOF 5
