REMARK  6 active torsions:
REMARK  status: ('A' for Active; 'I' for Inactive)
REMARK    1  A    between atoms: C5_5  and  N1_6 
REMARK    2  A    between atoms: N1_6  and  C6_7 
REMARK    3  A    between atoms: C6_7  and  C7_8 
REMARK    4  A    between atoms: C11_14  and  C12_15 
REMARK       I    between atoms: C12_15  and  N3_17 
REMARK    5  A    between atoms: N3_17  and  C13_18 
REMARK    6  A    between atoms: C16_21  and  N4_22 
ROOT
HETATM    1  C7  UNL     1      -3.017   0.403   0.417  1.00  0.00    -0.010 C 
HETATM    2  C8  UNL     1      -3.486  -0.281  -0.614  1.00  0.00     0.092 C 
HETATM    3  N2  UNL     1      -3.047  -1.628  -0.731  1.00  0.00    -0.373 N 
HETATM    4  C9  UNL     1      -2.704  -2.354   0.457  1.00  0.00     0.217 C 
HETATM    5  C10 UNL     1      -3.891  -3.200   0.927  1.00  0.00     0.063 C 
HETATM    6  O1  UNL     1      -2.307  -1.612   1.526  1.00  0.00    -0.348 OA
HETATM    7  C11 UNL     1      -2.093  -0.277   1.340  1.00  0.00     0.248 C 
HETATM    8  H9  UNL     1      -2.976  -2.084  -1.672  1.00  0.00     0.161 HD
ENDROOT
BRANCH   7   9
HETATM    9  C12 UNL     1      -0.659   0.026   0.990  1.00  0.00     0.255 C 
HETATM   10  O2  UNL     1      -0.245   1.209   0.785  1.00  0.00    -0.270 OA
HETATM   11  N3  UNL     1       0.285  -1.010   0.877  1.00  0.00    -0.325 N 
HETATM   12  H15 UNL     1       0.045  -2.018   1.025  1.00  0.00     0.169 HD
BRANCH  11  13
HETATM   13  C13 UNL     1       1.659  -0.878   0.556  1.00  0.00     0.035 A 
HETATM   14  C14 UNL     1       2.027  -0.917  -0.775  1.00  0.00     0.032 A 
HETATM   15  C15 UNL     1       3.362  -0.790  -1.097  1.00  0.00     0.031 A 
HETATM   16  C16 UNL     1       4.372  -0.626  -0.175  1.00  0.00     0.030 A 
HETATM   17  C22 UNL     1       3.954  -0.594   1.130  1.00  0.00     0.031 A 
HETATM   18  C23 UNL     1       2.639  -0.714   1.520  1.00  0.00     0.032 A 
BRANCH  16  19
HETATM   19  N4  UNL     1       5.740  -0.493  -0.513  1.00  0.00    -0.378 N 
HETATM   20  C17 UNL     1       6.297  -0.432  -1.831  1.00  0.00     0.153 C 
HETATM   21  C18 UNL     1       7.189   0.779  -1.965  1.00  0.00     0.291 C 
HETATM   22  N5  UNL     1       8.159   0.877  -0.912  1.00  0.00     0.087 N 
HETATM   23  C19 UNL     1       8.187   2.178  -0.286  1.00  0.00     0.310 C 
HETATM   24  C20 UNL     1       8.099  -0.202   0.036  1.00  0.00     0.291 C 
HETATM   25  C21 UNL     1       6.709  -0.415   0.587  1.00  0.00     0.153 C 
ENDBRANCH  16  19
ENDBRANCH  11  13
ENDBRANCH   7   9
BRANCH   1  26
HETATM   26  C6  UNL     1      -3.381   1.816   0.676  1.00  0.00     0.158 C 
BRANCH  26  27
HETATM   27  N1  UNL     1      -4.306   2.344  -0.311  1.00  0.00    -0.385 N 
HETATM   28  H5  UNL     1      -4.076   3.078  -1.014  1.00  0.00     0.160 HD
BRANCH  27  29
HETATM   29  C5  UNL     1      -5.638   1.818  -0.320  1.00  0.00     0.043 A 
HETATM   30  C4  UNL     1      -6.492   1.929  -1.499  1.00  0.00     0.033 A 
HETATM   31  C3  UNL     1      -7.723   1.451  -1.533  1.00  0.00     0.031 A 
HETATM   32  C2  UNL     1      -8.292   0.775  -0.364  1.00  0.00     0.022 A 
HETATM   33  C1  UNL     1      -9.526   0.259  -0.300  1.00  0.00     0.043 C 
HETATM   34  N6  UNL     1      -7.457   0.662   0.801  1.00  0.00    -0.364 N 
HETATM   35  C24 UNL     1      -6.148   1.208   0.739  1.00  0.00     0.117 A 
HETATM   36  H32 UNL     1      -7.826   0.184   1.668  1.00  0.00     0.165 HD
ENDBRANCH  27  29
ENDBRANCH  26  27
ENDBRANCH   1  26
TORSDOF 6
