REMARK  4 active torsions:
REMARK  status: ('A' for Active; 'I' for Inactive)
REMARK    1  A    between atoms: O1_2  and  C2_3 
REMARK    2  A    between atoms: N1_8  and  C7_9 
REMARK    3  A    between atoms: C7_9  and  C8_10 
REMARK       I    between atoms: N3_22  and  C19_23 
REMARK    4  A    between atoms: C19_23  and  C20_25 
ROOT
HETATM    1  C8  UNL     1      -0.286   0.581  -0.051  1.00  0.00     0.105 C 
HETATM    2  C9  UNL     1       0.450  -0.621  -0.563  1.00  0.00     0.027 C 
HETATM    3  C10 UNL     1       1.625  -0.264  -1.403  1.00  0.00     0.006 C 
HETATM    4  C11 UNL     1       2.331  -1.384  -2.077  1.00  0.00    -0.017 C 
HETATM    5  C12 UNL     1       3.434  -0.712  -2.923  1.00  0.00     0.010 C 
HETATM    6  C13 UNL     1       2.891  -2.488  -1.273  1.00  0.00     0.034 C 
HETATM    7  C14 UNL     1       4.024  -2.111  -0.343  1.00  0.00     0.270 C 
HETATM    8  N2  UNL     1       3.471  -1.173   0.591  1.00  0.00     0.086 N 
HETATM    9  C15 UNL     1       4.482  -0.549   1.461  1.00  0.00     0.296 C 
HETATM   10  C16 UNL     1       3.730   0.564   2.198  1.00  0.00     0.000 C 
HETATM   11  C17 UNL     1       2.402   0.845   2.079  1.00  0.00    -0.009 C 
HETATM   12  C18 UNL     1       0.976   1.230   2.022  1.00  0.00     0.153 C 
HETATM   13  N3  UNL     1       0.450   1.538   0.721  1.00  0.00    -0.338 N 
HETATM   14  C19 UNL     1       0.518   2.820   0.056  1.00  0.00     0.261 C 
HETATM   15  O2  UNL     1      -0.043   2.971  -1.095  1.00  0.00    -0.267 OA
HETATM   16  H26 UNL     1       2.789  -1.708   1.230  1.00  0.00     0.316 HD
ENDROOT
BRANCH   1  17
HETATM   17  C7  UNL     1      -1.513   0.141   0.730  1.00  0.00     0.143 C 
BRANCH  17  18
HETATM   18  N1  UNL     1      -2.459  -0.611  -0.058  1.00  0.00    -0.401 N 
HETATM   19  C5  UNL     1      -3.089   0.201  -1.010  1.00  0.00     0.098 C 
HETATM   20  C4  UNL     1      -4.575   0.218  -0.939  1.00  0.00    -0.004 C 
HETATM   21  C6  UNL     1      -2.709  -0.220  -2.413  1.00  0.00     0.036 C 
HETATM   22  C3  UNL     1      -5.298  -0.554  -0.154  1.00  0.00     0.004 C 
HETATM   23  C2  UNL     1      -4.636  -1.532   0.749  1.00  0.00     0.161 C 
HETATM   24  C23 UNL     1      -3.159  -1.528   0.727  1.00  0.00     0.153 C 
BRANCH  23  25
HETATM   25  O1  UNL     1      -5.184  -2.813   0.587  1.00  0.00    -0.385 OA
HETATM   26  C1  UNL     1      -5.895  -3.145   1.743  1.00  0.00     0.202 C 
ENDBRANCH  23  25
ENDBRANCH  17  18
ENDBRANCH   1  17
BRANCH  14  27
HETATM   27  C20 UNL     1       1.153   4.054   0.483  1.00  0.00     0.115 A 
HETATM   28  C21 UNL     1       1.186   5.215  -0.146  1.00  0.00     0.114 A 
HETATM   29  N4  UNL     1       1.965   5.804   0.923  1.00  0.00    -0.332 N 
HETATM   30  C22 UNL     1       1.930   4.570   1.588  1.00  0.00     0.262 A 
HETATM   31  H34 UNL     1       2.386   6.751   1.130  1.00  0.00     0.168 HD
HETATM   32  O3  UNL     1       2.431   4.270   2.676  1.00  0.00    -0.267 OA
ENDBRANCH  14  27
TORSDOF 4
