REMARK  5 active torsions:
REMARK  status: ('A' for Active; 'I' for Inactive)
REMARK    1  A    between atoms: C1_2  and  C2_3 
REMARK       I    between atoms: C1_2  and  N3_12 
REMARK    2  A    between atoms: C3_4  and  C4_5 
REMARK    3  A    between atoms: C4_5  and  N1_6 
REMARK    4  A    between atoms: N3_12  and  C9_13 
REMARK    5  A    between atoms: C9_13  and  C10_14 
ROOT
HETATM    1  C10 UNL     1      -1.942  -0.418  -0.554  1.00  0.00    -0.029 C 
HETATM    2  C11 UNL     1      -2.840  -0.753  -1.500  1.00  0.00     0.094 C 
HETATM    3  N4  UNL     1      -4.182  -0.967  -1.112  1.00  0.00    -0.365 N 
HETATM    4  C12 UNL     1      -5.307  -0.241  -0.651  1.00  0.00     0.042 A 
HETATM    5  C13 UNL     1      -6.470  -0.968  -0.719  1.00  0.00     0.030 A 
HETATM    6  C14 UNL     1      -7.645  -0.397  -0.298  1.00  0.00     0.002 A 
HETATM    7  C15 UNL     1      -7.679   0.887   0.190  1.00  0.00     0.001 A 
HETATM    8  C16 UNL     1      -6.489   1.582   0.241  1.00  0.00     0.014 A 
HETATM    9  C17 UNL     1      -5.285   1.047  -0.172  1.00  0.00    -0.008 A 
HETATM   10  C18 UNL     1      -4.141   1.927  -0.046  1.00  0.00     0.030 C 
HETATM   11  C19 UNL     1      -2.950   1.930   0.503  1.00  0.00     0.084 C 
HETATM   12  N5  UNL     1      -2.116   1.086   1.273  1.00  0.00    -0.395 N 
HETATM   13  C20 UNL     1      -2.390  -0.269   0.864  1.00  0.00     0.156 C 
HETATM   14  H16 UNL     1      -4.179  -1.997  -1.262  1.00  0.00     0.165 HD
HETATM   15  H23 UNL     1      -1.441   1.347   1.990  1.00  0.00     0.159 HD
ENDROOT
BRANCH   1  16
HETATM   16  C9  UNL     1      -0.536  -0.187  -0.914  1.00  0.00     0.160 C 
BRANCH  16  17
HETATM   17  N3  UNL     1       0.309  -1.134  -0.192  1.00  0.00    -0.354 N 
HETATM   18  C1  UNL     1       1.673  -0.901  -0.544  1.00  0.00     0.241 C 
HETATM   19  O1  UNL     1       1.666   0.066  -1.372  1.00  0.00    -0.269 OA
HETATM   20  H12 UNL     1       0.042  -1.891   0.490  1.00  0.00     0.163 HD
BRANCH  18  21
HETATM   21  C2  UNL     1       2.763  -1.689   0.012  1.00  0.00     0.072 C 
HETATM   22  C3  UNL     1       4.041  -1.527  -0.268  1.00  0.00     0.008 C 
BRANCH  22  23
HETATM   23  C4  UNL     1       4.709  -0.560  -1.171  1.00  0.00     0.300 C 
BRANCH  23  24
HETATM   24  N1  UNL     1       5.633   0.253  -0.435  1.00  0.00     0.098 N 
HETATM   25  C5  UNL     1       4.938   1.105   0.469  1.00  0.00     0.319 C 
HETATM   26  C6  UNL     1       5.869   1.706   1.469  1.00  0.00     0.113 C 
HETATM   27  N2  UNL     1       6.789   0.982   2.012  1.00  0.00    -0.302 NA
HETATM   28  C7  UNL     1       6.846  -0.403   1.590  1.00  0.00     0.178 C 
HETATM   29  C8  UNL     1       6.724  -0.493   0.078  1.00  0.00     0.294 C 
ENDBRANCH  23  24
ENDBRANCH  22  23
ENDBRANCH  18  21
ENDBRANCH  16  17
ENDBRANCH   1  16
TORSDOF 5
