REMARK  5 active torsions:
REMARK  status: ('A' for Active; 'I' for Inactive)
REMARK    1  A    between atoms: N2_5  and  C4_6 
REMARK    2  A    between atoms: C7_9  and  N3_10 
REMARK       I    between atoms: N3_10  and  C8_11 
REMARK    3  A    between atoms: C8_11  and  C9_13 
REMARK    4  A    between atoms: C10_14  and  N4_15 
REMARK    5  A    between atoms: N4_15  and  C11_16 
ROOT
HETATM    1  N3  UNL     1       1.064  -1.995   0.960  1.00  0.00    -0.323 N 
HETATM    2  C8  UNL     1       2.261  -1.249   0.803  1.00  0.00     0.262 C 
HETATM    3  O1  UNL     1       2.193  -0.025   0.525  1.00  0.00    -0.267 OA
HETATM    4  H10 UNL     1       1.063  -3.012   1.191  1.00  0.00     0.169 HD
ENDROOT
BRANCH   2   5
HETATM    5  C9  UNL     1       3.559  -1.866   0.957  1.00  0.00     0.108 A 
HETATM    6  C10 UNL     1       4.744  -1.289   0.839  1.00  0.00     0.052 A 
HETATM    7  C17 UNL     1       5.831  -2.243   1.067  1.00  0.00     0.034 A 
HETATM    8  C18 UNL     1       5.333  -3.456   1.337  1.00  0.00     0.058 A 
HETATM    9  C19 UNL     1       3.882  -3.250   1.275  1.00  0.00     0.190 A 
HETATM   10  O2  UNL     1       3.064  -4.184   1.478  1.00  0.00    -0.287 OA
BRANCH   6  11
HETATM   11  N4  UNL     1       5.025   0.065   0.535  1.00  0.00    -0.355 N 
HETATM   12  H11 UNL     1       4.909   0.767   1.302  1.00  0.00     0.166 HD
BRANCH  11  13
HETATM   13  C11 UNL     1       5.450   0.848  -0.566  1.00  0.00     0.032 A 
HETATM   14  C12 UNL     1       6.843   0.950  -0.610  1.00  0.00     0.029 A 
HETATM   15  C13 UNL     1       7.477   1.678  -1.614  1.00  0.00     0.002 A 
HETATM   16  C14 UNL     1       6.683   2.292  -2.561  1.00  0.00     0.000 A 
HETATM   17  C15 UNL     1       5.309   2.201  -2.532  1.00  0.00     0.002 A 
HETATM   18  C16 UNL     1       4.686   1.477  -1.531  1.00  0.00     0.029 A 
ENDBRANCH  11  13
ENDBRANCH   6  11
ENDBRANCH   2   5
BRANCH   1  19
HETATM   19  C7  UNL     1      -0.270  -1.511   0.836  1.00  0.00     0.035 A 
HETATM   20  C6  UNL     1      -0.899  -1.018   1.969  1.00  0.00     0.032 A 
HETATM   21  C5  UNL     1      -2.189  -0.546   1.867  1.00  0.00     0.031 A 
HETATM   22  C4  UNL     1      -2.917  -0.525   0.711  1.00  0.00     0.030 A 
HETATM   23  C21 UNL     1      -2.249  -1.025  -0.384  1.00  0.00     0.031 A 
HETATM   24  C20 UNL     1      -0.962  -1.509  -0.342  1.00  0.00     0.032 A 
BRANCH  22  25
HETATM   25  N2  UNL     1      -4.250  -0.038   0.605  1.00  0.00    -0.378 N 
HETATM   26  C3  UNL     1      -5.014   0.507   1.678  1.00  0.00     0.153 C 
HETATM   27  C2  UNL     1      -5.717   1.805   1.361  1.00  0.00     0.291 C 
HETATM   28  N1  UNL     1      -6.155   1.888   0.004  1.00  0.00     0.087 N 
HETATM   29  C1  UNL     1      -7.494   2.445  -0.015  1.00  0.00     0.310 C 
HETATM   30  C23 UNL     1      -6.224   0.578  -0.637  1.00  0.00     0.291 C 
HETATM   31  C22 UNL     1      -4.893  -0.095  -0.691  1.00  0.00     0.153 C 
ENDBRANCH  22  25
ENDBRANCH   1  19
TORSDOF 5
