REMARK  3 active torsions:
REMARK  status: ('A' for Active; 'I' for Inactive)
REMARK    1  A    between atoms: N2_5  and  C4_6 
REMARK    2  A    between atoms: C7_9  and  N3_10 
REMARK    3  A    between atoms: N3_10  and  C8_11 
ROOT
HETATM    1  C8  UNL     1      -1.506   0.029   1.777  1.00  0.00     0.181 C 
HETATM    2  C9  UNL     1      -1.981  -0.616   0.492  1.00  0.00     0.020 C 
HETATM    3  C10 UNL     1      -3.156  -0.535  -0.101  1.00  0.00     0.085 C 
HETATM    4  N4  UNL     1      -4.500  -0.079  -0.222  1.00  0.00    -0.379 N 
HETATM    5  C11 UNL     1      -4.908   1.024  -1.109  1.00  0.00     0.127 C 
HETATM    6  C12 UNL     1      -5.677   0.412  -2.264  1.00  0.00     0.047 C 
HETATM    7  C13 UNL     1      -6.860  -0.286  -1.697  1.00  0.00    -0.027 C 
HETATM    8  C14 UNL     1      -6.813  -0.725  -0.450  1.00  0.00    -0.002 C 
HETATM    9  C15 UNL     1      -5.664  -0.589   0.471  1.00  0.00     0.131 C 
HETATM   10  C16 UNL     1      -6.041   0.230   1.649  1.00  0.00     0.030 C 
HETATM   11  C17 UNL     1      -5.169   0.722   2.564  1.00  0.00     0.237 C 
HETATM   12  N5  UNL     1      -3.792   0.417   2.353  1.00  0.00     0.110 N 
HETATM   13  C18 UNL     1      -2.613  -0.265   2.770  1.00  0.00     0.381 A 
HETATM   14  O1  UNL     1      -3.611  -0.429   3.516  1.00  0.00    -0.143 OA
HETATM   15  H23 UNL     1      -3.801   1.118   1.544  1.00  0.00     0.328 HD
ENDROOT
BRANCH   1  16
HETATM   16  N3  UNL     1      -0.359  -0.660   2.251  1.00  0.00    -0.377 N 
HETATM   17  H10 UNL     1      -0.334  -1.201   3.158  1.00  0.00     0.160 HD
BRANCH  16  18
HETATM   18  C7  UNL     1       0.833  -0.632   1.479  1.00  0.00     0.028 A 
HETATM   19  C6  UNL     1       1.955  -1.307   1.886  1.00  0.00     0.031 A 
HETATM   20  C5  UNL     1       3.125  -1.304   1.185  1.00  0.00     0.031 A 
HETATM   21  C4  UNL     1       3.252  -0.607   0.002  1.00  0.00     0.030 A 
HETATM   22  C20 UNL     1       2.137   0.080  -0.427  1.00  0.00     0.031 A 
HETATM   23  C19 UNL     1       0.959   0.060   0.305  1.00  0.00     0.031 A 
BRANCH  21  24
HETATM   24  N2  UNL     1       4.422  -0.539  -0.802  1.00  0.00    -0.378 N 
HETATM   25  C3  UNL     1       4.456   0.226  -2.040  1.00  0.00     0.153 C 
HETATM   26  C2  UNL     1       5.846   0.286  -2.584  1.00  0.00     0.291 C 
HETATM   27  N1  UNL     1       6.850   0.669  -1.606  1.00  0.00     0.087 N 
HETATM   28  C1  UNL     1       6.608   2.070  -1.267  1.00  0.00     0.310 C 
HETATM   29  C22 UNL     1       6.791  -0.165  -0.423  1.00  0.00     0.291 C 
HETATM   30  C21 UNL     1       5.680  -1.190  -0.515  1.00  0.00     0.153 C 
ENDBRANCH  21  24
ENDBRANCH  16  18
ENDBRANCH   1  16
TORSDOF 3
