REMARK  5 active torsions:
REMARK  status: ('A' for Active; 'I' for Inactive)
REMARK    1  A    between atoms: N2_5  and  C4_6 
REMARK    2  A    between atoms: C7_9  and  N3_10 
REMARK    3  A    between atoms: N3_10  and  C8_11 
REMARK    4  A    between atoms: C8_11  and  C9_12 
REMARK    5  A    between atoms: N5_16  and  O1_17 
ROOT
HETATM    1  C4  UNL     1      -1.088  -0.044   0.009  1.00  0.00     0.030 A 
HETATM    2  C5  UNL     1      -0.243   0.871  -0.584  1.00  0.00     0.031 A 
HETATM    3  C6  UNL     1       1.136   0.846  -0.388  1.00  0.00     0.031 A 
HETATM    4  C7  UNL     1       1.672  -0.128   0.429  1.00  0.00     0.028 A 
HETATM    5  C12 UNL     1       0.859  -1.053   1.034  1.00  0.00     0.031 A 
HETATM    6  C13 UNL     1      -0.523  -1.006   0.821  1.00  0.00     0.031 A 
ENDROOT
BRANCH   4   7
HETATM    7  N3  UNL     1       3.072  -0.164   0.636  1.00  0.00    -0.383 N 
HETATM    8  H10 UNL     1       3.499  -0.894   1.251  1.00  0.00     0.160 HD
BRANCH   7   9
HETATM    9  C8  UNL     1       3.900   0.832  -0.022  1.00  0.00     0.200 C 
BRANCH   9  10
HETATM   10  C9  UNL     1       5.324   0.598   0.340  1.00  0.00     0.148 A 
HETATM   11  N4  UNL     1       6.021   1.098   1.368  1.00  0.00    -0.242 NA
HETATM   12  C10 UNL     1       7.283   0.646   1.350  1.00  0.00     0.138 A 
HETATM   13  C11 UNL     1       7.380  -0.184   0.248  1.00  0.00     0.144 A 
HETATM   14  N5  UNL     1       6.177  -0.197  -0.349  1.00  0.00    -0.219 N 
BRANCH  14  15
HETATM   15  O1  UNL     1       5.837  -0.897  -1.481  1.00  0.00    -0.282 OA
HETATM   16  H15 UNL     1       6.427  -0.707  -2.297  1.00  0.00     0.245 HD
ENDBRANCH  14  15
ENDBRANCH   9  10
ENDBRANCH   7   9
ENDBRANCH   4   7
BRANCH   1  17
HETATM   17  N2  UNL     1      -2.497  -0.042  -0.173  1.00  0.00    -0.378 N 
HETATM   18  C3  UNL     1      -3.405  -0.968   0.422  1.00  0.00     0.153 C 
HETATM   19  C2  UNL     1      -4.678  -0.202   0.781  1.00  0.00     0.291 C 
HETATM   20  N1  UNL     1      -5.351   0.294  -0.390  1.00  0.00     0.087 N 
HETATM   21  C1  UNL     1      -6.501  -0.484  -0.767  1.00  0.00     0.310 C 
HETATM   22  C15 UNL     1      -4.472   0.437  -1.527  1.00  0.00     0.291 C 
HETATM   23  C14 UNL     1      -3.144   0.946  -1.016  1.00  0.00     0.153 C 
ENDBRANCH   1  17
TORSDOF 5
