REMARK  7 active torsions:
REMARK  status: ('A' for Active; 'I' for Inactive)
REMARK    1  A    between atoms: N2_5  and  C4_6 
REMARK    2  A    between atoms: C7_9  and  N3_10 
REMARK       I    between atoms: N3_10  and  C8_11 
REMARK    3  A    between atoms: C8_11  and  C9_13 
REMARK    4  A    between atoms: C9_13  and  C10_14 
REMARK       I    between atoms: C10_14  and  N4_16 
REMARK    5  A    between atoms: N4_16  and  C11_17 
REMARK    6  A    between atoms: C12_18  and  C13_19 
REMARK    7  A    between atoms: C13_19  and  N5_20 
ROOT
HETATM    1  N3  UNL     1       1.425  -2.081  -0.677  1.00  0.00    -0.327 N 
HETATM    2  C8  UNL     1       2.375  -2.181   0.374  1.00  0.00     0.231 C 
HETATM    3  O1  UNL     1       2.081  -1.778   1.530  1.00  0.00    -0.273 OA
HETATM    4  H10 UNL     1       1.782  -2.446  -1.586  1.00  0.00     0.169 HD
ENDROOT
BRANCH   1   5
HETATM    5  C7  UNL     1       0.150  -1.521  -0.389  1.00  0.00     0.034 A 
HETATM    6  C6  UNL     1      -0.900  -2.314   0.025  1.00  0.00     0.032 A 
HETATM    7  C5  UNL     1      -2.129  -1.754   0.300  1.00  0.00     0.031 A 
HETATM    8  C4  UNL     1      -2.393  -0.414   0.187  1.00  0.00     0.030 A 
HETATM    9  C15 UNL     1      -1.339   0.359  -0.226  1.00  0.00     0.031 A 
HETATM   10  C14 UNL     1      -0.098  -0.170  -0.508  1.00  0.00     0.032 A 
BRANCH   8  11
HETATM   11  N2  UNL     1      -3.667   0.137   0.475  1.00  0.00    -0.378 N 
HETATM   12  C3  UNL     1      -4.845  -0.529   0.901  1.00  0.00     0.142 C 
HETATM   13  C2  UNL     1      -6.053  -0.370   0.034  1.00  0.00     0.136 C 
HETATM   14  N1  UNL     1      -6.197   0.912  -0.575  1.00  0.00    -0.414 N 
HETATM   15  C1  UNL     1      -7.382   1.635  -0.249  1.00  0.00     0.143 C 
HETATM   16  C17 UNL     1      -5.011   1.659  -0.751  1.00  0.00     0.136 C 
HETATM   17  C16 UNL     1      -4.016   1.532   0.387  1.00  0.00     0.142 C 
ENDBRANCH   8  11
ENDBRANCH   1   5
BRANCH   2  18
HETATM   18  C9  UNL     1       3.758  -2.729   0.297  1.00  0.00     0.206 C 
BRANCH  18  19
HETATM   19  C10 UNL     1       4.685  -1.642   0.682  1.00  0.00     0.230 C 
HETATM   20  O2  UNL     1       4.505  -1.196   1.837  1.00  0.00    -0.273 OA
HETATM   21  N4  UNL     1       5.655  -1.222  -0.257  1.00  0.00    -0.337 N 
HETATM   22  H13 UNL     1       5.713  -1.676  -1.210  1.00  0.00     0.168 HD
BRANCH  21  23
HETATM   23  C11 UNL     1       6.575  -0.182   0.054  1.00  0.00     0.088 C 
HETATM   24  C12 UNL     1       6.847   0.998  -0.456  1.00  0.00     0.020 C 
BRANCH  24  25
HETATM   25  C13 UNL     1       7.777   2.109  -0.182  1.00  0.00     0.295 C 
BRANCH  25  26
HETATM   26  N5  UNL     1       7.044   3.317   0.095  1.00  0.00     0.081 N 
HETATM   27  H18 UNL     1       7.121   3.639   1.072  1.00  0.00     0.313 HD
HETATM   28  H19 UNL     1       6.085   3.214  -0.262  1.00  0.00     0.313 HD
ENDBRANCH  25  26
ENDBRANCH  24  25
ENDBRANCH  21  23
ENDBRANCH  18  19
ENDBRANCH   2  18
TORSDOF 7
