REMARK  4 active torsions:
REMARK  status: ('A' for Active; 'I' for Inactive)
REMARK    1  A    between atoms: C4_6  and  N2_7 
REMARK    2  A    between atoms: N2_7  and  C5_8 
REMARK    3  A    between atoms: C11_15  and  O2_16 
REMARK    4  A    between atoms: O2_16  and  C12_17 
ROOT
HETATM    1  O1  UNL     1       1.406  -0.014  -4.028  1.00  0.00    -0.270 OA
HETATM    2  C1  UNL     1       1.610  -1.093  -3.370  1.00  0.00     0.253 C 
HETATM    3  N1  UNL     1       2.512  -2.106  -3.870  1.00  0.00    -0.335 N 
HETATM    4  C2  UNL     1       3.169  -2.941  -2.885  1.00  0.00     0.089 C 
HETATM    5  C3  UNL     1       2.958  -2.792  -1.563  1.00  0.00     0.018 C 
HETATM    6  C4  UNL     1       2.033  -1.753  -1.030  1.00  0.00     0.144 C 
HETATM    7  C11 UNL     1       0.983  -1.436  -2.075  1.00  0.00     0.241 C 
HETATM    8  H1  UNL     1       2.643  -2.180  -4.908  1.00  0.00     0.168 HD
ENDROOT
BRANCH   7   9
HETATM    9  O2  UNL     1       0.237  -0.404  -1.538  1.00  0.00    -0.361 OA
BRANCH   9  10
HETATM   10  C12 UNL     1      -1.079  -0.665  -1.286  1.00  0.00     0.169 C 
HETATM   11  C13 UNL     1      -1.867   0.369  -2.070  1.00  0.00     0.006 C 
HETATM   12  C14 UNL     1      -3.097   0.687  -1.635  1.00  0.00     0.002 C 
HETATM   13  C15 UNL     1      -4.130   0.444  -0.629  1.00  0.00     0.299 C 
HETATM   14  N3  UNL     1      -4.416   1.551   0.254  1.00  0.00     0.095 N 
HETATM   15  C16 UNL     1      -4.920   1.154   1.551  1.00  0.00     0.292 C 
HETATM   16  C21 UNL     1      -3.346   2.513   0.349  1.00  0.00     0.292 C 
HETATM   17  C17 UNL     1      -3.829   0.939   2.589  1.00  0.00     0.152 C 
HETATM   18  N4  UNL     1      -2.588   0.846   1.863  1.00  0.00    -0.387 N 
HETATM   19  C18 UNL     1      -1.676  -0.250   1.513  1.00  0.00     0.084 C 
HETATM   20  C20 UNL     1      -2.258   2.144   1.335  1.00  0.00     0.152 C 
HETATM   21  C19 UNL     1      -1.421  -0.408   0.173  1.00  0.00     0.025 C 
ENDBRANCH   9  10
ENDBRANCH   7   9
BRANCH   6  22
HETATM   22  N2  UNL     1       2.753  -0.581  -0.595  1.00  0.00    -0.378 N 
HETATM   23  H5  UNL     1       2.574   0.207  -1.289  1.00  0.00     0.160 HD
BRANCH  22  24
HETATM   24  C5  UNL     1       3.612  -0.128   0.428  1.00  0.00     0.050 A 
HETATM   25  C6  UNL     1       4.180   1.134   0.481  1.00  0.00     0.031 A 
HETATM   26  C7  UNL     1       4.975   1.435   1.551  1.00  0.00     0.002 A 
HETATM   27  C8  UNL     1       5.243   0.558   2.577  1.00  0.00     0.002 A 
HETATM   28  C9  UNL     1       4.679  -0.700   2.527  1.00  0.00     0.026 A 
HETATM   29  C10 UNL     1       3.875  -1.009   1.450  1.00  0.00     0.060 A 
HETATM   30 CL1  UNL     1       3.255  -2.646   1.620  1.00  0.00    -0.082 Cl
ENDBRANCH  22  24
ENDBRANCH   6  22
TORSDOF 4
