REMARK  6 active torsions:
REMARK  status: ('A' for Active; 'I' for Inactive)
REMARK    1  A    between atoms: N2_5  and  C4_6 
REMARK    2  A    between atoms: C6_8  and  C7_9 
REMARK    3  A    between atoms: C9_12  and  N3_13 
REMARK    4  A    between atoms: C9_12  and  C10_14 
REMARK    5  A    between atoms: C11_15  and  N4_16 
REMARK    6  A    between atoms: N4_16  and  C12_17 
ROOT
HETATM    1  C4  UNL     1      -1.373   0.393   0.213  1.00  0.00     0.011 A 
HETATM    2  C5  UNL     1      -0.882  -0.631  -0.460  1.00  0.00     0.036 A 
HETATM    3  C6  UNL     1       0.404  -1.125   0.012  1.00  0.00    -0.032 A 
HETATM    4  C13 UNL     1       1.088  -0.523   1.146  1.00  0.00     0.008 A 
HETATM    5  C14 UNL     1       0.547   0.494   1.775  1.00  0.00    -0.020 A 
HETATM    6  C15 UNL     1      -0.741   1.060   1.373  1.00  0.00     0.084 A 
ENDROOT
BRANCH   3   7
HETATM    7  C7  UNL     1       0.946  -2.145  -0.621  1.00  0.00     0.048 C 
HETATM    8  C8  UNL     1       2.172  -2.848  -0.409  1.00  0.00     0.092 A 
HETATM    9  O1  UNL     1       2.737  -3.817  -0.973  1.00  0.00    -0.325 OA
HETATM   10  C9  UNL     1       3.445  -3.091   0.311  1.00  0.00     0.235 A 
BRANCH  10  11
HETATM   11  N3  UNL     1       4.094  -4.236  -0.308  1.00  0.00    -0.303 N 
HETATM   12  H11 UNL     1       5.116  -4.074  -0.291  1.00  0.00     0.121 HD
HETATM   13  H12 UNL     1       3.883  -5.075   0.258  1.00  0.00     0.121 HD
ENDBRANCH  10  11
BRANCH  10  14
HETATM   14  C10 UNL     1       4.365  -1.918   0.218  1.00  0.00     0.040 C 
HETATM   15  C11 UNL     1       4.656  -1.300  -0.912  1.00  0.00     0.090 C 
BRANCH  15  16
HETATM   16  N4  UNL     1       5.528  -0.189  -0.988  1.00  0.00    -0.344 N 
HETATM   17  H15 UNL     1       5.676   0.795  -0.653  1.00  0.00     0.167 HD
BRANCH  16  18
HETATM   18  C12 UNL     1       6.701  -0.282  -1.790  1.00  0.00     0.352 C 
HETATM   19  O2  UNL     1       7.267  -1.132  -2.536  1.00  0.00    -0.283 OA
ENDBRANCH  16  18
ENDBRANCH  15  16
ENDBRANCH  10  14
ENDBRANCH   3   7
BRANCH   1  20
HETATM   20  N2  UNL     1      -2.627   0.905  -0.216  1.00  0.00    -0.380 N 
HETATM   21  C3  UNL     1      -3.906   0.185  -0.089  1.00  0.00     0.153 C 
HETATM   22  C2  UNL     1      -4.968   1.195   0.340  1.00  0.00     0.291 C 
HETATM   23  N1  UNL     1      -4.366   2.292   1.070  1.00  0.00     0.087 N 
HETATM   24  C1  UNL     1      -5.320   3.078   1.786  1.00  0.00     0.310 C 
HETATM   25  C17 UNL     1      -3.511   3.078   0.220  1.00  0.00     0.291 C 
HETATM   26  C16 UNL     1      -2.916   2.202  -0.850  1.00  0.00     0.153 C 
ENDBRANCH   1  20
TORSDOF 6
