REMARK  8 active torsions:
REMARK  status: ('A' for Active; 'I' for Inactive)
REMARK    1  A    between atoms: C2_2  and  N1_3 
REMARK    2  A    between atoms: N1_3  and  C4_5 
REMARK    3  A    between atoms: C4_5  and  C5_6 
REMARK    4  A    between atoms: C5_6  and  C6_7 
REMARK    5  A    between atoms: C7_8  and  N2_9 
REMARK    6  A    between atoms: N2_9  and  C8_10 
REMARK    7  A    between atoms: C10_12  and  N3_13 
REMARK    8  A    between atoms: N3_13  and  C11_14 
ROOT
HETATM    1  C8  UNL     1       0.471  -0.468  -0.859  1.00  0.00     0.153 C 
HETATM    2  C9  UNL     1       1.771   0.111  -1.229  1.00  0.00     0.033 C 
HETATM    3  C10 UNL     1       3.026  -0.123  -0.865  1.00  0.00     0.032 C 
HETATM    4  C17 UNL     1       3.495  -1.110   0.083  1.00  0.00     0.046 C 
HETATM    5  C18 UNL     1       3.042  -2.305   0.429  1.00  0.00     0.089 C 
HETATM    6  N4  UNL     1       1.903  -3.001  -0.057  1.00  0.00    -0.374 N 
HETATM    7  P1  UNL     1       0.374  -2.248  -0.580  1.00  0.00    -0.003 P 
HETATM    8  H23 UNL     1       1.989  -4.024  -0.101  1.00  0.00     0.163 HD
HETATM    9  H24 UNL     1      -0.640  -2.570   0.430  1.00  0.00     0.082 HD
ENDROOT
BRANCH   1  10
HETATM   10  N2  UNL     1      -0.206   0.241   0.217  1.00  0.00    -0.376 N 
HETATM   11  H13 UNL     1       0.297   1.097   0.540  1.00  0.00     0.160 HD
BRANCH  10  12
HETATM   12  C7  UNL     1      -1.459  -0.170   0.806  1.00  0.00     0.035 A 
HETATM   13  C6  UNL     1      -2.682  -0.633   0.517  1.00  0.00    -0.030 A 
HETATM   14  C20 UNL     1      -2.940  -0.649   1.951  1.00  0.00     0.012 A 
HETATM   15  C19 UNL     1      -1.740  -0.194   2.227  1.00  0.00     0.030 A 
BRANCH  13  16
HETATM   16  C5  UNL     1      -3.270  -0.938  -0.768  1.00  0.00     0.060 C 
BRANCH  16  17
HETATM   17  C4  UNL     1      -4.401  -0.136  -1.267  1.00  0.00     0.121 C 
BRANCH  17  18
HETATM   18  N1  UNL     1      -5.617  -0.044  -0.596  1.00  0.00    -0.417 N 
HETATM   19  C3  UNL     1      -6.410  -1.268  -0.629  1.00  0.00     0.143 C 
BRANCH  18  20
HETATM   20  C2  UNL     1      -5.761   0.676   0.610  1.00  0.00     0.112 C 
HETATM   21  C1  UNL     1      -4.975   1.968   0.699  1.00  0.00     0.026 C 
ENDBRANCH  18  20
ENDBRANCH  17  18
ENDBRANCH  16  17
ENDBRANCH  13  16
ENDBRANCH  10  12
ENDBRANCH   1  10
BRANCH   3  22
HETATM   22  N3  UNL     1       4.100   0.651  -1.438  1.00  0.00    -0.355 N 
HETATM   23  H16 UNL     1       4.275   1.046  -2.407  1.00  0.00     0.166 HD
BRANCH  22  24
HETATM   24  C11 UNL     1       5.243   1.067  -0.720  1.00  0.00     0.054 A 
HETATM   25  C12 UNL     1       5.282   2.263  -0.017  1.00  0.00     0.031 A 
HETATM   26  C13 UNL     1       6.374   2.728   0.707  1.00  0.00     0.002 A 
HETATM   27  C14 UNL     1       7.509   1.948   0.733  1.00  0.00     0.002 A 
HETATM   28  C15 UNL     1       7.533   0.748   0.054  1.00  0.00     0.026 A 
HETATM   29  C16 UNL     1       6.406   0.324  -0.660  1.00  0.00     0.060 A 
HETATM   30 CL1  UNL     1       6.488  -1.223  -1.514  1.00  0.00    -0.082 Cl
ENDBRANCH  22  24
ENDBRANCH   3  22
TORSDOF 8
