REMARK  6 active torsions:
REMARK  status: ('A' for Active; 'I' for Inactive)
REMARK    1  A    between atoms: O1_2  and  C2_3 
REMARK    2  A    between atoms: C7_8  and  N1_9 
REMARK    3  A    between atoms: N1_9  and  C8_10 
REMARK    4  A    between atoms: C9_11  and  C10_12 
REMARK       I    between atoms: C10_12  and  N2_14 
REMARK    5  A    between atoms: N2_14  and  C11_15 
REMARK    6  A    between atoms: C14_18  and  N3_19 
ROOT
HETATM    1  C8  UNL     1      -3.990  -2.117   0.287  1.00  0.00     0.047 A 
HETATM    2  C9  UNL     1      -2.856  -2.325  -0.353  1.00  0.00     0.054 A 
HETATM    3  C21 UNL     1      -2.575  -3.335  -1.399  1.00  0.00     0.165 A 
HETATM    4  N6  UNL     1      -3.721  -4.190  -1.544  1.00  0.00    -0.394 N 
HETATM    5  C22 UNL     1      -4.970  -4.033  -0.908  1.00  0.00     0.085 A 
HETATM    6  C23 UNL     1      -5.091  -3.030  -0.024  1.00  0.00     0.047 A 
HETATM    7  H26 UNL     1      -3.445  -4.961  -2.226  1.00  0.00     0.159 HD
ENDROOT
BRANCH   2   8
HETATM    8  C10 UNL     1      -1.810  -1.389   0.093  1.00  0.00     0.256 C 
HETATM    9  O2  UNL     1      -1.449  -0.456   0.813  1.00  0.00    -0.267 OA
HETATM   10  N2  UNL     1      -0.545  -1.595  -0.620  1.00  0.00    -0.322 N 
HETATM   11  H9  UNL     1      -0.287  -2.300  -1.389  1.00  0.00     0.169 HD
BRANCH  10  12
HETATM   12  C11 UNL     1       0.715  -0.947  -0.516  1.00  0.00     0.052 A 
HETATM   13  C12 UNL     1       1.094   0.202  -1.156  1.00  0.00     0.035 A 
HETATM   14  C13 UNL     1       2.330   0.802  -1.077  1.00  0.00     0.052 A 
HETATM   15  C14 UNL     1       3.279   0.195  -0.283  1.00  0.00     0.125 A 
HETATM   16  N5  UNL     1       2.968  -0.962   0.388  1.00  0.00    -0.241 NA
HETATM   17  C20 UNL     1       1.720  -1.500   0.263  1.00  0.00     0.148 A 
BRANCH  15  18
HETATM   18  N3  UNL     1       4.597   0.735  -0.102  1.00  0.00    -0.362 N 
HETATM   19  C15 UNL     1       4.805   2.046   0.479  1.00  0.00     0.154 C 
HETATM   20  C16 UNL     1       6.060   2.026   1.302  1.00  0.00     0.291 C 
HETATM   21  N4  UNL     1       7.160   1.310   0.737  1.00  0.00     0.087 N 
HETATM   22  C17 UNL     1       8.420   1.983   0.787  1.00  0.00     0.310 C 
HETATM   23  C18 UNL     1       6.906   0.832  -0.602  1.00  0.00     0.291 C 
HETATM   24  C19 UNL     1       5.731  -0.091  -0.550  1.00  0.00     0.154 C 
ENDBRANCH  15  18
ENDBRANCH  10  12
ENDBRANCH   2   8
BRANCH   1  25
HETATM   25  N1  UNL     1      -4.362  -1.196   1.273  1.00  0.00    -0.353 N 
HETATM   26  H8  UNL     1      -4.709  -1.536   2.221  1.00  0.00     0.166 HD
BRANCH  25  27
HETATM   27  C7  UNL     1      -4.436   0.194   1.418  1.00  0.00     0.066 A 
HETATM   28  C2  UNL     1      -5.164   0.821   0.395  1.00  0.00     0.094 A 
HETATM   29  C3  UNL     1      -5.311   2.210   0.398  1.00  0.00     0.039 A 
HETATM   30  C4  UNL     1      -4.737   2.933   1.407  1.00  0.00     0.003 A 
HETATM   31  C5  UNL     1      -4.019   2.342   2.421  1.00  0.00     0.002 A 
HETATM   32  C6  UNL     1      -3.879   0.968   2.410  1.00  0.00     0.032 A 
BRANCH  28  33
HETATM   33  O1  UNL     1      -5.773   0.140  -0.660  1.00  0.00    -0.354 OA
HETATM   34  C1  UNL     1      -6.500   0.816  -1.681  1.00  0.00     0.210 C 
ENDBRANCH  28  33
ENDBRANCH  25  27
ENDBRANCH   1  25
TORSDOF 6
