REMARK  10 active torsions:
REMARK  status: ('A' for Active; 'I' for Inactive)
REMARK    1  A    between atoms: N1_1  and  C1_2 
REMARK    2  A    between atoms: C2_3  and  C3_4 
REMARK    3  A    between atoms: C3_4  and  N2_5 
REMARK    4  A    between atoms: C3_4  and  O1_15 
REMARK    5  A    between atoms: C3_4  and  C12_17 
REMARK    6  A    between atoms: N2_5  and  C4_6 
REMARK    7  A    between atoms: C4_6  and  C5_7 
REMARK    8  A    between atoms: C5_7  and  C6_8 
REMARK    9  A    between atoms: C12_17  and  N3_18 
REMARK   10  A    between atoms: C12_17  and  C13_19 
ROOT
HETATM    1  C3  UNL     1      -1.484   0.160   0.615  1.00  0.00     0.344 C 
ENDROOT
BRANCH   1   2
HETATM    2  C2  UNL     1      -2.203  -1.077   0.132  1.00  0.00     0.066 C 
HETATM    3  C1  UNL     1      -2.227  -2.172   0.873  1.00  0.00     0.081 C 
BRANCH   3   4
HETATM    4  N1  UNL     1      -2.876  -3.385   0.506  1.00  0.00    -0.408 N 
HETATM    5  H1  UNL     1      -3.783  -3.601   1.013  1.00  0.00     0.155 HD
HETATM    6  H2  UNL     1      -2.412  -3.967  -0.232  1.00  0.00     0.155 HD
ENDBRANCH   3   4
ENDBRANCH   1   2
BRANCH   1   7
HETATM    7  N2  UNL     1      -0.149  -0.240   0.869  1.00  0.00     0.128 N 
HETATM    8  H5  UNL     1       0.292  -0.793   0.124  1.00  0.00     0.320 HD
BRANCH   7   9
HETATM    9  C4  UNL     1       0.660   0.804   1.372  1.00  0.00     0.278 C 
BRANCH   9  10
HETATM   10  C5  UNL     1       2.075   0.359   1.708  1.00  0.00     0.068 C 
BRANCH  10  11
HETATM   11  C6  UNL     1       2.781  -0.176   0.525  1.00  0.00    -0.056 A 
HETATM   12  C7  UNL     1       3.532   0.640  -0.315  1.00  0.00     0.009 A 
HETATM   13  C8  UNL     1       4.212   0.187  -1.437  1.00  0.00     0.024 A 
HETATM   14  C9  UNL     1       4.125  -1.150  -1.717  1.00  0.00     0.034 A 
HETATM   15 CL1  UNL     1       4.987  -1.717  -3.136  1.00  0.00    -0.084 Cl
HETATM   16  C10 UNL     1       3.395  -2.034  -0.927  1.00  0.00     0.024 A 
HETATM   17  C11 UNL     1       2.725  -1.530   0.194  1.00  0.00     0.009 A 
ENDBRANCH  10  11
ENDBRANCH   9  10
ENDBRANCH   7   9
ENDBRANCH   1   7
BRANCH   1  18
HETATM   18  O1  UNL     1      -2.098   0.608   1.801  1.00  0.00    -0.148 OA
HETATM   19  F1  UNL     1      -2.069  -0.271   2.762  1.00  0.00    -0.045 F 
ENDBRANCH   1  18
BRANCH   1  20
HETATM   20  C12 UNL     1      -1.721   1.198  -0.423  1.00  0.00     0.298 C 
BRANCH  20  21
HETATM   21  N3  UNL     1      -1.245   2.510  -0.161  1.00  0.00     0.088 N 
HETATM   22  H15 UNL     1      -0.629   2.916  -0.898  1.00  0.00     0.313 HD
HETATM   23  H16 UNL     1      -1.969   3.178   0.175  1.00  0.00     0.313 HD
ENDBRANCH  20  21
BRANCH  20  24
HETATM   24  C13 UNL     1      -3.190   1.272  -0.772  1.00  0.00     0.069 C 
HETATM   25  C14 UNL     1      -3.547   2.231  -1.645  1.00  0.00     0.421 C 
HETATM   26  F2  UNL     1      -3.292   3.289  -2.482  1.00  0.00    -0.455 F 
ENDBRANCH  20  24
ENDBRANCH   1  20
TORSDOF 10
