REMARK  7 active torsions:
REMARK  status: ('A' for Active; 'I' for Inactive)
REMARK    1  A    between atoms: C1_2  and  N1_3 
REMARK    2  A    between atoms: N2_6  and  C4_7 
REMARK       I    between atoms: N3_10  and  C7_11 
REMARK    3  A    between atoms: C7_11  and  C8_13 
REMARK    4  A    between atoms: C9_14  and  N4_15 
REMARK    5  A    between atoms: N4_15  and  C10_16 
REMARK    6  A    between atoms: C10_16  and  C11_17 
REMARK    7  A    between atoms: C11_17  and  C12_18 
ROOT
HETATM    1  C8  UNL     1      -1.400  -1.882  -0.274  1.00  0.00     0.053 A 
HETATM    2  C9  UNL     1      -2.537  -1.673  -0.925  1.00  0.00     0.042 A 
HETATM    3  C18 UNL     1      -3.405  -2.827  -1.158  1.00  0.00     0.046 A 
HETATM    4  C19 UNL     1      -3.131  -4.059  -0.763  1.00  0.00     0.085 A 
HETATM    5  N5  UNL     1      -1.905  -4.223  -0.071  1.00  0.00    -0.394 N 
HETATM    6  C20 UNL     1      -0.933  -3.188   0.234  1.00  0.00     0.165 A 
HETATM    7  H20 UNL     1      -1.558  -5.139   0.305  1.00  0.00     0.159 HD
ENDROOT
BRANCH   1   8
HETATM    8  C7  UNL     1      -0.613  -0.671  -0.093  1.00  0.00     0.254 C 
HETATM    9  N3  UNL     1       0.629  -0.367   0.511  1.00  0.00    -0.344 N 
HETATM   10  C6  UNL     1       1.031   1.023   0.445  1.00  0.00     0.155 C 
HETATM   11  C21 UNL     1       1.639  -1.141   1.210  1.00  0.00     0.132 C 
HETATM   12  C5  UNL     1       2.488   1.162   0.188  1.00  0.00     0.018 C 
HETATM   13  C4  UNL     1       3.359   0.167   0.121  1.00  0.00     0.006 C 
HETATM   14  C22 UNL     1       2.858  -1.217   0.318  1.00  0.00     0.076 C 
HETATM   15  O2  UNL     1      -0.991   0.437  -0.517  1.00  0.00    -0.268 OA
BRANCH  13  16
HETATM   16  N2  UNL     1       4.744   0.381  -0.131  1.00  0.00    -0.381 N 
HETATM   17  C3  UNL     1       5.633  -0.736  -0.218  1.00  0.00     0.142 C 
HETATM   18  C2  UNL     1       6.992  -0.426  -0.716  1.00  0.00     0.145 C 
HETATM   19  N1  UNL     1       7.565   0.802  -0.287  1.00  0.00    -0.356 N 
HETATM   20  C24 UNL     1       6.683   1.631   0.463  1.00  0.00     0.145 C 
HETATM   21  C23 UNL     1       5.364   1.672  -0.319  1.00  0.00     0.142 C 
BRANCH  19  22
HETATM   22  C1  UNL     1       8.934   1.009  -0.677  1.00  0.00     0.350 C 
HETATM   23  O1  UNL     1       9.321  -0.003  -1.342  1.00  0.00    -0.284 OA
ENDBRANCH  19  22
ENDBRANCH  13  16
ENDBRANCH   1   8
BRANCH   2  24
HETATM   24  N4  UNL     1      -2.956  -0.404  -1.405  1.00  0.00    -0.389 N 
HETATM   25  H9  UNL     1      -2.438  -0.241  -2.317  1.00  0.00     0.159 HD
BRANCH  24  26
HETATM   26  C10 UNL     1      -3.917   0.416  -0.691  1.00  0.00     0.124 C 
BRANCH  26  27
HETATM   27  C11 UNL     1      -5.303  -0.134  -0.666  1.00  0.00     0.058 C 
BRANCH  27  28
HETATM   28  C12 UNL     1      -6.278   0.720   0.068  1.00  0.00    -0.057 A 
HETATM   29  C13 UNL     1      -6.513   0.560   1.434  1.00  0.00     0.009 A 
HETATM   30  C14 UNL     1      -7.420   1.356   2.132  1.00  0.00     0.024 A 
HETATM   31  C15 UNL     1      -8.118   2.345   1.447  1.00  0.00     0.034 A 
HETATM   32 CL1  UNL     1      -9.276   3.386   2.259  1.00  0.00    -0.084 Cl
HETATM   33  C16 UNL     1      -7.910   2.534   0.085  1.00  0.00     0.024 A 
HETATM   34  C17 UNL     1      -6.993   1.714  -0.571  1.00  0.00     0.009 A 
ENDBRANCH  27  28
ENDBRANCH  26  27
ENDBRANCH  24  26
ENDBRANCH   2  24
TORSDOF 7
