REMARK  4 active torsions:
REMARK  status: ('A' for Active; 'I' for Inactive)
REMARK    1  A    between atoms: C10_14  and  N4_15 
REMARK    2  A    between atoms: N4_15  and  C11_16 
REMARK    3  A    between atoms: C11_16  and  C12_17 
REMARK    4  A    between atoms: C12_17  and  C13_18 
ROOT
HETATM    1  C1  UNL     1      -7.464  -0.889   0.158  1.00  0.00     0.143 C 
HETATM    2  N1  UNL     1      -6.238  -0.244   0.475  1.00  0.00    -0.413 N 
HETATM    3  C2  UNL     1      -5.770  -0.321   1.798  1.00  0.00     0.136 C 
HETATM    4  C3  UNL     1      -4.417  -1.047   1.824  1.00  0.00     0.142 C 
HETATM    5  N2  UNL     1      -3.547  -0.125   1.078  1.00  0.00    -0.376 N 
HETATM    6  C4  UNL     1      -2.552   0.556   1.829  1.00  0.00     0.007 C 
HETATM    7  C5  UNL     1      -2.298   1.854   1.809  1.00  0.00     0.017 C 
HETATM    8  C6  UNL     1      -0.924   2.338   1.397  1.00  0.00     0.149 C 
HETATM    9  N3  UNL     1       0.070   1.287   1.527  1.00  0.00    -0.371 N 
HETATM   10  C7  UNL     1      -0.281   0.684   2.852  1.00  0.00     0.126 C 
HETATM   11  C8  UNL     1      -1.598  -0.044   2.791  1.00  0.00     0.076 C 
HETATM   12  C9  UNL     1       0.896   1.321   0.348  1.00  0.00     0.229 A 
HETATM   13  O1  UNL     1       1.412   0.417   1.022  1.00  0.00    -0.328 OA
HETATM   14  C10 UNL     1       2.059   0.778  -0.417  1.00  0.00     0.239 A 
HETATM   15  C19 UNL     1       1.620   0.010  -1.601  1.00  0.00     0.038 C 
HETATM   16  C20 UNL     1       0.464   0.202  -2.177  1.00  0.00     0.091 C 
HETATM   17  N5  UNL     1      -0.593   1.103  -1.877  1.00  0.00    -0.337 N 
HETATM   18  C21 UNL     1      -1.863   0.743  -1.433  1.00  0.00     0.223 C 
HETATM   19  O2  UNL     1      -1.722  -0.490  -1.392  1.00  0.00    -0.273 OA
HETATM   20  C22 UNL     1      -3.233   1.108  -1.005  1.00  0.00     0.130 C 
HETATM   21  C23 UNL     1      -3.894  -0.090  -0.333  1.00  0.00     0.110 C 
HETATM   22  C24 UNL     1      -5.353  -0.002  -0.580  1.00  0.00     0.142 C 
HETATM   23  H28 UNL     1      -0.659   2.151  -1.916  1.00  0.00     0.168 HD
ENDROOT
BRANCH  14  24
HETATM   24  N4  UNL     1       2.783  -0.145   0.429  1.00  0.00    -0.295 N 
HETATM   25  H16 UNL     1       3.205   0.350   1.265  1.00  0.00     0.124 HD
BRANCH  24  26
HETATM   26  C11 UNL     1       3.925  -0.762  -0.230  1.00  0.00     0.094 C 
BRANCH  26  27
HETATM   27  C12 UNL     1       5.031   0.226  -0.522  1.00  0.00     0.053 C 
BRANCH  27  28
HETATM   28  C13 UNL     1       6.184  -0.464  -1.203  1.00  0.00    -0.057 A 
HETATM   29  C14 UNL     1       7.211  -1.028  -0.463  1.00  0.00     0.007 A 
HETATM   30  C15 UNL     1       8.285  -1.669  -1.045  1.00  0.00     0.001 A 
HETATM   31  C16 UNL     1       8.330  -1.746  -2.406  1.00  0.00     0.000 A 
HETATM   32  C17 UNL     1       7.326  -1.197  -3.179  1.00  0.00     0.001 A 
HETATM   33  C18 UNL     1       6.235  -0.546  -2.595  1.00  0.00     0.007 A 
ENDBRANCH  27  28
ENDBRANCH  26  27
ENDBRANCH  24  26
ENDBRANCH  14  24
TORSDOF 4
