REMARK  4 active torsions:
REMARK  status: ('A' for Active; 'I' for Inactive)
REMARK    1  A    between atoms: C7_8  and  C8_9 
REMARK    2  A    between atoms: C8_9  and  N1_10 
REMARK    3  A    between atoms: N1_10  and  C9_11 
REMARK    4  A    between atoms: C15_19  and  N3_20 
ROOT
HETATM    1  C9  UNL     1      -3.000  -0.452  -0.313  1.00  0.00     0.028 C 
HETATM    2  C10 UNL     1      -2.487  -1.472   0.411  1.00  0.00     0.100 C 
HETATM    3  C11 UNL     1      -1.321  -2.207   0.982  1.00  0.00     0.247 C 
HETATM    4  O1  UNL     1      -0.756  -3.129   1.604  1.00  0.00    -0.268 OA
HETATM    5  N2  UNL     1      -0.029  -1.743   0.842  1.00  0.00    -0.323 N 
HETATM    6  C12 UNL     1       1.329  -1.257   0.695  1.00  0.00     0.051 A 
HETATM    7  C13 UNL     1       2.364  -1.882   1.337  1.00  0.00     0.033 A 
HETATM    8  C14 UNL     1       3.639  -1.486   1.061  1.00  0.00     0.031 A 
HETATM    9  C15 UNL     1       3.777  -0.477   0.149  1.00  0.00     0.031 A 
HETATM   10  C21 UNL     1       2.797   0.204  -0.535  1.00  0.00     0.048 A 
HETATM   11  C22 UNL     1       1.575  -0.206  -0.241  1.00  0.00     0.060 A 
HETATM   12  C23 UNL     1       0.478   0.546  -0.827  1.00  0.00     0.254 C 
HETATM   13  O2  UNL     1       0.506   1.574  -1.525  1.00  0.00    -0.268 OA
HETATM   14  N5  UNL     1      -0.921   0.587  -0.937  1.00  0.00    -0.351 N 
HETATM   15  C24 UNL     1      -2.326   0.658  -1.067  1.00  0.00     0.179 C 
HETATM   16  H11 UNL     1      -0.043  -0.739   0.869  1.00  0.00     0.169 HD
HETATM   17  H26 UNL     1      -1.008  -0.383  -0.671  1.00  0.00     0.163 HD
ENDROOT
BRANCH   1  18
HETATM   18  N1  UNL     1      -4.411  -0.477  -0.379  1.00  0.00    -0.387 N 
HETATM   19  H9  UNL     1      -4.998  -0.774  -1.212  1.00  0.00     0.159 HD
BRANCH  18  20
HETATM   20  C8  UNL     1      -5.044  -0.033   0.865  1.00  0.00     0.158 C 
BRANCH  20  21
HETATM   21  C7  UNL     1      -6.514  -0.079   0.699  1.00  0.00    -0.035 A 
HETATM   22  C2  UNL     1      -7.111   0.919  -0.038  1.00  0.00    -0.052 A 
HETATM   23  C1  UNL     1      -6.350   2.051  -0.674  1.00  0.00     0.049 C 
HETATM   24  C3  UNL     1      -8.483   0.885  -0.204  1.00  0.00     0.031 A 
HETATM   25  C4  UNL     1      -9.323  -0.085   0.318  1.00  0.00     0.034 A 
HETATM   26 CL1  UNL     1     -11.056   0.007   0.021  1.00  0.00    -0.084 Cl
HETATM   27  C5  UNL     1      -8.696  -1.075   1.054  1.00  0.00     0.024 A 
HETATM   28  C6  UNL     1      -7.340  -1.066   1.235  1.00  0.00     0.011 A 
ENDBRANCH  20  21
ENDBRANCH  18  20
ENDBRANCH   1  18
BRANCH   9  29
HETATM   29  N3  UNL     1       5.121  -0.109  -0.117  1.00  0.00    -0.377 N 
HETATM   30  C16 UNL     1       6.297  -0.767   0.335  1.00  0.00     0.153 C 
HETATM   31  C17 UNL     1       7.077   0.241   1.162  1.00  0.00     0.291 C 
HETATM   32  N4  UNL     1       7.659   1.175   0.214  1.00  0.00     0.087 N 
HETATM   33  C18 UNL     1       9.013   0.780  -0.143  1.00  0.00     0.310 C 
HETATM   34  C19 UNL     1       6.852   1.472  -0.916  1.00  0.00     0.291 C 
HETATM   35  C20 UNL     1       5.442   1.035  -0.908  1.00  0.00     0.153 C 
ENDBRANCH   9  29
TORSDOF 4
