REMARK  3 active torsions:
REMARK  status: ('A' for Active; 'I' for Inactive)
REMARK    1  A    between atoms: N2_5  and  C4_6 
REMARK    2  A    between atoms: C7_9  and  N3_10 
REMARK       I    between atoms: N3_10  and  C8_11 
REMARK    3  A    between atoms: C8_11  and  C9_13 
ROOT
HETATM    1  C9  UNL     1      -2.826  -0.862   0.668  1.00  0.00     0.056 C 
HETATM    2  C10 UNL     1      -2.906  -2.202   0.494  1.00  0.00     0.098 C 
HETATM    3  N4  UNL     1      -4.279  -2.248   0.778  1.00  0.00    -0.395 N 
HETATM    4  C11 UNL     1      -5.421  -2.293  -0.135  1.00  0.00     0.147 C 
HETATM    5  C12 UNL     1      -5.397  -1.073  -1.002  1.00  0.00    -0.000 C 
HETATM    6  C13 UNL     1      -6.307  -0.097  -0.790  1.00  0.00    -0.054 C 
HETATM    7  C14 UNL     1      -7.099  -0.568   0.329  1.00  0.00     0.024 C 
HETATM    8  C15 UNL     1      -6.328  -0.146   1.408  1.00  0.00     0.085 C 
HETATM    9  N5  UNL     1      -4.884   0.014   1.703  1.00  0.00    -0.382 N 
HETATM   10  C16 UNL     1      -3.615   0.334   1.021  1.00  0.00     0.079 C 
HETATM   11  C17 UNL     1      -2.847   1.219   1.988  1.00  0.00     0.048 C 
HETATM   12  C18 UNL     1      -3.853   1.108  -0.250  1.00  0.00     0.028 C 
HETATM   13  C19 UNL     1      -4.615   1.564  -1.270  1.00  0.00     0.015 C 
HETATM   14 CL1  UNL     1      -4.037   3.009  -2.057  1.00  0.00    -0.089 Cl
HETATM   15  C20 UNL     1      -5.930   0.950  -1.799  1.00  0.00     0.089 C 
HETATM   16  H12 UNL     1      -4.486  -2.293   1.828  1.00  0.00     0.159 HD
HETATM   17  H18 UNL     1      -4.752  -0.146   2.724  1.00  0.00     0.160 HD
ENDROOT
BRANCH   1  18
HETATM   18  C8  UNL     1      -1.443  -0.437   0.432  1.00  0.00     0.256 C 
HETATM   19  N3  UNL     1      -0.363  -1.300   0.082  1.00  0.00    -0.323 N 
HETATM   20  H10 UNL     1      -0.539  -2.342  -0.025  1.00  0.00     0.169 HD
HETATM   21  O1  UNL     1      -0.877   0.715   0.472  1.00  0.00    -0.267 OA
BRANCH  19  22
HETATM   22  C7  UNL     1       0.937  -0.712  -0.113  1.00  0.00     0.035 A 
HETATM   23  C6  UNL     1       1.431  -0.236  -1.293  1.00  0.00     0.032 A 
HETATM   24  C5  UNL     1       2.674   0.315  -1.426  1.00  0.00     0.031 A 
HETATM   25  C4  UNL     1       3.513   0.414  -0.317  1.00  0.00     0.030 A 
HETATM   26  C22 UNL     1       3.004  -0.069   0.867  1.00  0.00     0.031 A 
HETATM   27  C21 UNL     1       1.738  -0.633   1.016  1.00  0.00     0.032 A 
BRANCH  25  28
HETATM   28  N2  UNL     1       4.818   0.972  -0.373  1.00  0.00    -0.378 N 
HETATM   29  C3  UNL     1       5.758   1.144   0.696  1.00  0.00     0.153 C 
HETATM   30  C2  UNL     1       6.904   0.192   0.435  1.00  0.00     0.291 C 
HETATM   31  N1  UNL     1       7.510   0.420  -0.859  1.00  0.00     0.087 N 
HETATM   32  C1  UNL     1       7.507  -0.814  -1.614  1.00  0.00     0.310 C 
HETATM   33  C24 UNL     1       6.898   1.524  -1.564  1.00  0.00     0.291 C 
HETATM   34  C23 UNL     1       5.387   1.462  -1.591  1.00  0.00     0.153 C 
ENDBRANCH  25  28
ENDBRANCH  19  22
ENDBRANCH   1  18
TORSDOF 3
