REMARK  5 active torsions:
REMARK  status: ('A' for Active; 'I' for Inactive)
REMARK    1  A    between atoms: O1_2  and  C2_3 
REMARK    2  A    between atoms: N1_9  and  O2_10 
REMARK    3  A    between atoms: O2_10  and  O3_11 
REMARK    4  A    between atoms: N2_12  and  C8_13 
REMARK    5  A    between atoms: C11_16  and  N3_17 
ROOT
HETATM    1  C2  UNL     1      -6.604   0.240   0.579  1.00  0.00     0.062 C 
HETATM    2  C3  UNL     1      -6.909  -0.373  -0.565  1.00  0.00     0.103 C 
HETATM    3  C4  UNL     1      -5.949  -0.675  -1.708  1.00  0.00    -0.012 C 
HETATM    4  C5  UNL     1      -4.912  -0.840  -2.608  1.00  0.00     0.046 C 
HETATM    5  C6  UNL     1      -3.679  -0.226  -2.006  1.00  0.00     0.000 C 
HETATM    6  C7  UNL     1      -2.360   0.001  -2.234  1.00  0.00     0.143 C 
HETATM    7  N1  UNL     1      -1.093   0.542  -1.800  1.00  0.00    -0.137 N 
HETATM    8  N2  UNL     1      -0.699   0.783  -0.495  1.00  0.00    -0.243 N 
HETATM    9  C18 UNL     1      -1.313   1.214   0.748  1.00  0.00     0.182 C 
HETATM   10  C19 UNL     1      -2.312   0.319   1.325  1.00  0.00     0.012 C 
HETATM   11  C20 UNL     1      -3.578   0.339   1.661  1.00  0.00     0.080 C 
HETATM   12  N6  UNL     1      -4.716   1.170   1.684  1.00  0.00    -0.397 N 
HETATM   13  C21 UNL     1      -6.133   0.940   1.827  1.00  0.00     0.151 C 
HETATM   14  H28 UNL     1      -4.173   2.045   1.562  1.00  0.00     0.158 HD
ENDROOT
BRANCH   8  15
HETATM   15  C8  UNL     1       0.726   0.493  -0.431  1.00  0.00     0.146 A 
HETATM   16  C9  UNL     1       1.530   1.221   0.419  1.00  0.00     0.054 A 
HETATM   17  C10 UNL     1       2.886   1.014   0.564  1.00  0.00     0.034 A 
HETATM   18  C11 UNL     1       3.504   0.038  -0.162  1.00  0.00     0.048 A 
HETATM   19  C17 UNL     1       2.676  -0.667  -0.998  1.00  0.00     0.148 A 
HETATM   20  N5  UNL     1       1.364  -0.437  -1.112  1.00  0.00    -0.239 NA
BRANCH  18  21
HETATM   21  N3  UNL     1       4.888  -0.276  -0.110  1.00  0.00    -0.376 N 
HETATM   22  C12 UNL     1       5.869   0.388   0.709  1.00  0.00     0.153 C 
HETATM   23  C13 UNL     1       6.516  -0.714   1.557  1.00  0.00     0.291 C 
HETATM   24  N4  UNL     1       7.350  -1.444   0.654  1.00  0.00     0.087 N 
HETATM   25  C14 UNL     1       8.667  -0.837   0.554  1.00  0.00     0.310 C 
HETATM   26  C15 UNL     1       6.786  -1.789  -0.597  1.00  0.00     0.291 C 
HETATM   27  C16 UNL     1       5.421  -1.321  -0.908  1.00  0.00     0.153 C 
ENDBRANCH  18  21
ENDBRANCH   8  15
BRANCH   7  28
HETATM   28  O2  UNL     1      -0.304   0.813  -2.856  1.00  0.00    -0.092 OA
BRANCH  28  29
HETATM   29  O3  UNL     1      -0.948   1.542  -3.747  1.00  0.00    -0.225 OA
HETATM   30  H9  UNL     1      -0.304   1.899  -4.412  1.00  0.00     0.256 HD
ENDBRANCH  28  29
ENDBRANCH   7  28
BRANCH   1  31
HETATM   31  O1  UNL     1      -7.987  -0.006   0.770  1.00  0.00    -0.388 OA
HETATM   32  C1  UNL     1      -8.444  -0.985   1.673  1.00  0.00     0.202 C 
ENDBRANCH   1  31
TORSDOF 5
