REMARK  0 active torsions:
REMARK  status: ('A' for Active; 'I' for Inactive)
ROOT
HETATM    1 BR1  UNL     1       2.533   2.629  -2.052  1.00  0.00    -0.050 Br
HETATM    2  C1  UNL     1       2.706   1.373  -0.637  1.00  0.00     0.021 A 
HETATM    3  C2  UNL     1       3.773   1.197   0.185  1.00  0.00     0.020 A 
HETATM    4  C3  UNL     1       3.814   0.226   1.164  1.00  0.00     0.004 A 
HETATM    5  C4  UNL     1       2.734  -0.645   1.361  1.00  0.00     0.030 A 
HETATM    6  C5  UNL     1       1.702  -0.431   0.522  1.00  0.00     0.043 A 
HETATM    7  C6  UNL     1       1.642   0.560  -0.485  1.00  0.00     0.015 A 
HETATM    8  C7  UNL     1       0.453   0.787  -1.397  1.00  0.00     0.179 C 
HETATM    9  N1  UNL     1       0.279  -0.279  -2.348  1.00  0.00    -0.268 NA
HETATM   10  C8  UNL     1       0.628  -1.559  -2.275  1.00  0.00     0.229 C 
HETATM   11  N2  UNL     1       0.378  -2.580  -1.236  1.00  0.00    -0.227 NA
HETATM   12  C9  UNL     1       0.019  -2.306   0.036  1.00  0.00     0.134 C 
HETATM   13  C10 UNL     1      -1.351  -2.899   0.285  1.00  0.00     0.347 C 
HETATM   14  N3  UNL     1      -2.263  -1.808   0.554  1.00  0.00     0.094 N 
HETATM   15  C11 UNL     1      -2.448  -0.932  -0.588  1.00  0.00     0.309 C 
HETATM   16  C12 UNL     1      -1.906   0.428  -0.234  1.00  0.00    -0.022 A 
HETATM   17  C13 UNL     1      -2.801   1.098   0.618  1.00  0.00     0.009 A 
HETATM   18  C14 UNL     1      -2.646   2.358   1.167  1.00  0.00     0.001 A 
HETATM   19  C15 UNL     1      -1.485   3.002   0.827  1.00  0.00     0.001 A 
HETATM   20  C16 UNL     1      -0.608   2.357  -0.002  1.00  0.00     0.010 A 
HETATM   21  C17 UNL     1      -0.744   1.097  -0.562  1.00  0.00    -0.021 A 
HETATM   22  N4  UNL     1       0.825  -1.529   0.974  1.00  0.00    -0.342 N 
HETATM   23  H8  UNL     1      -3.121  -2.068   1.043  1.00  0.00     0.316 HD
HETATM   24  H15 UNL     1       0.839  -1.692   1.996  1.00  0.00     0.167 HD
ENDROOT
TORSDOF 0
