REMARK  7 active torsions:
REMARK  status: ('A' for Active; 'I' for Inactive)
REMARK    1  A    between atoms: C1_2  and  N1_3 
REMARK    2  A    between atoms: N1_3  and  C2_4 
REMARK    3  A    between atoms: C3_5  and  C4_6 
REMARK    4  A    between atoms: C4_6  and  C5_7 
REMARK    5  A    between atoms: C4_6  and  N4_24 
REMARK       I    between atoms: C5_7  and  N2_9 
REMARK    6  A    between atoms: N2_9  and  C6_10 
REMARK    7  A    between atoms: C9_13  and  N3_14 
ROOT
HETATM    1  C5  UNL     1       1.612  -0.828  -0.032  1.00  0.00     0.248 C 
HETATM    2  O2  UNL     1       1.012  -1.944   0.174  1.00  0.00    -0.271 OA
HETATM    3  N2  UNL     1       0.791   0.304  -0.154  1.00  0.00    -0.325 N 
HETATM    4  H6  UNL     1       1.391   1.142  -0.318  1.00  0.00     0.169 HD
ENDROOT
BRANCH   1   5
HETATM    5  C4  UNL     1       3.057  -1.146  -0.073  1.00  0.00     0.197 C 
BRANCH   5   6
HETATM    6  C3  UNL     1       3.388  -1.774   1.264  1.00  0.00     0.024 C 
HETATM    7  C2  UNL     1       3.639  -3.057   1.442  1.00  0.00     0.089 C 
BRANCH   7   8
HETATM    8  N1  UNL     1       3.589  -3.872   0.293  1.00  0.00    -0.344 N 
HETATM    9  H2  UNL     1       4.176  -3.780  -0.571  1.00  0.00     0.167 HD
BRANCH   8  10
HETATM   10  C1  UNL     1       2.703  -4.975   0.138  1.00  0.00     0.352 C 
HETATM   11  O1  UNL     1       1.811  -5.504   0.861  1.00  0.00    -0.283 OA
ENDBRANCH   8  10
ENDBRANCH   7   8
ENDBRANCH   5   6
BRANCH   5  12
HETATM   12  N4  UNL     1       3.950  -0.096  -0.293  1.00  0.00    -0.394 N 
HETATM   13  C16 UNL     1       3.796   0.647  -1.538  1.00  0.00     0.145 C 
HETATM   14  C17 UNL     1       3.850   2.085  -1.541  1.00  0.00    -0.008 C 
HETATM   15  C18 UNL     1       4.211   3.279  -1.019  1.00  0.00    -0.003 C 
HETATM   16  C19 UNL     1       4.975   3.556   0.228  1.00  0.00    -0.004 C 
HETATM   17  C20 UNL     1       5.276   2.761   1.294  1.00  0.00    -0.025 C 
HETATM   18  C21 UNL     1       5.013   1.303   1.732  1.00  0.00     0.046 C 
HETATM   19  C22 UNL     1       4.442   0.772   0.539  1.00  0.00     0.122 C 
ENDBRANCH   5  12
ENDBRANCH   1   5
BRANCH   3  20
HETATM   20  C6  UNL     1      -0.607   0.137  -0.044  1.00  0.00     0.034 A 
HETATM   21  C7  UNL     1      -1.373  -0.124  -1.153  1.00  0.00     0.032 A 
HETATM   22  C8  UNL     1      -2.738  -0.283  -1.023  1.00  0.00     0.031 A 
HETATM   23  C9  UNL     1      -3.412  -0.198   0.175  1.00  0.00     0.030 A 
HETATM   24  C14 UNL     1      -2.599   0.065   1.254  1.00  0.00     0.031 A 
HETATM   25  C15 UNL     1      -1.242   0.232   1.184  1.00  0.00     0.032 A 
BRANCH  23  26
HETATM   26  N3  UNL     1      -4.819  -0.374   0.259  1.00  0.00    -0.379 N 
HETATM   27  C10 UNL     1      -5.580  -0.772  -0.907  1.00  0.00     0.138 C 
HETATM   28  C11 UNL     1      -6.283   0.450  -1.513  1.00  0.00     0.160 C 
HETATM   29  S1  UNL     1      -7.446   0.961  -0.248  1.00  0.00     0.147 S 
HETATM   30  O3  UNL     1      -8.558  -0.061  -0.244  1.00  0.00    -0.228 OA
HETATM   31  O4  UNL     1      -7.974   2.330  -0.529  1.00  0.00    -0.228 OA
HETATM   32  C12 UNL     1      -6.617   0.933   1.296  1.00  0.00     0.160 C 
HETATM   33  C13 UNL     1      -5.603  -0.181   1.437  1.00  0.00     0.138 C 
ENDBRANCH  23  26
ENDBRANCH   3  20
TORSDOF 7
