REMARK  6 active torsions:
REMARK  status: ('A' for Active; 'I' for Inactive)
REMARK    1  A    between atoms: N2_5  and  C4_6 
REMARK    2  A    between atoms: C7_9  and  N3_10 
REMARK       I    between atoms: N3_10  and  C8_11 
REMARK    3  A    between atoms: C8_11  and  C9_13 
REMARK    4  A    between atoms: C9_13  and  C16_22 
REMARK    5  A    between atoms: C10_14  and  N4_15 
REMARK    6  A    between atoms: N4_15  and  C11_16 
ROOT
HETATM    1  C16 UNL     1       3.956   1.297  -0.259  1.00  0.00     0.115 C 
HETATM    2  C17 UNL     1       3.306   2.375   0.538  1.00  0.00     0.235 C 
HETATM    3  O2  UNL     1       2.607   3.175   1.123  1.00  0.00    -0.307 OA
ENDROOT
BRANCH   1   4
HETATM    4  C9  UNL     1       3.334   0.002   0.116  1.00  0.00     0.031 C 
HETATM    5  C10 UNL     1       3.969  -1.044   0.635  1.00  0.00     0.097 C 
BRANCH   4   6
HETATM    6  C8  UNL     1       1.910  -0.186  -0.096  1.00  0.00     0.253 C 
HETATM    7  N3  UNL     1       0.986   0.742  -0.599  1.00  0.00    -0.323 N 
HETATM    8  H10 UNL     1       1.450   1.658  -0.843  1.00  0.00     0.169 HD
HETATM    9  O1  UNL     1       1.402  -1.321   0.205  1.00  0.00    -0.268 OA
BRANCH   7  10
HETATM   10  C7  UNL     1      -0.400   0.583  -0.803  1.00  0.00     0.035 A 
HETATM   11  C6  UNL     1      -1.181  -0.540  -0.759  1.00  0.00     0.032 A 
HETATM   12  C5  UNL     1      -2.545  -0.567  -0.891  1.00  0.00     0.031 A 
HETATM   13  C4  UNL     1      -3.246   0.627  -1.087  1.00  0.00     0.030 A 
HETATM   14  C19 UNL     1      -2.532   1.805  -1.145  1.00  0.00     0.031 A 
HETATM   15  C18 UNL     1      -1.170   1.730  -1.006  1.00  0.00     0.032 A 
BRANCH  13  16
HETATM   16  N2  UNL     1      -4.658   0.521  -1.208  1.00  0.00    -0.378 N 
HETATM   17  C3  UNL     1      -5.257  -0.677  -1.818  1.00  0.00     0.153 C 
HETATM   18  C2  UNL     1      -6.008  -1.390  -0.721  1.00  0.00     0.291 C 
HETATM   19  N1  UNL     1      -6.773  -0.528   0.125  1.00  0.00     0.087 N 
HETATM   20  C1  UNL     1      -6.392  -0.520   1.513  1.00  0.00     0.310 C 
HETATM   21  C21 UNL     1      -6.934   0.812  -0.341  1.00  0.00     0.291 C 
HETATM   22  C20 UNL     1      -5.663   1.512  -0.757  1.00  0.00     0.153 C 
ENDBRANCH  13  16
ENDBRANCH   7  10
ENDBRANCH   4   6
BRANCH   5  23
HETATM   23  N4  UNL     1       5.302  -1.241   0.981  1.00  0.00    -0.386 N 
HETATM   24  H12 UNL     1       5.233  -1.186   2.046  1.00  0.00     0.160 HD
BRANCH  23  25
HETATM   25  C11 UNL     1       6.688  -1.450   0.720  1.00  0.00     0.149 A 
HETATM   26  C12 UNL     1       7.398  -0.325   0.082  1.00  0.00     0.004 A 
HETATM   27  C13 UNL     1       8.498  -0.030   0.809  1.00  0.00    -0.000 A 
HETATM   28  C14 UNL     1       8.576  -0.944   1.966  1.00  0.00     0.021 A 
HETATM   29  C15 UNL     1       7.512  -1.759   1.890  1.00  0.00     0.038 A 
HETATM   30 CL1  UNL     1       6.790  -3.096   2.772  1.00  0.00    -0.086 Cl
ENDBRANCH  23  25
ENDBRANCH   5  23
ENDBRANCH   1   4
TORSDOF 6
