REMARK  7 active torsions:
REMARK  status: ('A' for Active; 'I' for Inactive)
REMARK    1  A    between atoms: N1_2  and  C3_4 
REMARK    2  A    between atoms: C3_4  and  C4_5 
REMARK    3  A    between atoms: C4_5  and  N2_6 
REMARK    4  A    between atoms: N2_6  and  C5_7 
REMARK       I    between atoms: N3_11  and  C9_12 
REMARK    5  A    between atoms: C9_12  and  C10_14 
REMARK    6  A    between atoms: C11_15  and  N4_16 
REMARK    7  A    between atoms: N4_16  and  C12_17 
ROOT
HETATM    1  C5  UNL     1      -0.446   0.280  -0.951  1.00  0.00     0.029 C 
HETATM    2  C6  UNL     1      -0.207   0.963   0.161  1.00  0.00     0.030 C 
HETATM    3  C7  UNL     1       0.956   0.845   1.045  1.00  0.00     0.020 C 
HETATM    4  C8  UNL     1       2.102   0.220   0.810  1.00  0.00     0.099 C 
HETATM    5  N3  UNL     1       2.508  -0.494  -0.349  1.00  0.00    -0.300 N 
HETATM    6  C9  UNL     1       3.878  -0.708  -0.659  1.00  0.00     0.260 C 
HETATM    7  O1  UNL     1       4.235  -1.345  -1.690  1.00  0.00    -0.267 OA
HETATM    8  C14 UNL     1       1.613  -1.070  -1.323  1.00  0.00     0.102 C 
HETATM    9  C15 UNL     1       0.356  -0.753  -1.591  1.00  0.00     0.047 C 
ENDROOT
BRANCH   6  10
HETATM   10  C10 UNL     1       4.910  -0.184   0.224  1.00  0.00     0.041 A 
HETATM   11  C11 UNL     1       6.237  -0.007   0.548  1.00  0.00     0.055 A 
HETATM   12  C13 UNL     1       5.289   0.572   1.471  1.00  0.00     0.106 A 
BRANCH  11  13
HETATM   13  N4  UNL     1       7.575  -0.304   0.096  1.00  0.00    -0.209 NA
BRANCH  13  14
HETATM   14  C12 UNL     1       8.487   0.541   0.287  1.00  0.00     0.337 C 
HETATM   15  O2  UNL     1       9.265   1.490   0.309  1.00  0.00    -0.260 OA
ENDBRANCH  13  14
ENDBRANCH  11  13
ENDBRANCH   6  10
BRANCH   1  16
HETATM   16  N2  UNL     1      -1.691   0.748  -1.450  1.00  0.00    -0.388 N 
HETATM   17  H11 UNL     1      -1.549   1.715  -1.867  1.00  0.00     0.159 HD
BRANCH  16  18
HETATM   18  C4  UNL     1      -2.990   0.055  -1.421  1.00  0.00     0.150 C 
BRANCH  18  19
HETATM   19  C3  UNL     1      -3.413  -0.023   0.009  1.00  0.00     0.290 C 
BRANCH  19  20
HETATM   20  N1  UNL     1      -4.671  -0.671   0.255  1.00  0.00     0.081 N 
HETATM   21  C1  UNL     1      -5.007  -0.717   1.665  1.00  0.00     0.309 C 
HETATM   22  C2  UNL     1      -5.765  -0.138  -0.502  1.00  0.00     0.309 C 
ENDBRANCH  19  20
ENDBRANCH  18  19
ENDBRANCH  16  18
ENDBRANCH   1  16
TORSDOF 7
