REMARK  3 active torsions:
REMARK  status: ('A' for Active; 'I' for Inactive)
REMARK    1  A    between atoms: C4_4  and  C5_6 
REMARK    2  A    between atoms: C6_7  and  N1_8 
REMARK    3  A    between atoms: N1_8  and  C7_9 
ROOT
HETATM    1  C1  UNL     1       7.575  -0.586   0.462  1.00  0.00     0.017 C 
HETATM    2  C2  UNL     1       6.725   0.055  -0.140  1.00  0.00    -0.088 C 
HETATM    3  C3  UNL     1       5.726   0.802  -0.872  1.00  0.00     0.082 C 
HETATM    4  C4  UNL     1       4.485   0.376  -0.691  1.00  0.00     0.020 C 
HETATM    5 BR1  UNL     1       4.368  -1.113   0.494  1.00  0.00    -0.050 Br
ENDROOT
BRANCH   4   6
HETATM    6  C5  UNL     1       3.307   0.964  -1.318  1.00  0.00     0.036 C 
HETATM    7  C6  UNL     1       2.101   0.516  -1.114  1.00  0.00     0.091 C 
BRANCH   7   8
HETATM    8  N1  UNL     1       1.727  -0.575  -0.284  1.00  0.00    -0.349 N 
HETATM    9  H5  UNL     1       1.906  -1.589  -0.309  1.00  0.00     0.167 HD
BRANCH   8  10
HETATM   10  C7  UNL     1       0.931  -0.558   0.919  1.00  0.00     0.159 A 
HETATM   11  N2  UNL     1       1.380  -0.412   2.174  1.00  0.00    -0.222 NA
HETATM   12  C8  UNL     1       0.513  -0.416   3.200  1.00  0.00     0.238 A 
HETATM   13  N3  UNL     1      -0.823  -0.565   3.025  1.00  0.00    -0.215 NA
HETATM   14  C9  UNL     1      -1.326  -0.716   1.774  1.00  0.00     0.202 A 
HETATM   15  C10 UNL     1      -0.432  -0.711   0.709  1.00  0.00     0.129 A 
HETATM   16  O1  UNL     1      -2.728  -0.858   1.756  1.00  0.00    -0.289 OA
HETATM   17  N4  UNL     1      -0.828  -0.860  -0.657  1.00  0.00    -0.379 N 
HETATM   18  C11 UNL     1      -2.059  -0.770  -1.389  1.00  0.00     0.161 C 
HETATM   19  H7  UNL     1      -0.023  -1.094  -1.285  1.00  0.00     0.160 HD
HETATM   20  C12 UNL     1      -3.217  -0.352  -0.595  1.00  0.00    -0.007 A 
HETATM   21  C13 UNL     1      -4.143   0.172  -1.503  1.00  0.00     0.011 A 
HETATM   22  C17 UNL     1      -3.584  -0.354   0.756  1.00  0.00     0.086 A 
HETATM   23  C14 UNL     1      -5.368   0.667  -1.101  1.00  0.00     0.001 A 
HETATM   24  C15 UNL     1      -5.676   0.640   0.244  1.00  0.00     0.003 A 
HETATM   25  C16 UNL     1      -4.800   0.134   1.189  1.00  0.00     0.038 A 
ENDBRANCH   8  10
ENDBRANCH   7   8
ENDBRANCH   4   6
TORSDOF 3
