REMARK  5 active torsions:
REMARK  status: ('A' for Active; 'I' for Inactive)
REMARK    1  A    between atoms: C2_2  and  N1_3 
REMARK    2  A    between atoms: C2_2  and  C13_17 
REMARK    3  A    between atoms: C5_6  and  N2_7 
REMARK    4  A    between atoms: C13_17  and  N4_18 
REMARK    5  A    between atoms: N4_18  and  C14_19 
ROOT
HETATM    1  C13 UNL     1      -2.765   1.099   0.828  1.00  0.00     0.174 A 
HETATM    2  C20 UNL     1      -2.628   1.920  -0.379  1.00  0.00     0.037 A 
HETATM    3  C21 UNL     1      -2.127   3.131  -0.091  1.00  0.00     0.090 A 
HETATM    4  N5  UNL     1      -1.886   3.224   1.327  1.00  0.00    -0.335 N 
HETATM    5  C22 UNL     1      -2.271   1.988   1.913  1.00  0.00     0.260 A 
HETATM    6  O2  UNL     1      -2.300   1.478   3.054  1.00  0.00    -0.270 OA
HETATM    7  H24 UNL     1      -1.525   3.913   2.020  1.00  0.00     0.168 HD
ENDROOT
BRANCH   1   8
HETATM    8  C2  UNL     1      -1.873  -0.100   0.685  1.00  0.00     0.044 C 
HETATM    9  C1  UNL     1      -2.242  -1.359   0.867  1.00  0.00     0.042 C 
BRANCH   8  10
HETATM   10  N1  UNL     1      -0.472  -0.114   0.345  1.00  0.00    -0.354 N 
HETATM   11  C3  UNL     1      -0.033   0.092  -0.993  1.00  0.00     0.093 A 
HETATM   12  C4  UNL     1       1.270   0.067  -1.215  1.00  0.00     0.046 A 
HETATM   13  C5  UNL     1       2.292  -0.153  -0.209  1.00  0.00     0.036 A 
HETATM   14  C11 UNL     1       1.790  -0.335   0.999  1.00  0.00     0.023 A 
HETATM   15  C12 UNL     1       0.392  -0.352   1.485  1.00  0.00     0.158 A 
BRANCH  13  16
HETATM   16  N2  UNL     1       3.683  -0.191  -0.451  1.00  0.00    -0.315 N 
HETATM   17  C6  UNL     1       4.667  -0.487   0.555  1.00  0.00     0.162 C 
HETATM   18  C7  UNL     1       5.843  -1.289   0.010  1.00  0.00     0.292 C 
HETATM   19  N3  UNL     1       6.435  -0.680  -1.138  1.00  0.00     0.094 N 
HETATM   20  C8  UNL     1       6.743   0.693  -0.810  1.00  0.00     0.310 C 
HETATM   21  C9  UNL     1       5.422  -0.691  -2.187  1.00  0.00     0.374 C 
HETATM   22  C10 UNL     1       4.206   0.057  -1.741  1.00  0.00     0.252 C 
HETATM   23  O1  UNL     1       3.662   0.899  -2.518  1.00  0.00    -0.271 OA
ENDBRANCH  13  16
ENDBRANCH   8  10
ENDBRANCH   1   8
BRANCH   1  24
HETATM   24  N4  UNL     1      -4.093   0.627   1.089  1.00  0.00    -0.364 N 
HETATM   25  H17 UNL     1      -4.502   0.895   2.030  1.00  0.00     0.161 HD
BRANCH  24  26
HETATM   26  C14 UNL     1      -4.897  -0.144   0.241  1.00  0.00     0.031 A 
HETATM   27  C15 UNL     1      -4.553  -0.572  -1.014  1.00  0.00     0.029 A 
HETATM   28  C16 UNL     1      -5.330  -1.335  -1.861  1.00  0.00     0.004 A 
HETATM   29  C17 UNL     1      -6.576  -1.705  -1.406  1.00  0.00     0.024 A 
HETATM   30  C18 UNL     1      -6.999  -1.315  -0.154  1.00  0.00     0.036 A 
HETATM   31 CL1  UNL     1      -8.578  -1.790   0.414  1.00  0.00    -0.084 Cl
HETATM   32  C19 UNL     1      -6.157  -0.553   0.626  1.00  0.00     0.053 A 
ENDBRANCH  24  26
ENDBRANCH   1  24
TORSDOF 5
