REMARK  7 active torsions:
REMARK  status: ('A' for Active; 'I' for Inactive)
REMARK    1  A    between atoms: N2_5  and  C4_6 
REMARK    2  A    between atoms: C7_9  and  N3_10 
REMARK       I    between atoms: N3_10  and  C8_11 
REMARK    3  A    between atoms: C8_11  and  C9_13 
REMARK    4  A    between atoms: C9_13  and  C17_23 
REMARK    5  A    between atoms: C10_14  and  N4_15 
REMARK    6  A    between atoms: N4_15  and  C11_16 
REMARK    7  A    between atoms: C17_23  and  C18_24 
ROOT
HETATM    1  N3  UNL     1       1.026  -0.716   0.433  1.00  0.00    -0.323 N 
HETATM    2  C8  UNL     1       2.085  -1.033  -0.435  1.00  0.00     0.253 C 
HETATM    3  O1  UNL     1       1.850  -1.153  -1.650  1.00  0.00    -0.268 OA
HETATM    4  H10 UNL     1       1.106  -0.590   1.465  1.00  0.00     0.169 HD
ENDROOT
BRANCH   2   5
HETATM    5  C9  UNL     1       3.425  -1.214   0.098  1.00  0.00     0.028 C 
HETATM    6  C10 UNL     1       4.414  -1.509  -0.727  1.00  0.00     0.101 C 
BRANCH   6   7
HETATM    7  N4  UNL     1       5.743  -1.696  -0.259  1.00  0.00    -0.365 N 
HETATM    8  H12 UNL     1       6.196  -2.463   0.265  1.00  0.00     0.165 HD
BRANCH   7   9
HETATM    9  C11 UNL     1       6.457  -0.527  -0.668  1.00  0.00     0.033 A 
HETATM   10  C12 UNL     1       6.567   0.620   0.093  1.00  0.00     0.029 A 
HETATM   11  C13 UNL     1       7.260   1.713  -0.337  1.00  0.00     0.004 A 
HETATM   12  C14 UNL     1       7.882   1.698  -1.572  1.00  0.00     0.024 A 
HETATM   13  C15 UNL     1       7.768   0.545  -2.331  1.00  0.00     0.036 A 
HETATM   14 CL1  UNL     1       8.596   0.620  -3.893  1.00  0.00    -0.084 Cl
HETATM   15  C16 UNL     1       7.063  -0.569  -1.894  1.00  0.00     0.053 A 
ENDBRANCH   7   9
ENDBRANCH   6   7
BRANCH   5  16
HETATM   16  C17 UNL     1       3.704  -1.072   1.551  1.00  0.00     0.082 C 
BRANCH  16  17
HETATM   17  C18 UNL     1       2.873  -2.125   2.245  1.00  0.00     0.395 C 
HETATM   18  O2  UNL     1       2.084  -3.043   2.196  1.00  0.00    -0.429 OA
ENDBRANCH  16  17
ENDBRANCH   5  16
ENDBRANCH   2   5
BRANCH   1  19
HETATM   19  C7  UNL     1      -0.351  -0.493   0.166  1.00  0.00     0.035 A 
HETATM   20  C6  UNL     1      -0.752   0.781  -0.110  1.00  0.00     0.032 A 
HETATM   21  C5  UNL     1      -2.052   1.083  -0.378  1.00  0.00     0.031 A 
HETATM   22  C4  UNL     1      -3.056   0.144  -0.392  1.00  0.00     0.030 A 
HETATM   23  C20 UNL     1      -2.644  -1.141  -0.112  1.00  0.00     0.031 A 
HETATM   24  C19 UNL     1      -1.333  -1.463   0.160  1.00  0.00     0.032 A 
BRANCH  22  25
HETATM   25  N2  UNL     1      -4.431   0.380  -0.661  1.00  0.00    -0.378 N 
HETATM   26  C3  UNL     1      -5.502  -0.591  -0.679  1.00  0.00     0.142 C 
HETATM   27  C2  UNL     1      -6.647  -0.283   0.225  1.00  0.00     0.136 C 
HETATM   28  N1  UNL     1      -6.924   1.088   0.433  1.00  0.00    -0.414 N 
HETATM   29  C1  UNL     1      -7.803   1.405   1.492  1.00  0.00     0.143 C 
HETATM   30  C22 UNL     1      -5.899   2.033   0.163  1.00  0.00     0.136 C 
HETATM   31  C21 UNL     1      -4.998   1.678  -0.970  1.00  0.00     0.142 C 
ENDBRANCH  22  25
ENDBRANCH   1  19
TORSDOF 7
