REMARK  6 active torsions:
REMARK  status: ('A' for Active; 'I' for Inactive)
REMARK    1  A    between atoms: C3_3  and  C4_4 
REMARK    2  A    between atoms: C4_4  and  N1_5 
REMARK    3  A    between atoms: N1_5  and  C5_6 
REMARK    4  A    between atoms: C7_8  and  N2_10 
REMARK    5  A    between atoms: N2_10  and  C9_11 
REMARK    6  A    between atoms: C12_14  and  N3_15 
ROOT
HETATM    1  C5  UNL     1      -2.827   0.905   0.774  1.00  0.00     0.022 C 
HETATM    2  C6  UNL     1      -1.672   0.474   1.259  1.00  0.00     0.039 C 
HETATM    3  C7  UNL     1      -0.336   0.871   0.746  1.00  0.00     0.128 C 
HETATM    4  C8  UNL     1      -0.074   2.282   1.132  1.00  0.00     0.054 C 
HETATM    5  C19 UNL     1      -0.467   0.836  -0.745  1.00  0.00     0.249 C 
HETATM    6  O1  UNL     1       0.246   0.337  -1.660  1.00  0.00    -0.270 OA
HETATM    7  N5  UNL     1      -1.634   1.497  -1.274  1.00  0.00    -0.353 N 
HETATM    8  C20 UNL     1      -2.712   1.850  -0.359  1.00  0.00     0.179 C 
HETATM    9  H25 UNL     1      -1.754   1.743  -2.292  1.00  0.00     0.162 HD
ENDROOT
BRANCH   3  10
HETATM   10  N2  UNL     1       0.644  -0.087   1.208  1.00  0.00    -0.369 N 
HETATM   11  H11 UNL     1       0.323  -0.919   1.792  1.00  0.00     0.161 HD
BRANCH  10  12
HETATM   12  C9  UNL     1       2.068  -0.078   0.981  1.00  0.00     0.029 A 
HETATM   13  C10 UNL     1       2.924  -1.070   1.470  1.00  0.00     0.031 A 
HETATM   14  C11 UNL     1       4.267  -0.939   1.187  1.00  0.00     0.031 A 
HETATM   15  C12 UNL     1       4.827   0.091   0.462  1.00  0.00     0.031 A 
HETATM   16  C17 UNL     1       3.995   1.067  -0.021  1.00  0.00     0.031 A 
HETATM   17  C18 UNL     1       2.634   0.963   0.247  1.00  0.00     0.031 A 
BRANCH  15  18
HETATM   18  N3  UNL     1       6.230   0.129   0.227  1.00  0.00    -0.354 N 
HETATM   19  C13 UNL     1       6.973   1.172  -0.475  1.00  0.00     0.155 C 
HETATM   20  C14 UNL     1       8.233   0.496  -0.903  1.00  0.00     0.293 C 
HETATM   21  N4  UNL     1       8.186  -0.858  -0.408  1.00  0.00     0.103 N 
HETATM   22  C15 UNL     1       7.836  -1.764  -1.466  1.00  0.00     0.312 C 
HETATM   23  C16 UNL     1       7.187  -0.873   0.647  1.00  0.00     0.397 C 
ENDBRANCH  15  18
ENDBRANCH  10  12
ENDBRANCH   3  10
BRANCH   1  24
HETATM   24  N1  UNL     1      -4.015   0.438   1.366  1.00  0.00    -0.388 N 
HETATM   25  H6  UNL     1      -4.164   1.369   1.861  1.00  0.00     0.159 HD
BRANCH  24  26
HETATM   26  C4  UNL     1      -5.008  -0.573   1.598  1.00  0.00     0.154 C 
BRANCH  26  27
HETATM   27  C3  UNL     1      -5.827  -0.883   0.411  1.00  0.00    -0.056 A 
HETATM   28  C2  UNL     1      -7.116  -0.687   0.515  1.00  0.00    -0.058 A 
HETATM   29  C1  UNL     1      -7.735  -0.181   1.754  1.00  0.00     0.048 C 
HETATM   30  C24 UNL     1      -7.903  -1.002  -0.662  1.00  0.00     0.003 A 
HETATM   31  C23 UNL     1      -7.152  -1.441  -1.652  1.00  0.00    -0.026 A 
HETATM   32  C22 UNL     1      -5.716  -1.698  -1.879  1.00  0.00     0.031 A 
HETATM   33  C21 UNL     1      -4.916  -1.363  -0.650  1.00  0.00     0.040 A 
ENDBRANCH  26  27
ENDBRANCH  24  26
ENDBRANCH   1  24
TORSDOF 6
