REMARK  1 active torsions:
REMARK  status: ('A' for Active; 'I' for Inactive)
REMARK    1  A    between atoms: C7_9  and  C8_10 
ROOT
HETATM    1  C1  UNL     1      -5.103   0.204   1.006  1.00  0.00     0.144 C 
HETATM    2  N1  UNL     1      -3.661  -0.032   0.929  1.00  0.00    -0.391 N 
HETATM    3  C2  UNL     1      -2.972   1.028   0.325  1.00  0.00     0.137 C 
HETATM    4  C3  UNL     1      -3.230   1.091  -1.187  1.00  0.00     0.133 C 
HETATM    5  N2  UNL     1      -2.186   1.915  -1.821  1.00  0.00    -0.414 N 
HETATM    6  C4  UNL     1      -0.823   1.389  -1.654  1.00  0.00     0.022 C 
HETATM    7  C5  UNL     1      -0.246   2.607  -1.711  1.00  0.00     0.107 C 
HETATM    8  C6  UNL     1       0.756   3.630  -1.713  1.00  0.00    -0.006 C 
HETATM    9  C7  UNL     1       2.048   3.607  -1.606  1.00  0.00    -0.016 C 
HETATM   10  C9  UNL     1       3.373   3.204  -1.349  1.00  0.00     0.009 C 
HETATM   11  C10 UNL     1       4.169   2.249  -0.888  1.00  0.00    -0.020 C 
HETATM   12  C11 UNL     1       3.801   0.951  -0.338  1.00  0.00     0.020 C 
HETATM   13  C12 UNL     1       4.084  -0.229   0.178  1.00  0.00    -0.002 C 
HETATM   14  C13 UNL     1       3.121  -1.303   0.624  1.00  0.00     0.007 C 
HETATM   15  C14 UNL     1       3.280  -2.574  -0.134  1.00  0.00     0.020 C 
HETATM   16  C15 UNL     1       2.513  -3.690   0.460  1.00  0.00     0.115 C 
HETATM   17  N3  UNL     1       1.091  -3.624   0.474  1.00  0.00    -0.405 N 
HETATM   18  C16 UNL     1      -0.156  -2.889   0.791  1.00  0.00     0.120 A 
HETATM   19  C17 UNL     1      -0.451  -3.354   2.099  1.00  0.00     0.038 A 
HETATM   20  C18 UNL     1      -1.605  -2.581   2.476  1.00  0.00     0.242 A 
HETATM   21  N4  UNL     1      -1.986  -1.695   1.449  1.00  0.00     0.121 N 
HETATM   22  C19 UNL     1      -1.022  -1.992   0.495  1.00  0.00     0.286 A 
HETATM   23  O2  UNL     1      -1.961  -1.222   0.442  1.00  0.00    -0.149 OA
HETATM   24  C20 UNL     1      -0.043  -2.308  -0.445  1.00  0.00     0.080 A 
HETATM   25  C21 UNL     1      -0.784  -1.240  -1.048  1.00  0.00     0.078 C 
HETATM   26  C22 UNL     1      -0.773   0.003  -1.321  1.00  0.00     0.025 C 
HETATM   27  C23 UNL     1      -3.179  -0.914   1.871  1.00  0.00     0.404 C 
HETATM   28  H8  UNL     1      -2.268   2.788  -2.374  1.00  0.00     0.153 HD
HETATM   29  H22 UNL     1       0.679  -4.564   0.128  1.00  0.00     0.154 HD
ENDROOT
BRANCH   9  30
HETATM   30  C8  UNL     1       1.825   5.072  -1.765  1.00  0.00     0.389 C 
HETATM   31  O1  UNL     1       2.497   6.128  -1.819  1.00  0.00    -0.405 OA
ENDBRANCH   9  30
TORSDOF 1
