REMARK  3 active torsions:
REMARK  status: ('A' for Active; 'I' for Inactive)
REMARK    1  A    between atoms: C4_5  and  C5_6 
REMARK       I    between atoms: C5_6  and  N2_8 
REMARK    2  A    between atoms: N2_8  and  C6_9 
REMARK    3  A    between atoms: C9_12  and  N3_13 
ROOT
HETATM    1  C5  UNL     1      -2.818  -0.248  -0.476  1.00  0.00     0.262 C 
HETATM    2  O1  UNL     1      -2.480  -1.237  -1.172  1.00  0.00    -0.267 OA
HETATM    3  N2  UNL     1      -1.758   0.497   0.083  1.00  0.00    -0.323 N 
HETATM    4  H5  UNL     1      -2.086   1.302   0.660  1.00  0.00     0.169 HD
ENDROOT
BRANCH   3   5
HETATM    5  C6  UNL     1      -0.379   0.320  -0.010  1.00  0.00     0.035 A 
HETATM    6  C7  UNL     1       0.477   1.204   0.644  1.00  0.00     0.032 A 
HETATM    7  C8  UNL     1       1.846   1.113   0.612  1.00  0.00     0.031 A 
HETATM    8  C9  UNL     1       2.451   0.101  -0.097  1.00  0.00     0.030 A 
HETATM    9  C15 UNL     1       1.674  -0.814  -0.771  1.00  0.00     0.031 A 
HETATM   10  C16 UNL     1       0.310  -0.657  -0.692  1.00  0.00     0.032 A 
BRANCH   8  11
HETATM   11  N3  UNL     1       3.863  -0.034  -0.158  1.00  0.00    -0.378 N 
HETATM   12  C10 UNL     1       4.849   0.808   0.486  1.00  0.00     0.153 C 
HETATM   13  C11 UNL     1       5.838  -0.159   1.144  1.00  0.00     0.291 C 
HETATM   14  N4  UNL     1       6.710  -0.585   0.039  1.00  0.00     0.087 N 
HETATM   15  C12 UNL     1       7.631   0.532  -0.192  1.00  0.00     0.310 C 
HETATM   16  C13 UNL     1       5.939  -0.743  -1.164  1.00  0.00     0.291 C 
HETATM   17  C14 UNL     1       4.487  -1.093  -0.919  1.00  0.00     0.153 C 
ENDBRANCH   8  11
ENDBRANCH   3   5
BRANCH   1  18
HETATM   18  C4  UNL     1      -4.250  -0.031  -0.358  1.00  0.00     0.112 C 
HETATM   19  C3  UNL     1      -5.012  -0.913  -0.986  1.00  0.00     0.013 C 
HETATM   20  C2  UNL     1      -6.238  -1.147  -0.709  1.00  0.00     0.100 C 
HETATM   21  N1  UNL     1      -7.205  -0.583   0.152  1.00  0.00    -0.377 N 
HETATM   22  C1  UNL     1      -8.567  -0.620  -0.357  1.00  0.00     0.150 C 
HETATM   23  C18 UNL     1      -6.942   0.004   1.450  1.00  0.00     0.248 C 
HETATM   24  N5  UNL     1      -5.949   1.044   1.262  1.00  0.00    -0.341 N 
HETATM   25  C17 UNL     1      -4.814   1.076   0.407  1.00  0.00     0.259 C 
HETATM   26  H21 UNL     1      -6.019   1.931   1.806  1.00  0.00     0.164 HD
HETATM   27  O2  UNL     1      -4.132   2.132   0.208  1.00  0.00    -0.267 OA
ENDBRANCH   1  18
TORSDOF 3
