REMARK  1 active torsions:
REMARK  status: ('A' for Active; 'I' for Inactive)
REMARK    1  A    between atoms: N1_1  and  C1_2 
ROOT
HETATM    1  C1  UNL     1       3.717  -0.941  -1.115  1.00  0.00     0.130 A 
HETATM    2  C2  UNL     1       2.858   0.026  -0.843  1.00  0.00     0.063 A 
HETATM    3  C3  UNL     1       1.865   1.058  -0.599  1.00  0.00     0.287 C 
HETATM    4  N2  UNL     1       1.203   0.918   0.700  1.00  0.00     0.101 NA
HETATM    5  C4  UNL     1       0.061   1.807   0.668  1.00  0.00     0.390 C 
HETATM    6  N3  UNL     1      -1.007   1.646   1.537  1.00  0.00    -0.386 N 
HETATM    7  C5  UNL     1      -1.135   0.476   2.345  1.00  0.00     0.138 C 
HETATM    8  C6  UNL     1      -2.362  -0.349   1.908  1.00  0.00     0.142 C 
HETATM    9  N4  UNL     1      -2.402  -0.119   0.454  1.00  0.00    -0.378 N 
HETATM   10  C7  UNL     1      -3.096   1.152   0.269  1.00  0.00     0.142 C 
HETATM   11  C8  UNL     1      -2.275   2.154   1.065  1.00  0.00     0.138 C 
HETATM   12  C9  UNL     1      -1.734  -0.948  -0.491  1.00  0.00     0.029 A 
HETATM   13  C10 UNL     1      -1.031  -1.987   0.065  1.00  0.00     0.028 A 
HETATM   14  C11 UNL     1      -0.055  -2.712  -0.633  1.00  0.00     0.024 A 
HETATM   15  C12 UNL     1      -0.216  -1.967  -1.812  1.00  0.00     0.237 A 
HETATM   16  C13 UNL     1      -0.723  -1.023  -2.649  1.00  0.00     0.024 A 
HETATM   17  C14 UNL     1      -1.642  -0.449  -1.768  1.00  0.00     0.028 A 
HETATM   18  N5  UNL     1       1.250  -2.305  -2.003  1.00  0.00     0.119 N 
HETATM   19  C15 UNL     1       2.243  -1.277  -1.472  1.00  0.00     0.230 A 
HETATM   20  O1  UNL     1       1.045  -1.058  -1.420  1.00  0.00     0.000 OA
HETATM   21  H6  UNL     1       1.877   1.312   1.427  1.00  0.00     0.318 HD
HETATM   22  H21 UNL     1       1.991  -3.005  -2.369  1.00  0.00     0.319 HD
ENDROOT
BRANCH   1  23
HETATM   23  N1  UNL     1       4.422  -0.199  -0.087  1.00  0.00    -0.423 N 
HETATM   24  H1  UNL     1       4.873   0.336   0.720  1.00  0.00     0.150 HD
HETATM   25  H2  UNL     1       4.846   0.328   0.728  1.00  0.00     0.150 HD
ENDBRANCH   1  23
TORSDOF 1
