REMARK  2 active torsions:
REMARK  status: ('A' for Active; 'I' for Inactive)
REMARK    1  A    between atoms: C9_11  and  N3_12 
REMARK    2  A    between atoms: N3_12  and  C10_13 
ROOT
HETATM    1  C1  UNL     1      -3.360   2.708   1.665  1.00  0.00     0.310 C 
HETATM    2  N1  UNL     1      -2.737   1.724   0.759  1.00  0.00     0.091 N 
HETATM    3  C2  UNL     1      -3.806   1.033   0.146  1.00  0.00     0.277 C 
HETATM    4  C3  UNL     1      -3.954  -0.418   0.546  1.00  0.00     0.068 C 
HETATM    5  C4  UNL     1      -2.683  -1.168   0.385  1.00  0.00    -0.056 C 
HETATM    6  C5  UNL     1      -2.616  -2.170   1.245  1.00  0.00     0.008 C 
HETATM    7  C6  UNL     1      -1.682  -3.227   1.589  1.00  0.00     0.017 C 
HETATM    8  C7  UNL     1      -0.509  -3.544   1.124  1.00  0.00     0.083 C 
HETATM    9  N2  UNL     1       0.236  -2.921   0.102  1.00  0.00    -0.396 N 
HETATM   10  C8  UNL     1       0.889  -2.687  -1.164  1.00  0.00     0.165 C 
HETATM   11  C9  UNL     1       1.491  -1.287  -1.224  1.00  0.00     0.158 A 
HETATM   12  C16 UNL     1       2.340  -1.199  -2.425  1.00  0.00     0.256 A 
HETATM   13  O1  UNL     1       3.338  -1.947  -2.461  1.00  0.00    -0.270 OA
HETATM   14  N4  UNL     1       1.767  -0.217  -3.301  1.00  0.00    -0.334 N 
HETATM   15  C17 UNL     1       0.566   0.300  -2.680  1.00  0.00     0.102 A 
HETATM   16  C18 UNL     1       0.411  -0.309  -1.513  1.00  0.00     0.010 A 
HETATM   17  C19 UNL     1      -0.825   0.161  -0.901  1.00  0.00     0.023 C 
HETATM   18  C20 UNL     1      -1.681  -0.815  -0.639  1.00  0.00     0.023 C 
HETATM   19  C21 UNL     1      -0.813   1.608  -0.751  1.00  0.00     0.188 C 
HETATM   20  O2  UNL     1       0.216   2.057  -1.300  1.00  0.00    -0.290 OA
HETATM   21  C22 UNL     1      -1.836   2.458  -0.064  1.00  0.00     0.355 C 
HETATM   22  H11 UNL     1       0.383  -2.115   0.791  1.00  0.00     0.159 HD
HETATM   23  H19 UNL     1       2.322  -0.083  -4.181  1.00  0.00     0.168 HD
ENDROOT
BRANCH  11  24
HETATM   24  N3  UNL     1       2.312  -0.968  -0.096  1.00  0.00    -0.367 N 
HETATM   25  H14 UNL     1       2.313  -1.791   0.575  1.00  0.00     0.161 HD
BRANCH  24  26
HETATM   26  C10 UNL     1       3.108   0.126   0.328  1.00  0.00     0.029 A 
HETATM   27  C11 UNL     1       3.313   1.287  -0.378  1.00  0.00     0.031 A 
HETATM   28  C12 UNL     1       4.070   2.369   0.009  1.00  0.00     0.026 A 
HETATM   29  C13 UNL     1       4.656   2.207   1.242  1.00  0.00     0.034 A 
HETATM   30 CL1  UNL     1       5.655   3.502   1.876  1.00  0.00    -0.084 Cl
HETATM   31  C14 UNL     1       4.519   1.089   2.033  1.00  0.00     0.026 A 
HETATM   32  C15 UNL     1       3.741   0.065   1.552  1.00  0.00     0.031 A 
ENDBRANCH  24  26
ENDBRANCH  11  24
TORSDOF 2
