REMARK  5 active torsions:
REMARK  status: ('A' for Active; 'I' for Inactive)
REMARK       I    between atoms: N1_2  and  C2_3 
REMARK    1  A    between atoms: C2_3  and  C3_5 
REMARK    2  A    between atoms: C3_5  and  N2_6 
REMARK    3  A    between atoms: N3_9  and  C6_10 
REMARK    4  A    between atoms: C9_13  and  C10_14 
REMARK    5  A    between atoms: C10_14  and  C11_15 
ROOT
HETATM    1  C6  UNL     1       0.679  -0.114  -0.160  1.00  0.00     0.030 A 
HETATM    2  C7  UNL     1       0.100  -1.114   0.591  1.00  0.00     0.030 A 
HETATM    3  C8  UNL     1      -0.989  -0.833   1.405  1.00  0.00     0.009 A 
HETATM    4  C9  UNL     1      -1.474   0.477   1.441  1.00  0.00    -0.054 A 
HETATM    5  C20 UNL     1      -0.854   1.460   0.662  1.00  0.00     0.009 A 
HETATM    6  C21 UNL     1       0.225   1.186  -0.146  1.00  0.00     0.030 A 
ENDROOT
BRANCH   4   7
HETATM    7  C10 UNL     1      -2.647   0.903   2.282  1.00  0.00     0.074 C 
BRANCH   7   8
HETATM    8  C11 UNL     1      -3.906   0.778   1.499  1.00  0.00    -0.056 A 
HETATM    9  C12 UNL     1      -4.647   1.879   1.290  1.00  0.00     0.091 A 
HETATM   10  N4  UNL     1      -5.864   1.849   0.553  1.00  0.00    -0.365 N 
HETATM   11  C13 UNL     1      -6.344   0.626   0.003  1.00  0.00     0.038 A 
HETATM   12  H16 UNL     1      -6.356   2.749   0.450  1.00  0.00     0.165 HD
HETATM   13  C14 UNL     1      -7.516   0.593  -0.709  1.00  0.00     0.031 A 
HETATM   14  C18 UNL     1      -5.569  -0.487   0.229  1.00  0.00    -0.026 A 
HETATM   15  C15 UNL     1      -7.938  -0.631  -1.225  1.00  0.00     0.026 A 
HETATM   16  C16 UNL     1      -7.169  -1.770  -1.008  1.00  0.00     0.034 A 
HETATM   17 CL1  UNL     1      -7.860  -3.210  -1.732  1.00  0.00    -0.084 Cl
HETATM   18  C17 UNL     1      -5.993  -1.693  -0.285  1.00  0.00     0.033 A 
HETATM   19  C19 UNL     1      -4.304  -0.555   0.975  1.00  0.00     0.077 A 
ENDBRANCH   7   8
ENDBRANCH   4   7
BRANCH   1  20
HETATM   20  N3  UNL     1       1.790  -0.395  -0.993  1.00  0.00    -0.378 N 
HETATM   21  C5  UNL     1       2.485  -1.650  -1.198  1.00  0.00     0.153 C 
HETATM   22  C4  UNL     1       3.872  -1.450  -0.602  1.00  0.00     0.292 C 
HETATM   23  N2  UNL     1       4.582  -0.527  -1.450  1.00  0.00     0.100 N 
HETATM   24  C23 UNL     1       3.723   0.134  -2.404  1.00  0.00     0.292 C 
HETATM   25  C22 UNL     1       2.430   0.600  -1.813  1.00  0.00     0.153 C 
BRANCH  23  26
HETATM   26  C3  UNL     1       5.265   0.426  -0.591  1.00  0.00     0.374 C 
BRANCH  26  27
HETATM   27  C2  UNL     1       6.348  -0.262   0.153  1.00  0.00     0.245 C 
HETATM   28  N1  UNL     1       7.042   0.643   1.007  1.00  0.00    -0.364 N 
HETATM   29  C1  UNL     1       8.155   0.335   1.883  1.00  0.00     0.149 C 
HETATM   30  H4  UNL     1       6.856   1.664   1.132  1.00  0.00     0.161 HD
HETATM   31  O1  UNL     1       6.705  -1.483   0.119  1.00  0.00    -0.272 OA
ENDBRANCH  26  27
ENDBRANCH  23  26
ENDBRANCH   1  20
TORSDOF 5
