REMARK  3 active torsions:
REMARK  status: ('A' for Active; 'I' for Inactive)
REMARK    1  A    between atoms: C5_6  and  C6_7 
REMARK    2  A    between atoms: C7_8  and  C8_9 
REMARK    3  A    between atoms: C8_9  and  C9_10 
ROOT
HETATM    1  C6  UNL     1      -0.360  -0.581  -0.498  1.00  0.00    -0.036 C 
HETATM    2  C7  UNL     1      -0.483   0.768  -0.501  1.00  0.00    -0.054 C 
HETATM    3  C15 UNL     1       0.387   1.922  -0.262  1.00  0.00     0.007 C 
HETATM    4  C16 UNL     1       1.582   1.519   0.097  1.00  0.00     0.126 C 
HETATM    5  N2  UNL     1       2.864   1.988   0.466  1.00  0.00    -0.412 N 
HETATM    6  C17 UNL     1       4.266   2.087   0.359  1.00  0.00     0.116 C 
HETATM    7  C18 UNL     1       5.167   1.061   0.851  1.00  0.00     0.038 C 
HETATM    8  C19 UNL     1       5.356  -0.297   0.312  1.00  0.00     0.115 C 
HETATM    9  N3  UNL     1       4.285  -1.204   0.227  1.00  0.00    -0.421 N 
HETATM   10  C20 UNL     1       3.381  -0.988  -0.855  1.00  0.00     0.119 C 
HETATM   11  C21 UNL     1       2.119  -1.751  -0.708  1.00  0.00     0.018 C 
HETATM   12  C22 UNL     1       1.104  -0.855  -0.632  1.00  0.00     0.032 C 
HETATM   13  H21 UNL     1       2.914   2.565   1.401  1.00  0.00     0.153 HD
HETATM   14  H28 UNL     1       3.865  -1.538   1.116  1.00  0.00     0.153 HD
ENDROOT
BRANCH   2  15
HETATM   15  C8  UNL     1      -1.916   0.995  -0.620  1.00  0.00     0.049 C 
BRANCH  15  16
HETATM   16  C9  UNL     1      -2.652   1.391   0.653  1.00  0.00     0.034 A 
HETATM   17  C10 UNL     1      -2.106   2.643   1.187  1.00  0.00    -0.020 A 
HETATM   18  C11 UNL     1      -2.716   3.794   1.377  1.00  0.00    -0.004 A 
HETATM   19  C12 UNL     1      -4.130   3.955   1.053  1.00  0.00    -0.003 A 
HETATM   20  C13 UNL     1      -4.702   2.847   0.567  1.00  0.00    -0.006 A 
HETATM   21  C14 UNL     1      -4.131   1.525   0.320  1.00  0.00     0.113 A 
HETATM   22 CL1  UNL     1      -5.048   0.204   1.083  1.00  0.00    -0.120 Cl
ENDBRANCH  15  16
ENDBRANCH   2  15
BRANCH   1  23
HETATM   23  C5  UNL     1      -1.522  -1.554  -0.575  1.00  0.00     0.252 C 
HETATM   24  N1  UNL     1      -1.147  -2.735   0.251  1.00  0.00     0.092 N 
HETATM   25  C1  UNL     1      -1.903  -2.846   1.445  1.00  0.00     0.310 C 
HETATM   26  C2  UNL     1      -1.091  -3.875  -0.583  1.00  0.00     0.273 C 
HETATM   27  C3  UNL     1      -2.079  -3.568  -1.682  1.00  0.00     0.033 C 
HETATM   28  C4  UNL     1      -1.712  -2.108  -1.942  1.00  0.00     0.042 C 
ENDBRANCH   1  23
TORSDOF 3
