REMARK  6 active torsions:
REMARK  status: ('A' for Active; 'I' for Inactive)
REMARK    1  A    between atoms: N2_5  and  C4_6 
REMARK    2  A    between atoms: C7_9  and  N3_10 
REMARK       I    between atoms: N3_10  and  C8_11 
REMARK    3  A    between atoms: C8_11  and  C9_13 
REMARK    4  A    between atoms: C10_14  and  C11_15 
REMARK    5  A    between atoms: C15_20  and  N5_21 
REMARK    6  A    between atoms: C17_23  and  O2_24 
ROOT
HETATM    1  C9  UNL     1      -3.556   0.800  -0.860  1.00  0.00     0.039 A 
HETATM    2  C10 UNL     1      -4.606   0.391  -0.177  1.00  0.00    -0.006 A 
HETATM    3  C16 UNL     1      -5.938   0.714  -0.742  1.00  0.00     0.068 A 
HETATM    4  C17 UNL     1      -6.150   1.385  -1.885  1.00  0.00     0.136 A 
HETATM    5  N6  UNL     1      -4.929   1.773  -2.530  1.00  0.00    -0.367 N 
HETATM    6  C18 UNL     1      -3.577   1.553  -2.132  1.00  0.00     0.167 A 
HETATM    7  H18 UNL     1      -4.961   2.306  -3.445  1.00  0.00     0.161 HD
ENDROOT
BRANCH   1   8
HETATM    8  C8  UNL     1      -2.266   0.458  -0.274  1.00  0.00     0.254 C 
HETATM    9  N3  UNL     1      -1.050   0.844  -0.872  1.00  0.00    -0.323 N 
HETATM   10  H10 UNL     1      -1.196   1.399  -1.770  1.00  0.00     0.169 HD
HETATM   11  O1  UNL     1      -2.070  -0.191   0.779  1.00  0.00    -0.268 OA
BRANCH   9  12
HETATM   12  C7  UNL     1       0.296   0.627  -0.492  1.00  0.00     0.035 A 
HETATM   13  C6  UNL     1       1.298   1.133  -1.292  1.00  0.00     0.032 A 
HETATM   14  C5  UNL     1       2.635   0.980  -1.018  1.00  0.00     0.031 A 
HETATM   15  C4  UNL     1       3.051   0.296   0.096  1.00  0.00     0.030 A 
HETATM   16  C20 UNL     1       2.076  -0.226   0.922  1.00  0.00     0.031 A 
HETATM   17  C19 UNL     1       0.769  -0.038   0.592  1.00  0.00     0.032 A 
BRANCH  15  18
HETATM   18  N2  UNL     1       4.427   0.104   0.426  1.00  0.00    -0.378 N 
HETATM   19  C3  UNL     1       4.929  -0.532   1.649  1.00  0.00     0.153 C 
HETATM   20  C2  UNL     1       6.244   0.145   1.977  1.00  0.00     0.291 C 
HETATM   21  N1  UNL     1       7.256  -0.248   1.016  1.00  0.00     0.087 N 
HETATM   22  C1  UNL     1       7.898  -1.481   1.382  1.00  0.00     0.310 C 
HETATM   23  C22 UNL     1       6.716  -0.322  -0.327  1.00  0.00     0.291 C 
HETATM   24  C21 UNL     1       5.472   0.541  -0.474  1.00  0.00     0.153 C 
ENDBRANCH  15  18
ENDBRANCH   9  12
ENDBRANCH   1   8
BRANCH   2  25
HETATM   25  C11 UNL     1      -4.748  -0.337   1.064  1.00  0.00     0.004 A 
HETATM   26  C12 UNL     1      -4.305  -0.114   2.324  1.00  0.00     0.034 A 
HETATM   27  C13 UNL     1      -4.511  -0.962   3.387  1.00  0.00     0.117 A 
HETATM   28  N4  UNL     1      -5.200  -2.098   3.188  1.00  0.00    -0.271 NA
HETATM   29  C14 UNL     1      -5.688  -2.423   1.987  1.00  0.00     0.146 A 
HETATM   30  C15 UNL     1      -5.458  -1.542   0.936  1.00  0.00     0.054 A 
BRANCH  30  31
HETATM   31  N5  UNL     1      -6.018  -1.969  -0.322  1.00  0.00    -0.397 N 
HETATM   32  H14 UNL     1      -5.639  -2.354  -1.216  1.00  0.00     0.156 HD
HETATM   33  H15 UNL     1      -7.010  -2.007  -0.690  1.00  0.00     0.156 HD
ENDBRANCH  30  31
ENDBRANCH   2  25
BRANCH   4  34
HETATM   34  O2  UNL     1      -7.374   1.710  -2.451  1.00  0.00    -0.346 OA
HETATM   35  H17 UNL     1      -7.644   2.685  -2.522  1.00  0.00     0.219 HD
ENDBRANCH   4  34
TORSDOF 6
