REMARK  6 active torsions:
REMARK  status: ('A' for Active; 'I' for Inactive)
REMARK    1  A    between atoms: C4_4  and  N1_5 
REMARK       I    between atoms: N3_14  and  C12_15 
REMARK    2  A    between atoms: C12_15  and  C13_17 
REMARK    3  A    between atoms: C13_17  and  N4_18 
REMARK    4  A    between atoms: N4_18  and  C14_19 
REMARK    5  A    between atoms: C18_24  and  N6_25 
REMARK    6  A    between atoms: C20_27  and  O2_28 
ROOT
HETATM    1  C13 UNL     1       3.037  -0.552  -0.450  1.00  0.00     0.213 A 
HETATM    2  C19 UNL     1       2.930  -0.951  -1.877  1.00  0.00     0.092 A 
HETATM    3  C20 UNL     1       2.856  -2.244  -1.584  1.00  0.00     0.139 A 
HETATM    4  N7  UNL     1       2.947  -2.009  -0.197  1.00  0.00    -0.334 N 
HETATM    5  H27 UNL     1       2.928  -2.793   0.490  1.00  0.00     0.165 HD
ENDROOT
BRANCH   1   6
HETATM    6  C12 UNL     1       1.816   0.155   0.001  1.00  0.00     0.278 C 
HETATM    7  N3  UNL     1       0.421   0.095  -0.045  1.00  0.00    -0.316 N 
HETATM    8  C2  UNL     1      -0.161   1.231   0.678  1.00  0.00     0.113 A 
HETATM    9  C11 UNL     1      -0.423  -0.861  -0.665  1.00  0.00     0.097 A 
HETATM   10  C1  UNL     1       0.253   2.538   0.021  1.00  0.00     0.037 C 
HETATM   11  C3  UNL     1      -1.635   1.140   0.609  1.00  0.00     0.027 A 
HETATM   12  C4  UNL     1      -2.451   0.269   0.045  1.00  0.00     0.029 A 
HETATM   13  C10 UNL     1      -1.737  -0.801  -0.636  1.00  0.00     0.046 A 
HETATM   14  O1  UNL     1       2.560   1.001   0.553  1.00  0.00    -0.268 OA
BRANCH  12  15
HETATM   15  N1  UNL     1      -3.867   0.322   0.069  1.00  0.00    -0.378 N 
HETATM   16  C5  UNL     1      -4.593   0.721  -1.126  1.00  0.00     0.153 C 
HETATM   17  C6  UNL     1      -6.007   0.206  -1.141  1.00  0.00     0.291 C 
HETATM   18  N2  UNL     1      -6.653   0.238   0.147  1.00  0.00     0.087 N 
HETATM   19  C7  UNL     1      -7.932  -0.444   0.003  1.00  0.00     0.310 C 
HETATM   20  C8  UNL     1      -5.916  -0.454   1.168  1.00  0.00     0.291 C 
HETATM   21  C9  UNL     1      -4.492  -0.036   1.319  1.00  0.00     0.153 C 
ENDBRANCH  12  15
ENDBRANCH   1   6
BRANCH   1  22
HETATM   22  N4  UNL     1       4.288  -0.007  -0.109  1.00  0.00    -0.351 N 
HETATM   23  H19 UNL     1       3.982   0.833  -0.687  1.00  0.00     0.163 HD
BRANCH  22  24
HETATM   24  C14 UNL     1       5.523   0.532   0.227  1.00  0.00     0.059 A 
HETATM   25  C15 UNL     1       6.220   1.684   0.002  1.00  0.00     0.051 A 
HETATM   26  C16 UNL     1       7.473   1.810   0.549  1.00  0.00     0.118 A 
HETATM   27  N5  UNL     1       8.005   0.833   1.284  1.00  0.00    -0.271 NA
HETATM   28  C17 UNL     1       7.400  -0.331   1.559  1.00  0.00     0.147 A 
HETATM   29  C18 UNL     1       6.117  -0.475   1.007  1.00  0.00     0.070 A 
BRANCH  29  30
HETATM   30  N6  UNL     1       5.636  -1.779   1.411  1.00  0.00    -0.396 N 
HETATM   31  H23 UNL     1       5.730  -2.366   0.537  1.00  0.00     0.156 HD
HETATM   32  H24 UNL     1       5.306  -1.939   2.384  1.00  0.00     0.156 HD
ENDBRANCH  29  30
ENDBRANCH  22  24
ENDBRANCH   1  22
BRANCH   3  33
HETATM   33  O2  UNL     1       2.735  -3.164  -2.625  1.00  0.00    -0.346 OA
HETATM   34  H26 UNL     1       2.969  -4.150  -2.439  1.00  0.00     0.219 HD
ENDBRANCH   3  33
TORSDOF 6
