REMARK  5 active torsions:
REMARK  status: ('A' for Active; 'I' for Inactive)
REMARK    1  A    between atoms: C2_2  and  C3_3 
REMARK    2  A    between atoms: C4_4  and  C5_5 
REMARK    3  A    between atoms: C5_5  and  C6_6 
REMARK    4  A    between atoms: C11_13  and  N2_14 
REMARK    5  A    between atoms: N2_14  and  C12_15 
ROOT
HETATM    1  C6  UNL     1       0.054  -0.552  -1.192  1.00  0.00     0.013 C 
HETATM    2  C7  UNL     1      -0.271  -1.303  -2.465  1.00  0.00     0.116 C 
HETATM    3  C8  UNL     1      -0.276  -2.768  -2.251  1.00  0.00     0.222 C 
HETATM    4  O1  UNL     1      -1.148  -3.692  -2.399  1.00  0.00    -0.273 OA
HETATM    5  N1  UNL     1       0.952  -3.353  -1.766  1.00  0.00    -0.337 N 
HETATM    6  C9  UNL     1       2.202  -2.806  -1.335  1.00  0.00     0.089 C 
HETATM    7  C10 UNL     1       2.318  -1.486  -1.090  1.00  0.00     0.016 C 
HETATM    8  C11 UNL     1       1.508  -0.210  -1.106  1.00  0.00     0.116 C 
HETATM    9  H9  UNL     1       0.975  -4.409  -1.699  1.00  0.00     0.168 HD
ENDROOT
BRANCH   1  10
HETATM   10  C5  UNL     1      -1.050  -0.411  -0.482  1.00  0.00     0.060 C 
BRANCH  10  11
HETATM   11  C4  UNL     1      -2.083  -0.121   0.474  1.00  0.00     0.035 C 
HETATM   12  C3  UNL     1      -3.271  -0.621   0.062  1.00  0.00     0.027 C 
HETATM   13  N4  UNL     1      -4.343  -0.339   0.990  1.00  0.00    -0.390 N 
HETATM   14  C21 UNL     1      -4.337   0.031   2.406  1.00  0.00     0.139 C 
HETATM   15  H28 UNL     1      -5.359  -0.382   0.681  1.00  0.00     0.159 HD
HETATM   16  C20 UNL     1      -2.917   0.282   2.869  1.00  0.00     0.141 C 
HETATM   17  N3  UNL     1      -2.067   0.574   1.715  1.00  0.00    -0.385 N 
HETATM   18  C19 UNL     1      -1.116   1.657   1.796  1.00  0.00     0.149 C 
BRANCH  12  19
HETATM   19  C2  UNL     1      -3.765  -1.382  -1.107  1.00  0.00     0.054 C 
HETATM   20  C1  UNL     1      -4.797  -0.507  -1.820  1.00  0.00     0.011 C 
ENDBRANCH  12  19
ENDBRANCH  10  11
ENDBRANCH   1  10
BRANCH   8  21
HETATM   21  N2  UNL     1       1.881   0.467   0.104  1.00  0.00    -0.381 N 
HETATM   22  H13 UNL     1       1.380   0.585   0.992  1.00  0.00     0.160 HD
BRANCH  21  23
HETATM   23  C12 UNL     1       3.167   1.108   0.180  1.00  0.00     0.034 A 
HETATM   24  C13 UNL     1       4.025   1.122  -0.902  1.00  0.00     0.029 A 
HETATM   25  C14 UNL     1       5.277   1.717  -0.887  1.00  0.00     0.002 A 
HETATM   26  C15 UNL     1       5.718   2.341   0.268  1.00  0.00     0.001 A 
HETATM   27  C16 UNL     1       4.891   2.340   1.344  1.00  0.00     0.009 A 
HETATM   28  C17 UNL     1       3.657   1.746   1.310  1.00  0.00    -0.036 A 
HETATM   29  C18 UNL     1       2.760   1.755   2.512  1.00  0.00     0.050 C 
ENDBRANCH  21  23
ENDBRANCH   8  21
TORSDOF 5
