REMARK  2 active torsions:
REMARK  status: ('A' for Active; 'I' for Inactive)
REMARK    1  A    between atoms: C4_5  and  N1_6 
REMARK    2  A    between atoms: N1_6  and  C5_7 
ROOT
HETATM    1  C5  UNL     1       1.265   0.173   0.506  1.00  0.00     0.257 C 
HETATM    2  C6  UNL     1      -0.081   0.742   0.611  1.00  0.00     0.323 C 
HETATM    3  N2  UNL     1      -0.379   2.042   0.091  1.00  0.00     0.091 N 
HETATM    4  C7  UNL     1      -1.808   2.141   0.496  1.00  0.00     0.311 C 
HETATM    5  C8  UNL     1      -2.623   1.049  -0.045  1.00  0.00     0.003 A 
HETATM    6  C9  UNL     1      -2.944   1.204  -1.382  1.00  0.00     0.012 A 
HETATM    7  C10 UNL     1      -3.706   0.286  -2.085  1.00  0.00     0.001 A 
HETATM    8  C11 UNL     1      -4.169  -0.843  -1.413  1.00  0.00     0.003 A 
HETATM    9  C12 UNL     1      -3.831  -0.969  -0.076  1.00  0.00     0.037 A 
HETATM   10  C13 UNL     1      -3.071  -0.068   0.652  1.00  0.00     0.080 A 
HETATM   11  O1  UNL     1      -2.891  -0.423   1.918  1.00  0.00    -0.320 OA
HETATM   12  C14 UNL     1      -2.091  -1.301   2.620  1.00  0.00     0.396 C 
HETATM   13  N3  UNL     1      -0.747  -1.260   2.640  1.00  0.00    -0.411 NA
HETATM   14  C15 UNL     1       0.394  -1.206   2.289  1.00  0.00     0.317 C 
HETATM   15  O2  UNL     1       1.111  -1.125   1.119  1.00  0.00    -0.308 OA
HETATM   16  H8  UNL     1       0.143   2.786   0.558  1.00  0.00     0.316 HD
ENDROOT
BRANCH   1  17
HETATM   17  N1  UNL     1       1.854   0.129  -0.786  1.00  0.00    -0.365 N 
HETATM   18  H4  UNL     1       1.287   0.508  -1.597  1.00  0.00     0.162 HD
BRANCH  17  19
HETATM   19  C4  UNL     1       3.159  -0.400  -1.007  1.00  0.00     0.011 A 
HETATM   20  C3  UNL     1       4.067   0.104  -2.075  1.00  0.00     0.085 A 
HETATM   21  C2  UNL     1       5.278  -0.745  -1.906  1.00  0.00    -0.002 A 
HETATM   22  C1  UNL     1       5.106  -1.611  -0.895  1.00  0.00     0.009 A 
HETATM   23 BR1  UNL     1       6.282  -2.945  -0.195  1.00  0.00    -0.051 Br
HETATM   24  C16 UNL     1       3.758  -1.364  -0.352  1.00  0.00     0.043 A 
ENDBRANCH  17  19
ENDBRANCH   1  17
TORSDOF 2
