REMARK  4 active torsions:
REMARK  status: ('A' for Active; 'I' for Inactive)
REMARK    1  A    between atoms: N1_2  and  C3_4 
REMARK    2  A    between atoms: C4_5  and  C5_6 
REMARK       I    between atoms: C5_6  and  N2_8 
REMARK    3  A    between atoms: N2_8  and  C6_9 
REMARK    4  A    between atoms: C9_12  and  N3_13 
ROOT
HETATM    1  C5  UNL     1      -2.082  -0.338  -0.333  1.00  0.00     0.254 C 
HETATM    2  O1  UNL     1      -1.513   0.427   0.501  1.00  0.00    -0.268 OA
HETATM    3  N2  UNL     1      -1.087  -0.930  -1.186  1.00  0.00    -0.323 N 
HETATM    4  H7  UNL     1      -1.434  -1.599  -1.939  1.00  0.00     0.169 HD
ENDROOT
BRANCH   3   5
HETATM    5  C6  UNL     1       0.276  -0.547  -0.925  1.00  0.00     0.035 A 
HETATM    6  C7  UNL     1       0.978  -1.323  -0.026  1.00  0.00     0.032 A 
HETATM    7  C8  UNL     1       2.284  -1.106   0.343  1.00  0.00     0.031 A 
HETATM    8  C9  UNL     1       2.954  -0.022  -0.231  1.00  0.00     0.030 A 
HETATM    9  C14 UNL     1       2.241   0.758  -1.137  1.00  0.00     0.031 A 
HETATM   10  C15 UNL     1       0.933   0.510  -1.482  1.00  0.00     0.032 A 
BRANCH   8  11
HETATM   11  N3  UNL     1       4.306   0.292   0.081  1.00  0.00    -0.378 N 
HETATM   12  C10 UNL     1       5.112   1.380  -0.440  1.00  0.00     0.153 C 
HETATM   13  C11 UNL     1       6.479   0.774  -0.752  1.00  0.00     0.289 C 
HETATM   14  N4  UNL     1       7.126   0.539   0.505  1.00  0.00     0.086 N 
HETATM   15  C12 UNL     1       6.279   0.010   1.530  1.00  0.00     0.289 C 
HETATM   16  H14 UNL     1       7.553   1.435   0.819  1.00  0.00     0.316 HD
HETATM   17  C13 UNL     1       4.984  -0.574   1.039  1.00  0.00     0.153 C 
ENDBRANCH   8  11
ENDBRANCH   3   5
BRANCH   1  18
HETATM   18  C4  UNL     1      -3.532  -0.598  -0.434  1.00  0.00     0.045 C 
HETATM   19  C3  UNL     1      -4.205   0.082   0.476  1.00  0.00     0.043 C 
HETATM   20  C19 UNL     1      -5.653   0.032   0.625  1.00  0.00     0.047 C 
HETATM   21  C18 UNL     1      -6.573  -0.701   0.019  1.00  0.00     0.093 C 
HETATM   22  N5  UNL     1      -6.433  -1.696  -0.993  1.00  0.00    -0.337 N 
HETATM   23  C17 UNL     1      -5.198  -1.928  -1.656  1.00  0.00     0.226 C 
HETATM   24  H23 UNL     1      -7.265  -2.260  -1.244  1.00  0.00     0.168 HD
HETATM   25  C16 UNL     1      -3.792  -1.550  -1.534  1.00  0.00     0.149 C 
HETATM   26  O2  UNL     1      -5.296  -2.691  -2.670  1.00  0.00    -0.273 OA
BRANCH  19  27
HETATM   27  N1  UNL     1      -3.586   0.944   1.419  1.00  0.00    -0.389 N 
HETATM   28  C1  UNL     1      -3.132   0.515   2.725  1.00  0.00     0.149 C 
HETATM   29  C2  UNL     1      -3.367   2.367   1.116  1.00  0.00     0.149 C 
ENDBRANCH  19  27
ENDBRANCH   1  18
TORSDOF 4
