REMARK  4 active torsions:
REMARK  status: ('A' for Active; 'I' for Inactive)
REMARK    1  A    between atoms: O1_2  and  C2_3 
REMARK    2  A    between atoms: C10_12  and  C11_13 
REMARK    3  A    between atoms: C11_13  and  C12_15 
REMARK    4  A    between atoms: C15_18  and  N2_19 
ROOT
HETATM    1  C11 UNL     1      -1.604  -1.810  -1.632  1.00  0.00     0.212 C 
HETATM    2  O2  UNL     1      -2.560  -1.578  -2.434  1.00  0.00    -0.285 OA
ENDROOT
BRANCH   1   3
HETATM    3  C10 UNL     1      -1.644  -3.055  -0.913  1.00  0.00     0.125 A 
HETATM    4  C7  UNL     1      -2.705  -3.898  -1.080  1.00  0.00    -0.002 A 
HETATM    5  C6  UNL     1      -3.954  -3.571  -1.760  1.00  0.00     0.014 C 
HETATM    6  C8  UNL     1      -2.650  -5.107  -0.423  1.00  0.00     0.034 A 
HETATM    7  C5  UNL     1      -4.376  -2.642  -0.855  1.00  0.00     0.001 C 
HETATM    8  C4  UNL     1      -3.766  -2.158   0.359  1.00  0.00    -0.000 C 
HETATM    9  C3  UNL     1      -2.934  -1.980   1.348  1.00  0.00     0.022 C 
HETATM   10  C2  UNL     1      -1.683  -2.359   1.940  1.00  0.00     0.244 C 
HETATM   11  N4  UNL     1      -0.428  -2.120   1.311  1.00  0.00    -0.147 NA
HETATM   12  O3  UNL     1      -0.033  -3.088   0.376  1.00  0.00    -0.175 OA
HETATM   13  H28 UNL     1       0.346  -2.001   1.997  1.00  0.00     0.159 HD
HETATM   14  N1  UNL     1      -1.047  -3.915  -0.108  1.00  0.00    -0.209 N 
HETATM   15  C9  UNL     1      -1.429  -5.114   0.289  1.00  0.00     0.126 A 
BRANCH  10  16
HETATM   16  O1  UNL     1      -1.643  -3.648   2.520  1.00  0.00    -0.371 OA
HETATM   17  C1  UNL     1      -1.522  -3.600   3.889  1.00  0.00     0.204 C 
ENDBRANCH  10  16
ENDBRANCH   1   3
BRANCH   1  18
HETATM   18  C12 UNL     1      -0.644  -0.740  -1.603  1.00  0.00     0.017 A 
HETATM   19  C13 UNL     1       0.718  -0.695  -1.410  1.00  0.00     0.018 A 
HETATM   20  C14 UNL     1       1.537   0.396  -1.325  1.00  0.00     0.030 A 
HETATM   21  C15 UNL     1       0.913   1.614  -1.451  1.00  0.00     0.030 A 
HETATM   22  C22 UNL     1      -0.440   1.746  -1.649  1.00  0.00     0.030 A 
HETATM   23  C23 UNL     1      -1.148   0.569  -1.715  1.00  0.00     0.018 A 
BRANCH  21  24
HETATM   24  N2  UNL     1       1.749   2.788  -1.383  1.00  0.00    -0.373 N 
HETATM   25  C16 UNL     1       3.119   2.655  -1.907  1.00  0.00     0.154 C 
HETATM   26  C17 UNL     1       4.117   2.816  -0.798  1.00  0.00     0.291 C 
HETATM   27  N3  UNL     1       3.961   4.156  -0.249  1.00  0.00     0.087 N 
HETATM   28  C18 UNL     1       4.849   4.215   0.908  1.00  0.00     0.310 C 
HETATM   29  C19 UNL     1       2.627   4.389   0.202  1.00  0.00     0.296 C 
HETATM   30  C20 UNL     1       1.606   4.122  -0.899  1.00  0.00     0.108 C 
HETATM   31  C21 UNL     1       0.233   4.474  -0.372  1.00  0.00     0.034 C 
ENDBRANCH  21  24
ENDBRANCH   1  18
TORSDOF 4
