REMARK  5 active torsions:
REMARK  status: ('A' for Active; 'I' for Inactive)
REMARK    1  A    between atoms: O1_2  and  C2_3 
REMARK    2  A    between atoms: N1_9  and  C8_10 
REMARK    3  A    between atoms: C8_10  and  C9_11 
REMARK       I    between atoms: C9_11  and  N2_13 
REMARK    4  A    between atoms: N2_13  and  C10_14 
REMARK    5  A    between atoms: C13_17  and  N3_18 
ROOT
HETATM    1  C9  UNL     1      -2.152  -1.195  -0.379  1.00  0.00     0.276 C 
HETATM    2  O2  UNL     1      -1.867  -1.609  -1.512  1.00  0.00    -0.268 OA
HETATM    3  N2  UNL     1      -1.203  -0.635   0.470  1.00  0.00    -0.323 N 
HETATM    4  H9  UNL     1      -1.638  -0.349   1.372  1.00  0.00     0.169 HD
ENDROOT
BRANCH   1   5
HETATM    5  C8  UNL     1      -3.606  -1.463  -0.270  1.00  0.00     0.215 A 
HETATM    6  C21 UNL     1      -3.861  -2.851   0.258  1.00  0.00     0.054 A 
HETATM    7  C22 UNL     1      -4.409  -3.347  -0.853  1.00  0.00     0.087 A 
HETATM    8  N5  UNL     1      -4.200  -2.057  -1.426  1.00  0.00    -0.362 N 
HETATM    9  H27 UNL     1      -4.539  -2.025  -2.423  1.00  0.00     0.162 HD
BRANCH   5  10
HETATM   10  N1  UNL     1      -4.400  -0.454   0.382  1.00  0.00    -0.299 N 
HETATM   11  C2  UNL     1      -5.414   0.239  -0.358  1.00  0.00     0.146 C 
HETATM   12  C3  UNL     1      -5.817   1.492  -0.091  1.00  0.00     0.056 C 
HETATM   13  C4  UNL     1      -5.383   2.449   0.943  1.00  0.00     0.004 C 
HETATM   14  C5  UNL     1      -4.697   2.194   2.037  1.00  0.00     0.002 C 
HETATM   15  C6  UNL     1      -4.194   0.887   2.498  1.00  0.00     0.017 C 
HETATM   16  C7  UNL     1      -4.076  -0.231   1.770  1.00  0.00     0.096 C 
BRANCH  11  17
HETATM   17  O1  UNL     1      -5.947  -0.512  -1.385  1.00  0.00    -0.341 OA
HETATM   18  C1  UNL     1      -7.302  -0.871  -1.496  1.00  0.00     0.211 C 
ENDBRANCH  11  17
ENDBRANCH   5  10
ENDBRANCH   1   5
BRANCH   3  19
HETATM   19  C10 UNL     1       0.158  -0.445   0.228  1.00  0.00     0.035 A 
HETATM   20  C11 UNL     1       0.862  -0.766  -0.895  1.00  0.00     0.032 A 
HETATM   21  C12 UNL     1       2.212  -0.553  -1.080  1.00  0.00     0.031 A 
HETATM   22  C13 UNL     1       2.931   0.032  -0.058  1.00  0.00     0.030 A 
HETATM   23  C19 UNL     1       2.262   0.374   1.098  1.00  0.00     0.031 A 
HETATM   24  C20 UNL     1       0.923   0.136   1.218  1.00  0.00     0.032 A 
BRANCH  22  25
HETATM   25  N3  UNL     1       4.323   0.312  -0.103  1.00  0.00    -0.378 N 
HETATM   26  C14 UNL     1       5.037   0.939   1.020  1.00  0.00     0.153 C 
HETATM   27  C15 UNL     1       6.514   0.854   0.834  1.00  0.00     0.291 C 
HETATM   28  N4  UNL     1       6.968   1.502  -0.381  1.00  0.00     0.087 N 
HETATM   29  C16 UNL     1       8.339   1.149  -0.607  1.00  0.00     0.310 C 
HETATM   30  C17 UNL     1       6.109   1.205  -1.507  1.00  0.00     0.291 C 
HETATM   31  C18 UNL     1       5.200   0.030  -1.221  1.00  0.00     0.153 C 
ENDBRANCH  22  25
ENDBRANCH   3  19
TORSDOF 5
