REMARK  9 active torsions:
REMARK  status: ('A' for Active; 'I' for Inactive)
REMARK    1  A    between atoms: O1_2  and  C2_3 
REMARK    2  A    between atoms: C8_9  and  C9_10 
REMARK    3  A    between atoms: C9_10  and  C10_11 
REMARK    4  A    between atoms: C10_11  and  N1_12 
REMARK    5  A    between atoms: N1_12  and  C11_13 
REMARK    6  A    between atoms: C11_13  and  C12_14 
REMARK    7  A    between atoms: C11_13  and  O2_17 
REMARK    8  A    between atoms: C11_13  and  C15_19 
REMARK    9  A    between atoms: C13_15  and  N2_16 
ROOT
HETATM    1  N1  UNL     1      -0.378  -0.183  -0.927  1.00  0.00     0.129 N 
HETATM    2  H14 UNL     1      -0.322   0.647  -0.265  1.00  0.00     0.320 HD
ENDROOT
BRANCH   1   3
HETATM    3  C10 UNL     1       0.275  -1.300  -0.308  1.00  0.00     0.279 C 
BRANCH   3   4
HETATM    4  C9  UNL     1       1.776  -1.240  -0.293  1.00  0.00     0.072 C 
BRANCH   4   5
HETATM    5  C8  UNL     1       2.339  -0.073   0.383  1.00  0.00    -0.017 A 
HETATM    6  C2  UNL     1       2.407   1.162  -0.268  1.00  0.00     0.075 A 
HETATM    7  C3  UNL     1       2.930   2.231   0.428  1.00  0.00     0.037 A 
HETATM    8  C4  UNL     1       3.397   2.184   1.723  1.00  0.00     0.003 A 
HETATM    9  C5  UNL     1       3.320   0.955   2.342  1.00  0.00     0.007 A 
HETATM   10  C6  UNL     1       2.799  -0.143   1.672  1.00  0.00    -0.053 A 
HETATM   11  C7  UNL     1       2.766  -1.430   2.448  1.00  0.00     0.049 C 
BRANCH   6  12
HETATM   12  O1  UNL     1       1.939   1.201  -1.569  1.00  0.00    -0.355 OA
HETATM   13  C1  UNL     1       1.977   2.418  -2.279  1.00  0.00     0.210 C 
ENDBRANCH   6  12
ENDBRANCH   4   5
ENDBRANCH   3   4
ENDBRANCH   1   3
BRANCH   1  14
HETATM   14  C11 UNL     1      -1.830  -0.488  -0.960  1.00  0.00     0.319 C 
BRANCH  14  15
HETATM   15  C12 UNL     1      -2.273  -0.658   0.441  1.00  0.00     0.067 C 
HETATM   16  C13 UNL     1      -2.442  -1.622   1.331  1.00  0.00     0.081 C 
BRANCH  16  17
HETATM   17  N2  UNL     1      -2.871  -1.801   2.689  1.00  0.00    -0.408 N 
HETATM   18  H17 UNL     1      -2.432  -1.325   3.531  1.00  0.00     0.155 HD
HETATM   19  H18 UNL     1      -3.677  -2.451   2.849  1.00  0.00     0.155 HD
ENDBRANCH  16  17
ENDBRANCH  14  15
BRANCH  14  20
HETATM   20  O2  UNL     1      -1.930  -1.623  -1.719  1.00  0.00    -0.350 OA
HETATM   21  C14 UNL     1      -3.180  -2.135  -1.913  1.00  0.00     0.205 C 
ENDBRANCH  14  20
BRANCH  14  22
HETATM   22  C15 UNL     1      -2.524   0.704  -1.527  1.00  0.00     0.069 C 
HETATM   23  C16 UNL     1      -2.254   2.016  -0.839  1.00  0.00     0.070 C 
HETATM   24  N3  UNL     1      -3.329   0.788  -2.534  1.00  0.00    -0.304 NA
HETATM   25  H25 UNL     1      -3.759   1.644  -2.852  1.00  0.00     0.186 HD
ENDBRANCH  14  22
ENDBRANCH   1  14
TORSDOF 9
