REMARK  10 active torsions:
REMARK  status: ('A' for Active; 'I' for Inactive)
REMARK    1  A    between atoms: C6_6  and  N1_7 
REMARK    2  A    between atoms: N1_7  and  C7_8 
REMARK    3  A    between atoms: C11_14  and  O1_15 
REMARK    4  A    between atoms: O1_15  and  C12_16 
REMARK    5  A    between atoms: C12_16  and  C13_17 
REMARK    6  A    between atoms: C13_17  and  O2_18 
REMARK    7  A    between atoms: C15_20  and  O3_21 
REMARK    8  A    between atoms: O3_21  and  C16_22 
REMARK    9  A    between atoms: C16_22  and  C17_23 
REMARK   10  A    between atoms: C17_23  and  O4_24 
ROOT
HETATM    1  C1  UNL     1       7.890   1.983   1.106  1.00  0.00     0.013 C 
HETATM    2  C2  UNL     1       7.177   1.367   0.329  1.00  0.00    -0.105 C 
HETATM    3  C3  UNL     1       6.310   0.633  -0.595  1.00  0.00     0.111 A 
HETATM    4  C4  UNL     1       6.153  -0.751  -0.065  1.00  0.00    -0.004 A 
HETATM    5  C5  UNL     1       4.862  -0.959   0.155  1.00  0.00     0.027 A 
HETATM    6  C6  UNL     1       4.111   0.249  -0.210  1.00  0.00     0.031 A 
HETATM    7  C21 UNL     1       4.948   1.176  -0.646  1.00  0.00     0.023 A 
ENDROOT
BRANCH   6   8
HETATM    8  N1  UNL     1       2.696   0.309  -0.076  1.00  0.00    -0.340 N 
HETATM    9  H5  UNL     1       2.366   1.187   0.354  1.00  0.00     0.167 HD
BRANCH   8  10
HETATM   10  C7  UNL     1       1.944  -0.804  -0.531  1.00  0.00     0.142 A 
HETATM   11  N2  UNL     1       2.595  -1.854  -1.064  1.00  0.00    -0.224 NA
HETATM   12  C8  UNL     1       1.951  -2.945  -1.518  1.00  0.00     0.236 A 
HETATM   13  N3  UNL     1       0.612  -3.033  -1.457  1.00  0.00    -0.241 NA
HETATM   14  C9  UNL     1      -0.104  -2.021  -0.938  1.00  0.00     0.075 A 
HETATM   15  C10 UNL     1      -1.480  -2.091  -0.866  1.00  0.00     0.072 A 
HETATM   16  C20 UNL     1       0.593  -0.924  -0.485  1.00  0.00     0.042 A 
HETATM   17  C11 UNL     1      -2.185  -1.014  -0.318  1.00  0.00     0.104 A 
HETATM   18  C15 UNL     1      -1.524   0.125   0.157  1.00  0.00     0.103 A 
HETATM   19  C19 UNL     1      -0.153   0.100   0.043  1.00  0.00     0.057 A 
BRANCH  17  20
HETATM   20  O1  UNL     1      -3.563  -1.166  -0.284  1.00  0.00    -0.346 OA
BRANCH  20  21
HETATM   21  C12 UNL     1      -4.151  -2.346  -0.783  1.00  0.00     0.201 C 
BRANCH  21  22
HETATM   22  C13 UNL     1      -5.663  -2.303  -0.649  1.00  0.00     0.193 C 
BRANCH  22  23
HETATM   23  O2  UNL     1      -6.033  -2.170   0.666  1.00  0.00    -0.394 OA
HETATM   24  C14 UNL     1      -5.604  -3.190   1.478  1.00  0.00     0.201 C 
ENDBRANCH  22  23
ENDBRANCH  21  22
ENDBRANCH  20  21
ENDBRANCH  17  20
BRANCH  18  25
HETATM   25  O3  UNL     1      -2.393   1.030   0.636  1.00  0.00    -0.346 OA
BRANCH  25  26
HETATM   26  C16 UNL     1      -2.273   2.287   1.182  1.00  0.00     0.201 C 
BRANCH  26  27
HETATM   27  C17 UNL     1      -1.685   3.250   0.184  1.00  0.00     0.193 C 
BRANCH  27  28
HETATM   28  O4  UNL     1      -1.598   4.507   0.824  1.00  0.00    -0.394 OA
HETATM   29  C18 UNL     1      -1.063   5.458  -0.031  1.00  0.00     0.201 C 
ENDBRANCH  27  28
ENDBRANCH  26  27
ENDBRANCH  25  26
ENDBRANCH  18  25
ENDBRANCH   8  10
ENDBRANCH   6   8
TORSDOF 10
