REMARK  5 active torsions:
REMARK  status: ('A' for Active; 'I' for Inactive)
REMARK    1  A    between atoms: C4_5  and  C5_6 
REMARK    2  A    between atoms: C5_6  and  N2_7 
REMARK    3  A    between atoms: N2_7  and  C6_8 
REMARK    4  A    between atoms: C10_13  and  O1_14 
REMARK    5  A    between atoms: O1_14  and  O2_15 
ROOT
HETATM    1  C1  UNL     1      -2.720   0.904  -2.629  1.00  0.00     0.064 C 
HETATM    2  C2  UNL     1      -1.988   0.402  -1.652  1.00  0.00     0.098 C 
HETATM    3  N1  UNL     1      -0.583   0.522  -1.834  1.00  0.00    -0.344 N 
HETATM    4  C3  UNL     1       0.469  -0.106  -1.068  1.00  0.00     0.044 C 
HETATM    5  C4  UNL     1       1.614   0.569  -1.070  1.00  0.00     0.031 C 
HETATM    6  C10 UNL     1       0.297  -1.371  -0.355  1.00  0.00     0.234 C 
HETATM    7  C11 UNL     1      -0.805  -1.191   0.658  1.00  0.00     0.041 C 
HETATM    8  C12 UNL     1      -2.042  -0.720   0.649  1.00  0.00     0.040 C 
HETATM    9  C13 UNL     1      -2.781  -0.749   1.962  1.00  0.00     0.328 C 
HETATM   10  N4  UNL     1      -4.145  -0.398   1.723  1.00  0.00     0.091 N 
HETATM   11  C14 UNL     1      -4.427   0.986   1.955  1.00  0.00     0.310 C 
HETATM   12  C15 UNL     1      -4.676  -0.912   0.502  1.00  0.00     0.292 C 
HETATM   13  C16 UNL     1      -4.115  -0.218  -0.745  1.00  0.00     0.160 C 
HETATM   14  N5  UNL     1      -2.680  -0.198  -0.537  1.00  0.00    -0.334 N 
HETATM   15  H3  UNL     1      -0.288   1.151  -2.626  1.00  0.00     0.167 HD
ENDROOT
BRANCH   5  16
HETATM   16  C5  UNL     1       2.992   0.507  -0.535  1.00  0.00     0.302 C 
BRANCH  16  17
HETATM   17  N2  UNL     1       3.302   1.653   0.298  1.00  0.00     0.115 N 
HETATM   18  H7  UNL     1       3.186   2.563  -0.198  1.00  0.00     0.319 HD
BRANCH  17  19
HETATM   19  C6  UNL     1       4.640   1.606   0.828  1.00  0.00     0.365 A 
HETATM   20  C7  UNL     1       4.904   0.430   1.665  1.00  0.00     0.033 A 
HETATM   21  C8  UNL     1       5.946  -0.244   1.202  1.00  0.00     0.019 A 
HETATM   22  C9  UNL     1       6.383   0.495   0.037  1.00  0.00     0.113 A 
HETATM   23  N3  UNL     1       5.656   1.536  -0.181  1.00  0.00    -0.263 NA
ENDBRANCH  17  19
ENDBRANCH  16  17
ENDBRANCH   5  16
BRANCH   6  24
HETATM   24  O1  UNL     1       1.394  -1.867   0.286  1.00  0.00    -0.228 OA
BRANCH  24  25
HETATM   25  O2  UNL     1       1.622  -3.072  -0.240  1.00  0.00    -0.250 OA
HETATM   26  H13 UNL     1       1.157  -3.789   0.254  1.00  0.00     0.253 HD
ENDBRANCH  24  25
ENDBRANCH   6  24
TORSDOF 5
