REMARK  3 active torsions:
REMARK  status: ('A' for Active; 'I' for Inactive)
REMARK    1  A    between atoms: N2_5  and  C4_6 
REMARK    2  A    between atoms: C7_9  and  C8_10 
REMARK    3  A    between atoms: C8_10  and  C9_12 
ROOT
HETATM    1  C8  UNL     1      -2.333   0.091  -0.315  1.00  0.00     0.173 C 
HETATM    2  O1  UNL     1      -2.985  -1.004  -0.435  1.00  0.00    -0.291 OA
ENDROOT
BRANCH   1   3
HETATM    3  C7  UNL     1      -0.887   0.045  -0.157  1.00  0.00     0.011 A 
HETATM    4  C6  UNL     1      -0.052   1.135  -0.035  1.00  0.00     0.017 A 
HETATM    5  C5  UNL     1       1.316   1.055   0.117  1.00  0.00     0.030 A 
HETATM    6  C4  UNL     1       1.880  -0.200   0.149  1.00  0.00     0.030 A 
HETATM    7  C18 UNL     1       1.111  -1.337   0.033  1.00  0.00     0.030 A 
HETATM    8  C17 UNL     1      -0.250  -1.177  -0.116  1.00  0.00     0.017 A 
BRANCH   6   9
HETATM    9  N2  UNL     1       3.292  -0.256   0.307  1.00  0.00    -0.378 N 
HETATM   10  C3  UNL     1       4.051   0.973   0.427  1.00  0.00     0.153 C 
HETATM   11  C2  UNL     1       5.515   0.696   0.552  1.00  0.00     0.291 C 
HETATM   12  N1  UNL     1       5.965  -0.130  -0.542  1.00  0.00     0.087 N 
HETATM   13  C1  UNL     1       7.336  -0.557  -0.331  1.00  0.00     0.310 C 
HETATM   14  C20 UNL     1       5.157  -1.297  -0.755  1.00  0.00     0.291 C 
HETATM   15  C19 UNL     1       4.119  -1.443   0.367  1.00  0.00     0.153 C 
ENDBRANCH   6   9
ENDBRANCH   1   3
BRANCH   1  16
HETATM   16  C9  UNL     1      -3.160   1.291  -0.354  1.00  0.00     0.164 C 
HETATM   17  C10 UNL     1      -3.058   2.007   0.946  1.00  0.00     0.234 C 
HETATM   18  O2  UNL     1      -2.563   3.067   1.446  1.00  0.00    -0.272 OA
HETATM   19  N3  UNL     1      -3.745   1.245   1.962  1.00  0.00    -0.336 N 
HETATM   20  C11 UNL     1      -4.852   0.395   1.585  1.00  0.00     0.096 C 
HETATM   21  H11 UNL     1      -3.565   1.203   3.000  1.00  0.00     0.168 HD
HETATM   22  C12 UNL     1      -5.276   0.279   0.313  1.00  0.00    -0.038 C 
HETATM   23  C13 UNL     1      -6.423  -0.614  -0.006  1.00  0.00     0.155 C 
HETATM   24  C16 UNL     1      -4.582   1.055  -0.758  1.00  0.00     0.062 C 
HETATM   25  N4  UNL     1      -6.022  -1.402  -1.155  1.00  0.00    -0.395 N 
HETATM   26  C14 UNL     1      -5.390  -0.796  -2.254  1.00  0.00     0.080 C 
HETATM   27  H15 UNL     1      -6.201  -2.451  -1.181  1.00  0.00     0.159 HD
HETATM   28  C15 UNL     1      -4.741   0.334  -2.017  1.00  0.00     0.000 C 
ENDBRANCH   1  16
TORSDOF 3
