REMARK  3 active torsions:
REMARK  status: ('A' for Active; 'I' for Inactive)
REMARK    1  A    between atoms: C7_7  and  N1_8 
REMARK    2  A    between atoms: N1_8  and  C8_9 
REMARK    3  A    between atoms: C18_21  and  O2_22 
ROOT
HETATM    1  C1  UNL     1       6.977  -0.169  -0.397  1.00  0.00     0.018 C 
HETATM    2  C2  UNL     1       5.860   0.180  -0.097  1.00  0.00    -0.078 C 
HETATM    3  C3  UNL     1       4.526   0.599   0.248  1.00  0.00     0.019 A 
HETATM    4  C4  UNL     1       4.253   1.313   1.394  1.00  0.00     0.021 A 
HETATM    5  C5  UNL     1       2.965   1.701   1.690  1.00  0.00     0.004 A 
HETATM    6  C6  UNL     1       1.960   1.350   0.800  1.00  0.00     0.029 A 
HETATM    7  C7  UNL     1       2.246   0.627  -0.357  1.00  0.00     0.034 A 
HETATM    8  C19 UNL     1       3.533   0.236  -0.656  1.00  0.00     0.050 A 
ENDROOT
BRANCH   7   9
HETATM    9  N1  UNL     1       1.025   0.403  -1.096  1.00  0.00    -0.343 N 
HETATM   10  H5  UNL     1       0.819   1.070  -1.890  1.00  0.00     0.167 HD
BRANCH   9  11
HETATM   11  C8  UNL     1       0.148  -0.701  -0.740  1.00  0.00     0.128 C 
HETATM   12  N2  UNL     1       0.206  -0.917   0.536  1.00  0.00    -0.270 NA
HETATM   13  C9  UNL     1      -0.458  -1.877   1.319  1.00  0.00     0.188 C 
HETATM   14  C10 UNL     1      -1.257  -1.255   2.378  1.00  0.00    -0.048 C 
HETATM   15  C11 UNL     1      -1.189  -1.349   3.675  1.00  0.00     0.020 C 
HETATM   16  C12 UNL     1      -2.379  -0.374   2.128  1.00  0.00     0.006 C 
HETATM   17  C13 UNL     1      -3.130   0.241   1.237  1.00  0.00    -0.000 C 
HETATM   18  C14 UNL     1      -4.015   0.960   0.326  1.00  0.00     0.195 C 
HETATM   19  O1  UNL     1      -3.334   1.875  -0.477  1.00  0.00    -0.387 OA
HETATM   20  C15 UNL     1      -2.286   1.252  -1.167  1.00  0.00     0.168 C 
HETATM   21  C16 UNL     1      -2.663   0.172  -2.088  1.00  0.00     0.029 C 
HETATM   22  C17 UNL     1      -1.470  -0.504  -2.693  1.00  0.00     0.041 C 
HETATM   23  C18 UNL     1      -0.590  -1.320  -1.842  1.00  0.00     0.187 C 
BRANCH  23  24
HETATM   24  O2  UNL     1       0.322  -1.952  -2.750  1.00  0.00    -0.388 OA
HETATM   25  H21 UNL     1      -0.249  -2.251  -3.515  1.00  0.00     0.210 HD
ENDBRANCH  23  24
ENDBRANCH   9  11
ENDBRANCH   7   9
TORSDOF 3
