REMARK  6 active torsions:
REMARK  status: ('A' for Active; 'I' for Inactive)
REMARK    1  A    between atoms: N2_5  and  C4_6 
REMARK    2  A    between atoms: C7_9  and  N3_10 
REMARK    3  A    between atoms: N3_10  and  O1_11 
REMARK    4  A    between atoms: O1_11  and  C8_12 
REMARK    5  A    between atoms: C9_13  and  C10_14 
REMARK    6  A    between atoms: C18_24  and  O2_25 
ROOT
HETATM    1  N3  UNL     1      -1.530  -0.408  -0.534  1.00  0.00    -0.258 N 
HETATM    2  H10 UNL     1      -2.084  -0.943  -1.269  1.00  0.00     0.195 HD
ENDROOT
BRANCH   1   3
HETATM    3  C7  UNL     1      -0.138  -0.561  -0.306  1.00  0.00     0.088 A 
HETATM    4  C6  UNL     1       0.391   0.229   0.693  1.00  0.00     0.036 A 
HETATM    5  C5  UNL     1       1.758   0.067   0.909  1.00  0.00     0.032 A 
HETATM    6  C4  UNL     1       2.469  -0.838   0.140  1.00  0.00     0.033 A 
HETATM    7  C19 UNL     1       1.850  -1.585  -0.838  1.00  0.00     0.068 A 
HETATM    8  C18 UNL     1       0.501  -1.477  -1.108  1.00  0.00     0.096 A 
BRANCH   6   9
HETATM    9  N2  UNL     1       3.867  -0.967   0.403  1.00  0.00    -0.377 N 
HETATM   10  C3  UNL     1       4.396  -0.159   1.513  1.00  0.00     0.153 C 
HETATM   11  C2  UNL     1       5.869  -0.410   1.708  1.00  0.00     0.291 C 
HETATM   12  N1  UNL     1       6.524  -0.273   0.427  1.00  0.00     0.087 N 
HETATM   13  C1  UNL     1       6.386   1.008  -0.188  1.00  0.00     0.310 C 
HETATM   14  C21 UNL     1       6.179  -1.397  -0.376  1.00  0.00     0.291 C 
HETATM   15  C20 UNL     1       4.757  -1.827  -0.347  1.00  0.00     0.153 C 
ENDBRANCH   6   9
BRANCH   8  16
HETATM   16  O2  UNL     1      -0.155  -2.202  -2.073  1.00  0.00    -0.358 OA
HETATM   17  H20 UNL     1       0.106  -3.156  -2.239  1.00  0.00     0.217 HD
ENDBRANCH   8  16
ENDBRANCH   1   3
BRANCH   1  18
HETATM   18  O1  UNL     1      -2.753   0.097  -0.337  1.00  0.00    -0.239 OA
BRANCH  18  19
HETATM   19  C8  UNL     1      -3.256   1.320  -0.703  1.00  0.00     0.106 A 
HETATM   20  C9  UNL     1      -4.570   1.397  -0.561  1.00  0.00     0.027 A 
HETATM   21  C15 UNL     1      -5.252   2.660  -0.911  1.00  0.00     0.033 A 
HETATM   22  C16 UNL     1      -4.611   3.726  -1.363  1.00  0.00     0.084 A 
HETATM   23  N5  UNL     1      -3.202   3.588  -1.495  1.00  0.00    -0.393 N 
HETATM   24  C17 UNL     1      -2.406   2.432  -1.205  1.00  0.00     0.187 A 
HETATM   25  H17 UNL     1      -2.609   4.385  -1.840  1.00  0.00     0.159 HD
BRANCH  20  26
HETATM   26  C10 UNL     1      -5.308   0.241  -0.059  1.00  0.00     0.069 A 
HETATM   27  C11 UNL     1      -6.563  -0.119  -0.516  1.00  0.00     0.032 A 
HETATM   28  C12 UNL     1      -7.277  -1.197  -0.059  1.00  0.00     0.004 A 
HETATM   29  C13 UNL     1      -6.697  -1.967   0.920  1.00  0.00     0.019 A 
HETATM   30  C14 UNL     1      -5.445  -1.626   1.389  1.00  0.00     0.117 A 
HETATM   31  N4  UNL     1      -4.795  -0.547   0.894  1.00  0.00    -0.260 NA
ENDBRANCH  20  26
ENDBRANCH  18  19
ENDBRANCH   1  18
TORSDOF 6
