REMARK  2 active torsions:
REMARK  status: ('A' for Active; 'I' for Inactive)
REMARK    1  A    between atoms: C6_7  and  C7_8 
REMARK    2  A    between atoms: C10_11  and  N2_12 
ROOT
HETATM    1  C7  UNL     1      -0.883   0.240  -0.809  1.00  0.00     0.042 A 
HETATM    2  C8  UNL     1      -0.186   0.711   0.225  1.00  0.00    -0.026 A 
HETATM    3  C9  UNL     1      -0.541   0.511   1.643  1.00  0.00     0.048 C 
HETATM    4  C10 UNL     1       1.026   1.478  -0.171  1.00  0.00     0.236 A 
HETATM    5  N4  UNL     1       0.948   1.504  -1.581  1.00  0.00    -0.331 N 
HETATM    6  C16 UNL     1      -0.173   0.737  -2.007  1.00  0.00     0.252 A 
HETATM    7  O1  UNL     1      -0.369   0.612  -3.264  1.00  0.00    -0.268 OA
HETATM    8  H20 UNL     1       1.653   2.034  -2.138  1.00  0.00     0.165 HD
ENDROOT
BRANCH   1   9
HETATM    9  C6  UNL     1      -2.086  -0.545  -1.076  1.00  0.00     0.149 A 
HETATM   10  C2  UNL     1      -2.738  -1.133   0.105  1.00  0.00    -0.057 A 
HETATM   11  C1  UNL     1      -1.943  -2.131   0.899  1.00  0.00     0.046 C 
HETATM   12  C3  UNL     1      -3.954  -0.847   0.543  1.00  0.00     0.006 A 
HETATM   13  C4  UNL     1      -4.736   0.105  -0.208  1.00  0.00     0.017 A 
HETATM   14  C5  UNL     1      -4.319   0.715  -1.318  1.00  0.00     0.084 A 
HETATM   15  N1  UNL     1      -3.016   0.381  -1.765  1.00  0.00    -0.386 N 
HETATM   16  H7  UNL     1      -2.662   0.811  -2.648  1.00  0.00     0.160 HD
ENDBRANCH   1   9
BRANCH   4  17
HETATM   17  N2  UNL     1       2.224   0.977   0.429  1.00  0.00    -0.270 N 
HETATM   18  N3  UNL     1       2.962   1.869   1.262  1.00  0.00    -0.187 NA
HETATM   19  C11 UNL     1       4.057   1.482   1.837  1.00  0.00     0.138 A 
HETATM   20  C12 UNL     1       4.592   0.135   1.669  1.00  0.00     0.019 A 
HETATM   21  C13 UNL     1       3.861  -0.642   0.884  1.00  0.00     0.001 A 
HETATM   22  C14 UNL     1       2.596  -0.358   0.157  1.00  0.00     0.126 A 
HETATM   23  C15 UNL     1       2.640  -0.832  -1.246  1.00  0.00     0.038 C 
ENDBRANCH   4  17
TORSDOF 2
