REMARK  1 active torsions:
REMARK  status: ('A' for Active; 'I' for Inactive)
REMARK    1  A    between atoms: C5_6  and  N1_7 
ROOT
HETATM    1  N1  UNL     1      -1.480  -0.420  -0.750  1.00  0.00    -0.254 N 
HETATM    2  N2  UNL     1      -1.864  -1.520  -1.565  1.00  0.00    -0.287 N 
HETATM    3  C6  UNL     1      -1.000  -2.297  -2.361  1.00  0.00     0.226 A 
HETATM    4  N3  UNL     1       0.247  -1.973  -2.343  1.00  0.00    -0.217 NA
HETATM    5  C7  UNL     1       0.689  -0.881  -1.545  1.00  0.00     0.193 A 
HETATM    6  C8  UNL     1      -0.072  -0.090  -0.757  1.00  0.00     0.104 A 
HETATM    7  C9  UNL     1       0.138   1.045   0.135  1.00  0.00     0.178 C 
HETATM    8  N4  UNL     1       1.418   1.123   0.802  1.00  0.00    -0.406 N 
HETATM    9  C10 UNL     1       2.316   0.080   0.504  1.00  0.00     0.133 A 
HETATM   10  C11 UNL     1       3.359  -0.113   1.526  1.00  0.00     0.000 A 
HETATM   11  C12 UNL     1       4.675  -0.256   1.380  1.00  0.00    -0.002 A 
HETATM   12  C13 UNL     1       5.164  -0.207   0.012  1.00  0.00    -0.002 A 
HETATM   13  C14 UNL     1       4.287  -0.011  -0.968  1.00  0.00     0.008 A 
HETATM   14  C15 UNL     1       2.854   0.182  -0.895  1.00  0.00     0.179 A 
HETATM   15  O1  UNL     1       2.097  -0.724  -1.692  1.00  0.00    -0.321 OA
HETATM   16  H4  UNL     1      -2.871  -1.841  -1.628  1.00  0.00     0.188 HD
HETATM   17  H8  UNL     1       1.777   2.071   0.913  1.00  0.00     0.154 HD
ENDROOT
BRANCH   1  18
HETATM   18  C5  UNL     1      -2.558   0.166  -0.052  1.00  0.00     0.058 A 
HETATM   19  C4  UNL     1      -2.899   1.479   0.163  1.00  0.00     0.031 A 
HETATM   20  C3  UNL     1      -3.982   1.898   0.900  1.00  0.00     0.004 A 
HETATM   21  C2  UNL     1      -4.809   0.960   1.480  1.00  0.00     0.019 A 
HETATM   22  C1  UNL     1      -4.554  -0.383   1.324  1.00  0.00     0.013 A 
HETATM   23 BR1  UNL     1      -5.675  -1.685   2.110  1.00  0.00    -0.051 Br
HETATM   24  C16 UNL     1      -3.451  -0.718   0.572  1.00  0.00     0.050 A 
ENDBRANCH   1  18
TORSDOF 1
