REMARK  4 active torsions:
REMARK  status: ('A' for Active; 'I' for Inactive)
REMARK    1  A    between atoms: N2_5  and  C4_6 
REMARK    2  A    between atoms: C7_9  and  N3_10 
REMARK       I    between atoms: N3_10  and  C8_11 
REMARK    3  A    between atoms: C8_11  and  C9_13 
REMARK    4  A    between atoms: C13_19  and  N6_20 
ROOT
HETATM    1  N3  UNL     1       1.319   0.215   0.481  1.00  0.00    -0.326 N 
HETATM    2  C8  UNL     1       2.289   0.316  -0.535  1.00  0.00     0.236 C 
HETATM    3  O1  UNL     1       1.833   0.347  -1.728  1.00  0.00    -0.272 OA
HETATM    4  H10 UNL     1       1.392   0.169   1.524  1.00  0.00     0.169 HD
ENDROOT
BRANCH   2   5
HETATM    5  C9  UNL     1       3.691   0.368   0.016  1.00  0.00     0.175 C 
HETATM    6  C10 UNL     1       3.812   1.558   0.904  1.00  0.00     0.111 C 
HETATM    7  N4  UNL     1       3.323   1.455   2.102  1.00  0.00    -0.287 NA
HETATM    8  N5  UNL     1       4.431   2.791   0.509  1.00  0.00    -0.354 N 
HETATM    9  H12 UNL     1       3.381   2.257   2.764  1.00  0.00     0.188 HD
HETATM   10  C11 UNL     1       5.161   2.840  -0.715  1.00  0.00     0.087 C 
HETATM   11  H13 UNL     1       4.356   3.647   1.098  1.00  0.00     0.166 HD
HETATM   12  C12 UNL     1       5.221   1.730  -1.414  1.00  0.00     0.018 C 
HETATM   13  C13 UNL     1       4.644   0.408  -1.139  1.00  0.00     0.154 C 
BRANCH  13  14
HETATM   14  N6  UNL     1       5.689  -0.578  -0.864  1.00  0.00    -0.271 N 
HETATM   15  C14 UNL     1       6.458  -0.376   0.337  1.00  0.00     0.113 C 
HETATM   16  C15 UNL     1       7.401  -1.250   0.603  1.00  0.00     0.021 C 
HETATM   17  C16 UNL     1       7.573  -2.337  -0.347  1.00  0.00     0.037 C 
HETATM   18  C17 UNL     1       6.809  -2.562  -1.392  1.00  0.00     0.107 C 
HETATM   19  N7  UNL     1       5.944  -1.672  -1.716  1.00  0.00    -0.170 NA
ENDBRANCH  13  14
ENDBRANCH   2   5
BRANCH   1  20
HETATM   20  C7  UNL     1      -0.100   0.141   0.364  1.00  0.00     0.034 A 
HETATM   21  C6  UNL     1      -0.657  -1.126   0.254  1.00  0.00     0.032 A 
HETATM   22  C5  UNL     1      -2.020  -1.312   0.136  1.00  0.00     0.031 A 
HETATM   23  C4  UNL     1      -2.892  -0.244   0.122  1.00  0.00     0.030 A 
HETATM   24  C19 UNL     1      -2.312   1.007   0.233  1.00  0.00     0.031 A 
HETATM   25  C18 UNL     1      -0.959   1.222   0.352  1.00  0.00     0.032 A 
BRANCH  23  26
HETATM   26  N2  UNL     1      -4.300  -0.404   0.002  1.00  0.00    -0.378 N 
HETATM   27  C3  UNL     1      -5.266   0.676  -0.018  1.00  0.00     0.153 C 
HETATM   28  C2  UNL     1      -6.457   0.180   0.798  1.00  0.00     0.291 C 
HETATM   29  N1  UNL     1      -7.115  -0.799  -0.030  1.00  0.00     0.087 N 
HETATM   30  C1  UNL     1      -7.905  -0.170  -1.066  1.00  0.00     0.310 C 
HETATM   31  C21 UNL     1      -6.249  -1.828  -0.512  1.00  0.00     0.291 C 
HETATM   32  C20 UNL     1      -4.825  -1.736  -0.109  1.00  0.00     0.153 C 
ENDBRANCH  23  26
ENDBRANCH   1  20
TORSDOF 4
