REMARK  7 active torsions:
REMARK  status: ('A' for Active; 'I' for Inactive)
REMARK    1  A    between atoms: C2_2  and  N1_3 
REMARK    2  A    between atoms: N1_3  and  C4_5 
REMARK    3  A    between atoms: C4_5  and  C5_6 
REMARK    4  A    between atoms: C5_6  and  N2_7 
REMARK    5  A    between atoms: N2_7  and  C6_8 
REMARK    6  A    between atoms: C9_11  and  N3_12 
REMARK       I    between atoms: N3_12  and  C10_13 
REMARK    7  A    between atoms: C10_13  and  C11_15 
ROOT
HETATM    1  N3  UNL     1       1.240  -0.088  -0.093  1.00  0.00    -0.323 N 
HETATM    2  C10 UNL     1       1.989   0.145   1.078  1.00  0.00     0.256 C 
HETATM    3  O1  UNL     1       1.500   0.751   2.049  1.00  0.00    -0.267 OA
HETATM    4  H14 UNL     1       1.787  -0.602  -0.814  1.00  0.00     0.169 HD
ENDROOT
BRANCH   2   5
HETATM    5  C11 UNL     1       3.375  -0.316   1.203  1.00  0.00     0.064 C 
HETATM    6  C12 UNL     1       4.078  -0.993   0.261  1.00  0.00     0.065 C 
HETATM    7  C13 UNL     1       4.738  -2.166   0.868  1.00  0.00     0.048 C 
HETATM    8  N7  UNL     1       4.473  -1.030  -1.144  1.00  0.00    -0.276 N 
HETATM    9  C14 UNL     1       4.593  -2.419   2.173  1.00  0.00     0.086 C 
HETATM   10  N4  UNL     1       4.476  -1.294   3.082  1.00  0.00    -0.387 N 
HETATM   11  C15 UNL     1       4.162  -0.036   2.459  1.00  0.00     0.145 C 
HETATM   12  H17 UNL     1       4.601  -1.370   4.119  1.00  0.00     0.159 HD
HETATM   13  C16 UNL     1       5.383   0.744   2.157  1.00  0.00     0.004 C 
HETATM   14  C17 UNL     1       6.501   1.405   1.806  1.00  0.00     0.017 C 
HETATM   15  C18 UNL     1       7.529   1.501   0.737  1.00  0.00     0.118 C 
HETATM   16  N5  UNL     1       7.612   0.869  -0.406  1.00  0.00    -0.252 NA
HETATM   17  C19 UNL     1       6.505  -0.045  -0.609  1.00  0.00     0.254 C 
HETATM   18  N6  UNL     1       5.292   0.139  -1.128  1.00  0.00    -0.168 NA
HETATM   19  H23 UNL     1       4.073  -1.829  -1.667  1.00  0.00     0.189 HD
ENDBRANCH   2   5
BRANCH   1  20
HETATM   20  C9  UNL     1      -0.099   0.298  -0.351  1.00  0.00     0.035 A 
HETATM   21  C8  UNL     1      -0.957   0.976   0.474  1.00  0.00     0.032 A 
HETATM   22  C7  UNL     1      -2.232   1.290   0.091  1.00  0.00     0.031 A 
HETATM   23  C6  UNL     1      -2.761   0.963  -1.127  1.00  0.00     0.028 A 
HETATM   24  C21 UNL     1      -1.890   0.282  -1.952  1.00  0.00     0.031 A 
HETATM   25  C20 UNL     1      -0.609  -0.037  -1.576  1.00  0.00     0.032 A 
BRANCH  23  26
HETATM   26  N2  UNL     1      -4.065   1.246  -1.567  1.00  0.00    -0.388 N 
HETATM   27  H11 UNL     1      -4.304   0.956  -2.560  1.00  0.00     0.159 HD
BRANCH  26  28
HETATM   28  C5  UNL     1      -5.146   1.876  -0.884  1.00  0.00     0.139 C 
BRANCH  28  29
HETATM   29  C4  UNL     1      -5.651   1.026   0.244  1.00  0.00     0.141 C 
BRANCH  29  30
HETATM   30  N1  UNL     1      -6.126  -0.273  -0.256  1.00  0.00    -0.396 N 
HETATM   31  C3  UNL     1      -6.692  -1.292   0.642  1.00  0.00     0.148 C 
BRANCH  30  32
HETATM   32  C2  UNL     1      -6.025  -0.552  -1.670  1.00  0.00     0.058 C 
HETATM   33  C1  UNL     1      -7.238  -0.745  -2.188  1.00  0.00     0.049 C 
ENDBRANCH  30  32
ENDBRANCH  29  30
ENDBRANCH  28  29
ENDBRANCH  26  28
ENDBRANCH  23  26
ENDBRANCH   1  20
TORSDOF 7
