REMARK  3 active torsions:
REMARK  status: ('A' for Active; 'I' for Inactive)
REMARK    1  A    between atoms: N2_5  and  C4_6 
REMARK    2  A    between atoms: C7_9  and  N3_10 
REMARK       I    between atoms: N3_10  and  C8_11 
REMARK    3  A    between atoms: C8_11  and  C9_13 
ROOT
HETATM    1  C4  UNL     1      -1.134  -0.243  -0.064  1.00  0.00     0.030 A 
HETATM    2  C5  UNL     1      -0.335   0.375   0.863  1.00  0.00     0.031 A 
HETATM    3  C6  UNL     1       1.032   0.210   0.789  1.00  0.00     0.032 A 
HETATM    4  C7  UNL     1       1.668  -0.540  -0.157  1.00  0.00     0.034 A 
HETATM    5  C13 UNL     1       0.837  -1.146  -1.071  1.00  0.00     0.032 A 
HETATM    6  C14 UNL     1      -0.519  -1.004  -1.028  1.00  0.00     0.031 A 
ENDROOT
BRANCH   4   7
HETATM    7  N3  UNL     1       3.058  -0.757  -0.298  1.00  0.00    -0.326 N 
HETATM    8  C8  UNL     1       4.128  -0.266   0.486  1.00  0.00     0.239 C 
HETATM    9  O1  UNL     1       3.876   0.478   1.466  1.00  0.00    -0.272 OA
HETATM   10  H10 UNL     1       3.428  -1.356  -1.069  1.00  0.00     0.169 HD
BRANCH   8  11
HETATM   11  C9  UNL     1       5.556  -0.543   0.268  1.00  0.00     0.194 A 
HETATM   12  C10 UNL     1       6.334   0.164   1.312  1.00  0.00     0.014 A 
HETATM   13  C11 UNL     1       7.165   1.035   0.786  1.00  0.00     0.088 A 
HETATM   14  N4  UNL     1       7.067   1.038  -0.643  1.00  0.00    -0.336 N 
HETATM   15  C12 UNL     1       6.074   0.066  -0.981  1.00  0.00     0.238 A 
HETATM   16  H14 UNL     1       7.661   1.676  -1.218  1.00  0.00     0.168 HD
HETATM   17  O2  UNL     1       5.837  -0.085  -2.209  1.00  0.00    -0.272 OA
ENDBRANCH   8  11
ENDBRANCH   4   7
BRANCH   1  18
HETATM   18  N2  UNL     1      -2.549  -0.134  -0.072  1.00  0.00    -0.378 N 
HETATM   19  C3  UNL     1      -3.331   0.638   0.873  1.00  0.00     0.153 C 
HETATM   20  C2  UNL     1      -4.379   1.385   0.049  1.00  0.00     0.291 C 
HETATM   21  N1  UNL     1      -5.342   0.430  -0.404  1.00  0.00     0.087 N 
HETATM   22  C1  UNL     1      -6.498   0.421   0.437  1.00  0.00     0.310 C 
HETATM   23  C16 UNL     1      -4.794  -0.891  -0.588  1.00  0.00     0.291 C 
HETATM   24  C15 UNL     1      -3.342  -0.819  -1.072  1.00  0.00     0.153 C 
ENDBRANCH   1  18
TORSDOF 3
