REMARK  10 active torsions:
REMARK  status: ('A' for Active; 'I' for Inactive)
REMARK    1  A    between atoms: C7_7  and  N1_8 
REMARK    2  A    between atoms: N1_8  and  C8_9 
REMARK    3  A    between atoms: C12_15  and  O1_16 
REMARK    4  A    between atoms: O1_16  and  C13_17 
REMARK    5  A    between atoms: C13_17  and  C14_18 
REMARK    6  A    between atoms: C14_18  and  O2_19 
REMARK    7  A    between atoms: C16_21  and  O3_22 
REMARK    8  A    between atoms: O3_22  and  C17_23 
REMARK    9  A    between atoms: C17_23  and  C18_24 
REMARK   10  A    between atoms: C18_24  and  O4_25 
ROOT
HETATM    1  C1  UNL     1       8.853   2.327  -0.437  1.00  0.00     0.018 C 
HETATM    2  C2  UNL     1       7.895   1.683  -0.117  1.00  0.00    -0.078 C 
HETATM    3  C3  UNL     1       6.786   0.919   0.277  1.00  0.00     0.019 A 
HETATM    4  C4  UNL     1       7.077  -0.295   0.963  1.00  0.00     0.021 A 
HETATM    5  C5  UNL     1       6.214  -1.230   1.481  1.00  0.00     0.004 A 
HETATM    6  C6  UNL     1       4.872  -0.883   1.273  1.00  0.00     0.029 A 
HETATM    7  C7  UNL     1       4.464   0.270   0.620  1.00  0.00     0.035 A 
HETATM    8  C22 UNL     1       5.458   1.093   0.162  1.00  0.00     0.050 A 
ENDROOT
BRANCH   7   9
HETATM    9  N1  UNL     1       3.156   0.452   0.539  1.00  0.00    -0.340 N 
HETATM   10  H5  UNL     1       3.162   1.139   1.405  1.00  0.00     0.167 HD
BRANCH   9  11
HETATM   11  C8  UNL     1       1.872   0.659   0.491  1.00  0.00     0.150 A 
HETATM   12  N2  UNL     1       1.564  -0.374  -0.080  1.00  0.00    -0.280 N 
HETATM   13  C9  UNL     1       1.488  -1.527  -0.686  1.00  0.00     0.211 C 
HETATM   14  C21 UNL     1       0.579   0.786   0.397  1.00  0.00     0.131 A 
HETATM   15  N3  UNL     1       0.795  -2.270  -1.504  1.00  0.00    -0.280 NA
HETATM   16  C10 UNL     1      -0.459  -1.826  -2.126  1.00  0.00     0.180 C 
HETATM   17  C11 UNL     1      -1.292  -0.969  -1.254  1.00  0.00     0.031 C 
HETATM   18  C12 UNL     1      -2.248  -0.377  -0.496  1.00  0.00     0.084 C 
HETATM   19  C16 UNL     1      -1.886   0.961   0.207  1.00  0.00     0.250 C 
HETATM   20  C20 UNL     1      -0.493   0.870   0.321  1.00  0.00    -0.084 C 
BRANCH  18  21
HETATM   21  O1  UNL     1      -2.923  -1.490  -0.920  1.00  0.00    -0.350 OA
BRANCH  21  22
HETATM   22  C13 UNL     1      -3.499  -2.431  -0.019  1.00  0.00     0.201 C 
BRANCH  22  23
HETATM   23  C14 UNL     1      -4.570  -3.177  -0.773  1.00  0.00     0.193 C 
BRANCH  23  24
HETATM   24  O2  UNL     1      -5.196  -4.094  -0.001  1.00  0.00    -0.394 OA
HETATM   25  C15 UNL     1      -4.320  -5.058   0.465  1.00  0.00     0.201 C 
ENDBRANCH  23  24
ENDBRANCH  22  23
ENDBRANCH  21  22
ENDBRANCH  18  21
BRANCH  19  26
HETATM   26  O3  UNL     1      -2.455   2.019  -0.425  1.00  0.00    -0.365 OA
BRANCH  26  27
HETATM   27  C17 UNL     1      -3.517   2.590   0.301  1.00  0.00     0.196 C 
BRANCH  27  28
HETATM   28  C18 UNL     1      -4.144   3.736  -0.422  1.00  0.00     0.193 C 
BRANCH  28  29
HETATM   29  O4  UNL     1      -3.299   4.779  -0.682  1.00  0.00    -0.394 OA
HETATM   30  C19 UNL     1      -2.749   5.381   0.462  1.00  0.00     0.201 C 
ENDBRANCH  28  29
ENDBRANCH  27  28
ENDBRANCH  26  27
ENDBRANCH  19  26
ENDBRANCH   9  11
ENDBRANCH   7   9
TORSDOF 10
