REMARK  3 active torsions:
REMARK  status: ('A' for Active; 'I' for Inactive)
REMARK    1  A    between atoms: N1_1  and  C1_2 
REMARK    2  A    between atoms: C5_6  and  N2_7 
REMARK    3  A    between atoms: N2_7  and  C6_8 
ROOT
HETATM    1  C6  UNL     1      -0.516   0.965   0.092  1.00  0.00     0.176 A 
HETATM    2  C7  UNL     1      -0.512   1.572   1.458  1.00  0.00     0.124 A 
HETATM    3  N3  UNL     1       0.651   1.387   1.992  1.00  0.00    -0.237 NA
HETATM    4  C8  UNL     1       1.495   0.674   1.078  1.00  0.00     0.194 A 
HETATM    5  C9  UNL     1       0.846   0.409  -0.044  1.00  0.00     0.087 A 
HETATM    6  N4  UNL     1       1.228  -0.262  -1.239  1.00  0.00    -0.383 N 
HETATM    7  C10 UNL     1       2.463  -0.932  -1.535  1.00  0.00     0.161 C 
HETATM    8  C11 UNL     1       3.650  -0.322  -0.885  1.00  0.00    -0.007 A 
HETATM    9  C12 UNL     1       4.756  -0.327  -1.743  1.00  0.00     0.011 A 
HETATM   10  C13 UNL     1       5.999   0.173  -1.413  1.00  0.00     0.001 A 
HETATM   11  C14 UNL     1       6.142   0.708  -0.156  1.00  0.00     0.003 A 
HETATM   12  C15 UNL     1       5.089   0.738   0.727  1.00  0.00     0.038 A 
HETATM   13  C16 UNL     1       3.841   0.227   0.376  1.00  0.00     0.086 A 
HETATM   14  O1  UNL     1       2.833   0.288   1.303  1.00  0.00    -0.290 OA
HETATM   15  H9  UNL     1       0.521  -0.273  -2.009  1.00  0.00     0.160 HD
ENDROOT
BRANCH   1  16
HETATM   16  N2  UNL     1      -1.502  -0.082   0.081  1.00  0.00    -0.375 N 
HETATM   17  H6  UNL     1      -1.194  -1.047  -0.095  1.00  0.00     0.160 HD
BRANCH  16  18
HETATM   18  C5  UNL     1      -2.886   0.148   0.303  1.00  0.00     0.030 A 
HETATM   19  C4  UNL     1      -3.453   1.382   0.540  1.00  0.00     0.029 A 
HETATM   20  C3  UNL     1      -4.795   1.581   0.755  1.00  0.00     0.004 A 
HETATM   21  C2  UNL     1      -5.661   0.505   0.740  1.00  0.00     0.029 A 
HETATM   22  C1  UNL     1      -5.148  -0.750   0.507  1.00  0.00     0.027 A 
HETATM   23  C17 UNL     1      -3.795  -0.889   0.298  1.00  0.00     0.058 A 
BRANCH  22  24
HETATM   24  N1  UNL     1      -6.018  -1.899   0.483  1.00  0.00    -0.399 N 
HETATM   25  H1  UNL     1      -6.384  -2.064   1.449  1.00  0.00     0.156 HD
HETATM   26  H2  UNL     1      -6.382  -2.601  -0.211  1.00  0.00     0.156 HD
ENDBRANCH  22  24
ENDBRANCH  16  18
ENDBRANCH   1  16
TORSDOF 3
