REMARK  5 active torsions:
REMARK  status: ('A' for Active; 'I' for Inactive)
REMARK    1  A    between atoms: N2_8  and  C7_9 
REMARK       I    between atoms: N3_12  and  C10_13 
REMARK    2  A    between atoms: C10_13  and  C11_15 
REMARK    3  A    between atoms: C11_15  and  N4_16 
REMARK    4  A    between atoms: N4_16  and  C12_17 
REMARK    5  A    between atoms: C14_22  and  O2_23 
ROOT
HETATM    1  C11 UNL     1      -3.341  -0.787  -0.328  1.00  0.00     0.149 A 
HETATM    2  C15 UNL     1      -2.953  -1.821  -1.320  1.00  0.00     0.032 A 
HETATM    3  C16 UNL     1      -2.964  -3.060  -0.843  1.00  0.00     0.082 A 
HETATM    4  N8  UNL     1      -3.365  -2.956   0.531  1.00  0.00    -0.396 N 
HETATM    5  C17 UNL     1      -3.533  -1.578   0.946  1.00  0.00     0.164 A 
HETATM    6  H22 UNL     1      -3.514  -3.771   1.144  1.00  0.00     0.159 HD
ENDROOT
BRANCH   1   7
HETATM    7  C10 UNL     1      -2.318   0.268  -0.178  1.00  0.00     0.261 C 
HETATM    8  N3  UNL     1      -0.968   0.294   0.230  1.00  0.00    -0.302 N 
HETATM    9  C9  UNL     1      -0.371   1.581   0.220  1.00  0.00     0.098 A 
HETATM   10  C18 UNL     1      -0.310  -0.905   0.609  1.00  0.00     0.098 A 
HETATM   11  C8  UNL     1       0.896   1.627   0.598  1.00  0.00     0.019 A 
HETATM   12  C7  UNL     1       1.764   0.475   1.031  1.00  0.00     0.128 A 
HETATM   13  C19 UNL     1       0.952  -0.742   0.968  1.00  0.00     0.019 A 
HETATM   14  O1  UNL     1      -2.921   1.320  -0.525  1.00  0.00    -0.269 OA
BRANCH  12  15
HETATM   15  N2  UNL     1       2.905   0.481   0.204  1.00  0.00    -0.395 N 
HETATM   16  C2  UNL     1       3.497  -0.702  -0.233  1.00  0.00     0.093 C 
HETATM   17  C1  UNL     1       3.849  -0.519  -1.720  1.00  0.00     0.033 C 
HETATM   18  C3  UNL     1       4.782  -1.013   0.506  1.00  0.00     0.140 C 
HETATM   19  N1  UNL     1       5.660   0.085   0.469  1.00  0.00    -0.413 N 
HETATM   20  C4  UNL     1       6.914  -0.077  -0.178  1.00  0.00     0.143 C 
HETATM   21  C5  UNL     1       5.166   1.392   0.579  1.00  0.00     0.136 C 
HETATM   22  C6  UNL     1       3.724   1.640   0.281  1.00  0.00     0.137 C 
ENDBRANCH  12  15
ENDBRANCH   1   7
BRANCH   1  23
HETATM   23  N4  UNL     1      -4.601  -0.224  -0.790  1.00  0.00    -0.349 N 
HETATM   24  H17 UNL     1      -5.036  -0.481  -1.703  1.00  0.00     0.163 HD
BRANCH  23  25
HETATM   25  C12 UNL     1      -5.305   0.721   0.005  1.00  0.00     0.183 A 
HETATM   26  N5  UNL     1      -4.926   1.179   1.207  1.00  0.00    -0.110 NA
HETATM   27  N6  UNL     1      -5.600   2.053   1.916  1.00  0.00    -0.042 NA
HETATM   28  N7  UNL     1      -6.739   2.581   1.513  1.00  0.00    -0.140 NA
HETATM   29  C13 UNL     1      -7.224   2.200   0.320  1.00  0.00     0.183 A 
HETATM   30  C14 UNL     1      -6.496   1.280  -0.405  1.00  0.00     0.132 A 
BRANCH  30  31
HETATM   31  O2  UNL     1      -7.052   0.921  -1.642  1.00  0.00    -0.356 OA
HETATM   32  H19 UNL     1      -7.335  -0.039  -1.860  1.00  0.00     0.218 HD
ENDBRANCH  30  31
ENDBRANCH  23  25
ENDBRANCH   1  23
TORSDOF 5
