REMARK  6 active torsions:
REMARK  status: ('A' for Active; 'I' for Inactive)
REMARK    1  A    between atoms: C4_5  and  C5_6 
REMARK    2  A    between atoms: C8_9  and  N2_10 
REMARK       I    between atoms: N2_10  and  C9_11 
REMARK    3  A    between atoms: C9_11  and  C10_13 
REMARK    4  A    between atoms: C14_17  and  O2_18 
REMARK    5  A    between atoms: O2_18  and  C15_19 
REMARK    6  A    between atoms: C15_19  and  N3_20 
ROOT
HETATM    1  N2  UNL     1      -1.074  -0.037  -1.024  1.00  0.00    -0.326 N 
HETATM    2  C9  UNL     1      -1.422  -1.395  -1.085  1.00  0.00     0.236 C 
HETATM    3  O1  UNL     1      -0.739  -2.453  -0.868  1.00  0.00    -0.272 OA
HETATM    4  H11 UNL     1      -1.946   0.478  -1.279  1.00  0.00     0.169 HD
ENDROOT
BRANCH   2   5
HETATM    5  C10 UNL     1      -2.624  -2.209  -1.397  1.00  0.00     0.157 A 
HETATM    6  C11 UNL     1      -2.195  -3.626  -1.241  1.00  0.00    -0.006 A 
HETATM    7  C12 UNL     1      -2.884  -4.229  -0.282  1.00  0.00    -0.000 A 
HETATM    8  C13 UNL     1      -3.826  -3.262   0.276  1.00  0.00     0.033 A 
HETATM    9  C14 UNL     1      -3.682  -2.107  -0.357  1.00  0.00     0.065 A 
BRANCH   9  10
HETATM   10  O2  UNL     1      -4.538  -1.100   0.097  1.00  0.00    -0.335 OA
BRANCH  10  11
HETATM   11  C15 UNL     1      -5.218  -0.213  -0.755  1.00  0.00     0.300 C 
BRANCH  11  12
HETATM   12  N3  UNL     1      -5.997   0.671   0.099  1.00  0.00    -0.358 N 
HETATM   13  C16 UNL     1      -5.381   1.502   1.074  1.00  0.00     0.105 C 
HETATM   14  C17 UNL     1      -5.951   2.613   1.516  1.00  0.00     0.108 C 
HETATM   15  N4  UNL     1      -7.231   3.019   1.015  1.00  0.00    -0.334 N 
HETATM   16  C18 UNL     1      -7.848   2.184   0.036  1.00  0.00     0.239 C 
HETATM   17  H20 UNL     1      -7.723   3.884   1.329  1.00  0.00     0.168 HD
HETATM   18  O3  UNL     1      -8.694   2.716  -0.733  1.00  0.00    -0.271 OA
HETATM   19  C19 UNL     1      -7.442   0.756   0.005  1.00  0.00     0.227 C 
ENDBRANCH  11  12
ENDBRANCH  10  11
ENDBRANCH   9  10
ENDBRANCH   2   5
BRANCH   1  20
HETATM   20  C8  UNL     1       0.292   0.072  -0.649  1.00  0.00     0.034 A 
HETATM   21  C7  UNL     1       0.772   0.162   0.639  1.00  0.00     0.030 A 
HETATM   22  C6  UNL     1       2.137   0.264   0.847  1.00  0.00     0.010 A 
HETATM   23  C5  UNL     1       2.947   0.269  -0.260  1.00  0.00    -0.054 A 
HETATM   24  C21 UNL     1       2.513   0.181  -1.567  1.00  0.00     0.010 A 
HETATM   25  C20 UNL     1       1.159   0.082  -1.741  1.00  0.00     0.030 A 
BRANCH  23  26
HETATM   26  C4  UNL     1       4.401   0.379  -0.000  1.00  0.00     0.022 C 
HETATM   27  C3  UNL     1       4.925  -0.788   0.813  1.00  0.00     0.039 C 
HETATM   28  C2  UNL     1       6.387  -0.515   1.098  1.00  0.00     0.272 C 
HETATM   29  N1  UNL     1       6.881   0.565   0.293  1.00  0.00     0.084 N 
HETATM   30  C1  UNL     1       8.300   0.724   0.499  1.00  0.00     0.309 C 
HETATM   31  C23 UNL     1       6.251   1.830   0.654  1.00  0.00     0.272 C 
HETATM   32  C22 UNL     1       4.754   1.635   0.736  1.00  0.00     0.039 C 
ENDBRANCH  23  26
ENDBRANCH   1  20
TORSDOF 6
