REMARK  7 active torsions:
REMARK  status: ('A' for Active; 'I' for Inactive)
REMARK    1  A    between atoms: C2_2  and  O1_3 
REMARK    2  A    between atoms: O1_3  and  C3_4 
REMARK    3  A    between atoms: C8_9  and  N1_10 
REMARK    4  A    between atoms: N1_10  and  C9_11 
REMARK    5  A    between atoms: C10_12  and  C11_13 
REMARK       I    between atoms: C11_13  and  N2_15 
REMARK    6  A    between atoms: N2_15  and  C12_16 
REMARK    7  A    between atoms: C15_19  and  N3_20 
ROOT
HETATM    1  C9  UNL     1       3.038  -2.900   0.375  1.00  0.00     0.053 A 
HETATM    2  C10 UNL     1       1.822  -3.282   0.053  1.00  0.00     0.127 A 
HETATM    3  C22 UNL     1       1.772  -4.692  -0.302  1.00  0.00     0.302 A 
HETATM    4  O3  UNL     1       0.689  -5.259  -0.645  1.00  0.00    -0.263 OA
HETATM    5  N5  UNL     1       2.913  -5.530  -0.291  1.00  0.00    -0.111 NA
HETATM    6  N6  UNL     1       4.037  -5.051   0.039  1.00  0.00    -0.183 NA
HETATM    7  C23 UNL     1       4.290  -3.690   0.422  1.00  0.00     0.232 A 
ENDROOT
BRANCH   2   8
HETATM    8  C11 UNL     1       0.601  -2.503   0.015  1.00  0.00     0.263 C 
HETATM    9  O2  UNL     1      -0.463  -3.067  -0.333  1.00  0.00    -0.267 OA
HETATM   10  N2  UNL     1       0.357  -1.155   0.311  1.00  0.00    -0.323 N 
HETATM   11  H11 UNL     1       1.180  -0.596   0.618  1.00  0.00     0.169 HD
BRANCH  10  12
HETATM   12  C12 UNL     1      -0.965  -0.619   0.191  1.00  0.00     0.035 A 
HETATM   13  C13 UNL     1      -1.800  -0.681   1.301  1.00  0.00     0.032 A 
HETATM   14  C14 UNL     1      -3.067  -0.171   1.198  1.00  0.00     0.031 A 
HETATM   15  C15 UNL     1      -3.591   0.409   0.068  1.00  0.00     0.030 A 
HETATM   16  C20 UNL     1      -2.703   0.433  -0.986  1.00  0.00     0.031 A 
HETATM   17  C21 UNL     1      -1.416  -0.056  -0.971  1.00  0.00     0.032 A 
BRANCH  15  18
HETATM   18  N3  UNL     1      -4.917   0.931  -0.000  1.00  0.00    -0.378 N 
HETATM   19  C16 UNL     1      -5.773   0.852   1.146  1.00  0.00     0.153 C 
HETATM   20  C17 UNL     1      -6.878   1.892   1.094  1.00  0.00     0.289 C 
HETATM   21  N4  UNL     1      -7.491   1.937  -0.209  1.00  0.00     0.086 N 
HETATM   22  C18 UNL     1      -6.577   2.267  -1.258  1.00  0.00     0.289 C 
HETATM   23  H18 UNL     1      -8.221   2.690  -0.168  1.00  0.00     0.316 HD
HETATM   24  C19 UNL     1      -5.292   1.511  -1.260  1.00  0.00     0.153 C 
ENDBRANCH  15  18
ENDBRANCH  10  12
ENDBRANCH   2   8
BRANCH   1  25
HETATM   25  N1  UNL     1       3.340  -1.570   0.757  1.00  0.00    -0.355 N 
HETATM   26  H10 UNL     1       3.207  -1.189   1.699  1.00  0.00     0.166 HD
BRANCH  25  27
HETATM   27  C8  UNL     1       3.880  -0.706  -0.267  1.00  0.00     0.066 A 
HETATM   28  C3  UNL     1       4.235   0.594   0.034  1.00  0.00     0.095 A 
HETATM   29  C4  UNL     1       4.751   1.408  -0.979  1.00  0.00     0.039 A 
HETATM   30  C5  UNL     1       4.917   0.961  -2.265  1.00  0.00     0.003 A 
HETATM   31  C6  UNL     1       4.565  -0.332  -2.573  1.00  0.00     0.002 A 
HETATM   32  C7  UNL     1       4.058  -1.126  -1.567  1.00  0.00     0.032 A 
BRANCH  28  33
HETATM   33  O1  UNL     1       4.099   1.121   1.303  1.00  0.00    -0.349 OA
BRANCH  33  34
HETATM   34  C2  UNL     1       4.472   2.458   1.585  1.00  0.00     0.171 C 
HETATM   35  C1  UNL     1       4.233   2.819   3.055  1.00  0.00     0.034 C 
ENDBRANCH  33  34
ENDBRANCH  28  33
ENDBRANCH  25  27
ENDBRANCH   1  25
TORSDOF 7
