REMARK  5 active torsions:
REMARK  status: ('A' for Active; 'I' for Inactive)
REMARK    1  A    between atoms: N2_6  and  C5_7 
REMARK    2  A    between atoms: C8_10  and  N3_11 
REMARK       I    between atoms: N3_11  and  C9_12 
REMARK    3  A    between atoms: C9_12  and  C10_14 
REMARK    4  A    between atoms: C16_20  and  O2_21 
REMARK    5  A    between atoms: O2_21  and  C17_22 
ROOT
HETATM    1  N3  UNL     1      -1.014   0.178   1.466  1.00  0.00    -0.323 N 
HETATM    2  C9  UNL     1      -2.111   0.246   0.541  1.00  0.00     0.254 C 
HETATM    3  O1  UNL     1      -1.525   0.196  -0.588  1.00  0.00    -0.268 OA
HETATM    4  H12 UNL     1      -1.229   0.202   2.508  1.00  0.00     0.169 HD
ENDROOT
BRANCH   2   5
HETATM    5  C10 UNL     1      -3.509   0.346   0.943  1.00  0.00     0.035 A 
HETATM    6  C11 UNL     1      -4.572   0.413   0.132  1.00  0.00    -0.027 A 
HETATM    7  C12 UNL     1      -4.084   0.367  -1.262  1.00  0.00     0.067 A 
HETATM    8  C18 UNL     1      -5.917   0.511   0.687  1.00  0.00     0.020 A 
HETATM    9  C13 UNL     1      -5.143   0.387  -2.282  1.00  0.00    -0.022 A 
HETATM   10  C14 UNL     1      -6.444   0.463  -2.413  1.00  0.00    -0.001 A 
HETATM   11  C15 UNL     1      -7.380   0.571  -1.322  1.00  0.00     0.038 A 
HETATM   12  C16 UNL     1      -7.189   0.593  -0.028  1.00  0.00     0.090 A 
HETATM   13  C19 UNL     1      -6.173   0.540   1.986  1.00  0.00     0.098 A 
HETATM   14  N4  UNL     1      -5.042   0.469   2.822  1.00  0.00    -0.394 N 
HETATM   15  C20 UNL     1      -3.678   0.371   2.420  1.00  0.00     0.164 A 
HETATM   16  H20 UNL     1      -5.071   0.481   3.871  1.00  0.00     0.159 HD
BRANCH  12  17
HETATM   17  O2  UNL     1      -8.334   0.709   0.770  1.00  0.00    -0.285 OA
BRANCH  17  18
HETATM   18  C17 UNL     1      -9.271  -0.327   0.618  1.00  0.00     0.403 C 
HETATM   19  O3  UNL     1      -8.987  -1.241  -0.211  1.00  0.00    -0.276 OA
ENDBRANCH  17  18
ENDBRANCH  12  17
ENDBRANCH   2   5
BRANCH   1  20
HETATM   20  C8  UNL     1       0.304   0.082   0.962  1.00  0.00     0.035 A 
HETATM   21  C7  UNL     1       1.073   1.194   0.689  1.00  0.00     0.032 A 
HETATM   22  C6  UNL     1       2.358   1.109   0.199  1.00  0.00     0.031 A 
HETATM   23  C5  UNL     1       2.944  -0.115  -0.044  1.00  0.00     0.030 A 
HETATM   24  C22 UNL     1       2.166  -1.216   0.233  1.00  0.00     0.031 A 
HETATM   25  C21 UNL     1       0.878  -1.161   0.723  1.00  0.00     0.032 A 
BRANCH  23  26
HETATM   26  N2  UNL     1       4.268  -0.236  -0.548  1.00  0.00    -0.379 N 
HETATM   27  C4  UNL     1       4.894  -1.485  -0.872  1.00  0.00     0.124 C 
HETATM   28  C3  UNL     1       5.817  -1.842   0.292  1.00  0.00     0.039 C 
HETATM   29  C2  UNL     1       6.526  -0.595   0.745  1.00  0.00     0.118 C 
HETATM   30  N1  UNL     1       7.191   0.118  -0.298  1.00  0.00    -0.415 N 
HETATM   31  C1  UNL     1       8.244  -0.575  -0.966  1.00  0.00     0.143 C 
HETATM   32  C24 UNL     1       6.372   0.948  -1.120  1.00  0.00     0.136 C 
HETATM   33  C23 UNL     1       4.938   1.029  -0.702  1.00  0.00     0.142 C 
ENDBRANCH  23  26
ENDBRANCH   1  20
TORSDOF 5
