REMARK  6 active torsions:
REMARK  status: ('A' for Active; 'I' for Inactive)
REMARK    1  A    between atoms: C2_2  and  O1_3 
REMARK    2  A    between atoms: O1_3  and  C3_4 
REMARK    3  A    between atoms: C8_9  and  N1_10 
REMARK    4  A    between atoms: N1_10  and  C9_11 
REMARK    5  A    between atoms: C11_13  and  N2_14 
REMARK    6  A    between atoms: N2_14  and  C12_15 
ROOT
HETATM    1  C9  UNL     1       2.222   0.136   0.327  1.00  0.00     0.029 C 
HETATM    2  C10 UNL     1       1.658  -0.461  -0.710  1.00  0.00     0.034 C 
HETATM    3  C11 UNL     1       0.381  -0.381  -1.454  1.00  0.00     0.164 C 
HETATM    4  C23 UNL     1      -0.101   1.014  -1.658  1.00  0.00     0.105 C 
HETATM    5  O2  UNL     1      -0.673   1.268  -2.704  1.00  0.00    -0.309 OA
HETATM    6  B1  UNL     1       0.044   2.225  -0.659  1.00  0.00     0.269 B 
HETATM    7  C24 UNL     1       0.682   2.132   0.786  1.00  0.00    -0.072 C 
HETATM    8  C25 UNL     1       1.606   1.209   1.122  1.00  0.00     0.014 C 
HETATM    9  H30 UNL     1      -0.890   2.980  -0.675  1.00  0.00    -0.013 HD
ENDROOT
BRANCH   3  10
HETATM   10  N2  UNL     1      -0.704  -1.068  -0.738  1.00  0.00    -0.379 N 
HETATM   11  H13 UNL     1      -0.450  -1.514   0.174  1.00  0.00     0.160 HD
BRANCH  10  12
HETATM   12  C12 UNL     1      -2.031  -1.101  -1.300  1.00  0.00     0.006 A 
HETATM   13  C13 UNL     1      -2.082  -1.521  -2.550  1.00  0.00     0.024 A 
HETATM   14  C14 UNL     1      -3.424  -1.552  -3.110  1.00  0.00    -0.001 A 
HETATM   15  C15 UNL     1      -4.340  -1.149  -2.250  1.00  0.00    -0.017 A 
HETATM   16  C16 UNL     1      -4.373  -0.670  -0.857  1.00  0.00    -0.014 A 
HETATM   17  C17 UNL     1      -5.202  -1.660  -0.028  1.00  0.00     0.044 C 
HETATM   18  C21 UNL     1      -5.055   0.676  -0.731  1.00  0.00     0.044 C 
HETATM   19  C22 UNL     1      -2.978  -0.641  -0.285  1.00  0.00     0.070 A 
HETATM   20  C18 UNL     1      -5.632  -0.906   1.220  1.00  0.00     0.273 C 
HETATM   21  N3  UNL     1      -6.767  -0.082   0.813  1.00  0.00     0.084 N 
HETATM   22  C19 UNL     1      -6.937   1.063   1.687  1.00  0.00     0.309 C 
HETATM   23  C20 UNL     1      -6.536   0.432  -0.532  1.00  0.00     0.273 C 
ENDBRANCH  10  12
ENDBRANCH   3  10
BRANCH   1  24
HETATM   24  N1  UNL     1       3.547  -0.254   0.757  1.00  0.00    -0.354 N 
HETATM   25  H10 UNL     1       3.554  -1.022   1.477  1.00  0.00     0.166 HD
BRANCH  24  26
HETATM   26  C8  UNL     1       4.793   0.302   0.296  1.00  0.00     0.066 A 
HETATM   27  C3  UNL     1       6.071  -0.060   0.698  1.00  0.00     0.095 A 
HETATM   28  C4  UNL     1       7.135   0.595   0.135  1.00  0.00     0.039 A 
HETATM   29  C5  UNL     1       6.925   1.580  -0.797  1.00  0.00     0.003 A 
HETATM   30  C6  UNL     1       5.665   1.965  -1.219  1.00  0.00     0.002 A 
HETATM   31  C7  UNL     1       4.591   1.308  -0.656  1.00  0.00     0.032 A 
BRANCH  27  32
HETATM   32  O1  UNL     1       5.987  -1.071   1.640  1.00  0.00    -0.349 OA
BRANCH  32  33
HETATM   33  C2  UNL     1       7.186  -1.579   2.180  1.00  0.00     0.171 C 
HETATM   34  C1  UNL     1       8.009  -0.553   2.904  1.00  0.00     0.034 C 
ENDBRANCH  32  33
ENDBRANCH  27  32
ENDBRANCH  24  26
ENDBRANCH   1  24
TORSDOF 6
