REMARK  3 active torsions:
REMARK  status: ('A' for Active; 'I' for Inactive)
REMARK    1  A    between atoms: C2_2  and  N1_3 
REMARK       I    between atoms: N1_3  and  C3_4 
REMARK    2  A    between atoms: C3_4  and  C4_6 
REMARK    3  A    between atoms: C9_12  and  O2_13 
ROOT
HETATM    1  C4  UNL     1       4.967   0.597  -1.408  1.00  0.00     0.258 C 
HETATM    2  N2  UNL     1       4.725  -0.776  -1.721  1.00  0.00    -0.402 NA
HETATM    3  C5  UNL     1       3.770  -1.536  -1.563  1.00  0.00     0.276 C 
HETATM    4  C6  UNL     1       2.481  -2.016  -1.186  1.00  0.00     0.019 C 
HETATM    5  C7  UNL     1       1.360  -2.603  -0.913  1.00  0.00     0.004 C 
HETATM    6  C8  UNL     1       0.480  -1.666  -0.236  1.00  0.00     0.032 C 
HETATM    7  C9  UNL     1      -0.764  -1.933   0.174  1.00  0.00     0.047 C 
HETATM    8  C11 UNL     1      -1.633  -0.920   0.878  1.00  0.00     0.089 C 
HETATM    9  C12 UNL     1      -2.768  -0.484   0.064  1.00  0.00     0.092 C 
HETATM   10  C13 UNL     1      -4.071  -0.646   0.822  1.00  0.00     0.045 C 
HETATM   11  C14 UNL     1      -4.218   0.501   1.784  1.00  0.00     0.118 C 
HETATM   12  N3  UNL     1      -4.942   1.612   1.280  1.00  0.00    -0.415 N 
HETATM   13  C15 UNL     1      -6.313   1.417   0.982  1.00  0.00     0.143 C 
HETATM   14  C16 UNL     1      -4.225   2.473   0.397  1.00  0.00     0.136 C 
HETATM   15  C17 UNL     1      -3.791   1.776  -0.846  1.00  0.00     0.143 C 
HETATM   16  N4  UNL     1      -2.732   0.851  -0.488  1.00  0.00    -0.374 N 
HETATM   17  C18 UNL     1      -1.399   1.256  -0.688  1.00  0.00     0.030 A 
HETATM   18  C19 UNL     1      -0.793   0.933  -1.894  1.00  0.00     0.031 A 
HETATM   19  C20 UNL     1       0.523   1.262  -2.141  1.00  0.00     0.032 A 
HETATM   20  C21 UNL     1       1.283   1.923  -1.201  1.00  0.00     0.034 A 
HETATM   21  C22 UNL     1       0.681   2.259   0.024  1.00  0.00     0.032 A 
HETATM   22  C23 UNL     1      -0.643   1.924   0.261  1.00  0.00     0.031 A 
HETATM   23  N5  UNL     1       2.648   2.327  -1.209  1.00  0.00    -0.325 N 
HETATM   24  C24 UNL     1       3.708   1.356  -1.315  1.00  0.00     0.253 C 
HETATM   25  O3  UNL     1       2.646   0.699  -1.347  1.00  0.00    -0.270 OA
HETATM   26  H31 UNL     1       2.891   3.343  -1.138  1.00  0.00     0.169 HD
ENDROOT
BRANCH   1  27
HETATM   27  C3  UNL     1       5.811   0.772  -0.192  1.00  0.00     0.252 C 
HETATM   28  N1  UNL     1       6.329  -0.301   0.564  1.00  0.00    -0.336 N 
HETATM   29  H4  UNL     1       6.134  -1.281   0.291  1.00  0.00     0.168 HD
HETATM   30  O1  UNL     1       6.138   1.907   0.266  1.00  0.00    -0.270 OA
BRANCH  28  31
HETATM   31  C2  UNL     1       7.122  -0.006   1.701  1.00  0.00     0.081 C 
HETATM   32  C1  UNL     1       7.629  -0.955   2.439  1.00  0.00     0.030 C 
ENDBRANCH  28  31
ENDBRANCH   1  27
BRANCH   7  33
HETATM   33  O2  UNL     1      -1.075  -3.240  -0.153  1.00  0.00    -0.360 OA
HETATM   34  C10 UNL     1      -2.211  -3.908   0.299  1.00  0.00     0.209 C 
ENDBRANCH   7  33
TORSDOF 3
