REMARK  4 active torsions:
REMARK  status: ('A' for Active; 'I' for Inactive)
REMARK    1  A    between atoms: C5_5  and  N1_6 
REMARK    2  A    between atoms: C14_17  and  C15_18 
REMARK    3  A    between atoms: C16_19  and  N3_20 
REMARK    4  A    between atoms: N3_20  and  C17_21 
ROOT
HETATM    1  C1  UNL     1       1.939  -2.622   2.288  1.00  0.00     0.042 C 
HETATM    2  C2  UNL     1       0.998  -2.057   1.569  1.00  0.00     0.020 C 
HETATM    3  C3  UNL     1       0.153  -1.110   0.787  1.00  0.00     0.030 C 
HETATM    4  C4  UNL     1      -0.881  -0.719   0.107  1.00  0.00     0.031 C 
HETATM    5  C5  UNL     1      -0.775   0.635  -0.354  1.00  0.00     0.033 C 
HETATM    6  C12 UNL     1       0.010   1.675  -0.414  1.00  0.00     0.081 C 
HETATM    7  C13 UNL     1       1.350   1.665   0.112  1.00  0.00     0.177 C 
HETATM    8  O1  UNL     1       1.379   2.915  -0.199  1.00  0.00    -0.291 OA
HETATM    9  C14 UNL     1       2.696   1.777   0.610  1.00  0.00     0.180 C 
HETATM   10  N4  UNL     1       3.333   0.430   0.765  1.00  0.00    -0.373 N 
HETATM   11  C18 UNL     1       3.431  -0.414  -0.421  1.00  0.00     0.062 A 
HETATM   12  C19 UNL     1       4.463   0.138  -1.190  1.00  0.00     0.032 A 
HETATM   13  C20 UNL     1       4.918  -0.321  -2.436  1.00  0.00     0.002 A 
HETATM   14  C21 UNL     1       4.278  -1.430  -2.947  1.00  0.00     0.003 A 
HETATM   15  C22 UNL     1       3.265  -1.978  -2.196  1.00  0.00     0.039 A 
HETATM   16  C23 UNL     1       2.807  -1.546  -0.981  1.00  0.00     0.097 A 
HETATM   17  O3  UNL     1       1.830  -2.073  -0.247  1.00  0.00    -0.330 OA
HETATM   18  C24 UNL     1       1.288  -3.327  -0.049  1.00  0.00     0.298 C 
HETATM   19  N5  UNL     1       0.209  -3.169   1.015  1.00  0.00    -0.369 N 
HETATM   20  H24 UNL     1       3.806  -0.350   1.245  1.00  0.00     0.161 HD
HETATM   21  H31 UNL     1      -0.662  -3.353   1.553  1.00  0.00     0.161 HD
ENDROOT
BRANCH   5  22
HETATM   22  N1  UNL     1      -2.093   0.434  -0.821  1.00  0.00    -0.379 N 
HETATM   23  C6  UNL     1      -2.515  -0.211  -2.075  1.00  0.00     0.125 C 
HETATM   24  C7  UNL     1      -3.660  -1.131  -1.724  1.00  0.00     0.050 C 
HETATM   25  C8  UNL     1      -4.979  -0.404  -1.892  1.00  0.00     0.273 C 
HETATM   26  N2  UNL     1      -5.287   0.370  -0.694  1.00  0.00     0.085 N 
HETATM   27  C9  UNL     1      -6.591   0.970  -0.887  1.00  0.00     0.309 C 
HETATM   28  C10 UNL     1      -4.324   1.449  -0.519  1.00  0.00     0.291 C 
HETATM   29  C11 UNL     1      -3.064   0.977   0.144  1.00  0.00     0.153 C 
ENDBRANCH   5  22
BRANCH   9  30
HETATM   30  C15 UNL     1       2.658   2.359   1.993  1.00  0.00     0.023 C 
HETATM   31  C16 UNL     1       2.425   1.600   3.048  1.00  0.00     0.089 C 
BRANCH  31  32
HETATM   32  N3  UNL     1       2.360   1.999   4.401  1.00  0.00    -0.344 N 
HETATM   33  H22 UNL     1       2.169   1.336   5.177  1.00  0.00     0.167 HD
BRANCH  32  34
HETATM   34  C17 UNL     1       2.536   3.316   4.890  1.00  0.00     0.352 C 
HETATM   35  O2  UNL     1       2.774   4.268   4.123  1.00  0.00    -0.283 OA
ENDBRANCH  32  34
ENDBRANCH  31  32
ENDBRANCH   9  30
TORSDOF 4
