REMARK  5 active torsions:
REMARK  status: ('A' for Active; 'I' for Inactive)
REMARK    1  A    between atoms: N1_2  and  C1_3 
REMARK    2  A    between atoms: C3_6  and  C4_7 
REMARK       I    between atoms: C4_7  and  N3_9 
REMARK    3  A    between atoms: N3_9  and  C5_10 
REMARK    4  A    between atoms: N4_17  and  C12_18 
REMARK    5  A    between atoms: C12_18  and  C13_19 
ROOT
HETATM    1  C1  UNL     1      -1.891   0.211   1.230  1.00  0.00     0.175 A 
HETATM    2  C2  UNL     1      -1.008   0.217   2.214  1.00  0.00     0.141 A 
HETATM    3  N2  UNL     1       0.395   0.071   1.908  1.00  0.00    -0.357 N 
HETATM    4  C3  UNL     1       0.820  -0.079   0.559  1.00  0.00     0.116 A 
HETATM    5  C11 UNL     1      -0.081  -0.081  -0.391  1.00  0.00     0.128 A 
HETATM    6  N4  UNL     1      -1.490   0.063  -0.126  1.00  0.00    -0.332 N 
HETATM    7  H2  UNL     1       1.032   0.085   2.730  1.00  0.00     0.165 HD
ENDROOT
BRANCH   4   8
HETATM    8  C4  UNL     1       2.256  -0.220   0.349  1.00  0.00     0.274 C 
HETATM    9  O2  UNL     1       3.015  -0.202   1.351  1.00  0.00    -0.266 OA
HETATM   10  N3  UNL     1       2.904  -0.381  -0.904  1.00  0.00    -0.322 N 
HETATM   11  H3  UNL     1       2.299  -0.400  -1.753  1.00  0.00     0.169 HD
BRANCH  10  12
HETATM   12  C5  UNL     1       4.323  -0.488  -0.723  1.00  0.00     0.035 A 
HETATM   13  C6  UNL     1       4.956   0.754  -0.764  1.00  0.00     0.029 A 
HETATM   14  C7  UNL     1       6.335   0.864  -0.608  1.00  0.00     0.002 A 
HETATM   15  C8  UNL     1       7.088  -0.289  -0.409  1.00  0.00     0.000 A 
HETATM   16  C9  UNL     1       6.440  -1.498  -0.373  1.00  0.00     0.002 A 
HETATM   17  C10 UNL     1       5.091  -1.617  -0.525  1.00  0.00     0.029 A 
ENDBRANCH  10  12
ENDBRANCH   4   8
BRANCH   6  18
HETATM   18  C12 UNL     1      -2.323   0.036  -1.305  1.00  0.00     0.168 C 
BRANCH  18  19
HETATM   19  C13 UNL     1      -3.760   0.187  -0.969  1.00  0.00    -0.038 A 
HETATM   20  C14 UNL     1      -4.505  -0.959  -0.717  1.00  0.00     0.009 A 
HETATM   21  C15 UNL     1      -5.843  -0.815  -0.405  1.00  0.00     0.002 A 
HETATM   22  C16 UNL     1      -6.455   0.435  -0.337  1.00  0.00     0.024 A 
HETATM   23  C17 UNL     1      -5.684   1.559  -0.593  1.00  0.00     0.034 A 
HETATM   24 CL1  UNL     1      -6.327   3.192  -0.542  1.00  0.00    -0.084 Cl
HETATM   25  C18 UNL     1      -4.337   1.456  -0.910  1.00  0.00     0.032 A 
ENDBRANCH  18  19
ENDBRANCH   6  18
BRANCH   1  26
HETATM   26  N1  UNL     1      -3.289   0.349   1.440  1.00  0.00    -0.078 NA
HETATM   27  O1  UNL     1      -3.847  -0.122   2.462  1.00  0.00    -0.059 OA
ENDBRANCH   1  26
TORSDOF 5
