REMARK  2 active torsions:
REMARK  status: ('A' for Active; 'I' for Inactive)
REMARK    1  A    between atoms: C15_17  and  C16_18 
REMARK    2  A    between atoms: C21_23  and  O1_24 
ROOT
HETATM    1  C1  UNL     1       2.353   1.708   1.234  1.00  0.00     0.050 C 
HETATM    2  C2  UNL     1       1.047   2.055   0.651  1.00  0.00    -0.040 C 
HETATM    3  C3  UNL     1       0.586   3.302   0.466  1.00  0.00    -0.018 C 
HETATM    4  C4  UNL     1      -0.113   3.624  -0.658  1.00  0.00     0.026 C 
HETATM    5  C5  UNL     1      -1.136   2.584  -1.146  1.00  0.00    -0.008 C 
HETATM    6  C6  UNL     1      -1.071   2.571  -2.572  1.00  0.00     0.014 C 
HETATM    7  C7  UNL     1      -1.119   1.190  -3.265  1.00  0.00     0.015 C 
HETATM    8  C8  UNL     1      -1.089  -0.064  -2.716  1.00  0.00     0.004 C 
HETATM    9  C9  UNL     1      -1.373  -0.145  -1.365  1.00  0.00     0.052 C 
HETATM   10  N1  UNL     1      -2.411  -1.158  -1.199  1.00  0.00    -0.387 N 
HETATM   11  C10 UNL     1      -3.520  -0.880  -0.341  1.00  0.00     0.139 C 
HETATM   12  C11 UNL     1      -3.875   0.304   0.353  1.00  0.00     0.139 C 
HETATM   13  N2  UNL     1      -3.316   1.628   0.170  1.00  0.00    -0.387 N 
HETATM   14  C12 UNL     1      -1.967   1.632  -0.313  1.00  0.00     0.051 C 
HETATM   15  C13 UNL     1      -0.822   0.754  -0.304  1.00  0.00     0.029 C 
HETATM   16  C14 UNL     1       0.539   0.668   0.352  1.00  0.00    -0.014 C 
HETATM   17  C15 UNL     1       0.785  -0.557   0.409  1.00  0.00     0.027 C 
HETATM   18  H7  UNL     1      -2.116  -1.952  -1.809  1.00  0.00     0.159 HD
HETATM   19  H12 UNL     1      -3.410   2.661   0.208  1.00  0.00     0.159 HD
ENDROOT
BRANCH  17  20
HETATM   20  C16 UNL     1       1.708  -1.592   0.793  1.00  0.00    -0.002 A 
HETATM   21  C17 UNL     1       1.941  -1.430   2.143  1.00  0.00     0.014 A 
HETATM   22  C18 UNL     1       2.837  -2.283   2.790  1.00  0.00     0.001 A 
HETATM   23  C19 UNL     1       3.480  -3.271   2.099  1.00  0.00     0.003 A 
HETATM   24  C20 UNL     1       3.265  -3.454   0.754  1.00  0.00     0.037 A 
HETATM   25  C21 UNL     1       2.365  -2.594   0.117  1.00  0.00     0.075 A 
BRANCH  25  26
HETATM   26  O1  UNL     1       1.987  -2.585  -1.235  1.00  0.00    -0.360 OA
HETATM   27  H18 UNL     1       2.744  -2.455  -1.910  1.00  0.00     0.217 HD
ENDBRANCH  25  26
ENDBRANCH  17  20
TORSDOF 2
