REMARK  6 active torsions:
REMARK  status: ('A' for Active; 'I' for Inactive)
REMARK    1  A    between atoms: C3_3  and  N2_14 
REMARK    2  A    between atoms: C4_4  and  C5_5 
REMARK       I    between atoms: C5_5  and  N1_7 
REMARK    3  A    between atoms: N1_7  and  C6_8 
REMARK    4  A    between atoms: N2_14  and  C12_15 
REMARK    5  A    between atoms: C12_15  and  C13_16 
REMARK    6  A    between atoms: C13_16  and  C14_17 
ROOT
HETATM    1  C1  UNL     1      -0.131   1.368  -2.029  1.00  0.00     0.019 C 
HETATM    2  C2  UNL     1       0.099   0.366  -1.401  1.00  0.00    -0.060 C 
HETATM    3  C3  UNL     1       0.393  -0.825  -0.668  1.00  0.00     0.087 C 
HETATM    4  C4  UNL     1      -0.587  -1.483  -0.025  1.00  0.00     0.113 C 
ENDROOT
BRANCH   3   5
HETATM    5  N2  UNL     1       1.667  -1.438  -0.527  1.00  0.00    -0.383 N 
HETATM    6  H9  UNL     1       2.045  -1.767  -1.435  1.00  0.00     0.160 HD
BRANCH   5   7
HETATM    7  C12 UNL     1       2.261  -1.529   0.783  1.00  0.00     0.125 C 
BRANCH   7   8
HETATM    8  C13 UNL     1       2.697  -0.215   1.363  1.00  0.00     0.058 C 
BRANCH   8   9
HETATM    9  C14 UNL     1       3.722   0.441   0.541  1.00  0.00    -0.055 A 
HETATM   10  C15 UNL     1       5.040   0.104   0.820  1.00  0.00     0.007 A 
HETATM   11  C16 UNL     1       6.146   0.604   0.171  1.00  0.00     0.002 A 
HETATM   12  C17 UNL     1       5.951   1.516  -0.843  1.00  0.00     0.024 A 
HETATM   13  C18 UNL     1       4.662   1.883  -1.157  1.00  0.00     0.034 A 
HETATM   14 CL1  UNL     1       4.354   3.032  -2.429  1.00  0.00    -0.084 Cl
HETATM   15  C19 UNL     1       3.589   1.354  -0.478  1.00  0.00     0.031 A 
ENDBRANCH   8   9
ENDBRANCH   7   8
ENDBRANCH   5   7
ENDBRANCH   3   5
BRANCH   4  16
HETATM   16  C5  UNL     1      -1.969  -1.628   0.359  1.00  0.00     0.248 C 
HETATM   17  O1  UNL     1      -2.895  -2.249   0.966  1.00  0.00    -0.268 OA
HETATM   18  N1  UNL     1      -2.698  -0.533  -0.220  1.00  0.00    -0.324 N 
HETATM   19  H3  UNL     1      -2.528   0.325  -0.828  1.00  0.00     0.169 HD
BRANCH  18  20
HETATM   20  C6  UNL     1      -4.104  -0.247  -0.120  1.00  0.00     0.035 A 
HETATM   21  C7  UNL     1      -5.074  -0.708  -1.002  1.00  0.00     0.029 A 
HETATM   22  C8  UNL     1      -6.405  -0.369  -0.808  1.00  0.00     0.002 A 
HETATM   23  C9  UNL     1      -6.811   0.423   0.247  1.00  0.00     0.000 A 
HETATM   24  C10 UNL     1      -5.878   0.911   1.161  1.00  0.00     0.002 A 
HETATM   25  C11 UNL     1      -4.553   0.549   0.933  1.00  0.00     0.029 A 
ENDBRANCH  18  20
ENDBRANCH   4  16
TORSDOF 6
