REMARK  6 active torsions:
REMARK  status: ('A' for Active; 'I' for Inactive)
REMARK       I    between atoms: C1_2  and  N1_3 
REMARK    1  A    between atoms: C1_2  and  C8_10 
REMARK    2  A    between atoms: N1_3  and  C2_4 
REMARK    3  A    between atoms: N2_12  and  C10_13 
REMARK    4  A    between atoms: C10_13  and  C11_14 
REMARK    5  A    between atoms: C11_14  and  C12_15 
REMARK    6  A    between atoms: C18_22  and  O2_23 
ROOT
HETATM    1  C8  UNL     1       1.393   0.807  -0.615  1.00  0.00     0.029 A 
HETATM    2  C9  UNL     1       0.247   0.227  -0.401  1.00  0.00     0.106 A 
HETATM    3  N2  UNL     1      -0.905   0.952  -0.799  1.00  0.00    -0.337 N 
HETATM    4  C18 UNL     1      -0.773   2.236  -1.395  1.00  0.00     0.138 A 
HETATM    5  C19 UNL     1       0.415   2.779  -1.590  1.00  0.00     0.034 A 
HETATM    6  C20 UNL     1       1.698   2.130  -1.221  1.00  0.00     0.077 A 
ENDROOT
BRANCH   1   7
HETATM    7  C1  UNL     1       2.654   0.134  -0.235  1.00  0.00     0.253 C 
HETATM    8  O1  UNL     1       3.857   0.553  -0.370  1.00  0.00    -0.268 OA
HETATM    9  N1  UNL     1       2.752  -1.168   0.380  1.00  0.00    -0.323 N 
HETATM   10  H1  UNL     1       1.841  -1.678   0.571  1.00  0.00     0.169 HD
BRANCH   9  11
HETATM   11  C2  UNL     1       4.175  -1.367   0.545  1.00  0.00     0.035 A 
HETATM   12  C3  UNL     1       4.858  -1.979  -0.489  1.00  0.00     0.029 A 
HETATM   13  C4  UNL     1       6.224  -2.184  -0.368  1.00  0.00     0.002 A 
HETATM   14  C5  UNL     1       6.842  -1.763   0.787  1.00  0.00     0.000 A 
HETATM   15  C6  UNL     1       6.185  -1.157   1.817  1.00  0.00     0.002 A 
HETATM   16  C7  UNL     1       4.825  -0.955   1.694  1.00  0.00     0.029 A 
ENDBRANCH   9  11
ENDBRANCH   1   7
BRANCH   3  17
HETATM   17  C10 UNL     1      -2.226   0.450  -0.623  1.00  0.00     0.135 C 
BRANCH  17  18
HETATM   18  C11 UNL     1      -2.682   0.360   0.813  1.00  0.00     0.058 C 
BRANCH  18  19
HETATM   19  C12 UNL     1      -4.072  -0.180   0.774  1.00  0.00    -0.055 A 
HETATM   20  C13 UNL     1      -4.457  -1.500   0.830  1.00  0.00     0.007 A 
HETATM   21  C14 UNL     1      -5.785  -1.862   0.780  1.00  0.00     0.002 A 
HETATM   22  C15 UNL     1      -6.790  -0.899   0.670  1.00  0.00     0.024 A 
HETATM   23  C16 UNL     1      -6.425   0.433   0.612  1.00  0.00     0.034 A 
HETATM   24 CL1  UNL     1      -7.667   1.677   0.474  1.00  0.00    -0.084 Cl
HETATM   25  C17 UNL     1      -5.092   0.773   0.664  1.00  0.00     0.031 A 
ENDBRANCH  18  19
ENDBRANCH  17  18
ENDBRANCH   3  17
BRANCH   4  26
HETATM   26  O2  UNL     1      -1.893   2.987  -1.805  1.00  0.00    -0.346 OA
HETATM   27  H16 UNL     1      -2.190   3.701  -1.120  1.00  0.00     0.219 HD
ENDBRANCH   4  26
TORSDOF 6
