REMARK  5 active torsions:
REMARK  status: ('A' for Active; 'I' for Inactive)
REMARK    1  A    between atoms: C3_4  and  C4_5 
REMARK    2  A    between atoms: C6_8  and  O2_9 
REMARK    3  A    between atoms: O2_9  and  C7_10 
REMARK    4  A    between atoms: C7_10  and  C8_11 
REMARK    5  A    between atoms: C8_11  and  C9_12 
ROOT
HETATM    1  O1  UNL     1      -2.520  -1.837  -1.934  1.00  0.00    -0.270 OA
HETATM    2  C1  UNL     1      -2.539  -0.695  -1.466  1.00  0.00     0.273 A 
HETATM    3  C2  UNL     1      -3.886  -0.805  -1.329  1.00  0.00     0.068 A 
HETATM    4  C3  UNL     1      -3.453   0.404  -0.890  1.00  0.00     0.098 A 
HETATM    5  C4  UNL     1      -2.516   1.359  -0.634  1.00  0.00     0.259 A 
HETATM    6  C5  UNL     1      -1.163   1.425  -0.798  1.00  0.00     0.270 A 
HETATM    7  N1  UNL     1      -1.669   0.272  -1.191  1.00  0.00     0.037 N 
HETATM    8  C6  UNL     1      -0.580  -0.749  -0.932  1.00  0.00     0.360 C 
HETATM    9  C14 UNL     1      -1.375  -1.734  -0.026  1.00  0.00     0.030 C 
HETATM   10  C15 UNL     1      -2.157  -1.074   0.869  1.00  0.00    -0.026 C 
HETATM   11  C16 UNL     1      -2.861  -0.067   1.686  1.00  0.00     0.027 C 
HETATM   12  C17 UNL     1      -4.349   0.017   1.364  1.00  0.00     0.005 C 
HETATM   13  C18 UNL     1      -4.516   0.854   0.059  1.00  0.00     0.026 C 
ENDROOT
BRANCH   8  14
HETATM   14  O2  UNL     1       0.344  -0.212  -0.111  1.00  0.00    -0.355 OA
BRANCH  14  15
HETATM   15  C7  UNL     1       1.665  -0.379  -0.522  1.00  0.00     0.175 C 
BRANCH  15  16
HETATM   16  C8  UNL     1       2.506   0.296   0.540  1.00  0.00     0.063 C 
BRANCH  16  17
HETATM   17  C9  UNL     1       3.956   0.234   0.287  1.00  0.00    -0.047 A 
HETATM   18  C10 UNL     1       4.544   1.408   0.165  1.00  0.00     0.037 A 
HETATM   19 CL1  UNL     1       3.605   2.879   0.306  1.00  0.00    -0.084 Cl
HETATM   20  C11 UNL     1       5.968   1.588  -0.083  1.00  0.00     0.031 A 
HETATM   21  C12 UNL     1       6.684   0.480  -0.185  1.00  0.00     0.047 A 
HETATM   22  S1  UNL     1       6.158  -1.220  -0.064  1.00  0.00    -0.137 SA
HETATM   23  C13 UNL     1       4.371  -1.190   0.237  1.00  0.00     0.114 A 
ENDBRANCH  16  17
ENDBRANCH  15  16
ENDBRANCH  14  15
ENDBRANCH   8  14
TORSDOF 5
