REMARK  8 active torsions:
REMARK  status: ('A' for Active; 'I' for Inactive)
REMARK       I    between atoms: C1_2  and  N1_3 
REMARK    1  A    between atoms: C1_2  and  C8_11 
REMARK    2  A    between atoms: N1_3  and  C2_4 
REMARK    3  A    between atoms: C2_4  and  C3_5 
REMARK    4  A    between atoms: C9_12  and  N3_13 
REMARK    5  A    between atoms: N3_13  and  C10_14 
REMARK    6  A    between atoms: C10_14  and  C11_15 
REMARK    7  A    between atoms: C11_15  and  C12_16 
REMARK    8  A    between atoms: B1_26  and  O2_27 
ROOT
HETATM    1  C8  UNL     1       0.842  -0.401  -1.703  1.00  0.00     0.054 A 
HETATM    2  C9  UNL     1      -0.455  -0.755  -1.738  1.00  0.00     0.034 A 
HETATM    3  C18 UNL     1      -1.229  -0.676  -2.980  1.00  0.00     0.044 A 
HETATM    4  C19 UNL     1      -0.661  -0.251  -4.094  1.00  0.00     0.072 A 
HETATM    5  N4  UNL     1       0.692   0.163  -4.245  1.00  0.00    -0.417 N 
HETATM    6  B1  UNL     1       1.573   0.108  -2.979  1.00  0.00     0.495 B 
HETATM    7  H19 UNL     1       1.112   0.488  -5.120  1.00  0.00     0.140 HD
ENDROOT
BRANCH   1   8
HETATM    8  C1  UNL     1       1.478  -0.526  -0.424  1.00  0.00     0.244 C 
HETATM    9  O1  UNL     1       0.815  -0.945   0.585  1.00  0.00    -0.269 OA
HETATM   10  N1  UNL     1       2.816  -0.240  -0.075  1.00  0.00    -0.354 N 
HETATM   11  H1  UNL     1       3.438   0.107  -0.837  1.00  0.00     0.163 HD
BRANCH  10  12
HETATM   12  C2  UNL     1       3.003  -0.522   1.355  1.00  0.00     0.159 C 
BRANCH  12  13
HETATM   13  C3  UNL     1       4.424  -0.200   1.646  1.00  0.00    -0.028 C 
HETATM   14  C4  UNL     1       4.807   0.725   2.510  1.00  0.00     0.089 C 
HETATM   15  N2  UNL     1       5.714   1.505   2.053  1.00  0.00    -0.259 NA
HETATM   16  C5  UNL     1       6.934   0.965   1.509  1.00  0.00     0.113 C 
HETATM   17  C6  UNL     1       6.720  -0.243   0.966  1.00  0.00    -0.003 C 
HETATM   18  C7  UNL     1       5.438  -0.999   0.890  1.00  0.00     0.067 C 
ENDBRANCH  12  13
ENDBRANCH  10  12
ENDBRANCH   1   8
BRANCH   2  19
HETATM   19  N3  UNL     1      -1.162  -1.224  -0.595  1.00  0.00    -0.390 N 
HETATM   20  H8  UNL     1      -0.836  -2.207  -0.464  1.00  0.00     0.159 HD
BRANCH  19  21
HETATM   21  C10 UNL     1      -2.136  -0.604   0.284  1.00  0.00     0.124 C 
BRANCH  21  22
HETATM   22  C11 UNL     1      -3.429  -0.356  -0.415  1.00  0.00     0.058 C 
BRANCH  22  23
HETATM   23  C12 UNL     1      -4.450   0.274   0.446  1.00  0.00    -0.055 A 
HETATM   24  C13 UNL     1      -5.272  -0.602   1.155  1.00  0.00     0.007 A 
HETATM   25  C14 UNL     1      -6.273  -0.126   2.003  1.00  0.00     0.002 A 
HETATM   26  C15 UNL     1      -6.379   1.234   2.079  1.00  0.00     0.024 A 
HETATM   27  C16 UNL     1      -5.589   2.129   1.398  1.00  0.00     0.034 A 
HETATM   28 CL1  UNL     1      -5.796   3.861   1.555  1.00  0.00    -0.084 Cl
HETATM   29  C17 UNL     1      -4.612   1.657   0.570  1.00  0.00     0.031 A 
ENDBRANCH  22  23
ENDBRANCH  21  22
ENDBRANCH  19  21
ENDBRANCH   2  19
BRANCH   6  30
HETATM   30  O2  UNL     1       2.638   1.088  -2.780  1.00  0.00    -0.439 OA
HETATM   31  H20 UNL     1       2.318   1.891  -2.288  1.00  0.00     0.184 HD
ENDBRANCH   6  30
TORSDOF 8
