REMARK  7 active torsions:
REMARK  status: ('A' for Active; 'I' for Inactive)
REMARK    1  A    between atoms: N1_2  and  C3_4 
REMARK    2  A    between atoms: C6_7  and  N2_8 
REMARK    3  A    between atoms: N2_8  and  C7_9 
REMARK    4  A    between atoms: C9_11  and  N3_12 
REMARK    5  A    between atoms: N3_12  and  C10_13 
REMARK    6  A    between atoms: C10_13  and  C11_14 
REMARK    7  A    between atoms: C11_14  and  C12_15 
ROOT
HETATM    1  C7  UNL     1       0.406  -0.029  -0.755  1.00  0.00     0.200 C 
HETATM    2  C8  UNL     1      -0.832   0.804  -0.963  1.00  0.00     0.036 C 
HETATM    3  C9  UNL     1      -1.518   1.566  -0.095  1.00  0.00     0.027 C 
HETATM    4  C18 UNL     1      -1.229   1.796   1.336  1.00  0.00     0.046 C 
HETATM    5  C19 UNL     1      -0.601   0.922   2.123  1.00  0.00     0.093 C 
HETATM    6  N4  UNL     1      -0.086  -0.382   1.771  1.00  0.00    -0.335 N 
HETATM    7  C20 UNL     1       0.145  -0.900   0.445  1.00  0.00     0.248 C 
HETATM    8  O1  UNL     1       0.083  -2.177   0.509  1.00  0.00    -0.271 OA
HETATM    9  H23 UNL     1       0.114  -0.952   2.639  1.00  0.00     0.168 HD
ENDROOT
BRANCH   1  10
HETATM   10  N2  UNL     1       1.472   0.886  -0.401  1.00  0.00    -0.374 N 
HETATM   11  H9  UNL     1       1.338   1.925  -0.228  1.00  0.00     0.161 HD
BRANCH  10  12
HETATM   12  C6  UNL     1       2.849   0.516  -0.236  1.00  0.00     0.029 A 
HETATM   13  C5  UNL     1       3.910   1.336   0.125  1.00  0.00     0.031 A 
HETATM   14  C4  UNL     1       5.178   0.840   0.221  1.00  0.00     0.031 A 
HETATM   15  C3  UNL     1       5.487  -0.478  -0.028  1.00  0.00     0.029 A 
HETATM   16  C22 UNL     1       4.444  -1.328  -0.393  1.00  0.00     0.031 A 
HETATM   17  C21 UNL     1       3.173  -0.803  -0.483  1.00  0.00     0.031 A 
BRANCH  15  18
HETATM   18  N1  UNL     1       6.815  -0.967   0.072  1.00  0.00    -0.390 N 
HETATM   19  C1  UNL     1       7.262  -2.314  -0.161  1.00  0.00     0.149 C 
HETATM   20  C2  UNL     1       7.864  -0.027   0.445  1.00  0.00     0.149 C 
ENDBRANCH  15  18
ENDBRANCH  10  12
ENDBRANCH   1  10
BRANCH   3  21
HETATM   21  N3  UNL     1      -2.649   2.186  -0.746  1.00  0.00    -0.390 N 
HETATM   22  H12 UNL     1      -2.766   3.165  -1.113  1.00  0.00     0.159 HD
BRANCH  21  23
HETATM   23  C10 UNL     1      -3.816   1.308  -0.925  1.00  0.00     0.124 C 
BRANCH  23  24
HETATM   24  C11 UNL     1      -4.470   0.965   0.392  1.00  0.00     0.058 C 
BRANCH  24  25
HETATM   25  C12 UNL     1      -5.630   0.079   0.088  1.00  0.00    -0.055 A 
HETATM   26  C13 UNL     1      -6.848   0.713  -0.166  1.00  0.00     0.007 A 
HETATM   27  C14 UNL     1      -7.994  -0.002  -0.455  1.00  0.00     0.002 A 
HETATM   28  C15 UNL     1      -7.907  -1.379  -0.489  1.00  0.00     0.024 A 
HETATM   29  C16 UNL     1      -6.718  -2.033  -0.243  1.00  0.00     0.034 A 
HETATM   30 CL1  UNL     1      -6.574  -3.783  -0.278  1.00  0.00    -0.084 Cl
HETATM   31  C17 UNL     1      -5.553  -1.320   0.050  1.00  0.00     0.031 A 
ENDBRANCH  24  25
ENDBRANCH  23  24
ENDBRANCH  21  23
ENDBRANCH   3  21
TORSDOF 7
