REMARK  7 active torsions:
REMARK  status: ('A' for Active; 'I' for Inactive)
REMARK    1  A    between atoms: N1_2  and  C3_4 
REMARK    2  A    between atoms: C6_7  and  N2_8 
REMARK    3  A    between atoms: N2_8  and  C7_9 
REMARK    4  A    between atoms: C11_15  and  N4_16 
REMARK    5  A    between atoms: N4_16  and  C12_17 
REMARK    6  A    between atoms: C12_17  and  C13_18 
REMARK    7  A    between atoms: C13_18  and  C14_19 
ROOT
HETATM    1  C7  UNL     1       0.304   0.755   1.396  1.00  0.00     0.200 C 
HETATM    2  C8  UNL     1      -0.315   2.028   1.884  1.00  0.00     0.246 C 
HETATM    3  O1  UNL     1      -0.359   3.233   1.449  1.00  0.00    -0.271 OA
HETATM    4  N3  UNL     1      -1.036   1.896   3.131  1.00  0.00    -0.336 N 
HETATM    5  C9  UNL     1      -0.564   0.950   4.119  1.00  0.00     0.089 C 
HETATM    6  C10 UNL     1       0.535   0.271   3.760  1.00  0.00     0.017 C 
HETATM    7  C11 UNL     1       1.299   0.385   2.487  1.00  0.00     0.133 C 
HETATM    8  H11 UNL     1      -1.891   2.414   3.438  1.00  0.00     0.168 HD
ENDROOT
BRANCH   1   9
HETATM    9  N2  UNL     1      -0.708  -0.242   1.277  1.00  0.00    -0.375 N 
HETATM   10  H9  UNL     1      -0.615  -1.111   1.885  1.00  0.00     0.160 HD
BRANCH   9  11
HETATM   11  C6  UNL     1      -1.829  -0.200   0.431  1.00  0.00     0.028 A 
HETATM   12  C5  UNL     1      -2.106   0.836  -0.437  1.00  0.00     0.031 A 
HETATM   13  C4  UNL     1      -3.201   0.904  -1.272  1.00  0.00     0.031 A 
HETATM   14  C3  UNL     1      -4.108  -0.148  -1.250  1.00  0.00     0.029 A 
HETATM   15  C21 UNL     1      -3.875  -1.194  -0.407  1.00  0.00     0.031 A 
HETATM   16  C20 UNL     1      -2.766  -1.211   0.406  1.00  0.00     0.031 A 
BRANCH  14  17
HETATM   17  N1  UNL     1      -5.270  -0.156  -2.081  1.00  0.00    -0.390 N 
HETATM   18  C1  UNL     1      -6.187  -1.287  -2.018  1.00  0.00     0.149 C 
HETATM   19  C2  UNL     1      -5.576   0.923  -2.989  1.00  0.00     0.149 C 
ENDBRANCH  14  17
ENDBRANCH   9  11
ENDBRANCH   1   9
BRANCH   7  20
HETATM   20  N4  UNL     1       1.923  -0.882   2.226  1.00  0.00    -0.411 N 
HETATM   21  H15 UNL     1       1.383  -1.696   2.516  1.00  0.00     0.153 HD
BRANCH  20  22
HETATM   22  C12 UNL     1       2.661  -0.973   1.015  1.00  0.00     0.119 C 
BRANCH  22  23
HETATM   23  C13 UNL     1       3.915  -0.127   1.006  1.00  0.00     0.058 C 
BRANCH  23  24
HETATM   24  C14 UNL     1       4.673  -0.235  -0.269  1.00  0.00    -0.055 A 
HETATM   25  C15 UNL     1       5.662  -1.195  -0.460  1.00  0.00     0.007 A 
HETATM   26  C16 UNL     1       6.395  -1.341  -1.616  1.00  0.00     0.002 A 
HETATM   27  C17 UNL     1       6.115  -0.455  -2.663  1.00  0.00     0.024 A 
HETATM   28  C18 UNL     1       5.143   0.531  -2.550  1.00  0.00     0.034 A 
HETATM   29 CL1  UNL     1       4.845   1.596  -3.887  1.00  0.00    -0.084 Cl
HETATM   30  C19 UNL     1       4.466   0.593  -1.352  1.00  0.00     0.031 A 
ENDBRANCH  23  24
ENDBRANCH  22  23
ENDBRANCH  20  22
ENDBRANCH   7  20
TORSDOF 7
