REMARK  6 active torsions:
REMARK  status: ('A' for Active; 'I' for Inactive)
REMARK    1  A    between atoms: C2_2  and  C3_3 
REMARK    2  A    between atoms: C6_6  and  C7_7 
REMARK    3  A    between atoms: C8_8  and  C9_9 
REMARK    4  A    between atoms: C9_9  and  N1_10 
REMARK    5  A    between atoms: N1_10  and  C10_11 
REMARK    6  A    between atoms: C12_15  and  C13_16 
ROOT
HETATM    1  C3  UNL     1      -3.326   1.545   1.218  1.00  0.00     0.005 C 
HETATM    2  C4  UNL     1      -2.578   0.634   0.629  1.00  0.00     0.051 C 
HETATM    3  C5  UNL     1      -1.728  -0.397   1.333  1.00  0.00     0.136 C 
HETATM    4  C6  UNL     1      -0.272  -0.192   1.170  1.00  0.00     0.089 C 
HETATM    5  N2  UNL     1       0.332  -0.824   0.365  1.00  0.00    -0.422 NA
HETATM    6  C11 UNL     1       0.895  -1.574  -0.552  1.00  0.00     0.190 C 
HETATM    7  C12 UNL     1       0.949  -2.235  -1.635  1.00  0.00    -0.013 C 
HETATM    8  C16 UNL     1      -0.077  -2.431  -2.665  1.00  0.00    -0.001 A 
HETATM    9  C17 UNL     1      -0.353  -3.365  -3.644  1.00  0.00     0.016 A 
HETATM   10  C18 UNL     1      -1.534  -2.614  -4.052  1.00  0.00     0.031 A 
HETATM   11  C19 UNL     1      -1.261  -1.703  -3.091  1.00  0.00     0.040 A 
HETATM   12  N3  UNL     1      -2.084  -0.515  -2.810  1.00  0.00    -0.367 N 
HETATM   13  C20 UNL     1      -1.921  -0.127  -1.453  1.00  0.00     0.297 C 
HETATM   14  O2  UNL     1      -2.712   0.784  -0.793  1.00  0.00    -0.336 OA
HETATM   15  H25 UNL     1      -2.694   0.026  -3.399  1.00  0.00     0.161 HD
ENDROOT
BRANCH   4  16
HETATM   16  C7  UNL     1       0.384   0.859   1.933  1.00  0.00     0.038 C 
HETATM   17  C8  UNL     1       1.648   1.219   1.827  1.00  0.00    -0.004 C 
BRANCH  17  18
HETATM   18  C9  UNL     1       2.401   2.266   2.552  1.00  0.00     0.149 C 
BRANCH  18  19
HETATM   19  N1  UNL     1       2.915   3.241   1.589  1.00  0.00    -0.365 N 
HETATM   20  H13 UNL     1       2.841   3.309   0.565  1.00  0.00     0.162 HD
BRANCH  19  21
HETATM   21  C10 UNL     1       3.642   4.252   2.296  1.00  0.00     0.348 C 
HETATM   22  O1  UNL     1       3.699   4.114   3.542  1.00  0.00    -0.284 OA
ENDBRANCH  19  21
ENDBRANCH  18  19
ENDBRANCH  17  18
ENDBRANCH   4  16
BRANCH   1  23
HETATM   23  C2  UNL     1      -4.235   2.648   0.877  1.00  0.00     0.025 C 
HETATM   24  C1  UNL     1      -3.697   3.946   1.414  1.00  0.00     0.009 C 
ENDBRANCH   1  23
BRANCH   7  25
HETATM   25  C13 UNL     1       2.284  -2.846  -1.837  1.00  0.00     0.014 C 
HETATM   26  C14 UNL     1       3.344  -2.402  -0.877  1.00  0.00     0.015 C 
HETATM   27  C15 UNL     1       2.243  -4.348  -1.874  1.00  0.00     0.015 C 
ENDBRANCH   7  25
TORSDOF 6
