REMARK  0 active torsions:
REMARK  status: ('A' for Active; 'I' for Inactive)
ROOT
HETATM    1  C1  UNL     1       1.534  -1.947   0.955  1.00  0.00    -0.006 C 
HETATM    2  C2  UNL     1       0.197  -1.656   0.945  1.00  0.00    -0.010 C 
HETATM    3  C3  UNL     1      -0.433  -0.719   1.980  1.00  0.00     0.161 C 
HETATM    4  N1  UNL     1      -1.173   0.312   1.211  1.00  0.00    -0.379 N 
HETATM    5  C4  UNL     1      -1.792   0.400  -0.117  1.00  0.00     0.129 A 
HETATM    6  C5  UNL     1      -2.019   1.658  -0.637  1.00  0.00     0.160 A 
HETATM    7  N2  UNL     1      -2.747   1.899  -1.737  1.00  0.00    -0.222 NA
HETATM    8  C6  UNL     1      -3.289   0.804  -2.390  1.00  0.00     0.238 A 
HETATM    9  N3  UNL     1      -3.105  -0.484  -1.967  1.00  0.00    -0.215 NA
HETATM   10  C7  UNL     1      -2.368  -0.674  -0.864  1.00  0.00     0.202 A 
HETATM   11  O1  UNL     1      -2.020  -1.998  -0.323  1.00  0.00    -0.290 OA
HETATM   12  C8  UNL     1      -0.539  -2.247  -0.239  1.00  0.00     0.082 C 
HETATM   13  C9  UNL     1       0.357  -2.923  -1.030  1.00  0.00     0.012 C 
HETATM   14  C10 UNL     1       1.613  -2.083  -1.388  1.00  0.00     0.043 C 
HETATM   15  C11 UNL     1       2.046  -1.185  -0.318  1.00  0.00     0.045 C 
HETATM   16  C12 UNL     1       1.568   0.179  -0.147  1.00  0.00    -0.048 A 
HETATM   17  C13 UNL     1       2.337   0.852   0.820  1.00  0.00     0.008 A 
HETATM   18  C14 UNL     1       2.040   2.076   1.356  1.00  0.00     0.003 A 
HETATM   19  C15 UNL     1       0.903   2.806   0.989  1.00  0.00     0.029 A 
HETATM   20  C16 UNL     1       0.139   2.167   0.046  1.00  0.00     0.034 A 
HETATM   21  C17 UNL     1       0.496   0.937  -0.466  1.00  0.00     0.037 A 
HETATM   22  N4  UNL     1      -1.163   2.746  -0.204  1.00  0.00    -0.339 N 
HETATM   23  H4  UNL     1      -1.270   1.165   1.800  1.00  0.00     0.160 HD
HETATM   24  H14 UNL     1      -1.458   3.707  -0.117  1.00  0.00     0.167 HD
ENDROOT
TORSDOF 0
