REMARK  5 active torsions:
REMARK  status: ('A' for Active; 'I' for Inactive)
REMARK    1  A    between atoms: C5_7  and  O1_8 
REMARK    2  A    between atoms: C9_12  and  N2_13 
REMARK    3  A    between atoms: C9_12  and  N3_14 
REMARK    4  A    between atoms: N3_14  and  N4_15 
REMARK    5  A    between atoms: N4_15  and  C10_16 
ROOT
HETATM    1  C1  UNL     1       0.091   2.360   1.807  1.00  0.00     0.178 C 
HETATM    2  N1  UNL     1       0.260   1.342   0.787  1.00  0.00    -0.294 NA
HETATM    3  C2  UNL     1       1.348   0.650   0.812  1.00  0.00     0.066 A 
HETATM    4  C3  UNL     1       2.480   0.722   1.730  1.00  0.00     0.054 A 
HETATM    5  C4  UNL     1       3.503  -0.095   1.566  1.00  0.00     0.046 A 
HETATM    6 BR1  UNL     1       4.947   0.056   2.805  1.00  0.00    -0.048 Br
HETATM    7  C5  UNL     1       3.559  -1.083   0.495  1.00  0.00     0.086 A 
HETATM    8  C7  UNL     1       2.572  -1.233  -0.403  1.00  0.00     0.055 A 
HETATM    9  C8  UNL     1       1.416  -0.353  -0.268  1.00  0.00     0.040 A 
HETATM   10  C9  UNL     1       0.482  -0.548  -1.179  1.00  0.00     0.126 C 
ENDROOT
BRANCH  10  11
HETATM   11  N2  UNL     1       0.510  -1.506  -2.235  1.00  0.00    -0.384 N 
HETATM   12  H9  UNL     1       1.193  -1.223  -2.997  1.00  0.00     0.157 HD
HETATM   13  H10 UNL     1      -0.081  -2.343  -2.202  1.00  0.00     0.157 HD
ENDBRANCH  10  11
BRANCH  10  14
HETATM   14  N3  UNL     1      -0.766   0.116  -1.354  1.00  0.00    -0.285 N 
HETATM   15  H11 UNL     1      -0.543   1.129  -1.588  1.00  0.00     0.188 HD
BRANCH  14  16
HETATM   16  N4  UNL     1      -1.980  -0.565  -1.214  1.00  0.00    -0.299 N 
HETATM   17  H12 UNL     1      -1.980  -1.547  -1.601  1.00  0.00     0.187 HD
BRANCH  16  18
HETATM   18  C10 UNL     1      -3.191  -0.086  -0.618  1.00  0.00     0.048 A 
HETATM   19  C11 UNL     1      -4.328  -0.879  -0.549  1.00  0.00     0.031 A 
HETATM   20  C12 UNL     1      -5.441  -0.314   0.048  1.00  0.00     0.002 A 
HETATM   21  C13 UNL     1      -5.490   0.963   0.567  1.00  0.00     0.000 A 
HETATM   22  C14 UNL     1      -4.349   1.737   0.489  1.00  0.00     0.002 A 
HETATM   23  C15 UNL     1      -3.230   1.193  -0.101  1.00  0.00     0.031 A 
ENDBRANCH  16  18
ENDBRANCH  14  16
ENDBRANCH  10  14
BRANCH   7  24
HETATM   24  O1  UNL     1       4.674  -1.912   0.387  1.00  0.00    -0.355 OA
HETATM   25  C6  UNL     1       5.545  -1.791  -0.718  1.00  0.00     0.210 C 
ENDBRANCH   7  24
TORSDOF 5
