REMARK  4 active torsions:
REMARK  status: ('A' for Active; 'I' for Inactive)
REMARK    1  A    between atoms: N1_2  and  C2_3 
REMARK    2  A    between atoms: C2_3  and  C3_4 
REMARK    3  A    between atoms: C6_7  and  N2_8 
REMARK       I    between atoms: N2_8  and  C7_9 
REMARK    4  A    between atoms: C7_9  and  C8_11 
ROOT
HETATM    1  C8  UNL     1      -1.582  -0.330   0.752  1.00  0.00     0.034 C 
HETATM    2  C9  UNL     1      -2.498  -1.069   1.417  1.00  0.00     0.096 C 
HETATM    3  N3  UNL     1      -3.882  -0.725   1.536  1.00  0.00    -0.398 N 
HETATM    4  C10 UNL     1      -5.120  -0.069   1.717  1.00  0.00     0.119 C 
HETATM    5  C11 UNL     1      -5.557   0.928   0.696  1.00  0.00     0.023 C 
HETATM    6  C12 UNL     1      -5.706   0.356  -0.655  1.00  0.00     0.029 C 
HETATM    7  C13 UNL     1      -4.663  -0.394  -1.314  1.00  0.00    -0.012 C 
HETATM    8  C14 UNL     1      -4.443  -0.003  -2.573  1.00  0.00     0.004 C 
HETATM    9  C15 UNL     1      -4.213   1.288  -2.605  1.00  0.00     0.101 C 
HETATM   10  N4  UNL     1      -3.685   1.664  -1.480  1.00  0.00    -0.211 NA
HETATM   11  C16 UNL     1      -2.563   0.783  -1.170  1.00  0.00     0.248 C 
HETATM   12  O2  UNL     1      -1.818  -0.078  -1.760  1.00  0.00    -0.271 OA
HETATM   13  C17 UNL     1      -2.202   0.945   0.248  1.00  0.00     0.150 C 
HETATM   14  H11 UNL     1      -4.156  -1.739   1.313  1.00  0.00     0.158 HD
ENDROOT
BRANCH   1  15
HETATM   15  C7  UNL     1      -0.213  -0.707   0.645  1.00  0.00     0.254 C 
HETATM   16  N2  UNL     1       0.746   0.069  -0.046  1.00  0.00    -0.323 N 
HETATM   17  H9  UNL     1       0.362   0.941  -0.466  1.00  0.00     0.169 HD
HETATM   18  O1  UNL     1       0.134  -1.768   1.189  1.00  0.00    -0.268 OA
BRANCH  16  19
HETATM   19  C6  UNL     1       2.120  -0.204  -0.218  1.00  0.00     0.035 A 
HETATM   20  C5  UNL     1       2.894   0.705  -0.911  1.00  0.00     0.030 A 
HETATM   21  C4  UNL     1       4.241   0.543  -1.140  1.00  0.00     0.011 A 
HETATM   22  C3  UNL     1       4.906  -0.562  -0.681  1.00  0.00    -0.030 A 
HETATM   23  C19 UNL     1       4.160  -1.492   0.017  1.00  0.00     0.011 A 
HETATM   24  C18 UNL     1       2.826  -1.297   0.226  1.00  0.00     0.030 A 
BRANCH  22  25
HETATM   25  C2  UNL     1       6.351  -0.856  -0.847  1.00  0.00     0.307 C 
BRANCH  25  26
HETATM   26  N1  UNL     1       7.144  -0.415   0.271  1.00  0.00     0.083 N 
HETATM   27  C1  UNL     1       7.039   1.009   0.463  1.00  0.00     0.307 C 
HETATM   28  H4  UNL     1       6.895  -0.881   1.155  1.00  0.00     0.315 HD
ENDBRANCH  25  26
ENDBRANCH  22  25
ENDBRANCH  16  19
ENDBRANCH   1  15
TORSDOF 4
