REMARK  5 active torsions:
REMARK  status: ('A' for Active; 'I' for Inactive)
REMARK    1  A    between atoms: C2_2  and  C3_3 
REMARK    2  A    between atoms: C8_8  and  N1_9 
REMARK    3  A    between atoms: N1_9  and  C9_10 
REMARK    4  A    between atoms: C13_16  and  O1_17 
REMARK    5  A    between atoms: C15_19  and  O2_20 
ROOT
HETATM    1  C9  UNL     1       0.164   1.054   0.181  1.00  0.00     0.138 A 
HETATM    2  N2  UNL     1      -0.171   2.306   0.501  1.00  0.00    -0.224 NA
HETATM    3  C10 UNL     1       0.781   3.221   0.834  1.00  0.00     0.235 A 
HETATM    4  N3  UNL     1       2.101   2.883   0.848  1.00  0.00    -0.241 NA
HETATM    5  C11 UNL     1       2.474   1.611   0.525  1.00  0.00     0.075 A 
HETATM    6  C12 UNL     1       3.809   1.269   0.540  1.00  0.00     0.072 A 
HETATM    7  C13 UNL     1       4.228  -0.002   0.221  1.00  0.00     0.103 A 
HETATM    8  C15 UNL     1       3.211  -0.889  -0.109  1.00  0.00     0.102 A 
HETATM    9  C17 UNL     1       1.864  -0.585  -0.136  1.00  0.00     0.057 A 
HETATM   10  C18 UNL     1       1.491   0.701   0.191  1.00  0.00     0.041 A 
ENDROOT
BRANCH   1  11
HETATM   11  N1  UNL     1      -0.886   0.156  -0.156  1.00  0.00    -0.362 N 
HETATM   12  H12 UNL     1      -0.834  -0.847  -0.430  1.00  0.00     0.162 HD
BRANCH  11  13
HETATM   13  C8  UNL     1      -2.237   0.655  -0.128  1.00  0.00     0.135 C 
HETATM   14  C3  UNL     1      -3.280  -0.298  -0.478  1.00  0.00    -0.058 C 
HETATM   15  C4  UNL     1      -4.528   0.132  -0.309  1.00  0.00    -0.018 C 
HETATM   16  C5  UNL     1      -4.631   1.524   0.213  1.00  0.00     0.054 C 
HETATM   17  C6  UNL     1      -3.781   1.645   1.453  1.00  0.00    -0.025 C 
HETATM   18  C7  UNL     1      -2.541   1.186   1.247  1.00  0.00    -0.001 C 
BRANCH  14  19
HETATM   19  C2  UNL     1      -2.982  -1.637  -0.982  1.00  0.00     0.032 C 
HETATM   20  C1  UNL     1      -4.255  -2.398  -1.259  1.00  0.00     0.010 C 
ENDBRANCH  14  19
ENDBRANCH  11  13
ENDBRANCH   1  11
BRANCH   8  21
HETATM   21  O2  UNL     1       3.575  -2.185  -0.440  1.00  0.00    -0.353 OA
HETATM   22  C16 UNL     1       2.557  -3.133  -0.787  1.00  0.00     0.210 C 
ENDBRANCH   8  21
BRANCH   7  23
HETATM   23  O1  UNL     1       5.534  -0.429   0.209  1.00  0.00    -0.353 OA
HETATM   24  C14 UNL     1       6.549   0.487   0.548  1.00  0.00     0.210 C 
ENDBRANCH   7  23
TORSDOF 5
