REMARK  8 active torsions:
REMARK  status: ('A' for Active; 'I' for Inactive)
REMARK    1  A    between atoms: B1_1  and  O1_2 
REMARK    2  A    between atoms: O1_2  and  C1_3 
REMARK    3  A    between atoms: C5_9  and  N3_10 
REMARK    4  A    between atoms: N3_10  and  C6_11 
REMARK    5  A    between atoms: C6_11  and  C7_12 
REMARK    6  A    between atoms: C9_14  and  O2_15 
REMARK    7  A    between atoms: C11_17  and  O3_18 
REMARK    8  A    between atoms: C15_23  and  O4_24 
ROOT
HETATM    1  C1  UNL     1      -4.321   0.591   0.784  1.00  0.00     0.085 A 
HETATM    2  C2  UNL     1      -3.431   1.641   0.671  1.00  0.00     0.070 A 
HETATM    3  C3  UNL     1      -2.178   1.448   0.131  1.00  0.00     0.075 A 
HETATM    4  N1  UNL     1      -1.298   2.479   0.018  1.00  0.00    -0.241 NA
HETATM    5  C4  UNL     1      -0.064   2.265  -0.519  1.00  0.00     0.235 A 
HETATM    6  N2  UNL     1       0.300   1.043  -0.941  1.00  0.00    -0.224 NA
HETATM    7  C5  UNL     1      -0.502  -0.031  -0.869  1.00  0.00     0.137 A 
HETATM    8  C13 UNL     1      -1.734   0.225  -0.323  1.00  0.00     0.041 A 
HETATM    9  C14 UNL     1      -2.638  -0.806  -0.200  1.00  0.00     0.057 A 
HETATM   10  C15 UNL     1      -3.899  -0.657   0.333  1.00  0.00     0.101 A 
ENDROOT
BRANCH   7  11
HETATM   11  N3  UNL     1      -0.061  -1.286  -1.329  1.00  0.00    -0.370 N 
HETATM   12  H5  UNL     1      -0.598  -2.175  -1.319  1.00  0.00     0.161 HD
BRANCH  11  13
HETATM   13  C6  UNL     1       1.274  -1.404  -1.884  1.00  0.00     0.158 C 
BRANCH  13  14
HETATM   14  C7  UNL     1       2.222  -1.003  -0.811  1.00  0.00    -0.056 C 
HETATM   15  C8  UNL     1       3.090  -0.007  -0.856  1.00  0.00     0.014 C 
HETATM   16  C9  UNL     1       4.008   0.333   0.262  1.00  0.00     0.163 C 
HETATM   17  C11 UNL     1       4.903  -0.856   0.485  1.00  0.00     0.102 C 
HETATM   18  B2  UNL     1       3.773  -1.972   1.470  1.00  0.00     0.211 B 
HETATM   19  C12 UNL     1       2.099  -1.858   0.363  1.00  0.00    -0.076 C 
BRANCH  16  20
HETATM   20  O2  UNL     1       4.710   1.470  -0.055  1.00  0.00    -0.385 OA
HETATM   21  C10 UNL     1       4.519   2.497   0.869  1.00  0.00     0.202 C 
ENDBRANCH  16  20
BRANCH  17  22
HETATM   22  O3  UNL     1       5.969  -0.571   1.325  1.00  0.00    -0.403 OA
HETATM   23  H14 UNL     1       6.789  -0.553   0.787  1.00  0.00     0.208 HD
ENDBRANCH  17  22
ENDBRANCH  13  14
ENDBRANCH  11  13
ENDBRANCH   7  11
BRANCH  10  24
HETATM   24  O4  UNL     1      -4.801  -1.707   0.450  1.00  0.00    -0.353 OA
HETATM   25  C16 UNL     1      -4.469  -3.012   0.022  1.00  0.00     0.210 C 
ENDBRANCH  10  24
BRANCH   1  26
HETATM   26  O1  UNL     1      -5.574   0.745   1.314  1.00  0.00    -0.426 OA
BRANCH  26  27
HETATM   27  B1  UNL     1      -6.144   1.996   1.824  1.00  0.00     0.300 B 
HETATM   28  H1  UNL     1      -5.410   2.849   2.164  1.00  0.00     0.002 HD
HETATM   29  H2  UNL     1      -7.255   1.940   2.241  1.00  0.00     0.002 HD
ENDBRANCH  26  27
ENDBRANCH   1  26
TORSDOF 8
