REMARK  4 active torsions:
REMARK  status: ('A' for Active; 'I' for Inactive)
REMARK    1  A    between atoms: O1_2  and  C2_3 
REMARK    2  A    between atoms: C5_7  and  C6_8 
REMARK    3  A    between atoms: C9_11  and  O2_12 
REMARK    4  A    between atoms: C11_14  and  O3_15 
ROOT
HETATM    1  C2  UNL     1       3.122   1.338   1.083  1.00  0.00     0.107 C 
HETATM    2  C3  UNL     1       2.081   1.827   0.383  1.00  0.00     0.032 C 
HETATM    3  C4  UNL     1       0.909   0.903   0.154  1.00  0.00     0.145 C 
HETATM    4  N1  UNL     1       0.845   0.564  -1.200  1.00  0.00    -0.406 N 
HETATM    5  C5  UNL     1       0.104  -0.562  -1.622  1.00  0.00     0.151 C 
HETATM    6  C14 UNL     1       0.675  -1.865  -1.023  1.00  0.00     0.115 C 
HETATM    7  N2  UNL     1       1.613  -1.540  -0.372  1.00  0.00    -0.277 NA
HETATM    8  C15 UNL     1       2.624  -1.961   0.436  1.00  0.00     0.324 C 
HETATM    9  O4  UNL     1       2.567  -1.114   1.626  1.00  0.00    -0.320 OA
HETATM   10  C16 UNL     1       3.353   0.034   1.660  1.00  0.00     0.145 C 
HETATM   11  C17 UNL     1       4.464  -0.136   2.328  1.00  0.00    -0.116 C 
HETATM   12  C18 UNL     1       5.571  -0.244   3.028  1.00  0.00     0.099 C 
HETATM   13  H7  UNL     1       1.270   1.166  -1.904  1.00  0.00     0.154 HD
ENDROOT
BRANCH   1  14
HETATM   14  O1  UNL     1       4.093   2.319   1.209  1.00  0.00    -0.353 OA
HETATM   15  C1  UNL     1       4.604   2.927   0.040  1.00  0.00     0.210 C 
ENDBRANCH   1  14
BRANCH   5  16
HETATM   16  C6  UNL     1      -1.354  -0.545  -1.411  1.00  0.00    -0.028 A 
HETATM   17  C7  UNL     1      -2.185  -0.772  -2.520  1.00  0.00     0.012 A 
HETATM   18  C8  UNL     1      -3.562  -0.792  -2.437  1.00  0.00     0.040 A 
HETATM   19  C9  UNL     1      -4.182  -0.583  -1.225  1.00  0.00     0.101 A 
HETATM   20  C11 UNL     1      -3.417  -0.355  -0.097  1.00  0.00     0.102 A 
HETATM   21  C13 UNL     1      -2.049  -0.348  -0.250  1.00  0.00     0.049 A 
BRANCH  19  22
HETATM   22  O2  UNL     1      -5.564  -0.592  -1.087  1.00  0.00    -0.353 OA
HETATM   23  C10 UNL     1      -6.481  -0.807  -2.115  1.00  0.00     0.210 C 
ENDBRANCH  19  22
BRANCH  20  24
HETATM   24  O3  UNL     1      -4.038  -0.148   1.098  1.00  0.00    -0.353 OA
HETATM   25  C12 UNL     1      -3.423   0.095   2.329  1.00  0.00     0.210 C 
ENDBRANCH  20  24
ENDBRANCH   5  16
TORSDOF 4
