REMARK  4 active torsions:
REMARK  status: ('A' for Active; 'I' for Inactive)
REMARK    1  A    between atoms: O1_2  and  C2_3 
REMARK    2  A    between atoms: C6_9  and  N3_10 
REMARK    3  A    between atoms: N3_10  and  C7_11 
REMARK    4  A    between atoms: C15_19  and  O2_20 
ROOT
HETATM    1  C2  UNL     1       3.523  -0.506  -0.052  1.00  0.00     0.104 A 
HETATM    2  C3  UNL     1       3.073   0.690   0.465  1.00  0.00     0.072 A 
HETATM    3  C4  UNL     1       1.724   0.964   0.485  1.00  0.00     0.075 A 
HETATM    4  N1  UNL     1       1.356   2.164   1.010  1.00  0.00    -0.241 NA
HETATM    5  C5  UNL     1       0.070   2.489   1.059  1.00  0.00     0.236 A 
HETATM    6  N2  UNL     1      -0.813   1.627   0.591  1.00  0.00    -0.224 NA
HETATM    7  C6  UNL     1      -0.592   0.424   0.053  1.00  0.00     0.142 A 
HETATM    8  C13 UNL     1       0.749   0.110   0.014  1.00  0.00     0.042 A 
HETATM    9  C14 UNL     1       1.259  -1.061  -0.487  1.00  0.00     0.058 A 
HETATM   10  C15 UNL     1       2.593  -1.401  -0.539  1.00  0.00     0.118 A 
ENDROOT
BRANCH   7  11
HETATM   11  N3  UNL     1      -1.528  -0.484  -0.441  1.00  0.00    -0.340 N 
HETATM   12  H6  UNL     1      -1.250  -1.399  -0.841  1.00  0.00     0.167 HD
BRANCH  11  13
HETATM   13  C7  UNL     1      -2.935  -0.349  -0.491  1.00  0.00     0.033 A 
HETATM   14  C8  UNL     1      -3.582   0.773  -0.030  1.00  0.00     0.029 A 
HETATM   15  C9  UNL     1      -4.949   0.936  -0.064  1.00  0.00     0.002 A 
HETATM   16  C10 UNL     1      -5.765  -0.045  -0.577  1.00  0.00     0.000 A 
HETATM   17  C11 UNL     1      -5.165  -1.188  -1.051  1.00  0.00     0.002 A 
HETATM   18  C12 UNL     1      -3.798  -1.299  -0.993  1.00  0.00     0.029 A 
ENDBRANCH  11  13
ENDBRANCH   7  11
BRANCH  10  19
HETATM   19  O2  UNL     1       3.035  -2.614  -1.065  1.00  0.00    -0.268 OA
HETATM   20 BR1  UNL     1       4.885  -2.935  -1.067  1.00  0.00     0.106 Br
ENDBRANCH  10  19
BRANCH   1  21
HETATM   21  O1  UNL     1       4.877  -0.757  -0.061  1.00  0.00    -0.353 OA
HETATM   22  C1  UNL     1       5.752   0.222   0.460  1.00  0.00     0.210 C 
ENDBRANCH   1  21
TORSDOF 4
