REMARK  4 active torsions:
REMARK  status: ('A' for Active; 'I' for Inactive)
REMARK    1  A    between atoms: O1_2  and  C2_3 
REMARK    2  A    between atoms: C6_9  and  N3_10 
REMARK    3  A    between atoms: N3_10  and  C7_11 
REMARK    4  A    between atoms: C15_20  and  O2_21 
ROOT
HETATM    1  C2  UNL     1       3.223  -0.398  -0.003  1.00  0.00     0.103 A 
HETATM    2  C3  UNL     1       3.102   0.929   0.256  1.00  0.00     0.072 A 
HETATM    3  C4  UNL     1       1.911   1.626   0.194  1.00  0.00     0.075 A 
HETATM    4  N1  UNL     1       1.634   2.917   0.420  1.00  0.00    -0.241 NA
HETATM    5  C5  UNL     1       0.449   3.480   0.333  1.00  0.00     0.236 A 
HETATM    6  N2  UNL     1      -0.652   2.766  -0.011  1.00  0.00    -0.224 NA
HETATM    7  C6  UNL     1      -0.502   1.445  -0.266  1.00  0.00     0.142 A 
HETATM    8  C13 UNL     1       0.780   0.887  -0.161  1.00  0.00     0.042 A 
HETATM    9  C14 UNL     1       0.905  -0.458  -0.424  1.00  0.00     0.057 A 
HETATM   10  C15 UNL     1       2.099  -1.152  -0.360  1.00  0.00     0.102 A 
ENDROOT
BRANCH   7  11
HETATM   11  N3  UNL     1      -1.624   0.658  -0.632  1.00  0.00    -0.340 N 
HETATM   12  H6  UNL     1      -1.303   0.176  -1.501  1.00  0.00     0.167 HD
BRANCH  11  13
HETATM   13  C7  UNL     1      -2.918   0.447  -0.120  1.00  0.00     0.035 A 
HETATM   14  C8  UNL     1      -3.557   1.116   0.887  1.00  0.00     0.029 A 
HETATM   15  C9  UNL     1      -4.838   0.799   1.315  1.00  0.00     0.004 A 
HETATM   16  C10 UNL     1      -5.473  -0.246   0.677  1.00  0.00     0.019 A 
HETATM   17  C11 UNL     1      -4.881  -0.960  -0.347  1.00  0.00     0.013 A 
HETATM   18 BR1  UNL     1      -5.778  -2.415  -1.229  1.00  0.00    -0.051 Br
HETATM   19  C12 UNL     1      -3.625  -0.584  -0.706  1.00  0.00     0.048 A 
ENDBRANCH  11  13
ENDBRANCH   7  11
BRANCH  10  20
HETATM   20  O2  UNL     1       2.382  -2.485  -0.593  1.00  0.00    -0.353 OA
HETATM   21  C16 UNL     1       1.371  -3.375  -0.958  1.00  0.00     0.210 C 
ENDBRANCH  10  20
BRANCH   1  22
HETATM   22  O1  UNL     1       4.485  -0.971   0.097  1.00  0.00    -0.353 OA
HETATM   23  C1  UNL     1       5.573  -0.143   0.461  1.00  0.00     0.210 C 
ENDBRANCH   1  22
TORSDOF 4
