REMARK  5 active torsions:
REMARK  status: ('A' for Active; 'I' for Inactive)
REMARK    1  A    between atoms: C2_2  and  O1_3 
REMARK    2  A    between atoms: O1_3  and  C3_4 
REMARK    3  A    between atoms: N1_7  and  C6_8 
REMARK    4  A    between atoms: C11_15  and  O3_16 
REMARK    5  A    between atoms: C16_21  and  O4_22 
ROOT
HETATM    1  C6  UNL     1       0.862   0.175   0.361  1.00  0.00     0.134 C 
HETATM    2  N2  UNL     1       1.261   0.852   1.411  1.00  0.00    -0.233 NA
HETATM    3  C7  UNL     1       2.511   1.001   2.104  1.00  0.00     0.069 A 
HETATM    4  C8  UNL     1       3.434   1.076   3.151  1.00  0.00     0.042 A 
HETATM    5  C9  UNL     1       3.829   1.233   1.706  1.00  0.00     0.205 A 
HETATM    6  O2  UNL     1       4.510   0.122   1.110  1.00  0.00    -0.334 OA
HETATM    7  C10 UNL     1       4.046  -0.854   0.207  1.00  0.00     0.092 C 
HETATM    8  C11 UNL     1       4.981  -1.805   0.045  1.00  0.00     0.170 C 
HETATM    9  C13 UNL     1       2.863  -1.137  -0.597  1.00  0.00     0.042 C 
HETATM   10  C14 UNL     1       1.604  -0.718  -0.520  1.00  0.00     0.054 C 
ENDROOT
BRANCH   1  11
HETATM   11  N1  UNL     1      -0.503   0.369   0.075  1.00  0.00    -0.315 N 
HETATM   12  C5  UNL     1      -1.064   1.661   0.285  1.00  0.00     0.097 A 
HETATM   13  C4  UNL     1      -2.348   1.780  -0.001  1.00  0.00     0.029 A 
HETATM   14  C3  UNL     1      -3.287   0.749  -0.513  1.00  0.00     0.203 A 
HETATM   15  C16 UNL     1      -2.525  -0.516  -0.666  1.00  0.00     0.094 A 
HETATM   16  C15 UNL     1      -1.245  -0.727  -0.406  1.00  0.00     0.133 A 
BRANCH  14  17
HETATM   17  O1  UNL     1      -4.360   0.606   0.321  1.00  0.00    -0.376 OA
BRANCH  17  18
HETATM   18  C2  UNL     1      -5.586   0.797  -0.304  1.00  0.00     0.164 C 
HETATM   19  C1  UNL     1      -5.781   2.142  -0.917  1.00  0.00     0.033 C 
ENDBRANCH  17  18
ENDBRANCH  14  17
BRANCH  15  20
HETATM   20  O4  UNL     1      -3.363  -1.523  -1.146  1.00  0.00    -0.356 OA
HETATM   21  C17 UNL     1      -3.765  -2.489  -0.175  1.00  0.00     0.209 C 
ENDBRANCH  15  20
ENDBRANCH   1  11
BRANCH   8  22
HETATM   22  O3  UNL     1       6.156  -1.652   0.756  1.00  0.00    -0.365 OA
HETATM   23  C12 UNL     1       7.303  -0.981   0.322  1.00  0.00     0.209 C 
ENDBRANCH   8  22
TORSDOF 5
