REMARK  1 active torsions:
REMARK  status: ('A' for Active; 'I' for Inactive)
REMARK    1  A    between atoms: O1_2  and  C2_3 
ROOT
HETATM    1  C2  UNL     1       3.004  -0.205   0.380  1.00  0.00     0.046 C 
HETATM    2  C3  UNL     1       2.412   0.970   0.180  1.00  0.00     0.022 C 
HETATM    3  C4  UNL     1       1.467   2.030  -0.049  1.00  0.00     0.087 A 
HETATM    4  C5  UNL     1       0.287   2.583  -0.244  1.00  0.00     0.020 A 
HETATM    5 BR1  UNL     1       1.930   3.632  -0.191  1.00  0.00    -0.151 Br
HETATM    6  C6  UNL     1      -1.156   2.161  -0.341  1.00  0.00     0.084 C 
HETATM    7  C7  UNL     1      -2.178   2.971  -0.548  1.00  0.00    -0.018 C 
HETATM    8  C8  UNL     1      -3.339   2.123  -0.560  1.00  0.00     0.013 C 
HETATM    9  C9  UNL     1      -3.920   0.943  -0.472  1.00  0.00     0.084 C 
HETATM   10  N1  UNL     1      -3.419  -0.368  -0.260  1.00  0.00    -0.381 N 
HETATM   11  C10 UNL     1      -3.220  -1.535   0.531  1.00  0.00     0.270 C 
HETATM   12  N2  UNL     1      -2.453  -2.590  -0.105  1.00  0.00    -0.267 NA
HETATM   13  C11 UNL     1      -2.087  -3.496   0.714  1.00  0.00     0.093 C 
HETATM   14  C12 UNL     1      -1.252  -3.067   1.595  1.00  0.00     0.007 C 
HETATM   15  C13 UNL     1      -0.912  -1.816   1.405  1.00  0.00     0.014 C 
HETATM   16  C14 UNL     1      -0.365  -1.431   0.106  1.00  0.00    -0.003 C 
HETATM   17  C15 UNL     1       0.941  -1.364  -0.129  1.00  0.00    -0.020 C 
HETATM   18  C16 UNL     1       2.302  -1.536   0.430  1.00  0.00     0.091 C 
HETATM   19  H10 UNL     1      -2.990  -0.444  -1.237  1.00  0.00     0.160 HD
ENDROOT
BRANCH   1  20
HETATM   20  O1  UNL     1       4.364  -0.153   0.542  1.00  0.00    -0.360 OA
HETATM   21  C1  UNL     1       5.279  -0.456  -0.522  1.00  0.00     0.209 C 
ENDBRANCH   1  20
TORSDOF 1
