REMARK  6 active torsions:
REMARK  status: ('A' for Active; 'I' for Inactive)
REMARK    1  A    between atoms: C2_2  and  C3_3 
REMARK    2  A    between atoms: C4_4  and  C5_5 
REMARK    3  A    between atoms: C4_4  and  O2_21 
REMARK    4  A    between atoms: C8_8  and  N1_9 
REMARK    5  A    between atoms: N1_9  and  C9_10 
REMARK    6  A    between atoms: C12_13  and  O1_14 
ROOT
HETATM    1  C5  UNL     1      -2.372  -1.777   0.595  1.00  0.00     0.064 C 
HETATM    2  C6  UNL     1      -1.200  -1.558  -0.028  1.00  0.00     0.045 A 
HETATM    3  C7  UNL     1      -0.545  -0.239   0.158  1.00  0.00     0.137 A 
HETATM    4  C8  UNL     1       0.727  -0.265  -0.631  1.00  0.00     0.111 A 
HETATM    5  N2  UNL     1       1.138  -1.266  -1.330  1.00  0.00    -0.228 NA
HETATM    6  C16 UNL     1       0.409  -2.483  -1.428  1.00  0.00     0.235 A 
HETATM    7  N3  UNL     1      -0.706  -2.634  -0.813  1.00  0.00    -0.246 NA
ENDROOT
BRANCH   4   8
HETATM    8  N1  UNL     1       1.493   0.951  -0.555  1.00  0.00    -0.346 N 
HETATM    9  H10 UNL     1       1.106   1.818  -0.134  1.00  0.00     0.167 HD
BRANCH   8  10
HETATM   10  C9  UNL     1       2.823   0.944  -1.081  1.00  0.00     0.030 A 
HETATM   11  C10 UNL     1       3.578  -0.060  -1.690  1.00  0.00     0.038 A 
HETATM   12  C11 UNL     1       4.611   0.852  -1.814  1.00  0.00    -0.003 A 
HETATM   13  C12 UNL     1       5.699   1.697  -1.981  1.00  0.00     0.073 A 
HETATM   14  C15 UNL     1       3.829   1.882  -1.187  1.00  0.00     0.073 A 
HETATM   15  C14 UNL     1       4.937   2.681  -1.376  1.00  0.00     0.033 A 
BRANCH  13  16
HETATM   16  O1  UNL     1       6.964   1.499  -2.541  1.00  0.00    -0.356 OA
HETATM   17  C13 UNL     1       7.922   2.544  -2.594  1.00  0.00     0.210 C 
ENDBRANCH  13  16
ENDBRANCH   8  10
ENDBRANCH   4   8
BRANCH   1  18
HETATM   18  C4  UNL     1      -3.091  -0.858   1.450  1.00  0.00     0.066 C 
HETATM   19  C3  UNL     1      -4.261  -1.137   2.045  1.00  0.00     0.010 C 
BRANCH  19  20
HETATM   20  C2  UNL     1      -5.114  -2.329   2.035  1.00  0.00     0.025 C 
HETATM   21  C1  UNL     1      -6.463  -1.924   1.478  1.00  0.00     0.009 C 
ENDBRANCH  19  20
BRANCH  18  22
HETATM   22  O2  UNL     1      -2.559   0.385   1.681  1.00  0.00    -0.356 OA
HETATM   23  C17 UNL     1      -3.260   1.406   2.339  1.00  0.00     0.210 C 
ENDBRANCH  18  22
ENDBRANCH   1  18
TORSDOF 6
