REMARK  9 active torsions:
REMARK  status: ('A' for Active; 'I' for Inactive)
REMARK    1  A    between atoms: C4_6  and  N3_7 
REMARK    2  A    between atoms: N3_7  and  C5_8 
REMARK    3  A    between atoms: C8_11  and  O1_12 
REMARK    4  A    between atoms: C10_14  and  O2_15 
REMARK    5  A    between atoms: C13_18  and  C14_19 
REMARK    6  A    between atoms: C14_19  and  C15_20 
REMARK    7  A    between atoms: C15_20  and  C16_21 
REMARK    8  A    between atoms: C15_20  and  O4_24 
REMARK    9  A    between atoms: C16_21  and  O3_22 
ROOT
HETATM    1  C1  UNL     1      -3.529  -2.255   1.654  1.00  0.00     0.066 C 
HETATM    2  C2  UNL     1      -2.261  -2.024   1.607  1.00  0.00     0.050 A 
HETATM    3  N1  UNL     1      -1.509  -2.769   2.430  1.00  0.00    -0.245 NA
HETATM    4  C3  UNL     1      -0.173  -2.606   2.461  1.00  0.00     0.235 A 
HETATM    5  N2  UNL     1       0.348  -1.681   1.646  1.00  0.00    -0.224 NA
HETATM    6  C4  UNL     1      -0.381  -0.931   0.821  1.00  0.00     0.141 A 
HETATM    7  C13 UNL     1      -1.748  -1.077   0.769  1.00  0.00     0.037 A 
ENDROOT
BRANCH   6   8
HETATM    8  N3  UNL     1       0.267   0.019  -0.001  1.00  0.00    -0.340 N 
HETATM    9  H4  UNL     1      -0.058   0.659  -0.727  1.00  0.00     0.167 HD
BRANCH   8  10
HETATM   10  C5  UNL     1       1.659   0.290   0.050  1.00  0.00     0.036 A 
HETATM   11  C6  UNL     1       2.382   0.145   1.228  1.00  0.00     0.032 A 
HETATM   12  C7  UNL     1       3.729   0.360   1.365  1.00  0.00     0.042 A 
HETATM   13  C8  UNL     1       4.435   0.753   0.246  1.00  0.00     0.101 A 
HETATM   14  C10 UNL     1       3.819   0.925  -0.962  1.00  0.00     0.103 A 
HETATM   15  C12 UNL     1       2.465   0.689  -1.016  1.00  0.00     0.069 A 
BRANCH  13  16
HETATM   16  O1  UNL     1       5.792   0.999   0.259  1.00  0.00    -0.353 OA
HETATM   17  C9  UNL     1       6.487   0.839   1.479  1.00  0.00     0.210 C 
ENDBRANCH  13  16
BRANCH  14  18
HETATM   18  O2  UNL     1       4.503   1.321  -2.107  1.00  0.00    -0.353 OA
HETATM   19  C11 UNL     1       3.761   1.466  -3.293  1.00  0.00     0.210 C 
ENDBRANCH  14  18
ENDBRANCH   8  10
ENDBRANCH   6   8
BRANCH   7  20
HETATM   20  C14 UNL     1      -2.427  -0.322  -0.056  1.00  0.00     0.056 C 
BRANCH  20  21
HETATM   21  C15 UNL     1      -3.848  -0.274  -0.307  1.00  0.00     0.090 C 
BRANCH  21  22
HETATM   22  C16 UNL     1      -4.352   0.553  -1.165  1.00  0.00     0.170 C 
BRANCH  22  23
HETATM   23  O3  UNL     1      -3.396   1.326  -1.760  1.00  0.00    -0.365 OA
HETATM   24  C17 UNL     1      -2.944   2.586  -1.370  1.00  0.00     0.209 C 
ENDBRANCH  22  23
ENDBRANCH  21  22
BRANCH  21  25
HETATM   25  O4  UNL     1      -5.056  -0.790   0.007  1.00  0.00    -0.354 OA
HETATM   26  C18 UNL     1      -5.717  -1.740  -0.836  1.00  0.00     0.210 C 
ENDBRANCH  21  25
ENDBRANCH  20  21
ENDBRANCH   7  20
TORSDOF 9
