REMARK  5 active torsions:
REMARK  status: ('A' for Active; 'I' for Inactive)
REMARK    1  A    between atoms: O1_2  and  C2_3 
REMARK    2  A    between atoms: C5_6  and  N1_7 
REMARK    3  A    between atoms: N1_7  and  C6_8 
REMARK    4  A    between atoms: C10_14  and  O2_15 
REMARK    5  A    between atoms: C15_20  and  O3_21 
ROOT
HETATM    1  N1  UNL     1      -0.305  -1.830  -0.124  1.00  0.00    -0.367 N 
HETATM    2  H8  UNL     1      -0.697  -2.354  -0.948  1.00  0.00     0.157 HD
ENDROOT
BRANCH   1   3
HETATM    3  C5  UNL     1      -1.152  -1.360   0.982  1.00  0.00     0.109 C 
HETATM    4  C4  UNL     1      -1.024   0.122   1.049  1.00  0.00     0.058 C 
HETATM    5  C3  UNL     1      -2.251   0.833   1.468  1.00  0.00     0.008 C 
HETATM    6  C2  UNL     1      -3.509   0.794   1.069  1.00  0.00     0.048 C 
HETATM    7  C16 UNL     1      -3.927  -0.131  -0.045  1.00  0.00     0.128 C 
HETATM    8  C15 UNL     1      -3.688  -1.499   0.516  1.00  0.00     0.047 C 
HETATM    9  C14 UNL     1      -2.502  -1.899   0.908  1.00  0.00     0.030 C 
BRANCH   6  10
HETATM   10  O1  UNL     1      -4.419   1.635   1.716  1.00  0.00    -0.360 OA
HETATM   11  C1  UNL     1      -5.375   2.403   1.016  1.00  0.00     0.209 C 
ENDBRANCH   6  10
BRANCH   8  12
HETATM   12  O3  UNL     1      -4.767  -2.367   0.620  1.00  0.00    -0.365 OA
HETATM   13  H19 UNL     1      -5.206  -2.538   1.509  1.00  0.00     0.217 HD
ENDBRANCH   8  12
ENDBRANCH   1   3
BRANCH   1  14
HETATM   14  C6  UNL     1       1.060  -1.553  -0.041  1.00  0.00     0.315 A 
HETATM   15  N2  UNL     1       1.698  -0.824   0.848  1.00  0.00    -0.031 NA
HETATM   16  C7  UNL     1       2.512   0.279   0.484  1.00  0.00     0.291 A 
HETATM   17  N3  UNL     1       1.932  -0.362  -0.514  1.00  0.00     0.101 N 
HETATM   18  C12 UNL     1       3.346   1.404   0.139  1.00  0.00     0.068 C 
HETATM   19  C11 UNL     1       4.587   1.188  -0.613  1.00  0.00     0.040 C 
HETATM   20  C10 UNL     1       4.577   0.550  -1.940  1.00  0.00     0.143 C 
HETATM   21  C9  UNL     1       4.099  -0.851  -2.011  1.00  0.00     0.040 C 
HETATM   22  C8  UNL     1       2.982  -0.963  -1.335  1.00  0.00     0.145 C 
HETATM   23  C13 UNL     1       2.068  -2.093  -1.039  1.00  0.00     0.151 C 
BRANCH  20  24
HETATM   24  O2  UNL     1       5.853   0.512  -2.508  1.00  0.00    -0.392 OA
HETATM   25  H11 UNL     1       6.426  -0.171  -2.053  1.00  0.00     0.210 HD
ENDBRANCH  20  24
ENDBRANCH   1  14
TORSDOF 5
