REMARK  9 active torsions:
REMARK  status: ('A' for Active; 'I' for Inactive)
REMARK    1  A    between atoms: O1_2  and  C2_3 
REMARK    2  A    between atoms: C5_6  and  C6_7 
REMARK    3  A    between atoms: C9_12  and  C10_13 
REMARK    4  A    between atoms: C10_13  and  C11_14 
REMARK    5  A    between atoms: C10_13  and  C12_16 
REMARK    6  A    between atoms: C10_13  and  O3_18 
REMARK    7  A    between atoms: C11_14  and  N3_15 
REMARK    8  A    between atoms: C12_16  and  O2_17 
REMARK    9  A    between atoms: C16_22  and  O4_23 
ROOT
HETATM    1  C6  UNL     1      -0.901   0.336   0.405  1.00  0.00     0.051 A 
HETATM    2  N1  UNL     1      -0.570   1.212   1.307  1.00  0.00    -0.245 NA
HETATM    3  C7  UNL     1       0.778   1.529   1.617  1.00  0.00     0.233 A 
HETATM    4  N2  UNL     1       1.747   0.956   1.009  1.00  0.00    -0.246 NA
HETATM    5  C8  UNL     1       1.487  -0.015   0.007  1.00  0.00     0.041 A 
HETATM    6  C9  UNL     1       2.501  -0.584  -0.595  1.00  0.00     0.042 C 
HETATM    7  C14 UNL     1       0.125  -0.420  -0.393  1.00  0.00     0.119 A 
ENDROOT
BRANCH   6   8
HETATM    8  C10 UNL     1       3.929  -0.239  -0.257  1.00  0.00     0.127 C 
BRANCH   8   9
HETATM    9  C11 UNL     1       4.544   0.430  -1.437  1.00  0.00     0.311 C 
BRANCH   9  10
HETATM   10  N3  UNL     1       5.922   0.789  -1.273  1.00  0.00     0.081 N 
HETATM   11  H10 UNL     1       6.203   1.644  -1.807  1.00  0.00     0.312 HD
HETATM   12  H11 UNL     1       6.599   0.059  -1.555  1.00  0.00     0.312 HD
ENDBRANCH   9  10
ENDBRANCH   8   9
BRANCH   8  13
HETATM   13  C12 UNL     1       4.659  -1.557  -0.056  1.00  0.00     0.208 C 
BRANCH  13  14
HETATM   14  O2  UNL     1       3.983  -2.274   0.910  1.00  0.00    -0.398 OA
HETATM   15  H14 UNL     1       3.313  -2.833   0.477  1.00  0.00     0.209 HD
ENDBRANCH  13  14
ENDBRANCH   8  13
BRANCH   8  16
HETATM   16  O3  UNL     1       3.904   0.455   0.911  1.00  0.00    -0.377 OA
HETATM   17  C13 UNL     1       5.087   0.887   1.432  1.00  0.00     0.203 C 
ENDBRANCH   8  16
ENDBRANCH   6   8
BRANCH   1  18
HETATM   18  C5  UNL     1      -2.311   0.049   0.127  1.00  0.00    -0.008 A 
HETATM   19  C4  UNL     1      -2.696  -0.882  -0.832  1.00  0.00     0.016 A 
HETATM   20  C3  UNL     1      -4.050  -1.124  -1.064  1.00  0.00     0.040 A 
HETATM   21  C2  UNL     1      -4.962  -0.414  -0.316  1.00  0.00     0.101 A 
HETATM   22  C16 UNL     1      -4.629   0.515   0.642  1.00  0.00     0.102 A 
HETATM   23  C15 UNL     1      -3.280   0.724   0.839  1.00  0.00     0.053 A 
BRANCH  21  24
HETATM   24  O1  UNL     1      -6.280  -0.676  -0.569  1.00  0.00    -0.353 OA
HETATM   25  C1  UNL     1      -6.735  -1.606  -1.526  1.00  0.00     0.210 C 
ENDBRANCH  21  24
BRANCH  22  26
HETATM   26  O4  UNL     1      -5.655   1.157   1.320  1.00  0.00    -0.353 OA
HETATM   27  C17 UNL     1      -5.367   2.127   2.321  1.00  0.00     0.210 C 
ENDBRANCH  22  26
ENDBRANCH   1  18
TORSDOF 9
