REMARK  5 active torsions:
REMARK  status: ('A' for Active; 'I' for Inactive)
REMARK    1  A    between atoms: O1_2  and  C2_3 
REMARK    2  A    between atoms: C5_6  and  N1_7 
REMARK    3  A    between atoms: N1_7  and  C6_8 
REMARK    4  A    between atoms: C10_14  and  O2_15 
REMARK    5  A    between atoms: C18_23  and  O3_24 
ROOT
HETATM    1  C6  UNL     1      -0.606   0.117   0.384  1.00  0.00     0.142 A 
HETATM    2  N2  UNL     1      -0.019   0.714   1.423  1.00  0.00    -0.224 NA
HETATM    3  C7  UNL     1      -0.813   1.233   2.405  1.00  0.00     0.236 A 
HETATM    4  N3  UNL     1      -2.157   1.120   2.286  1.00  0.00    -0.241 NA
HETATM    5  C8  UNL     1      -2.746   0.517   1.237  1.00  0.00     0.074 A 
HETATM    6  C9  UNL     1      -4.117   0.402   1.116  1.00  0.00     0.070 A 
HETATM    7  C10 UNL     1      -4.690  -0.222   0.029  1.00  0.00     0.076 A 
HETATM    8  C12 UNL     1      -3.905  -0.761  -0.989  1.00  0.00    -0.028 A 
HETATM    9  C13 UNL     1      -4.493  -1.441  -2.176  1.00  0.00     0.051 C 
HETATM   10  C14 UNL     1      -2.532  -0.651  -0.877  1.00  0.00     0.027 A 
HETATM   11  C15 UNL     1      -1.968  -0.024   0.215  1.00  0.00     0.039 A 
ENDROOT
BRANCH   1  12
HETATM   12  N1  UNL     1       0.283  -0.399  -0.600  1.00  0.00    -0.340 N 
HETATM   13  H6  UNL     1       0.144  -0.900  -1.493  1.00  0.00     0.167 HD
BRANCH  12  14
HETATM   14  C5  UNL     1       1.689  -0.261  -0.438  1.00  0.00     0.033 C 
HETATM   15  C4  UNL     1       2.169   0.994  -0.497  1.00  0.00     0.032 C 
HETATM   16  C3  UNL     1       3.562   1.403  -0.363  1.00  0.00     0.037 C 
HETATM   17  C2  UNL     1       4.567   0.742   0.182  1.00  0.00     0.078 C 
HETATM   18  C18 UNL     1       4.652  -0.574   0.819  1.00  0.00     0.197 C 
HETATM   19  C17 UNL     1       3.681  -1.552   0.298  1.00  0.00     0.013 C 
HETATM   20  C16 UNL     1       2.466  -1.493  -0.224  1.00  0.00     0.028 C 
BRANCH  17  21
HETATM   21  O1  UNL     1       5.703   1.541   0.074  1.00  0.00    -0.357 OA
HETATM   22  C1  UNL     1       6.519   1.345  -1.068  1.00  0.00     0.209 C 
ENDBRANCH  17  21
BRANCH  18  23
HETATM   23  O3  UNL     1       5.927  -1.134   0.673  1.00  0.00    -0.385 OA
HETATM   24  H19 UNL     1       6.565  -0.731   1.330  1.00  0.00     0.210 HD
ENDBRANCH  18  23
ENDBRANCH  12  14
ENDBRANCH   1  12
BRANCH   7  25
HETATM   25  O2  UNL     1      -6.051  -0.368  -0.149  1.00  0.00    -0.355 OA
HETATM   26  C11 UNL     1      -6.958   0.137   0.816  1.00  0.00     0.210 C 
ENDBRANCH   7  25
TORSDOF 5
