REMARK  0 active torsions:
REMARK  status: ('A' for Active; 'I' for Inactive)
ROOT
HETATM    1  C1  UNL     1       2.763  -0.624   2.978  1.00  0.00     0.000 C 
HETATM    2  O1  UNL     1       2.218  -0.123   1.758  1.00  0.00     0.000 OA
HETATM    3  C2  UNL     1       0.888   0.225   1.753  1.00  0.00     0.018 A 
HETATM    4  C3  UNL     1       1.388   0.249   0.559  1.00  0.00     0.025 A 
HETATM    5  O2  UNL     1      -0.051   0.579   0.636  1.00  0.00     0.000 OA
HETATM    6  C4  UNL     1      -0.378  -0.132  -0.501  1.00  0.00     0.049 C 
HETATM    7  C5  UNL     1       0.182   0.781  -1.583  1.00  0.00    -0.013 C 
HETATM    8  C6  UNL     1       1.285   0.438  -0.882  1.00  0.00    -0.051 C 
HETATM    9  C7  UNL     1       2.488   0.157  -1.584  1.00  0.00     0.185 C 
HETATM   10  N1  UNL     1       2.244   0.073  -2.995  1.00  0.00    -0.274 NA
HETATM   11  C8  UNL     1       1.289  -0.258  -3.772  1.00  0.00     0.248 C 
HETATM   12  O3  UNL     1      -0.078  -0.732  -3.734  1.00  0.00    -0.320 OA
HETATM   13  C9  UNL     1      -0.619  -1.330  -2.669  1.00  0.00     0.346 C 
HETATM   14  O4  UNL     1      -1.579  -1.356  -1.811  1.00  0.00    -0.359 OA
HETATM   15  C10 UNL     1      -1.861  -0.232  -1.023  1.00  0.00     0.149 C 
HETATM   16  C11 UNL     1      -2.680  -0.336   0.113  1.00  0.00     0.146 C 
HETATM   17  N2  UNL     1      -3.055   0.753   0.954  1.00  0.00    -0.416 N 
HETATM   18  C12 UNL     1      -2.082   1.414   1.669  1.00  0.00     0.141 C 
HETATM   19  C13 UNL     1      -1.331   0.860   2.770  1.00  0.00    -0.011 C 
HETATM   20  C14 UNL     1      -0.068   0.360   2.858  1.00  0.00    -0.016 C 
HETATM   21  H14 UNL     1      -3.836   1.265   0.560  1.00  0.00     0.153 HD
ENDROOT
TORSDOF 0
