REMARK  6 active torsions:
REMARK  status: ('A' for Active; 'I' for Inactive)
REMARK    1  A    between atoms: O1_2  and  C2_3 
REMARK    2  A    between atoms: C5_6  and  N1_7 
REMARK    3  A    between atoms: N1_7  and  C6_8 
REMARK    4  A    between atoms: C9_11  and  O2_12 
REMARK    5  A    between atoms: C11_14  and  O3_15 
REMARK    6  A    between atoms: C17_23  and  O4_24 
ROOT
HETATM    1  C2  UNL     1      -4.245   1.029   0.255  1.00  0.00     0.102 A 
HETATM    2  C3  UNL     1      -2.929   0.649   0.093  1.00  0.00     0.057 A 
HETATM    3  C4  UNL     1      -2.406  -0.044  -0.975  1.00  0.00     0.042 A 
HETATM    4  C5  UNL     1      -1.080  -0.399  -1.086  1.00  0.00     0.142 A 
HETATM    5  N2  UNL     1      -0.793  -1.069  -2.206  1.00  0.00    -0.224 NA
HETATM    6  C14 UNL     1      -1.645  -1.405  -3.178  1.00  0.00     0.236 A 
HETATM    7  N3  UNL     1      -2.951  -1.038  -3.037  1.00  0.00    -0.241 NA
HETATM    8  C15 UNL     1      -3.346  -0.354  -1.934  1.00  0.00     0.075 A 
HETATM    9  C16 UNL     1      -4.674  -0.004  -1.833  1.00  0.00     0.072 A 
HETATM   10  C17 UNL     1      -5.140   0.691  -0.738  1.00  0.00     0.101 A 
ENDROOT
BRANCH   4  11
HETATM   11  N1  UNL     1      -0.168  -0.042  -0.068  1.00  0.00    -0.340 N 
HETATM   12  H5  UNL     1      -0.457   0.498   0.750  1.00  0.00     0.167 HD
BRANCH  11  13
HETATM   13  C6  UNL     1       1.212  -0.346  -0.001  1.00  0.00     0.036 A 
HETATM   14  C7  UNL     1       1.837  -1.200  -0.864  1.00  0.00     0.032 A 
HETATM   15  C8  UNL     1       3.177  -1.515  -0.838  1.00  0.00     0.042 A 
HETATM   16  C9  UNL     1       3.992  -0.947   0.117  1.00  0.00     0.101 A 
HETATM   17  C11 UNL     1       3.412  -0.081   1.010  1.00  0.00     0.103 A 
HETATM   18  C13 UNL     1       2.070   0.192   0.932  1.00  0.00     0.069 A 
BRANCH  16  19
HETATM   19  O2  UNL     1       5.336  -1.203   0.218  1.00  0.00    -0.353 OA
HETATM   20  C10 UNL     1       6.043  -2.073  -0.640  1.00  0.00     0.210 C 
ENDBRANCH  16  19
BRANCH  17  21
HETATM   21  O3  UNL     1       4.204   0.506   1.983  1.00  0.00    -0.353 OA
HETATM   22  C12 UNL     1       3.690   1.409   2.941  1.00  0.00     0.210 C 
ENDBRANCH  17  21
ENDBRANCH  11  13
ENDBRANCH   4  11
BRANCH   1  23
HETATM   23  O1  UNL     1      -4.696   1.730   1.365  1.00  0.00    -0.353 OA
HETATM   24  C1  UNL     1      -3.778   2.085   2.400  1.00  0.00     0.210 C 
ENDBRANCH   1  23
BRANCH  10  25
HETATM   25  O4  UNL     1      -6.487   1.016  -0.691  1.00  0.00    -0.358 OA
HETATM   26  H17 UNL     1      -6.816   1.805  -1.257  1.00  0.00     0.217 HD
ENDBRANCH  10  25
TORSDOF 6
