REMARK  6 active torsions:
REMARK  status: ('A' for Active; 'I' for Inactive)
REMARK    1  A    between atoms: C2_2  and  C3_3 
REMARK    2  A    between atoms: C3_3  and  O3_20 
REMARK    3  A    between atoms: C4_4  and  C5_5 
REMARK    4  A    between atoms: C5_5  and  O1_6 
REMARK    5  A    between atoms: O1_6  and  C6_7 
REMARK    6  A    between atoms: C13_16  and  O2_17 
ROOT
HETATM    1  C6  UNL     1      -0.630  -1.541  -1.003  1.00  0.00     0.176 C 
HETATM    2  N1  UNL     1      -0.666  -2.826  -0.534  1.00  0.00    -0.217 NA
HETATM    3  C7  UNL     1      -1.531  -3.080   0.719  1.00  0.00     0.230 C 
HETATM    4  N2  UNL     1      -2.560  -2.347   1.224  1.00  0.00    -0.270 NA
HETATM    5  C8  UNL     1      -3.499  -1.340   0.888  1.00  0.00     0.157 C 
HETATM    6  C9  UNL     1      -3.900  -1.371  -0.595  1.00  0.00     0.005 C 
HETATM    7  C10 UNL     1      -3.267  -1.017  -1.781  1.00  0.00     0.014 C 
HETATM    8  C11 UNL     1      -1.887  -0.724  -1.234  1.00  0.00     0.019 C 
HETATM    9  C12 UNL     1      -1.398   0.434  -0.609  1.00  0.00     0.052 C 
HETATM   10  C13 UNL     1      -2.281   0.943   0.564  1.00  0.00     0.067 C 
HETATM   11  C15 UNL     1      -3.171   0.111   1.250  1.00  0.00     0.041 C 
ENDROOT
BRANCH   1  12
HETATM   12  O1  UNL     1       0.423  -0.665  -1.362  1.00  0.00    -0.330 OA
BRANCH  12  13
HETATM   13  C5  UNL     1       1.696  -1.315  -1.019  1.00  0.00     0.207 C 
BRANCH  13  14
HETATM   14  C4  UNL     1       2.758  -0.303  -1.091  1.00  0.00     0.036 C 
HETATM   15  C3  UNL     1       3.520   0.041  -0.083  1.00  0.00     0.065 C 
BRANCH  15  16
HETATM   16  C2  UNL     1       3.424  -0.524   1.238  1.00  0.00     0.026 C 
HETATM   17  C1  UNL     1       4.238  -0.107   2.181  1.00  0.00     0.014 C 
ENDBRANCH  15  16
BRANCH  15  18
HETATM   18  O3  UNL     1       4.458   1.016  -0.369  1.00  0.00    -0.356 OA
HETATM   19  C16 UNL     1       4.259   2.385  -0.097  1.00  0.00     0.210 C 
ENDBRANCH  15  18
ENDBRANCH  13  14
ENDBRANCH  12  13
ENDBRANCH   1  12
BRANCH  10  20
HETATM   20  O2  UNL     1      -1.875   2.227   0.590  1.00  0.00    -0.356 OA
HETATM   21  C14 UNL     1      -2.528   3.132  -0.302  1.00  0.00     0.210 C 
ENDBRANCH  10  20
TORSDOF 6
