REMARK  4 active torsions:
REMARK  status: ('A' for Active; 'I' for Inactive)
REMARK    1  A    between atoms: O1_2  and  C2_3 
REMARK    2  A    between atoms: N1_7  and  C6_8 
REMARK    3  A    between atoms: C10_14  and  O2_15 
REMARK    4  A    between atoms: C12_17  and  O3_18 
ROOT
HETATM    1  C6  UNL     1      -0.287  -1.437  -0.058  1.00  0.00     0.144 A 
HETATM    2  N2  UNL     1      -0.665  -2.724  -0.321  1.00  0.00    -0.223 NA
HETATM    3  C7  UNL     1       0.246  -3.682  -0.594  1.00  0.00     0.236 A 
HETATM    4  N3  UNL     1       1.577  -3.379  -0.612  1.00  0.00    -0.241 NA
HETATM    5  C8  UNL     1       1.983  -2.141  -0.361  1.00  0.00     0.075 A 
HETATM    6  C9  UNL     1       3.296  -1.712  -0.342  1.00  0.00     0.072 A 
HETATM    7  C10 UNL     1       3.627  -0.385  -0.059  1.00  0.00     0.103 A 
HETATM    8  C12 UNL     1       2.657   0.562   0.216  1.00  0.00     0.102 A 
HETATM    9  C14 UNL     1       1.344   0.144   0.200  1.00  0.00     0.057 A 
HETATM   10  C15 UNL     1       1.061  -1.156  -0.081  1.00  0.00     0.042 A 
ENDROOT
BRANCH   1  11
HETATM   11  N1  UNL     1      -1.426  -0.620   0.166  1.00  0.00    -0.330 N 
HETATM   12  C5  UNL     1      -2.001  -0.974   1.442  1.00  0.00     0.093 A 
HETATM   13  C4  UNL     1      -3.078  -0.378   1.937  1.00  0.00     0.020 A 
HETATM   14  C3  UNL     1      -3.764   0.688   1.216  1.00  0.00     0.036 A 
HETATM   15  C2  UNL     1      -3.216   0.989   0.050  1.00  0.00     0.068 A 
HETATM   16  C16 UNL     1      -2.041   0.427  -0.626  1.00  0.00     0.143 A 
HETATM   17  C17 UNL     1      -2.406  -0.222  -1.952  1.00  0.00     0.040 C 
BRANCH  15  18
HETATM   18  O1  UNL     1      -3.764   1.986  -0.745  1.00  0.00    -0.358 OA
HETATM   19  C1  UNL     1      -4.798   2.822  -0.272  1.00  0.00     0.209 C 
ENDBRANCH  15  18
ENDBRANCH   1  11
BRANCH   8  20
HETATM   20  O3  UNL     1       3.096   1.841   0.483  1.00  0.00    -0.353 OA
HETATM   21  C13 UNL     1       2.184   2.895   0.779  1.00  0.00     0.210 C 
ENDBRANCH   8  20
BRANCH   7  22
HETATM   22  O2  UNL     1       4.974  -0.032  -0.060  1.00  0.00    -0.353 OA
HETATM   23  C11 UNL     1       5.954  -1.003  -0.341  1.00  0.00     0.210 C 
ENDBRANCH   7  22
TORSDOF 4
