REMARK  4 active torsions:
REMARK  status: ('A' for Active; 'I' for Inactive)
REMARK    1  A    between atoms: O1_2  and  C2_3 
REMARK    2  A    between atoms: C2_3  and  O2_4 
REMARK    3  A    between atoms: O2_4  and  C3_5 
REMARK    4  A    between atoms: C14_19  and  O4_20 
ROOT
HETATM    1  C3  UNL     1       1.455   1.188   0.751  1.00  0.00     0.170 C 
HETATM    2  C4  UNL     1       1.116   0.151  -0.203  1.00  0.00     0.003 C 
HETATM    3  C5  UNL     1       1.075  -0.732  -1.157  1.00  0.00    -0.024 C 
HETATM    4  C6  UNL     1       0.817  -1.768  -2.160  1.00  0.00     0.056 C 
HETATM    5  C7  UNL     1      -0.609  -2.278  -2.102  1.00  0.00     0.001 C 
HETATM    6  C8  UNL     1      -1.797  -2.162  -1.674  1.00  0.00     0.134 C 
HETATM    7  O3  UNL     1      -3.217  -2.108  -1.223  1.00  0.00    -0.326 OA
HETATM    8  C9  UNL     1      -3.074  -1.851   0.237  1.00  0.00     0.206 A 
HETATM    9  N1  UNL     1      -3.448  -3.108   0.390  1.00  0.00    -0.240 NA
HETATM   10  C10 UNL     1      -3.526  -3.761   1.607  1.00  0.00     0.225 A 
HETATM   11  N2  UNL     1      -3.099  -2.583   2.198  1.00  0.00    -0.265 NA
HETATM   12  C11 UNL     1      -2.873  -1.590   1.437  1.00  0.00     0.135 A 
HETATM   13  C12 UNL     1      -1.944  -0.567   1.928  1.00  0.00     0.087 A 
HETATM   14  C13 UNL     1      -1.560   0.585   1.292  1.00  0.00     0.134 A 
HETATM   15  C14 UNL     1      -1.972   1.025   0.065  1.00  0.00     0.079 A 
HETATM   16  C16 UNL     1      -2.843   0.132  -0.476  1.00  0.00     0.029 A 
HETATM   17  C17 UNL     1      -2.629  -0.537   0.676  1.00  0.00     0.095 A 
HETATM   18  O5  UNL     1      -0.649   1.361   1.975  1.00  0.00    -0.369 OA
HETATM   19  C18 UNL     1       0.733   1.118   2.039  1.00  0.00     0.205 C 
ENDROOT
BRANCH   1  20
HETATM   20  O2  UNL     1       2.860   1.025   1.019  1.00  0.00    -0.356 OA
BRANCH  20  21
HETATM   21  C2  UNL     1       3.540   2.182   0.656  1.00  0.00     0.338 C 
BRANCH  21  22
HETATM   22  O1  UNL     1       4.891   2.073   0.900  1.00  0.00    -0.372 OA
HETATM   23  C1  UNL     1       5.430   1.023   0.163  1.00  0.00     0.204 C 
ENDBRANCH  21  22
ENDBRANCH  20  21
ENDBRANCH   1  20
BRANCH  15  24
HETATM   24  O4  UNL     1      -1.531   2.205  -0.471  1.00  0.00    -0.357 OA
HETATM   25  C15 UNL     1      -1.927   2.716  -1.726  1.00  0.00     0.209 C 
ENDBRANCH  15  24
TORSDOF 4
