REMARK  3 active torsions:
REMARK  status: ('A' for Active; 'I' for Inactive)
REMARK    1  A    between atoms: C2_2  and  C3_3 
REMARK    2  A    between atoms: C4_4  and  C5_5 
REMARK    3  A    between atoms: C5_5  and  C6_6 
ROOT
HETATM    1  C6  UNL     1       1.039  -0.532   0.899  1.00  0.00     0.070 A 
HETATM    2  N1  UNL     1       1.271  -1.553   1.748  1.00  0.00    -0.244 NA
HETATM    3  C7  UNL     1       0.385  -2.534   1.972  1.00  0.00     0.236 A 
HETATM    4  N2  UNL     1      -0.805  -2.551   1.348  1.00  0.00    -0.215 NA
HETATM    5  C8  UNL     1      -1.107  -1.563   0.484  1.00  0.00     0.200 A 
HETATM    6  C9  UNL     1      -0.181  -0.568   0.272  1.00  0.00     0.107 A 
HETATM    7  N3  UNL     1      -0.300   0.541  -0.577  1.00  0.00    -0.380 N 
HETATM    8  C10 UNL     1      -1.392   1.126  -1.330  1.00  0.00     0.161 C 
HETATM    9  C11 UNL     1      -2.719   0.576  -0.972  1.00  0.00    -0.005 A 
HETATM   10  C12 UNL     1      -3.648   1.578  -1.268  1.00  0.00     0.030 A 
HETATM   11  C13 UNL     1      -5.002   1.444  -1.070  1.00  0.00     0.011 A 
HETATM   12 BR1  UNL     1      -6.236   2.835  -1.487  1.00  0.00    -0.051 Br
HETATM   13  C14 UNL     1      -5.456   0.247  -0.550  1.00  0.00     0.022 A 
HETATM   14  C15 UNL     1      -4.585  -0.776  -0.239  1.00  0.00     0.039 A 
HETATM   15  C16 UNL     1      -3.236  -0.593  -0.455  1.00  0.00     0.086 A 
HETATM   16  O1  UNL     1      -2.377  -1.660  -0.125  1.00  0.00    -0.289 OA
HETATM   17  H9  UNL     1       0.558   1.099  -0.735  1.00  0.00     0.160 HD
ENDROOT
BRANCH   1  18
HETATM   18  C5  UNL     1       2.106   0.484   0.745  1.00  0.00     0.089 C 
BRANCH  18  19
HETATM   19  C4  UNL     1       2.859   0.311  -0.516  1.00  0.00    -0.021 C 
HETATM   20  C3  UNL     1       4.181   0.080  -0.504  1.00  0.00    -0.008 C 
BRANCH  20  21
HETATM   21  C2  UNL     1       4.849   0.006   0.809  1.00  0.00    -0.027 C 
HETATM   22  C1  UNL     1       6.113  -0.204   1.140  1.00  0.00     0.031 C 
ENDBRANCH  20  21
ENDBRANCH  18  19
ENDBRANCH   1  18
TORSDOF 3
