REMARK  2 active torsions:
REMARK  status: ('A' for Active; 'I' for Inactive)
REMARK    1  A    between atoms: C12_15  and  C13_16 
REMARK    2  A    between atoms: C13_16  and  C14_17 
ROOT
HETATM    1  C1  UNL     1       3.010   1.556  -0.819  1.00  0.00     0.043 A 
HETATM    2  C2  UNL     1       1.762   1.769  -0.505  1.00  0.00    -0.052 A 
HETATM    3  C3  UNL     1       1.147   2.929   0.123  1.00  0.00     0.007 C 
HETATM    4  C4  UNL     1      -0.051   3.315   0.496  1.00  0.00     0.002 C 
HETATM    5  C5  UNL     1      -1.481   3.122   0.643  1.00  0.00     0.017 C 
HETATM    6  C6  UNL     1      -2.390   2.222   0.377  1.00  0.00     0.083 C 
HETATM    7  N1  UNL     1      -3.199   1.132   0.007  1.00  0.00    -0.393 N 
HETATM    8  C7  UNL     1      -3.903   0.144   0.817  1.00  0.00     0.174 C 
HETATM    9  C8  UNL     1      -3.054  -0.820   1.504  1.00  0.00     0.036 C 
HETATM   10  N2  UNL     1      -3.366  -2.083   1.700  1.00  0.00    -0.249 NA
HETATM   11  C9  UNL     1      -2.303  -3.049   1.458  1.00  0.00     0.232 C 
HETATM   12  N3  UNL     1      -1.109  -2.621   1.062  1.00  0.00    -0.250 NA
HETATM   13  C10 UNL     1      -0.794  -1.246   1.072  1.00  0.00     0.029 C 
HETATM   14  C11 UNL     1       0.163  -1.257   0.172  1.00  0.00     0.081 C 
HETATM   15  C12 UNL     1       1.102  -0.510  -0.545  1.00  0.00    -0.044 C 
HETATM   16  O1  UNL     1       1.921   0.520  -1.093  1.00  0.00     0.000 OA
HETATM   17  C16 UNL     1      -1.703  -0.523   2.057  1.00  0.00     0.112 C 
HETATM   18  H7  UNL     1      -3.314   0.995  -1.049  1.00  0.00     0.159 HD
ENDROOT
BRANCH  15  19
HETATM   19  C13 UNL     1       1.725  -1.448  -1.329  1.00  0.00    -0.019 C 
BRANCH  19  20
HETATM   20  C14 UNL     1       2.765  -1.680  -2.348  1.00  0.00     0.023 C 
HETATM   21  C15 UNL     1       3.812  -2.644  -1.855  1.00  0.00     0.009 C 
ENDBRANCH  19  20
ENDBRANCH  15  19
TORSDOF 2
