REMARK  2 active torsions:
REMARK  status: ('A' for Active; 'I' for Inactive)
REMARK    1  A    between atoms: N1_1  and  N2_2 
REMARK    2  A    between atoms: C3_7  and  C4_8 
ROOT
HETATM    1  N2  UNL     1      -3.010  -0.177  -0.696  1.00  0.00    -0.216 NA
HETATM    2  C1  UNL     1      -1.894  -0.746  -1.386  1.00  0.00     0.234 C 
HETATM    3  N3  UNL     1      -1.848  -2.170  -1.501  1.00  0.00    -0.256 NA
HETATM    4  C2  UNL     1      -0.739  -2.773  -1.147  1.00  0.00     0.229 C 
HETATM    5  N4  UNL     1       0.490  -2.289  -0.635  1.00  0.00    -0.241 NA
HETATM    6  C3  UNL     1       0.605  -1.010  -0.439  1.00  0.00     0.078 C 
HETATM    7  C10 UNL     1      -0.689  -0.308  -0.595  1.00  0.00     0.016 C 
HETATM    8  C11 UNL     1      -1.043   0.841   0.026  1.00  0.00    -0.043 C 
HETATM    9  C12 UNL     1      -1.347   2.101   0.741  1.00  0.00     0.034 A 
HETATM   10  C13 UNL     1      -1.816   2.156   2.091  1.00  0.00     0.012 A 
HETATM   11  C14 UNL     1      -2.627   1.422   1.174  1.00  0.00     0.004 A 
HETATM   12  C15 UNL     1      -2.506   1.130  -0.264  1.00  0.00     0.117 C 
ENDROOT
BRANCH   6  13
HETATM   13  C4  UNL     1       1.768  -0.318   0.054  1.00  0.00    -0.005 A 
HETATM   14  C5  UNL     1       2.092   0.973   0.289  1.00  0.00     0.014 A 
HETATM   15  C6  UNL     1       3.293   1.406   0.799  1.00  0.00     0.003 A 
HETATM   16  C7  UNL     1       4.274   0.502   1.109  1.00  0.00     0.024 A 
HETATM   17  C8  UNL     1       4.012  -0.824   0.895  1.00  0.00     0.035 A 
HETATM   18 CL1  UNL     1       5.297  -1.938   1.307  1.00  0.00    -0.084 Cl
HETATM   19  C9  UNL     1       2.804  -1.210   0.387  1.00  0.00     0.037 A 
ENDBRANCH   6  13
BRANCH   1  20
HETATM   20  N1  UNL     1      -3.482  -0.956   0.337  1.00  0.00    -0.266 NA
HETATM   21  H1  UNL     1      -4.525  -0.998   0.287  1.00  0.00     0.137 HD
HETATM   22  H2  UNL     1      -3.139  -0.696   1.286  1.00  0.00     0.137 HD
ENDBRANCH   1  20
TORSDOF 2
