REMARK  3 active torsions:
REMARK  status: ('A' for Active; 'I' for Inactive)
REMARK    1  A    between atoms: C2_2  and  C3_3 
REMARK    2  A    between atoms: C7_8  and  C8_9 
REMARK    3  A    between atoms: C8_9  and  O2_10 
ROOT
HETATM    1  C3  UNL     1       2.620  -0.491   0.046  1.00  0.00     0.017 C 
HETATM    2  C4  UNL     1       1.836  -1.237  -0.980  1.00  0.00     0.048 C 
HETATM    3  C5  UNL     1       0.852  -2.173  -0.362  1.00  0.00     0.176 C 
HETATM    4  O1  UNL     1      -0.028  -1.488   0.475  1.00  0.00    -0.362 OA
HETATM    5  C6  UNL     1      -1.425  -1.583   0.306  1.00  0.00     0.144 C 
HETATM    6  C7  UNL     1      -2.589  -0.913   0.194  1.00  0.00    -0.007 C 
HETATM    7  C9  UNL     1      -2.873   0.539   0.316  1.00  0.00    -0.055 C 
HETATM    8  C10 UNL     1      -4.287   1.020   0.093  1.00  0.00     0.048 C 
HETATM    9  C11 UNL     1      -2.069   1.593   0.608  1.00  0.00    -0.013 C 
HETATM   10  C12 UNL     1      -0.647   1.685   0.922  1.00  0.00     0.088 C 
HETATM   11  C13 UNL     1       0.266   2.050  -0.149  1.00  0.00     0.051 A 
HETATM   12  N1  UNL     1       0.145   2.927  -1.156  1.00  0.00    -0.245 NA
HETATM   13  C14 UNL     1       1.133   3.070  -2.077  1.00  0.00     0.234 A 
HETATM   14  N2  UNL     1       2.282   2.334  -2.021  1.00  0.00    -0.242 NA
HETATM   15  C15 UNL     1       2.491   1.417  -1.029  1.00  0.00     0.067 A 
HETATM   16  C16 UNL     1       1.466   1.314  -0.125  1.00  0.00     0.015 A 
HETATM   17  C17 UNL     1       1.754   0.436   0.835  1.00  0.00     0.007 C 
HETATM   18  C18 UNL     1       3.453   0.537  -0.695  1.00  0.00     0.023 C 
ENDROOT
BRANCH   6  19
HETATM   19  C8  UNL     1      -3.839  -1.704   0.007  1.00  0.00     0.205 C 
BRANCH  19  20
HETATM   20  O2  UNL     1      -4.773  -1.502   1.011  1.00  0.00    -0.396 OA
HETATM   21  H11 UNL     1      -4.362  -1.463   1.889  1.00  0.00     0.209 HD
ENDBRANCH  19  20
ENDBRANCH   6  19
BRANCH   1  22
HETATM   22  C2  UNL     1       3.516  -1.317   0.854  1.00  0.00    -0.019 C 
HETATM   23  C1  UNL     1       4.819  -1.100   0.982  1.00  0.00     0.008 C 
ENDBRANCH   1  22
TORSDOF 3
