REMARK  8 active torsions:
REMARK  status: ('A' for Active; 'I' for Inactive)
REMARK    1  A    between atoms: C2_2  and  O1_3 
REMARK    2  A    between atoms: C2_2  and  C4_5 
REMARK    3  A    between atoms: C6_7  and  C7_8 
REMARK    4  A    between atoms: C7_8  and  C8_9 
REMARK    5  A    between atoms: C8_9  and  O2_10 
REMARK    6  A    between atoms: O2_10  and  C9_11 
REMARK    7  A    between atoms: C13_17  and  O3_18 
REMARK    8  A    between atoms: C15_20  and  O4_21 
ROOT
HETATM    1  C9  UNL     1      -0.117   1.482  -1.341  1.00  0.00     0.100 A 
HETATM    2  N1  UNL     1      -0.796   2.649  -1.588  1.00  0.00    -0.239 NA
HETATM    3  C10 UNL     1      -0.068   3.749  -1.909  1.00  0.00     0.234 A 
HETATM    4  N2  UNL     1       1.274   3.802  -2.012  1.00  0.00    -0.241 NA
HETATM    5  C11 UNL     1       1.961   2.652  -1.774  1.00  0.00     0.073 A 
HETATM    6  C12 UNL     1       3.356   2.617  -1.830  1.00  0.00     0.072 A 
HETATM    7  C13 UNL     1       4.108   1.470  -1.566  1.00  0.00     0.103 A 
HETATM    8  C15 UNL     1       3.383   0.296  -1.230  1.00  0.00     0.102 A 
HETATM    9  C17 UNL     1       2.014   0.386  -1.188  1.00  0.00     0.055 A 
HETATM   10  C18 UNL     1       1.249   1.518  -1.444  1.00  0.00     0.027 A 
ENDROOT
BRANCH   1  11
HETATM   11  O2  UNL     1      -0.609   0.174  -0.964  1.00  0.00     0.000 OA
BRANCH  11  12
HETATM   12  C8  UNL     1      -1.923   0.027  -0.702  1.00  0.00    -0.021 C 
BRANCH  12  13
HETATM   13  C7  UNL     1      -3.186  -0.193  -0.352  1.00  0.00     0.042 C 
BRANCH  13  14
HETATM   14  C6  UNL     1      -2.809  -1.067   0.742  1.00  0.00    -0.008 C 
HETATM   15  C4  UNL     1      -3.969  -1.466   1.294  1.00  0.00    -0.033 C 
HETATM   16  C5  UNL     1      -5.378  -1.148   0.926  1.00  0.00     0.050 C 
BRANCH  15  17
HETATM   17  C2  UNL     1      -4.072  -2.348   2.426  1.00  0.00     0.064 C 
HETATM   18  C1  UNL     1      -4.744  -3.035   3.321  1.00  0.00     0.051 C 
BRANCH  17  19
HETATM   19  O1  UNL     1      -2.801  -2.751   2.914  1.00  0.00    -0.356 OA
HETATM   20  C3  UNL     1      -2.334  -2.080   4.085  1.00  0.00     0.210 C 
ENDBRANCH  17  19
ENDBRANCH  15  17
ENDBRANCH  13  14
ENDBRANCH  12  13
ENDBRANCH  11  12
ENDBRANCH   1  11
BRANCH   8  21
HETATM   21  O4  UNL     1       4.212  -0.768  -1.000  1.00  0.00    -0.353 OA
HETATM   22  C16 UNL     1       3.771  -2.049  -0.672  1.00  0.00     0.210 C 
ENDBRANCH   8  21
BRANCH   7  23
HETATM   23  O3  UNL     1       5.476   1.413  -1.605  1.00  0.00    -0.353 OA
HETATM   24  C14 UNL     1       6.272   2.526  -1.891  1.00  0.00     0.210 C 
ENDBRANCH   7  23
TORSDOF 8
