REMARK  3 active torsions:
REMARK  status: ('A' for Active; 'I' for Inactive)
REMARK    1  A    between atoms: O1_2  and  C2_3 
REMARK    2  A    between atoms: C7_8  and  O2_9 
REMARK    3  A    between atoms: C14_17  and  O4_18 
ROOT
HETATM    1  C2  UNL     1      -2.921  -0.015   3.005  1.00  0.00     0.054 A 
HETATM    2  C3  UNL     1      -1.601   0.084   2.895  1.00  0.00     0.065 A 
HETATM    3  C4  UNL     1      -0.851  -0.041   1.653  1.00  0.00     0.069 A 
HETATM    4  C5  UNL     1      -1.290  -0.320   0.412  1.00  0.00     0.099 A 
HETATM    5  C6  UNL     1      -2.610  -0.576  -0.064  1.00  0.00     0.071 A 
HETATM    6  C7  UNL     1      -3.679  -0.526   0.701  1.00  0.00     0.052 A 
HETATM    7  C8  UNL     1      -4.037  -0.253   2.091  1.00  0.00     0.128 A 
HETATM    8  O3  UNL     1      -0.521  -0.420  -0.699  1.00  0.00    -0.337 OA
HETATM    9  C9  UNL     1       0.628  -0.702  -1.383  1.00  0.00     0.183 A 
HETATM   10  C10 UNL     1       0.649  -0.048  -2.754  1.00  0.00     0.008 A 
HETATM   11  C11 UNL     1       1.520   0.558  -3.531  1.00  0.00     0.008 A 
HETATM   12  C12 UNL     1       2.837   0.639  -2.926  1.00  0.00    -0.031 A 
HETATM   13  C13 UNL     1       3.951   1.273  -3.637  1.00  0.00     0.050 C 
HETATM   14  C14 UNL     1       2.876   0.101  -1.735  1.00  0.00     0.079 A 
HETATM   15  C16 UNL     1       1.941  -0.596  -0.749  1.00  0.00     0.199 A 
HETATM   16  N1  UNL     1       2.115   0.155   0.444  1.00  0.00    -0.270 NA
HETATM   17  C17 UNL     1       1.638   0.503   1.546  1.00  0.00     0.202 C 
HETATM   18  N2  UNL     1       0.422   0.246   2.276  1.00  0.00    -0.349 N 
HETATM   19  H20 UNL     1       0.459   0.270   3.309  1.00  0.00     0.167 HD
ENDROOT
BRANCH   1  20
HETATM   20  O1  UNL     1      -3.322   0.151   4.322  1.00  0.00    -0.360 OA
HETATM   21  C1  UNL     1      -4.445   0.967   4.574  1.00  0.00     0.209 C 
ENDBRANCH   1  20
BRANCH   6  22
HETATM   22  O2  UNL     1      -4.776  -0.834  -0.114  1.00  0.00    -0.365 OA
HETATM   23  H6  UNL     1      -5.507  -1.395   0.306  1.00  0.00     0.217 HD
ENDBRANCH   6  22
BRANCH  14  24
HETATM   24  O4  UNL     1       4.173   0.203  -1.202  1.00  0.00    -0.357 OA
HETATM   25  C15 UNL     1       5.062  -0.896  -1.227  1.00  0.00     0.209 C 
ENDBRANCH  14  24
TORSDOF 3
