REMARK  6 active torsions:
REMARK  status: ('A' for Active; 'I' for Inactive)
REMARK    1  A    between atoms: O1_2  and  C2_3 
REMARK    2  A    between atoms: C6_9  and  O2_10 
REMARK    3  A    between atoms: O2_10  and  C7_11 
REMARK    4  A    between atoms: C10_14  and  O3_15 
REMARK    5  A    between atoms: C12_17  and  O4_18 
REMARK    6  A    between atoms: C17_23  and  O5_24 
ROOT
HETATM    1  C2  UNL     1       4.747  -0.046  -0.369  1.00  0.00     0.103 A 
HETATM    2  C3  UNL     1       4.317   1.093   0.275  1.00  0.00     0.072 A 
HETATM    3  C4  UNL     1       2.960   1.241   0.462  1.00  0.00     0.075 A 
HETATM    4  N1  UNL     1       2.562   2.377   1.101  1.00  0.00    -0.241 NA
HETATM    5  C5  UNL     1       1.241   2.607   1.330  1.00  0.00     0.236 A 
HETATM    6  N2  UNL     1       0.329   1.721   0.929  1.00  0.00    -0.217 NA
HETATM    7  C6  UNL     1       0.637   0.578   0.293  1.00  0.00     0.183 A 
HETATM    8  C15 UNL     1       1.988   0.355   0.066  1.00  0.00     0.049 A 
HETATM    9  C16 UNL     1       2.488  -0.761  -0.571  1.00  0.00     0.057 A 
HETATM   10  C17 UNL     1       3.829  -0.981  -0.796  1.00  0.00     0.100 A 
ENDROOT
BRANCH   7  11
HETATM   11  O2  UNL     1      -0.158  -0.425  -0.180  1.00  0.00    -0.291 OA
BRANCH  11  12
HETATM   12  C7  UNL     1      -1.535  -0.478  -0.099  1.00  0.00     0.080 A 
HETATM   13  C8  UNL     1      -2.005  -1.654  -0.690  1.00  0.00     0.040 A 
HETATM   14  C9  UNL     1      -3.354  -1.964  -0.748  1.00  0.00     0.042 A 
HETATM   15  C10 UNL     1      -4.275  -1.076  -0.200  1.00  0.00     0.101 A 
HETATM   16  C12 UNL     1      -3.804   0.077   0.380  1.00  0.00     0.104 A 
HETATM   17  C14 UNL     1      -2.464   0.387   0.438  1.00  0.00     0.077 A 
BRANCH  15  18
HETATM   18  O3  UNL     1      -5.638  -1.330  -0.227  1.00  0.00    -0.353 OA
HETATM   19  C11 UNL     1      -6.178  -2.481  -0.799  1.00  0.00     0.210 C 
ENDBRANCH  15  18
BRANCH  16  20
HETATM   20  O4  UNL     1      -4.669   0.981   0.932  1.00  0.00    -0.353 OA
HETATM   21  C13 UNL     1      -4.304   2.181   1.544  1.00  0.00     0.210 C 
ENDBRANCH  16  20
ENDBRANCH  11  12
ENDBRANCH   7  11
BRANCH  10  22
HETATM   22  O5  UNL     1       4.224  -2.124  -1.439  1.00  0.00    -0.358 OA
HETATM   23  H16 UNL     1       5.030  -2.129  -2.058  1.00  0.00     0.217 HD
ENDBRANCH  10  22
BRANCH   1  24
HETATM   24  O1  UNL     1       6.084  -0.322  -0.624  1.00  0.00    -0.353 OA
HETATM   25  C1  UNL     1       7.117   0.590  -0.218  1.00  0.00     0.210 C 
ENDBRANCH   1  24
TORSDOF 6
