REMARK  6 active torsions:
REMARK  status: ('A' for Active; 'I' for Inactive)
REMARK    1  A    between atoms: O1_2  and  C2_3 
REMARK    2  A    between atoms: C5_6  and  O2_7 
REMARK    3  A    between atoms: O2_7  and  C6_8 
REMARK    4  A    between atoms: C10_14  and  O3_15 
REMARK    5  A    between atoms: C11_16  and  O4_17 
REMARK    6  A    between atoms: C17_23  and  O5_24 
ROOT
HETATM    1  C6  UNL     1      -1.359  -0.937   0.296  1.00  0.00     0.183 A 
HETATM    2  N1  UNL     1      -0.831  -2.152   0.586  1.00  0.00    -0.217 NA
HETATM    3  C7  UNL     1      -1.577  -3.246   0.818  1.00  0.00     0.236 A 
HETATM    4  N2  UNL     1      -2.927  -3.180   0.771  1.00  0.00    -0.241 NA
HETATM    5  C8  UNL     1      -3.521  -2.007   0.489  1.00  0.00     0.075 A 
HETATM    6  C9  UNL     1      -4.916  -1.916   0.436  1.00  0.00     0.072 A 
HETATM    7  C10 UNL     1      -5.493  -0.686   0.142  1.00  0.00     0.101 A 
HETATM    8  C11 UNL     1      -4.707   0.429  -0.094  1.00  0.00     0.102 A 
HETATM    9  C13 UNL     1      -3.333   0.328  -0.039  1.00  0.00     0.057 A 
HETATM   10  C14 UNL     1      -2.743  -0.879   0.250  1.00  0.00     0.049 A 
ENDROOT
BRANCH   1  11
HETATM   11  O2  UNL     1      -0.627   0.201   0.054  1.00  0.00    -0.295 OA
BRANCH  11  12
HETATM   12  C5  UNL     1       0.743   0.311   0.061  1.00  0.00     0.059 C 
HETATM   13  C4  UNL     1       1.094   1.051  -0.979  1.00  0.00     0.036 C 
HETATM   14  C3  UNL     1       2.481   1.413  -1.339  1.00  0.00     0.042 C 
HETATM   15  C2  UNL     1       3.619   0.748  -1.075  1.00  0.00     0.101 C 
HETATM   16  C17 UNL     1       3.721  -0.532  -0.342  1.00  0.00     0.098 C 
HETATM   17  C16 UNL     1       2.824  -0.936   0.573  1.00  0.00     0.019 C 
HETATM   18  C15 UNL     1       1.585  -0.331   1.103  1.00  0.00     0.095 C 
BRANCH  15  19
HETATM   19  O1  UNL     1       4.836   1.248  -1.498  1.00  0.00    -0.353 OA
HETATM   20  C1  UNL     1       5.178   2.612  -1.338  1.00  0.00     0.210 C 
ENDBRANCH  15  19
BRANCH  16  21
HETATM   21  O5  UNL     1       4.806  -1.334  -0.636  1.00  0.00    -0.353 OA
HETATM   22  C18 UNL     1       5.772  -1.771   0.278  1.00  0.00     0.210 C 
ENDBRANCH  16  21
ENDBRANCH  11  12
ENDBRANCH   1  11
BRANCH   8  23
HETATM   23  O4  UNL     1      -5.475   1.553  -0.369  1.00  0.00    -0.353 OA
HETATM   24  C12 UNL     1      -4.795   2.765  -0.629  1.00  0.00     0.210 C 
ENDBRANCH   8  23
BRANCH   7  25
HETATM   25  O3  UNL     1      -6.869  -0.737   0.121  1.00  0.00    -0.358 OA
HETATM   26  H8  UNL     1      -7.413   0.094  -0.062  1.00  0.00     0.217 HD
ENDBRANCH   7  25
TORSDOF 6
