REMARK  7 active torsions:
REMARK  status: ('A' for Active; 'I' for Inactive)
REMARK    1  A    between atoms: C2_2  and  C3_3 
REMARK    2  A    between atoms: C4_5  and  C5_6 
REMARK    3  A    between atoms: C5_6  and  O1_7 
REMARK    4  A    between atoms: O1_7  and  C6_8 
REMARK    5  A    between atoms: C9_12  and  O3_13 
REMARK    6  A    between atoms: C9_12  and  C10_14 
REMARK    7  A    between atoms: C10_14  and  O4_15 
ROOT
HETATM    1  C6  UNL     1      -0.834   0.270  -1.774  1.00  0.00     0.184 C 
HETATM    2  C7  UNL     1       0.265   0.235  -1.053  1.00  0.00     0.066 C 
HETATM    3  O2  UNL     1      -0.024  -0.440   0.145  1.00  0.00    -0.359 OA
HETATM    4  C8  UNL     1       0.854  -0.419   1.284  1.00  0.00     0.218 C 
HETATM    5  C9  UNL     1       2.282  -0.823   0.885  1.00  0.00     0.117 C 
HETATM    6  C12 UNL     1       3.111   0.368   0.610  1.00  0.00     0.000 C 
HETATM    7  C13 UNL     1       2.845   1.148  -0.472  1.00  0.00    -0.065 C 
HETATM    8  B1  UNL     1       1.663   0.861  -1.496  1.00  0.00     0.317 B 
HETATM    9  C14 UNL     1       1.850   1.979  -2.605  1.00  0.00     0.051 C 
HETATM   10  N1  UNL     1       0.963   2.239  -3.528  1.00  0.00    -0.268 NA
HETATM   11  C15 UNL     1      -0.302   1.637  -3.762  1.00  0.00     0.234 C 
HETATM   12  N2  UNL     1      -1.015   0.853  -3.060  1.00  0.00    -0.217 NA
ENDROOT
BRANCH   1  13
HETATM   13  O1  UNL     1      -1.897  -0.350  -1.143  1.00  0.00    -0.330 OA
BRANCH  13  14
HETATM   14  C5  UNL     1      -2.625   0.265  -0.101  1.00  0.00     0.206 C 
BRANCH  14  15
HETATM   15  C4  UNL     1      -3.674  -0.729   0.292  1.00  0.00     0.019 C 
HETATM   16  C3  UNL     1      -4.969  -0.478   0.222  1.00  0.00     0.008 C 
HETATM   17 BR1  UNL     1      -5.494   1.223  -0.407  1.00  0.00    -0.051 Br
BRANCH  16  18
HETATM   18  C2  UNL     1      -5.879  -1.513   0.628  1.00  0.00     0.008 C 
HETATM   19  C1  UNL     1      -7.165  -1.217   0.541  1.00  0.00     0.012 C 
ENDBRANCH  16  18
ENDBRANCH  14  15
ENDBRANCH  13  14
ENDBRANCH   1  13
BRANCH   5  20
HETATM   20  O3  UNL     1       2.218  -1.748  -0.150  1.00  0.00    -0.381 OA
HETATM   21  H9  UNL     1       2.679  -2.602   0.066  1.00  0.00     0.211 HD
ENDBRANCH   5  20
BRANCH   5  22
HETATM   22  C10 UNL     1       2.827  -1.543   2.085  1.00  0.00     0.211 C 
BRANCH  22  23
HETATM   23  O4  UNL     1       4.003  -2.191   1.958  1.00  0.00    -0.393 OA
HETATM   24  C11 UNL     1       5.101  -1.462   1.590  1.00  0.00     0.201 C 
ENDBRANCH  22  23
ENDBRANCH   5  22
TORSDOF 7
