REMARK  3 active torsions:
REMARK  status: ('A' for Active; 'I' for Inactive)
REMARK    1  A    between atoms: C3_3  and  C4_5 
REMARK    2  A    between atoms: C8_10  and  N2_11 
REMARK    3  A    between atoms: N2_11  and  C9_12 
ROOT
HETATM    1  C4  UNL     1      -3.943   0.387   0.371  1.00  0.00     0.053 C 
HETATM    2  C5  UNL     1      -2.694   0.824   0.153  1.00  0.00     0.074 C 
HETATM    3  C6  UNL     1      -1.648   1.174   1.144  1.00  0.00     0.185 C 
HETATM    4  N1  UNL     1      -0.450   0.410   0.761  1.00  0.00    -0.377 N 
HETATM    5  C7  UNL     1       0.057   0.567  -0.568  1.00  0.00     0.129 A 
HETATM    6  C8  UNL     1       1.402   0.436  -0.898  1.00  0.00     0.160 A 
HETATM    7  N3  UNL     1       1.710   0.608  -2.171  1.00  0.00    -0.222 NA
HETATM    8  C15 UNL     1       0.777   0.891  -3.081  1.00  0.00     0.238 A 
HETATM    9  N4  UNL     1      -0.545   1.023  -2.775  1.00  0.00    -0.215 NA
HETATM   10  C16 UNL     1      -0.936   0.858  -1.476  1.00  0.00     0.201 A 
HETATM   11  O1  UNL     1      -2.273   0.988  -1.154  1.00  0.00    -0.293 OA
HETATM   12  H8  UNL     1       0.074  -0.257   1.397  1.00  0.00     0.160 HD
ENDROOT
BRANCH   6  13
HETATM   13  N2  UNL     1       2.301   0.147   0.156  1.00  0.00    -0.339 N 
HETATM   14  H9  UNL     1       1.970   0.073   1.139  1.00  0.00     0.167 HD
BRANCH  13  15
HETATM   15  C9  UNL     1       3.697  -0.065   0.046  1.00  0.00     0.033 A 
HETATM   16  C10 UNL     1       4.420  -0.075  -1.120  1.00  0.00     0.029 A 
HETATM   17  C11 UNL     1       5.766  -0.276  -1.216  1.00  0.00     0.002 A 
HETATM   18  C12 UNL     1       6.505  -0.491  -0.090  1.00  0.00     0.000 A 
HETATM   19  C13 UNL     1       5.853  -0.495   1.111  1.00  0.00     0.002 A 
HETATM   20  C14 UNL     1       4.498  -0.287   1.147  1.00  0.00     0.029 A 
ENDBRANCH  13  15
ENDBRANCH   6  13
BRANCH   1  21
HETATM   21  C3  UNL     1      -4.676   0.116   1.597  1.00  0.00     0.009 C 
HETATM   22  C2  UNL     1      -5.947  -0.327   1.557  1.00  0.00    -0.012 C 
HETATM   23  C1  UNL     1      -6.561  -0.526   0.213  1.00  0.00     0.037 C 
HETATM   24 BR1  UNL     1      -4.054   0.313   3.413  1.00  0.00    -0.051 Br
ENDBRANCH   1  21
TORSDOF 3
