REMARK  5 active torsions:
REMARK  status: ('A' for Active; 'I' for Inactive)
REMARK    1  A    between atoms: O1_2  and  C2_3 
REMARK    2  A    between atoms: C6_9  and  O2_10 
REMARK    3  A    between atoms: O2_10  and  C7_11 
REMARK    4  A    between atoms: C8_12  and  C9_13 
REMARK    5  A    between atoms: C14_19  and  O3_20 
ROOT
HETATM    1  C2  UNL     1      -3.239  -0.510   0.275  1.00  0.00     0.103 A 
HETATM    2  C3  UNL     1      -2.537  -1.718   0.295  1.00  0.00     0.072 A 
HETATM    3  C4  UNL     1      -1.142  -1.709   0.275  1.00  0.00     0.075 A 
HETATM    4  N1  UNL     1      -0.420  -2.859   0.294  1.00  0.00    -0.241 NA
HETATM    5  C5  UNL     1       0.931  -2.839   0.274  1.00  0.00     0.236 A 
HETATM    6  N2  UNL     1       1.630  -1.675   0.236  1.00  0.00    -0.217 NA
HETATM    7  C6  UNL     1       0.936  -0.513   0.217  1.00  0.00     0.182 A 
HETATM    8  C12 UNL     1      -0.460  -0.509   0.236  1.00  0.00     0.049 A 
HETATM    9  C13 UNL     1      -1.178   0.676   0.217  1.00  0.00     0.057 A 
HETATM   10  C14 UNL     1      -2.573   0.683   0.236  1.00  0.00     0.102 A 
ENDROOT
BRANCH   7  11
HETATM   11  O2  UNL     1       1.544   0.716   0.178  1.00  0.00    -0.304 OA
BRANCH  11  12
HETATM   12  C7  UNL     1       2.887   0.970   0.152  1.00  0.00     0.141 C 
HETATM   13  C8  UNL     1       3.802   1.009  -0.805  1.00  0.00     0.011 C 
BRANCH  13  14
HETATM   14  C9  UNL     1       5.239   1.310  -0.628  1.00  0.00     0.073 A 
HETATM   15  C10 UNL     1       5.992   0.428   0.302  1.00  0.00     0.003 A 
HETATM   16  C11 UNL     1       6.240   0.322  -1.011  1.00  0.00    -0.003 A 
HETATM   17 BR1  UNL     1       6.977  -0.245  -2.700  1.00  0.00    -0.055 Br
ENDBRANCH  13  14
ENDBRANCH  11  12
ENDBRANCH   7  11
BRANCH  10  18
HETATM   18  O3  UNL     1      -3.304   1.839   0.217  1.00  0.00    -0.353 OA
HETATM   19  C15 UNL     1      -2.736   3.136   0.177  1.00  0.00     0.210 C 
ENDBRANCH  10  18
BRANCH   1  20
HETATM   20  O1  UNL     1      -4.605  -0.533   0.294  1.00  0.00    -0.353 OA
HETATM   21  C1  UNL     1      -5.391  -1.697   0.334  1.00  0.00     0.210 C 
ENDBRANCH   1  20
TORSDOF 5
