REMARK  5 active torsions:
REMARK  status: ('A' for Active; 'I' for Inactive)
REMARK    1  A    between atoms: O1_2  and  C2_3 
REMARK    2  A    between atoms: C5_6  and  O2_7 
REMARK    3  A    between atoms: O2_7  and  C6_8 
REMARK    4  A    between atoms: C6_8  and  C7_9 
REMARK    5  A    between atoms: C16_21  and  O3_22 
ROOT
HETATM    1  C2  UNL     1      -3.399   0.466   0.423  1.00  0.00     0.104 A 
HETATM    2  C3  UNL     1      -2.159  -0.067   0.140  1.00  0.00     0.058 A 
HETATM    3  C4  UNL     1      -1.276   0.584  -0.702  1.00  0.00     0.048 A 
HETATM    4  C5  UNL     1      -0.012   0.095  -1.024  1.00  0.00     0.178 A 
HETATM    5  N1  UNL     1       0.738   0.837  -1.857  1.00  0.00    -0.217 NA
HETATM    6  C13 UNL     1       0.314   2.004  -2.374  1.00  0.00     0.236 A 
HETATM    7  N2  UNL     1      -0.920   2.491  -2.065  1.00  0.00    -0.241 NA
HETATM    8  C14 UNL     1      -1.719   1.787  -1.232  1.00  0.00     0.075 A 
HETATM    9  C15 UNL     1      -2.951   2.351  -0.972  1.00  0.00     0.074 A 
HETATM   10  C16 UNL     1      -3.807   1.675  -0.127  1.00  0.00     0.127 A 
ENDROOT
BRANCH   4  11
HETATM   11  O2  UNL     1       0.276  -1.097  -0.425  1.00  0.00    -0.329 OA
BRANCH  11  12
HETATM   12  C6  UNL     1       1.430  -1.864  -0.519  1.00  0.00     0.216 C 
BRANCH  12  13
HETATM   13  C7  UNL     1       2.670  -1.223  -0.079  1.00  0.00    -0.033 A 
HETATM   14  C8  UNL     1       3.525  -0.489  -0.868  1.00  0.00     0.009 A 
HETATM   15  C9  UNL     1       4.688   0.109  -0.439  1.00  0.00     0.002 A 
HETATM   16  C10 UNL     1       5.059  -0.021   0.899  1.00  0.00     0.019 A 
HETATM   17  C11 UNL     1       4.218  -0.750   1.702  1.00  0.00     0.011 A 
HETATM   18 BR1  UNL     1       4.776  -0.896   3.525  1.00  0.00    -0.051 Br
HETATM   19  C12 UNL     1       3.054  -1.340   1.242  1.00  0.00     0.028 A 
ENDBRANCH  12  13
ENDBRANCH  11  12
ENDBRANCH   4  11
BRANCH   1  20
HETATM   20  O1  UNL     1      -4.286  -0.195   1.274  1.00  0.00    -0.353 OA
HETATM   21  C1  UNL     1      -3.835  -1.431   1.820  1.00  0.00     0.210 C 
ENDBRANCH   1  20
BRANCH  10  22
HETATM   22  O3  UNL     1      -5.050   2.217   0.150  1.00  0.00    -0.238 OA
HETATM   23 CL1  UNL     1      -6.134   1.384   1.206  1.00  0.00     0.067 Cl
ENDBRANCH  10  22
TORSDOF 5
