REMARK  4 active torsions:
REMARK  status: ('A' for Active; 'I' for Inactive)
REMARK    1  A    between atoms: O1_2  and  C2_3 
REMARK    2  A    between atoms: C7_9  and  O2_10 
REMARK    3  A    between atoms: O2_10  and  C8_11 
REMARK    4  A    between atoms: C14_18  and  O3_19 
ROOT
HETATM    1  C2  UNL     1      -2.376  -1.075  -0.290  1.00  0.00     0.075 C 
HETATM    2  C3  UNL     1      -1.480  -1.329  -1.270  1.00  0.00     0.010 C 
HETATM    3  C4  UNL     1      -0.024  -1.134  -1.171  1.00  0.00     0.024 C 
HETATM    4  B1  UNL     1       0.497   0.123  -2.427  1.00  0.00     0.187 B 
HETATM    5  C5  UNL     1      -0.560   1.717  -1.031  1.00  0.00    -0.074 C 
HETATM    6  C6  UNL     1      -0.684   0.506  -0.157  1.00  0.00    -0.008 C 
HETATM    7  C7  UNL     1       0.386  -0.263  -0.009  1.00  0.00     0.060 C 
HETATM    8  C14 UNL     1      -2.011   0.154   0.521  1.00  0.00     0.211 C 
ENDROOT
BRANCH   7   9
HETATM    9  O2  UNL     1       1.594  -0.663   0.602  1.00  0.00    -0.315 OA
BRANCH   9  10
HETATM   10  C8  UNL     1       2.803  -0.055   0.540  1.00  0.00     0.076 A 
HETATM   11  C9  UNL     1       3.231   1.101  -0.111  1.00  0.00     0.037 A 
HETATM   12  C10 UNL     1       4.522   1.531  -0.031  1.00  0.00     0.004 A 
HETATM   13  C11 UNL     1       5.477   0.849   0.696  1.00  0.00     0.019 A 
HETATM   14  C12 UNL     1       5.078  -0.299   1.350  1.00  0.00     0.013 A 
HETATM   15 BR1  UNL     1       6.432  -1.202   2.338  1.00  0.00    -0.051 Br
HETATM   16  C13 UNL     1       3.765  -0.745   1.275  1.00  0.00     0.056 A 
ENDBRANCH   9  10
ENDBRANCH   7   9
BRANCH   8  17
HETATM   17  O3  UNL     1      -2.938   1.136   0.426  1.00  0.00    -0.379 OA
HETATM   18  C15 UNL     1      -3.560   1.516   1.595  1.00  0.00     0.202 C 
ENDBRANCH   8  17
BRANCH   1  19
HETATM   19  O1  UNL     1      -3.443  -1.995  -0.233  1.00  0.00    -0.358 OA
HETATM   20  C1  UNL     1      -4.424  -1.842  -1.260  1.00  0.00     0.209 C 
ENDBRANCH   1  19
TORSDOF 4
