REMARK  4 active torsions:
REMARK  status: ('A' for Active; 'I' for Inactive)
REMARK    1  A    between atoms: O1_2  and  C2_3 
REMARK    2  A    between atoms: C6_9  and  O2_10 
REMARK    3  A    between atoms: O2_10  and  C7_11 
REMARK    4  A    between atoms: C14_19  and  O3_20 
ROOT
HETATM    1  C2  UNL     1      -2.894  -0.516  -0.229  1.00  0.00     0.103 A 
HETATM    2  C3  UNL     1      -2.231  -1.351  -1.142  1.00  0.00     0.070 A 
HETATM    3  C4  UNL     1      -0.837  -1.435  -1.287  1.00  0.00     0.049 A 
HETATM    4  N1  UNL     1      -0.653  -2.364  -2.240  1.00  0.00    -0.356 NA
HETATM    5  B1  UNL     1       1.219  -1.318  -3.007  1.00  0.00     0.337 B 
HETATM    6  C5  UNL     1       1.980  -1.355  -1.430  1.00  0.00    -0.020 C 
HETATM    7  C6  UNL     1       1.303  -0.554  -0.495  1.00  0.00     0.076 C 
HETATM    8  C12 UNL     1      -0.099  -0.606  -0.441  1.00  0.00     0.026 A 
HETATM    9  C13 UNL     1      -0.770   0.206   0.449  1.00  0.00     0.056 A 
HETATM   10  C14 UNL     1      -2.132   0.289   0.593  1.00  0.00     0.102 A 
ENDROOT
BRANCH   7  11
HETATM   11  O2  UNL     1       1.958   0.311   0.409  1.00  0.00    -0.310 OA
BRANCH  11  12
HETATM   12  C7  UNL     1       3.338   0.418   0.421  1.00  0.00     0.088 C 
HETATM   13  C8  UNL     1       4.313  -0.439   0.538  1.00  0.00     0.012 C 
HETATM   14  C9  UNL     1       5.484  -0.036   0.092  1.00  0.00     0.034 C 
HETATM   15  C10 UNL     1       5.357   1.429   0.086  1.00  0.00     0.014 C 
HETATM   16 BR1  UNL     1       6.833   2.611  -0.166  1.00  0.00    -0.051 Br
HETATM   17  C11 UNL     1       4.058   1.688   0.285  1.00  0.00     0.057 C 
ENDBRANCH  11  12
ENDBRANCH   7  11
BRANCH  10  18
HETATM   18  O3  UNL     1      -2.701   1.129   1.507  1.00  0.00    -0.353 OA
HETATM   19  C15 UNL     1      -2.045   1.982   2.384  1.00  0.00     0.210 C 
ENDBRANCH  10  18
BRANCH   1  20
HETATM   20  O1  UNL     1      -4.269  -0.423  -0.075  1.00  0.00    -0.353 OA
HETATM   21  C1  UNL     1      -5.170  -1.197  -0.858  1.00  0.00     0.210 C 
ENDBRANCH   1  20
TORSDOF 4
