REMARK  5 active torsions:
REMARK  status: ('A' for Active; 'I' for Inactive)
REMARK    1  A    between atoms: O1_2  and  C2_3 
REMARK    2  A    between atoms: C7_8  and  O2_9 
REMARK    3  A    between atoms: C9_11  and  O3_12 
REMARK    4  A    between atoms: O3_12  and  C10_13 
REMARK    5  A    between atoms: C10_13  and  C11_14 
ROOT
HETATM    1  C2  UNL     1       3.859   0.300  -0.068  1.00  0.00     0.103 A 
HETATM    2  C3  UNL     1       3.534  -0.847   0.629  1.00  0.00     0.071 A 
HETATM    3  C4  UNL     1       2.233  -1.254   0.812  1.00  0.00     0.067 A 
HETATM    4  C5  UNL     1       1.209  -0.492   0.281  1.00  0.00     0.026 A 
HETATM    5  C6  UNL     1       1.537   0.667  -0.424  1.00  0.00     0.056 A 
HETATM    6  C7  UNL     1       2.843   1.070  -0.605  1.00  0.00     0.102 A 
HETATM    7  C9  UNL     1       0.064  -1.107   0.602  1.00  0.00     0.079 A 
HETATM    8  C16 UNL     1       0.363  -2.334   1.384  1.00  0.00     0.214 A 
HETATM    9  N1  UNL     1       1.815  -2.297   1.440  1.00  0.00    -0.282 NA
ENDROOT
BRANCH   7  10
HETATM   10  O3  UNL     1      -1.139  -0.551   0.189  1.00  0.00    -0.348 OA
BRANCH  10  11
HETATM   11  C10 UNL     1      -2.339  -1.296   0.213  1.00  0.00     0.211 C 
BRANCH  11  12
HETATM   12  C11 UNL     1      -3.496  -0.498  -0.271  1.00  0.00    -0.034 A 
HETATM   13  C12 UNL     1      -4.484  -0.329   0.580  1.00  0.00     0.015 A 
HETATM   14 BR1  UNL     1      -4.366  -1.095   2.322  1.00  0.00    -0.051 Br
HETATM   15  C13 UNL     1      -5.710   0.415   0.316  1.00  0.00     0.020 A 
HETATM   16  C14 UNL     1      -5.876   0.986  -0.882  1.00  0.00     0.005 A 
HETATM   17  P1  UNL     1      -4.686   0.931  -2.276  1.00  0.00    -0.102 P 
HETATM   18  C15 UNL     1      -3.240  -0.065  -1.670  1.00  0.00     0.073 A 
HETATM   19  H13 UNL     1      -5.351   0.295  -3.400  1.00  0.00     0.062 HD
ENDBRANCH  11  12
ENDBRANCH  10  11
ENDBRANCH   7  10
BRANCH   6  20
HETATM   20  O2  UNL     1       3.116   2.240  -1.320  1.00  0.00    -0.353 OA
HETATM   21  C8  UNL     1       2.012   2.961  -1.830  1.00  0.00     0.210 C 
ENDBRANCH   6  20
BRANCH   1  22
HETATM   22  O1  UNL     1       5.145   0.772  -0.293  1.00  0.00    -0.353 OA
HETATM   23  C1  UNL     1       6.296   0.108   0.185  1.00  0.00     0.210 C 
ENDBRANCH   1  22
TORSDOF 5
