REMARK  6 active torsions:
REMARK  status: ('A' for Active; 'I' for Inactive)
REMARK    1  A    between atoms: C6_8  and  O1_9 
REMARK    2  A    between atoms: O1_9  and  C7_10 
REMARK    3  A    between atoms: C7_10  and  O2_11 
REMARK    4  A    between atoms: O2_11  and  C8_12 
REMARK    5  A    between atoms: C8_12  and  O3_13 
REMARK    6  A    between atoms: O3_13  and  C9_14 
ROOT
HETATM    1  O1  UNL     1      -0.981  -0.605   0.089  1.00  0.00    -0.353 OA
ENDROOT
BRANCH   1   2
HETATM    2  C6  UNL     1      -1.762   0.427   0.548  1.00  0.00     0.184 A 
HETATM    3  C5  UNL     1      -3.206   0.238   0.318  1.00  0.00     0.021 A 
HETATM    4  C1  UNL     1      -4.093   0.108  -0.704  1.00  0.00     0.023 A 
HETATM    5  C4  UNL     1      -3.827   0.178   1.569  1.00  0.00     0.066 A 
HETATM    6 BR1  UNL     1      -3.415   0.168  -2.483  1.00  0.00    -0.050 Br
HETATM    7  C2  UNL     1      -5.455  -0.064  -0.583  1.00  0.00     0.039 A 
HETATM    8  C3  UNL     1      -5.992  -0.113   0.686  1.00  0.00     0.118 A 
HETATM    9  N1  UNL     1      -5.162   0.010   1.749  1.00  0.00    -0.261 NA
HETATM   10  C16 UNL     1      -2.860   0.319   2.640  1.00  0.00     0.031 A 
HETATM   11  C15 UNL     1      -1.693   0.459   2.043  1.00  0.00     0.012 A 
ENDBRANCH   1   2
BRANCH   1  12
HETATM   12  C7  UNL     1      -0.001  -0.104  -0.745  1.00  0.00     0.341 C 
BRANCH  12  13
HETATM   13  O2  UNL     1       0.766  -1.175  -1.188  1.00  0.00    -0.343 OA
BRANCH  13  14
HETATM   14  C8  UNL     1       1.368  -1.856  -0.132  1.00  0.00     0.347 C 
BRANCH  14  15
HETATM   15  O3  UNL     1       2.207  -0.950   0.565  1.00  0.00    -0.326 OA
BRANCH  15  16
HETATM   16  C9  UNL     1       3.241  -0.362  -0.152  1.00  0.00     0.071 A 
HETATM   17  C10 UNL     1       3.594  -0.525  -1.486  1.00  0.00     0.037 A 
HETATM   18  C11 UNL     1       4.675   0.177  -1.975  1.00  0.00     0.003 A 
HETATM   19  C12 UNL     1       5.413   1.033  -1.184  1.00  0.00     0.000 A 
HETATM   20  C13 UNL     1       5.070   1.208   0.162  1.00  0.00     0.003 A 
HETATM   21  C14 UNL     1       3.982   0.498   0.645  1.00  0.00     0.037 A 
ENDBRANCH  15  16
ENDBRANCH  14  15
ENDBRANCH  13  14
ENDBRANCH  12  13
ENDBRANCH   1  12
TORSDOF 6
