REMARK  7 active torsions:
REMARK  status: ('A' for Active; 'I' for Inactive)
REMARK    1  A    between atoms: C2_2  and  C3_3 
REMARK    2  A    between atoms: C3_3  and  C4_4 
REMARK    3  A    between atoms: C6_6  and  C7_7 
REMARK    4  A    between atoms: C7_7  and  O1_8 
REMARK    5  A    between atoms: O1_8  and  C8_9 
REMARK    6  A    between atoms: C11_12  and  O2_13 
REMARK    7  A    between atoms: C13_15  and  O3_16 
ROOT
HETATM    1  C8  UNL     1       0.964   1.091  -0.827  1.00  0.00     0.071 C 
HETATM    2  C9  UNL     1       1.803   0.084  -0.945  1.00  0.00    -0.019 C 
HETATM    3  C10 UNL     1       2.058  -1.205  -0.300  1.00  0.00     0.049 C 
HETATM    4  C11 UNL     1       3.305  -1.276   0.296  1.00  0.00     0.104 C 
HETATM    5  C13 UNL     1       4.181  -0.023   0.230  1.00  0.00     0.124 C 
HETATM    6  C15 UNL     1       3.545   0.938  -0.440  1.00  0.00     0.046 C 
HETATM    7  C16 UNL     1       3.017   0.464  -1.861  1.00  0.00     0.101 C 
HETATM    8  N1  UNL     1       2.994   2.244  -0.234  1.00  0.00    -0.384 N 
HETATM    9  C17 UNL     1       1.644   2.481  -0.863  1.00  0.00     0.184 C 
HETATM   10  H23 UNL     1       3.795   2.655   0.375  1.00  0.00     0.159 HD
ENDROOT
BRANCH   1  11
HETATM   11  O1  UNL     1      -0.228   0.311  -0.714  1.00  0.00    -0.349 OA
BRANCH  11  12
HETATM   12  C7  UNL     1      -1.190   0.832   0.191  1.00  0.00     0.203 C 
BRANCH  12  13
HETATM   13  C6  UNL     1      -2.410  -0.042   0.253  1.00  0.00     0.002 C 
HETATM   14  C4  UNL     1      -3.744   0.041   0.020  1.00  0.00    -0.086 C 
HETATM   15  C5  UNL     1      -4.253   1.354  -0.451  1.00  0.00     0.043 C 
BRANCH  14  16
HETATM   16  C3  UNL     1      -4.542  -1.174   0.246  1.00  0.00     0.033 C 
BRANCH  16  17
HETATM   17  C2  UNL     1      -5.614  -1.088   1.268  1.00  0.00    -0.000 C 
HETATM   18  C1  UNL     1      -6.657  -0.049   0.944  1.00  0.00     0.005 C 
ENDBRANCH  16  17
ENDBRANCH  14  16
ENDBRANCH  12  13
ENDBRANCH  11  12
ENDBRANCH   1  11
BRANCH   4  19
HETATM   19  O2  UNL     1       3.885  -2.312   0.948  1.00  0.00    -0.353 OA
HETATM   20  C12 UNL     1       4.095  -3.516   0.197  1.00  0.00     0.210 C 
ENDBRANCH   4  19
BRANCH   5  21
HETATM   21  O3  UNL     1       5.358   0.552   0.579  1.00  0.00    -0.351 OA
HETATM   22  C14 UNL     1       5.788   0.717   1.914  1.00  0.00     0.210 C 
ENDBRANCH   5  21
TORSDOF 7
