REMARK  2 active torsions:
REMARK  status: ('A' for Active; 'I' for Inactive)
REMARK    1  A    between atoms: C2_2  and  C3_3 
REMARK    2  A    between atoms: C9_10  and  O1_11 
ROOT
HETATM    1  C3  UNL     1       1.523   0.660  -0.024  1.00  0.00    -0.071 C 
HETATM    2  C4  UNL     1       1.323  -0.031  -1.178  1.00  0.00     0.006 C 
HETATM    3  C5  UNL     1       0.425  -1.215  -1.349  1.00  0.00     0.033 C 
HETATM    4  C6  UNL     1      -0.416  -1.639  -0.415  1.00  0.00     0.069 A 
HETATM    5  C7  UNL     1      -0.201  -2.123   0.995  1.00  0.00     0.083 A 
HETATM    6  N1  UNL     1      -1.047  -2.569   1.846  1.00  0.00    -0.255 NA
HETATM    7  C8  UNL     1      -2.450  -2.632   1.486  1.00  0.00     0.173 A 
HETATM    8  C9  UNL     1      -2.877  -2.229   0.279  1.00  0.00     0.164 A 
HETATM    9  N2  UNL     1      -1.800  -1.786  -0.505  1.00  0.00    -0.300 N 
HETATM   10  C10 UNL     1      -2.175  -1.031  -1.655  1.00  0.00     0.099 C 
HETATM   11  C11 UNL     1      -1.864   0.268  -1.614  1.00  0.00     0.017 C 
HETATM   12  C12 UNL     1      -1.325   1.477  -1.056  1.00  0.00    -0.001 C 
HETATM   13  C13 UNL     1      -0.686   2.059  -0.018  1.00  0.00    -0.010 C 
HETATM   14  C14 UNL     1      -0.023   1.886   1.395  1.00  0.00     0.092 C 
HETATM   15 BR1  UNL     1      -1.487   1.763   2.627  1.00  0.00    -0.086 Br
HETATM   16  C15 UNL     1       0.639   0.631   1.212  1.00  0.00     0.055 C 
HETATM   17  C16 UNL     1       1.079  -0.430   2.116  1.00  0.00    -0.014 C 
HETATM   18  C17 UNL     1       1.086  -1.830   1.774  1.00  0.00     0.030 C 
ENDROOT
BRANCH   1  19
HETATM   19  C2  UNL     1       2.697   1.537   0.097  1.00  0.00     0.030 C 
HETATM   20  C1  UNL     1       3.558   1.556  -1.119  1.00  0.00     0.010 C 
ENDBRANCH   1  19
BRANCH   8  21
HETATM   21  O1  UNL     1      -4.200  -2.255  -0.115  1.00  0.00    -0.345 OA
HETATM   22  H9  UNL     1      -4.601  -1.539  -0.685  1.00  0.00     0.219 HD
ENDBRANCH   8  21
TORSDOF 2
