REMARK  5 active torsions:
REMARK  status: ('A' for Active; 'I' for Inactive)
REMARK    1  A    between atoms: C3_3  and  C4_4 
REMARK    2  A    between atoms: C3_3  and  N1_8 
REMARK    3  A    between atoms: N1_8  and  P1_9 
REMARK    4  A    between atoms: C11_15  and  O1_16 
REMARK    5  A    between atoms: C13_18  and  O2_19 
ROOT
HETATM    1  P1  UNL     1      -1.093  -1.215  -0.419  1.00  0.00    -0.005 P 
HETATM    2  C7  UNL     1      -1.875  -0.703  -1.970  1.00  0.00     0.042 C 
HETATM    3  C8  UNL     1      -1.207   0.059  -2.808  1.00  0.00     0.119 C 
HETATM    4  N2  UNL     1       0.104   0.527  -2.643  1.00  0.00    -0.264 NA
HETATM    5  C9  UNL     1       0.853   0.224  -1.612  1.00  0.00     0.050 C 
HETATM    6  C10 UNL     1       2.118   0.934  -1.792  1.00  0.00     0.068 C 
HETATM    7  C11 UNL     1       2.837   0.973  -0.652  1.00  0.00     0.103 C 
HETATM    8  C13 UNL     1       2.470   0.291   0.587  1.00  0.00     0.099 C 
HETATM    9  C15 UNL     1       1.383  -0.494   0.654  1.00  0.00     0.030 C 
HETATM   10  C16 UNL     1       0.586  -0.706  -0.524  1.00  0.00     0.109 C 
HETATM   11  H9  UNL     1      -1.193  -2.613  -0.280  1.00  0.00     0.081 HD
ENDROOT
BRANCH   1  12
HETATM   12  N1  UNL     1      -1.884  -0.550   0.802  1.00  0.00    -0.266 NA
BRANCH  12  13
HETATM   13  C3  UNL     1      -3.210  -0.101   0.565  1.00  0.00     0.052 C 
HETATM   14  C2  UNL     1      -4.084  -1.086   0.398  1.00  0.00     0.000 C 
HETATM   15  C1  UNL     1      -3.800  -2.523   0.441  1.00  0.00     0.038 C 
BRANCH  13  16
HETATM   16  C4  UNL     1      -3.604   1.300   0.503  1.00  0.00     0.045 C 
HETATM   17  C5  UNL     1      -2.808   2.325   0.669  1.00  0.00    -0.013 C 
HETATM   18  C6  UNL     1      -1.376   2.217   0.949  1.00  0.00     0.056 C 
HETATM   19 BR1  UNL     1      -3.514   4.105   0.548  1.00  0.00    -0.056 Br
ENDBRANCH  13  16
ENDBRANCH  12  13
ENDBRANCH   1  12
BRANCH   8  20
HETATM   20  O2  UNL     1       3.173   0.376   1.779  1.00  0.00    -0.353 OA
HETATM   21  C14 UNL     1       3.453  -0.812   2.487  1.00  0.00     0.210 C 
ENDBRANCH   8  20
BRANCH   7  22
HETATM   22  O1  UNL     1       4.075   1.628  -0.506  1.00  0.00    -0.353 OA
HETATM   23  C12 UNL     1       5.289   0.899  -0.580  1.00  0.00     0.210 C 
ENDBRANCH   7  22
TORSDOF 5
