REMARK  3 active torsions:
REMARK  status: ('A' for Active; 'I' for Inactive)
REMARK    1  A    between atoms: O1_2  and  C2_3 
REMARK    2  A    between atoms: C5_6  and  N1_7 
REMARK    3  A    between atoms: N1_7  and  C6_8 
ROOT
HETATM    1  C2  UNL     1      -2.875   0.042   0.657  1.00  0.00     0.075 A 
HETATM    2  C3  UNL     1      -1.511  -0.007   0.469  1.00  0.00     0.053 A 
HETATM    3  C4  UNL     1      -0.845   0.487  -0.628  1.00  0.00     0.022 A 
HETATM    4  C5  UNL     1       0.512   0.442  -0.822  1.00  0.00     0.046 A 
HETATM    5  C12 UNL     1       0.927   1.006  -2.003  1.00  0.00     0.049 A 
HETATM    6  C13 UNL     1       0.136   1.588  -2.969  1.00  0.00     0.119 A 
HETATM    7  N2  UNL     1      -1.208   1.611  -2.734  1.00  0.00    -0.260 NA
HETATM    8  C14 UNL     1      -1.662   1.060  -1.571  1.00  0.00     0.069 A 
HETATM    9  C15 UNL     1      -3.032   1.134  -1.429  1.00  0.00     0.042 A 
HETATM   10  C16 UNL     1      -3.663   0.626  -0.313  1.00  0.00    -0.026 A 
HETATM   11  C17 UNL     1      -5.126   0.688  -0.131  1.00  0.00     0.051 C 
ENDROOT
BRANCH   4  12
HETATM   12  N1  UNL     1       1.325  -0.160   0.144  1.00  0.00    -0.355 N 
HETATM   13  H5  UNL     1       0.949  -0.536   1.031  1.00  0.00     0.166 HD
BRANCH  12  14
HETATM   14  C6  UNL     1       2.718  -0.408   0.193  1.00  0.00     0.033 A 
HETATM   15  C7  UNL     1       3.477  -0.807  -0.881  1.00  0.00     0.029 A 
HETATM   16  C8  UNL     1       4.836  -1.031  -0.879  1.00  0.00     0.004 A 
HETATM   17  C9  UNL     1       5.518  -0.842   0.305  1.00  0.00     0.019 A 
HETATM   18  C10 UNL     1       4.850  -0.445   1.430  1.00  0.00     0.013 A 
HETATM   19 BR1  UNL     1       5.784  -0.184   3.062  1.00  0.00    -0.051 Br
HETATM   20  C11 UNL     1       3.496  -0.244   1.343  1.00  0.00     0.048 A 
ENDBRANCH  12  14
ENDBRANCH   4  12
BRANCH   1  21
HETATM   21  O1  UNL     1      -3.492  -0.475   1.787  1.00  0.00    -0.355 OA
HETATM   22  C1  UNL     1      -2.744  -1.093   2.832  1.00  0.00     0.210 C 
ENDBRANCH   1  21
TORSDOF 3
