REMARK  7 active torsions:
REMARK  status: ('A' for Active; 'I' for Inactive)
REMARK    1  A    between atoms: O1_2  and  C2_3 
REMARK    2  A    between atoms: C2_3  and  C3_4 
REMARK    3  A    between atoms: C3_4  and  O2_22 
REMARK    4  A    between atoms: C4_5  and  C5_6 
REMARK    5  A    between atoms: C6_7  and  N1_8 
REMARK    6  A    between atoms: N1_8  and  C7_9 
REMARK    7  A    between atoms: C15_19  and  S1_20 
ROOT
HETATM    1  C5  UNL     1       0.035   1.500  -0.076  1.00  0.00     0.029 A 
HETATM    2  C6  UNL     1       1.287   0.933  -0.153  1.00  0.00     0.047 A 
HETATM    3  C13 UNL     1       2.337   1.576  -0.767  1.00  0.00     0.050 A 
HETATM    4  C14 UNL     1       2.020   2.811  -1.283  1.00  0.00     0.120 A 
HETATM    5  N2  UNL     1       0.820   3.412  -1.237  1.00  0.00    -0.253 NA
HETATM    6  C15 UNL     1      -0.196   2.770  -0.633  1.00  0.00     0.105 A 
ENDROOT
BRANCH   2   7
HETATM    7  N1  UNL     1       1.557  -0.324   0.438  1.00  0.00    -0.355 N 
HETATM    8  H7  UNL     1       0.937  -1.009   0.917  1.00  0.00     0.166 HD
BRANCH   7   9
HETATM    9  C7  UNL     1       2.784  -0.996   0.541  1.00  0.00     0.033 A 
HETATM   10  C8  UNL     1       3.804  -0.182   1.028  1.00  0.00     0.029 A 
HETATM   11  C9  UNL     1       5.092  -0.683   1.180  1.00  0.00     0.004 A 
HETATM   12  C10 UNL     1       5.430  -1.993   0.865  1.00  0.00     0.019 A 
HETATM   13  C11 UNL     1       4.397  -2.786   0.382  1.00  0.00     0.013 A 
HETATM   14 BR1  UNL     1       4.685  -4.618  -0.103  1.00  0.00    -0.051 Br
HETATM   15  C12 UNL     1       3.114  -2.301   0.225  1.00  0.00     0.048 A 
ENDBRANCH   7   9
ENDBRANCH   2   7
BRANCH   1  16
HETATM   16  C4  UNL     1      -1.091   0.836   0.513  1.00  0.00     0.051 C 
HETATM   17  C3  UNL     1      -1.817  -0.256   0.621  1.00  0.00     0.070 C 
BRANCH  17  18
HETATM   18  C2  UNL     1      -3.025  -0.585   1.409  1.00  0.00     0.231 C 
BRANCH  18  19
HETATM   19  O1  UNL     1      -4.035  -0.935   0.526  1.00  0.00    -0.390 OA
HETATM   20  C1  UNL     1      -5.215  -1.259   1.213  1.00  0.00     0.201 C 
ENDBRANCH  18  19
ENDBRANCH  17  18
BRANCH  17  21
HETATM   21  O2  UNL     1      -1.543  -1.452  -0.082  1.00  0.00    -0.358 OA
HETATM   22  C17 UNL     1      -1.910  -1.524  -1.457  1.00  0.00     0.209 C 
ENDBRANCH  17  21
ENDBRANCH   1  16
BRANCH   6  23
HETATM   23  S1  UNL     1      -1.825   3.496  -0.509  1.00  0.00    -0.114 SA
HETATM   24  C16 UNL     1      -2.818   2.994  -1.936  1.00  0.00     0.097 C 
ENDBRANCH   6  23
TORSDOF 7
