REMARK  6 active torsions:
REMARK  status: ('A' for Active; 'I' for Inactive)
REMARK    1  A    between atoms: O1_2  and  C2_3 
REMARK    2  A    between atoms: C7_9  and  C8_10 
REMARK    3  A    between atoms: C8_10  and  O2_11 
REMARK    4  A    between atoms: O2_11  and  C9_12 
REMARK    5  A    between atoms: C13_17  and  O3_18 
REMARK    6  A    between atoms: C17_22  and  O4_23 
ROOT
HETATM    1  C2  UNL     1       4.346   0.587  -0.366  1.00  0.00     0.103 A 
HETATM    2  C3  UNL     1       3.569   1.284  -1.265  1.00  0.00     0.072 A 
HETATM    3  C4  UNL     1       2.231   0.992  -1.354  1.00  0.00     0.070 A 
HETATM    4  N1  UNL     1       1.499   1.703  -2.259  1.00  0.00    -0.260 NA
HETATM    5  C5  UNL     1       0.183   1.482  -2.415  1.00  0.00     0.118 A 
HETATM    6  C6  UNL     1      -0.442   0.521  -1.649  1.00  0.00     0.029 A 
HETATM    7  C7  UNL     1       0.220  -0.242  -0.711  1.00  0.00    -0.020 A 
HETATM    8  C15 UNL     1       1.584   0.028  -0.591  1.00  0.00     0.004 A 
HETATM    9  C16 UNL     1       2.396  -0.646   0.296  1.00  0.00     0.054 A 
HETATM   10  C17 UNL     1       3.759  -0.380   0.417  1.00  0.00     0.102 A 
ENDROOT
BRANCH   7  11
HETATM   11  C8  UNL     1      -0.298  -1.290   0.173  1.00  0.00     0.215 C 
BRANCH  11  12
HETATM   12  O2  UNL     1      -1.672  -1.480   0.079  1.00  0.00    -0.342 OA
BRANCH  12  13
HETATM   13  C9  UNL     1      -2.680  -0.588   0.334  1.00  0.00     0.119 A 
HETATM   14  C10 UNL     1      -2.823   0.743   0.750  1.00  0.00     0.129 A 
HETATM   15  N2  UNL     1      -4.096   1.106   0.833  1.00  0.00    -0.365 N 
HETATM   16  C11 UNL     1      -4.551   2.423   1.235  1.00  0.00     0.155 C 
HETATM   17  C12 UNL     1      -4.816   0.039   0.478  1.00  0.00     0.129 A 
HETATM   18  C13 UNL     1      -3.981  -1.013   0.167  1.00  0.00     0.118 A 
BRANCH  18  19
HETATM   19  O3  UNL     1      -4.485  -2.244  -0.233  1.00  0.00    -0.352 OA
HETATM   20  C14 UNL     1      -5.850  -2.513  -0.350  1.00  0.00     0.210 C 
ENDBRANCH  18  19
ENDBRANCH  12  13
ENDBRANCH  11  12
ENDBRANCH   7  11
BRANCH  10  21
HETATM   21  O4  UNL     1       4.505  -1.124   1.353  1.00  0.00    -0.353 OA
HETATM   22  C18 UNL     1       3.888  -2.117   2.147  1.00  0.00     0.210 C 
ENDBRANCH  10  21
BRANCH   1  23
HETATM   23  O1  UNL     1       5.709   0.768  -0.163  1.00  0.00    -0.353 OA
HETATM   24  C1  UNL     1       6.512   1.693  -0.845  1.00  0.00     0.210 C 
ENDBRANCH   1  23
TORSDOF 6
