REMARK  5 active torsions:
REMARK  status: ('A' for Active; 'I' for Inactive)
REMARK    1  A    between atoms: O1_2  and  C2_3 
REMARK    2  A    between atoms: C2_3  and  O2_4 
REMARK    3  A    between atoms: O2_4  and  C3_5 
REMARK    4  A    between atoms: C11_16  and  O4_17 
REMARK    5  A    between atoms: O4_17  and  P1_18 
ROOT
HETATM    1  C3  UNL     1      -1.818  -0.285  -0.713  1.00  0.00     0.100 A 
HETATM    2  C4  UNL     1      -2.069  -0.153  -2.082  1.00  0.00     0.067 A 
HETATM    3  O3  UNL     1      -3.474  -0.100  -2.166  1.00  0.00    -0.335 OA
HETATM    4  C5  UNL     1      -4.017  -1.299  -1.476  1.00  0.00     0.323 C 
HETATM    5  N1  UNL     1      -3.131  -2.391  -1.511  1.00  0.00    -0.276 NA
HETATM    6  C6  UNL     1      -1.987  -2.673  -1.090  1.00  0.00     0.111 C 
HETATM    7  C7  UNL     1      -0.630  -2.877  -0.535  1.00  0.00     0.023 C 
HETATM    8  C8  UNL     1      -0.041  -1.887   0.256  1.00  0.00     0.061 A 
HETATM    9  N2  UNL     1       1.313  -2.115   0.756  1.00  0.00    -0.405 N 
HETATM   10  C9  UNL     1       1.623  -0.766   1.113  1.00  0.00     0.145 C 
HETATM   11  C10 UNL     1       2.987  -0.392   1.472  1.00  0.00     0.030 C 
HETATM   12  C11 UNL     1       3.194   0.563   0.534  1.00  0.00     0.076 C 
HETATM   13  C12 UNL     1       2.589   1.266  -0.636  1.00  0.00    -0.032 C 
HETATM   14  C13 UNL     1       3.666   2.293  -0.920  1.00  0.00     0.050 C 
HETATM   15  C14 UNL     1       1.461   1.200  -1.350  1.00  0.00    -0.016 C 
HETATM   16  C15 UNL     1       0.177   1.009  -2.041  1.00  0.00     0.042 C 
HETATM   17  C16 UNL     1      -0.547  -0.222  -1.886  1.00  0.00     0.081 A 
HETATM   18  C17 UNL     1      -0.782  -0.856  -0.571  1.00  0.00     0.111 A 
HETATM   19  C18 UNL     1      -1.032  -0.718   0.597  1.00  0.00     0.023 A 
HETATM   20  H10 UNL     1       1.527  -3.103   0.668  1.00  0.00     0.154 HD
ENDROOT
BRANCH   1  21
HETATM   21  O2  UNL     1      -2.677   0.207   0.346  1.00  0.00    -0.351 OA
BRANCH  21  22
HETATM   22  C2  UNL     1      -2.938   1.560   0.532  1.00  0.00     0.338 C 
BRANCH  22  23
HETATM   23  O1  UNL     1      -3.886   1.761   1.552  1.00  0.00    -0.372 OA
HETATM   24  C1  UNL     1      -3.489   1.267   2.765  1.00  0.00     0.204 C 
ENDBRANCH  22  23
ENDBRANCH  21  22
ENDBRANCH   1  21
BRANCH  12  25
HETATM   25  O4  UNL     1       4.451   0.807   1.013  1.00  0.00    -0.330 OA
BRANCH  25  26
HETATM   26  P1  UNL     1       5.966   0.158   0.525  1.00  0.00     0.009 P 
HETATM   27  H14 UNL     1       6.852   1.121  -0.070  1.00  0.00     0.085 HD
HETATM   28  H15 UNL     1       5.869  -1.094  -0.160  1.00  0.00     0.085 HD
ENDBRANCH  25  26
ENDBRANCH  12  25
TORSDOF 5
