REMARK  5 active torsions:
REMARK  status: ('A' for Active; 'I' for Inactive)
REMARK    1  A    between atoms: O1_2  and  C2_3 
REMARK    2  A    between atoms: C4_5  and  O2_6 
REMARK    3  A    between atoms: C6_8  and  C7_9 
REMARK    4  A    between atoms: C8_10  and  S1_11 
REMARK    5  A    between atoms: C15_20  and  O3_21 
ROOT
HETATM    1  C2  UNL     1      -1.102   0.027  -1.131  1.00  0.00     0.080 C 
HETATM    2  C3  UNL     1       0.101   0.593  -1.387  1.00  0.00     0.076 C 
HETATM    3  C4  UNL     1       1.427   0.687  -0.728  1.00  0.00     0.097 C 
HETATM    4  C6  UNL     1       1.834   0.456   0.551  1.00  0.00     0.066 C 
HETATM    5  N1  UNL     1       1.251  -0.103   1.784  1.00  0.00    -0.357 N 
HETATM    6  C10 UNL     1      -0.040  -0.693   1.718  1.00  0.00     0.015 C 
HETATM    7  C11 UNL     1      -0.809  -0.292   2.718  1.00  0.00     0.037 C 
HETATM    8  C12 UNL     1      -2.109  -0.889   2.564  1.00  0.00     0.063 C 
HETATM    9  N2  UNL     1      -2.699  -1.747   1.655  1.00  0.00    -0.272 NA
HETATM   10  C13 UNL     1      -4.046  -2.007   1.964  1.00  0.00     0.108 A 
HETATM   11  C14 UNL     1      -3.992  -1.260   0.836  1.00  0.00     0.140 A 
HETATM   12  C15 UNL     1      -2.961  -0.706  -0.013  1.00  0.00     0.075 C 
HETATM   13  C17 UNL     1      -1.628  -0.818  -0.024  1.00  0.00     0.012 C 
HETATM   14  C18 UNL     1      -0.667  -1.679   0.765  1.00  0.00     0.101 C 
HETATM   15  H13 UNL     1       1.594  -0.111   2.732  1.00  0.00     0.166 HD
ENDROOT
BRANCH   4  16
HETATM   16  C7  UNL     1       3.177   0.856   0.885  1.00  0.00     0.039 C 
HETATM   17  C8  UNL     1       3.791   0.747   2.014  1.00  0.00     0.047 C 
BRANCH  17  18
HETATM   18  S1  UNL     1       5.446   1.280   2.288  1.00  0.00    -0.146 SA
HETATM   19  C9  UNL     1       6.667   0.229   1.461  1.00  0.00     0.095 C 
ENDBRANCH  17  18
ENDBRANCH   4  16
BRANCH   3  20
HETATM   20  O2  UNL     1       2.483   1.077  -1.508  1.00  0.00    -0.354 OA
HETATM   21  C5  UNL     1       2.772   0.506  -2.771  1.00  0.00     0.210 C 
ENDBRANCH   3  20
BRANCH   1  22
HETATM   22  O1  UNL     1      -2.126   0.228  -2.037  1.00  0.00    -0.355 OA
HETATM   23  C1  UNL     1      -1.921   1.036  -3.168  1.00  0.00     0.210 C 
ENDBRANCH   1  22
BRANCH  12  24
HETATM   24  O3  UNL     1      -3.389   0.114  -1.035  1.00  0.00    -0.358 OA
HETATM   25  C16 UNL     1      -4.744   0.241  -1.389  1.00  0.00     0.209 C 
ENDBRANCH  12  24
TORSDOF 5
