REMARK  6 active torsions:
REMARK  status: ('A' for Active; 'I' for Inactive)
REMARK    1  A    between atoms: C2_2  and  C3_3 
REMARK    2  A    between atoms: C8_9  and  N2_10 
REMARK    3  A    between atoms: N2_10  and  C9_11 
REMARK    4  A    between atoms: C12_14  and  O1_15 
REMARK    5  A    between atoms: C14_17  and  O2_18 
REMARK    6  A    between atoms: C18_22  and  O3_23 
ROOT
HETATM    1  C3  UNL     1      -3.824  -0.288   1.349  1.00  0.00    -0.023 A 
HETATM    2  C4  UNL     1      -3.422  -1.560   1.693  1.00  0.00     0.042 A 
HETATM    3  C5  UNL     1      -2.172  -1.968   1.242  1.00  0.00     0.069 A 
HETATM    4  N1  UNL     1      -1.791  -3.212   1.587  1.00  0.00    -0.260 NA
HETATM    5  C6  UNL     1      -0.601  -3.694   1.195  1.00  0.00     0.119 A 
HETATM    6  C7  UNL     1       0.262  -2.902   0.418  1.00  0.00     0.049 A 
HETATM    7  C8  UNL     1      -0.075  -1.628   0.038  1.00  0.00     0.046 A 
HETATM    8  C16 UNL     1      -1.306  -1.185   0.468  1.00  0.00     0.022 A 
HETATM    9  C17 UNL     1      -1.754   0.079   0.152  1.00  0.00     0.053 A 
HETATM   10  C18 UNL     1      -3.001   0.538   0.581  1.00  0.00     0.075 A 
ENDROOT
BRANCH   7  11
HETATM   11  N2  UNL     1       0.789  -0.873  -0.745  1.00  0.00    -0.356 N 
HETATM   12  H9  UNL     1       0.226  -0.588  -1.578  1.00  0.00     0.166 HD
BRANCH  11  13
HETATM   13  C9  UNL     1       2.134  -0.434  -0.699  1.00  0.00     0.045 A 
HETATM   14  C10 UNL     1       2.728  -1.590  -1.067  1.00  0.00     0.030 A 
HETATM   15  C11 UNL     1       4.193  -1.308  -1.072  1.00  0.00     0.037 A 
HETATM   16  C12 UNL     1       4.439  -0.046  -0.723  1.00  0.00     0.080 A 
HETATM   17  C14 UNL     1       3.090   0.640  -0.451  1.00  0.00     0.226 A 
BRANCH  16  18
HETATM   18  O1  UNL     1       5.505   0.848  -0.526  1.00  0.00    -0.357 OA
HETATM   19  C13 UNL     1       6.650   0.397   0.139  1.00  0.00     0.209 C 
ENDBRANCH  16  18
BRANCH  17  20
HETATM   20  O2  UNL     1       2.988   1.715  -1.355  1.00  0.00    -0.378 OA
HETATM   21  C15 UNL     1       3.085   2.938  -0.701  1.00  0.00     0.203 C 
ENDBRANCH  17  20
ENDBRANCH  11  13
ENDBRANCH   7  11
BRANCH  10  22
HETATM   22  O3  UNL     1      -3.478   1.802   0.266  1.00  0.00    -0.355 OA
HETATM   23  C19 UNL     1      -2.833   2.800  -0.456  1.00  0.00     0.210 C 
ENDBRANCH  10  22
BRANCH   1  24
HETATM   24  C2  UNL     1      -5.129   0.264   1.801  1.00  0.00     0.037 C 
HETATM   25  C1  UNL     1      -6.077   0.344   0.635  1.00  0.00     0.010 C 
ENDBRANCH   1  24
TORSDOF 6
