REMARK  5 active torsions:
REMARK  status: ('A' for Active; 'I' for Inactive)
REMARK    1  A    between atoms: O1_2  and  C2_3 
REMARK    2  A    between atoms: C2_3  and  C3_4 
REMARK    3  A    between atoms: C8_9  and  O2_10 
REMARK    4  A    between atoms: C17_21  and  O3_22 
REMARK    5  A    between atoms: C17_21  and  O4_23 
ROOT
HETATM    1  C3  UNL     1       2.483   0.032  -0.794  1.00  0.00     0.001 A 
HETATM    2  C4  UNL     1       1.280   0.435  -0.185  1.00  0.00     0.044 A 
HETATM    3  C5  UNL     1       0.243  -0.461  -0.075  1.00  0.00     0.068 A 
HETATM    4  C6  UNL     1       0.347  -1.775  -0.547  1.00  0.00     0.081 A 
HETATM    5  C7  UNL     1       1.521  -2.149  -1.136  1.00  0.00     0.070 A 
HETATM    6  C8  UNL     1       2.572  -1.263  -1.259  1.00  0.00     0.076 A 
HETATM    7  N1  UNL     1      -0.550  -2.841  -0.426  1.00  0.00    -0.276 NA
HETATM    8  C9  UNL     1      -1.746  -3.001  -0.175  1.00  0.00     0.159 C 
HETATM    9  C10 UNL     1      -3.205  -2.983   0.144  1.00  0.00    -0.001 C 
HETATM   10  C11 UNL     1      -4.243  -2.091   0.311  1.00  0.00    -0.024 C 
HETATM   11  C12 UNL     1      -3.460  -0.912   0.013  1.00  0.00     0.069 C 
HETATM   12  C13 UNL     1      -2.979   0.020   0.963  1.00  0.00     0.008 C 
HETATM   13  C14 UNL     1      -3.008   0.279   2.252  1.00  0.00     0.012 C 
HETATM   14  C15 UNL     1      -1.636   0.597   2.761  1.00  0.00     0.018 C 
HETATM   15  C16 UNL     1      -0.578   0.585   1.917  1.00  0.00     0.097 C 
HETATM   16  N2  UNL     1      -0.778   0.310   0.536  1.00  0.00    -0.295 N 
HETATM   17  C17 UNL     1      -2.051   0.921   0.128  1.00  0.00     0.279 C 
ENDROOT
BRANCH  17  18
HETATM   18  O3  UNL     1      -2.230   0.803  -1.220  1.00  0.00    -0.344 OA
HETATM   19  H17 UNL     1      -2.955   1.392  -1.529  1.00  0.00     0.215 HD
ENDBRANCH  17  18
BRANCH  17  20
HETATM   20  O4  UNL     1      -2.254   2.197   0.548  1.00  0.00    -0.339 OA
HETATM   21  C18 UNL     1      -1.465   3.178   0.028  1.00  0.00     0.208 C 
ENDBRANCH  17  20
BRANCH   1  22
HETATM   22  C2  UNL     1       3.696   0.899  -0.982  1.00  0.00     0.208 C 
BRANCH  22  23
HETATM   23  O1  UNL     1       4.612   0.506  -0.031  1.00  0.00    -0.391 OA
HETATM   24  C1  UNL     1       5.801   1.204  -0.060  1.00  0.00     0.201 C 
ENDBRANCH  22  23
ENDBRANCH   1  22
BRANCH   6  25
HETATM   25  O2  UNL     1       3.764  -1.694  -1.874  1.00  0.00    -0.360 OA
HETATM   26  H8  UNL     1       3.962  -1.328  -2.801  1.00  0.00     0.217 HD
ENDBRANCH   6  25
TORSDOF 5
