REMARK  2 active torsions:
REMARK  status: ('A' for Active; 'I' for Inactive)
REMARK    1  A    between atoms: C9_11  and  N2_12 
REMARK    2  A    between atoms: N2_12  and  C10_13 
ROOT
HETATM    1 BR1  UNL     1       7.021   1.519  -0.143  1.00  0.00    -0.051 Br
HETATM    2  C1  UNL     1       5.368   0.598  -0.077  1.00  0.00     0.011 A 
HETATM    3  C2  UNL     1       5.446  -0.747   0.146  1.00  0.00     0.022 A 
HETATM    4  C3  UNL     1       4.272  -1.469   0.198  1.00  0.00     0.039 A 
HETATM    5  C4  UNL     1       3.040  -0.815   0.024  1.00  0.00     0.086 A 
HETATM    6  C5  UNL     1       2.938   0.531  -0.201  1.00  0.00    -0.005 A 
HETATM    7  C6  UNL     1       4.136   1.245  -0.250  1.00  0.00     0.030 A 
HETATM    8  C7  UNL     1       1.845   1.476  -0.412  1.00  0.00     0.161 C 
HETATM    9  N1  UNL     1       0.527   0.915  -0.411  1.00  0.00    -0.379 N 
HETATM   10  C8  UNL     1       0.005  -0.386  -0.432  1.00  0.00     0.129 A 
HETATM   11  C9  UNL     1      -1.337  -0.475  -0.719  1.00  0.00     0.160 A 
HETATM   12  N3  UNL     1      -1.878  -1.714  -0.740  1.00  0.00    -0.222 NA
HETATM   13  C15 UNL     1      -1.207  -2.851  -0.504  1.00  0.00     0.238 A 
HETATM   14  N4  UNL     1       0.103  -2.776  -0.223  1.00  0.00    -0.215 NA
HETATM   15  C16 UNL     1       0.685  -1.552  -0.193  1.00  0.00     0.202 A 
HETATM   16  O1  UNL     1       2.022  -1.723   0.115  1.00  0.00    -0.289 OA
HETATM   17  H6  UNL     1      -0.193   1.666  -0.382  1.00  0.00     0.160 HD
ENDROOT
BRANCH  11  18
HETATM   18  N2  UNL     1      -2.081   0.721  -1.009  1.00  0.00    -0.339 N 
HETATM   19  H7  UNL     1      -1.752   1.539  -1.584  1.00  0.00     0.167 HD
BRANCH  18  20
HETATM   20  C10 UNL     1      -3.370   0.568  -0.371  1.00  0.00     0.029 A 
HETATM   21  C11 UNL     1      -3.436   0.998   0.900  1.00  0.00     0.006 A 
HETATM   22  C12 UNL     1      -4.809   0.785   1.445  1.00  0.00     0.056 A 
HETATM   23  C13 UNL     1      -5.515   0.170   0.299  1.00  0.00    -0.021 A 
HETATM   24  C14 UNL     1      -4.678   0.052  -0.741  1.00  0.00     0.025 A 
ENDBRANCH  18  20
ENDBRANCH  11  18
TORSDOF 2
