REMARK  7 active torsions:
REMARK  status: ('A' for Active; 'I' for Inactive)
REMARK    1  A    between atoms: O1_2  and  C2_3 
REMARK    2  A    between atoms: C7_9  and  N2_10 
REMARK    3  A    between atoms: N2_10  and  C8_11 
REMARK    4  A    between atoms: C11_14  and  O2_15 
REMARK    5  A    between atoms: C13_17  and  O3_18 
REMARK    6  A    between atoms: O3_18  and  S1_19 
REMARK    7  A    between atoms: C17_23  and  O4_24 
ROOT
HETATM    1  C2  UNL     1      -4.487  -0.345  -0.086  1.00  0.00     0.103 A 
HETATM    2  C3  UNL     1      -3.927  -1.606  -0.051  1.00  0.00     0.072 A 
HETATM    3  C4  UNL     1      -2.561  -1.780  -0.007  1.00  0.00     0.071 A 
HETATM    4  N1  UNL     1      -2.171  -3.089   0.024  1.00  0.00    -0.260 NA
HETATM    5  C5  UNL     1      -0.833  -3.358   0.068  1.00  0.00     0.119 A 
HETATM    6  C6  UNL     1       0.021  -2.279   0.079  1.00  0.00     0.049 A 
HETATM    7  C7  UNL     1      -0.322  -0.950   0.050  1.00  0.00     0.046 A 
HETATM    8  C15 UNL     1      -1.675  -0.724   0.005  1.00  0.00     0.022 A 
HETATM    9  C16 UNL     1      -2.279   0.508  -0.031  1.00  0.00     0.055 A 
HETATM   10  C17 UNL     1      -3.636   0.740  -0.075  1.00  0.00     0.102 A 
ENDROOT
BRANCH   7  11
HETATM   11  N2  UNL     1       0.560   0.145   0.046  1.00  0.00    -0.355 N 
HETATM   12  H7  UNL     1       0.237   1.112   0.058  1.00  0.00     0.166 HD
BRANCH  11  13
HETATM   13  C8  UNL     1       1.964   0.216   0.024  1.00  0.00     0.035 A 
HETATM   14  C9  UNL     1       2.777  -0.615  -0.718  1.00  0.00     0.032 A 
HETATM   15  C10 UNL     1       4.154  -0.598  -0.748  1.00  0.00     0.042 A 
HETATM   16  C11 UNL     1       4.802   0.335   0.033  1.00  0.00     0.102 A 
HETATM   17  C13 UNL     1       4.085   1.215   0.812  1.00  0.00     0.119 A 
HETATM   18  C14 UNL     1       2.714   1.125   0.780  1.00  0.00     0.070 A 
BRANCH  16  19
HETATM   19  O2  UNL     1       6.183   0.412   0.054  1.00  0.00    -0.353 OA
HETATM   20  C12 UNL     1       6.989  -0.456  -0.718  1.00  0.00     0.210 C 
ENDBRANCH  16  19
BRANCH  17  21
HETATM   21  O3  UNL     1       4.712   2.163   1.606  1.00  0.00    -0.279 OA
BRANCH  21  22
HETATM   22  S1  UNL     1       5.111   3.761   1.062  1.00  0.00    -0.017 SA
HETATM   23  H13 UNL     1       3.924   4.538   0.972  1.00  0.00     0.134 HD
ENDBRANCH  21  22
ENDBRANCH  17  21
ENDBRANCH  11  13
ENDBRANCH   7  11
BRANCH  10  24
HETATM   24  O4  UNL     1      -4.180   2.000  -0.110  1.00  0.00    -0.353 OA
HETATM   25  C18 UNL     1      -3.437   3.193  -0.104  1.00  0.00     0.210 C 
ENDBRANCH  10  24
BRANCH   1  26
HETATM   26  O1  UNL     1      -5.849  -0.131  -0.130  1.00  0.00    -0.353 OA
HETATM   27  C1  UNL     1      -6.830  -1.114  -0.146  1.00  0.00     0.210 C 
ENDBRANCH   1  26
TORSDOF 7
