REMARK  7 active torsions:
REMARK  status: ('A' for Active; 'I' for Inactive)
REMARK    1  A    between atoms: C2_2  and  O1_3 
REMARK    2  A    between atoms: O1_3  and  C3_4 
REMARK    3  A    between atoms: C5_6  and  C6_7 
REMARK    4  A    between atoms: C11_13  and  O2_14 
REMARK    5  A    between atoms: C12_15  and  O3_16 
REMARK    6  A    between atoms: O3_16  and  N2_17 
REMARK    7  A    between atoms: C17_22  and  O4_23 
ROOT
HETATM    1  C6  UNL     1       0.886  -1.522  -0.309  1.00  0.00    -0.012 A 
HETATM    2  C7  UNL     1       1.116  -2.888  -0.520  1.00  0.00     0.032 A 
HETATM    3  C8  UNL     1       2.352  -3.497  -0.322  1.00  0.00     0.118 A 
HETATM    4  N1  UNL     1       3.383  -2.717   0.098  1.00  0.00    -0.260 NA
HETATM    5  C9  UNL     1       3.194  -1.403   0.310  1.00  0.00     0.070 A 
HETATM    6  C10 UNL     1       4.220  -0.598   0.727  1.00  0.00     0.072 A 
HETATM    7  C11 UNL     1       4.003   0.742   0.929  1.00  0.00     0.103 A 
HETATM    8  C12 UNL     1       2.800   1.368   0.741  1.00  0.00     0.125 A 
HETATM    9  C13 UNL     1       1.763   0.534   0.316  1.00  0.00     0.056 A 
HETATM   10  C14 UNL     1       1.975  -0.811   0.112  1.00  0.00     0.007 A 
ENDROOT
BRANCH   1  11
HETATM   11  C5  UNL     1      -0.477  -1.067  -0.540  1.00  0.00    -0.022 A 
HETATM   12  C4  UNL     1      -1.348  -0.358   0.255  1.00  0.00     0.052 A 
HETATM   13  C3  UNL     1      -2.600  -0.034  -0.218  1.00  0.00     0.102 A 
HETATM   14  C17 UNL     1      -3.057  -0.380  -1.471  1.00  0.00     0.101 A 
HETATM   15  C16 UNL     1      -2.190  -1.091  -2.276  1.00  0.00     0.040 A 
HETATM   16  C15 UNL     1      -0.933  -1.422  -1.815  1.00  0.00     0.015 A 
BRANCH  13  17
HETATM   17  O1  UNL     1      -3.442   0.680   0.617  1.00  0.00    -0.349 OA
BRANCH  17  18
HETATM   18  C2  UNL     1      -3.128   1.106   1.911  1.00  0.00     0.171 C 
HETATM   19  C1  UNL     1      -1.955   2.026   2.016  1.00  0.00     0.034 C 
ENDBRANCH  17  18
ENDBRANCH  13  17
BRANCH  14  20
HETATM   20  O4  UNL     1      -4.335  -0.001  -1.844  1.00  0.00    -0.353 OA
HETATM   21  C18 UNL     1      -4.884  -0.313  -3.109  1.00  0.00     0.210 C 
ENDBRANCH  14  20
ENDBRANCH   1  11
BRANCH   8  22
HETATM   22  O3  UNL     1       2.517   2.708   0.926  1.00  0.00    -0.264 OA
BRANCH  22  23
HETATM   23  N2  UNL     1       3.501   3.556   1.340  1.00  0.00    -0.209 NA
HETATM   24  H11 UNL     1       4.259   3.545   0.632  1.00  0.00     0.150 HD
HETATM   25  H12 UNL     1       3.903   3.277   2.256  1.00  0.00     0.150 HD
ENDBRANCH  22  23
ENDBRANCH   8  22
BRANCH   7  26
HETATM   26  O2  UNL     1       5.081   1.498   1.350  1.00  0.00    -0.358 OA
HETATM   27  H10 UNL     1       5.628   1.132   2.122  1.00  0.00     0.217 HD
ENDBRANCH   7  26
TORSDOF 7
