REMARK  8 active torsions:
REMARK  status: ('A' for Active; 'I' for Inactive)
REMARK    1  A    between atoms: C2_2  and  C3_3 
REMARK    2  A    between atoms: C4_4  and  O1_5 
REMARK    3  A    between atoms: C11_13  and  O2_14 
REMARK    4  A    between atoms: N2_15  and  C12_16 
REMARK    5  A    between atoms: C12_16  and  C14_18 
REMARK    6  A    between atoms: C15_19  and  C16_20 
REMARK    7  A    between atoms: C15_19  and  O4_23 
REMARK    8  A    between atoms: C16_20  and  O3_21 
ROOT
HETATM    1  C3  UNL     1      -3.310   0.025   0.124  1.00  0.00     0.001 C 
HETATM    2  C4  UNL     1      -3.698   1.270   0.261  1.00  0.00     0.076 C 
HETATM    3  C6  UNL     1      -2.892   2.284   0.929  1.00  0.00     0.035 C 
HETATM    4  C7  UNL     1      -1.740   1.850   1.411  1.00  0.00     0.003 C 
HETATM    5  C8  UNL     1      -1.245   0.492   1.341  1.00  0.00     0.135 C 
HETATM    6  C9  UNL     1      -2.000  -0.463   0.450  1.00  0.00     0.169 C 
HETATM    7  N1  UNL     1      -1.926  -1.729   1.181  1.00  0.00    -0.289 NA
HETATM    8  C10 UNL     1      -0.800  -1.908   1.870  1.00  0.00     0.137 C 
HETATM    9  C11 UNL     1       0.399  -0.982   1.994  1.00  0.00     0.258 C 
HETATM   10  N2  UNL     1       0.092   0.170   1.221  1.00  0.00    -0.366 N 
ENDROOT
BRANCH  10  11
HETATM   11  C12 UNL     1       1.027   0.793   0.454  1.00  0.00     0.104 C 
HETATM   12  C13 UNL     1       0.445   1.930  -0.348  1.00  0.00     0.036 C 
BRANCH  11  13
HETATM   13  C14 UNL     1       1.587  -0.164  -0.573  1.00  0.00     0.032 C 
HETATM   14  C15 UNL     1       2.899  -0.449  -0.688  1.00  0.00     0.067 C 
BRANCH  14  15
HETATM   15  C16 UNL     1       3.379  -1.402  -1.722  1.00  0.00     0.231 C 
BRANCH  15  16
HETATM   16  O3  UNL     1       4.032  -2.501  -1.243  1.00  0.00    -0.390 OA
HETATM   17  C17 UNL     1       5.167  -2.251  -0.517  1.00  0.00     0.201 C 
ENDBRANCH  15  16
ENDBRANCH  14  15
BRANCH  14  18
HETATM   18  O4  UNL     1       3.707   0.216   0.222  1.00  0.00    -0.358 OA
HETATM   19  C18 UNL     1       4.362   1.430  -0.021  1.00  0.00     0.209 C 
ENDBRANCH  14  18
ENDBRANCH  11  13
ENDBRANCH  10  11
BRANCH   9  20
HETATM   20  O2  UNL     1       1.556  -1.632   1.686  1.00  0.00    -0.372 OA
HETATM   21  H13 UNL     1       1.458  -2.334   0.984  1.00  0.00     0.212 HD
ENDBRANCH   9  20
BRANCH   1  22
HETATM   22  C2  UNL     1      -4.235  -0.882  -0.536  1.00  0.00     0.002 C 
HETATM   23  C1  UNL     1      -3.970  -2.159  -0.739  1.00  0.00     0.012 C 
ENDBRANCH   1  22
BRANCH   2  24
HETATM   24  O1  UNL     1      -4.955   1.551  -0.268  1.00  0.00    -0.355 OA
HETATM   25  C5  UNL     1      -4.989   2.110  -1.573  1.00  0.00     0.210 C 
ENDBRANCH   2  24
TORSDOF 8
