REMARK  4 active torsions:
REMARK  status: ('A' for Active; 'I' for Inactive)
REMARK    1  A    between atoms: N1_1  and  C1_2 
REMARK    2  A    between atoms: N2_3  and  C2_4 
REMARK    3  A    between atoms: N3_5  and  C3_6 
REMARK    4  A    between atoms: C14_18  and  C15_19 
ROOT
HETATM    1  C3  UNL     1       0.204  -0.484   0.680  1.00  0.00     0.154 C 
HETATM    2  C4  UNL     1       1.368   0.378   0.462  1.00  0.00     0.016 A 
HETATM    3  C5  UNL     1       1.884   0.879   1.478  1.00  0.00     0.020 A 
HETATM    4  C6  UNL     1       1.852   1.340   0.055  1.00  0.00    -0.001 A 
HETATM    5  C7  UNL     1       1.218   0.552  -0.879  1.00  0.00    -0.029 A 
HETATM    6  C8  UNL     1       2.147   2.695  -0.472  1.00  0.00    -0.003 A 
HETATM    7  C9  UNL     1       1.437   3.862  -0.807  1.00  0.00     0.027 A 
HETATM    8  C10 UNL     1       0.194   4.521  -0.796  1.00  0.00    -0.022 A 
HETATM    9  C11 UNL     1      -0.933   3.909  -0.261  1.00  0.00     0.002 A 
HETATM   10  C12 UNL     1      -0.661   2.614   0.238  1.00  0.00     0.066 A 
HETATM   11  C13 UNL     1       0.732   2.602  -0.091  1.00  0.00     0.124 A 
HETATM   12  O1  UNL     1      -1.285   1.480   0.872  1.00  0.00    -0.371 OA
HETATM   13  C14 UNL     1      -1.090   0.205   0.235  1.00  0.00     0.177 C 
ENDROOT
BRANCH   1  14
HETATM   14  N3  UNL     1       0.360  -1.715  -0.004  1.00  0.00    -0.274 NA
HETATM   15  C2  UNL     1       1.541  -2.177  -0.245  1.00  0.00     0.228 C 
BRANCH  15  16
HETATM   16  N2  UNL     1       2.977  -2.075  -0.168  1.00  0.00    -0.238 NA
HETATM   17  C1  UNL     1       3.562  -3.117   0.369  1.00  0.00     0.201 C 
BRANCH  17  18
HETATM   18  N1  UNL     1       4.942  -2.774   0.329  1.00  0.00    -0.394 N 
HETATM   19  H1  UNL     1       5.257  -2.335   1.215  1.00  0.00     0.156 HD
HETATM   20  H2  UNL     1       5.500  -2.984  -0.551  1.00  0.00     0.156 HD
ENDBRANCH  17  18
ENDBRANCH  15  16
ENDBRANCH   1  14
BRANCH  13  21
HETATM   21  C15 UNL     1      -2.256  -0.694   0.406  1.00  0.00     0.152 C 
HETATM   22  C16 UNL     1      -2.099  -1.935  -0.407  1.00  0.00     0.036 C 
HETATM   23  C17 UNL     1      -3.540  -2.240  -0.791  1.00  0.00     0.029 C 
HETATM   24  C18 UNL     1      -4.267  -0.953  -0.574  1.00  0.00     0.168 C 
HETATM   25  O2  UNL     1      -3.365  -0.019  -0.132  1.00  0.00    -0.383 OA
ENDBRANCH  13  21
TORSDOF 4
