REMARK  6 active torsions:
REMARK  status: ('A' for Active; 'I' for Inactive)
REMARK    1  A    between atoms: O1_2  and  C2_3 
REMARK    2  A    between atoms: C5_6  and  C6_7 
REMARK    3  A    between atoms: C6_7  and  N1_8 
REMARK    4  A    between atoms: N1_8  and  C7_9 
REMARK    5  A    between atoms: C18_22  and  C19_23 
REMARK    6  A    between atoms: C19_23  and  O3_24 
ROOT
HETATM    1  N1  UNL     1      -0.095   0.500   0.199  1.00  0.00    -0.386 N 
HETATM    2  H9  UNL     1       0.159   1.540   0.184  1.00  0.00     0.160 HD
ENDROOT
BRANCH   1   3
HETATM    3  C6  UNL     1       0.894  -0.384   0.859  1.00  0.00     0.154 C 
BRANCH   3   4
HETATM    4  C5  UNL     1       2.064   0.375   1.268  1.00  0.00    -0.054 C 
HETATM    5  C4  UNL     1       2.737   1.129   0.179  1.00  0.00     0.065 C 
HETATM    6  C3  UNL     1       4.190   1.020   0.222  1.00  0.00     0.010 C 
HETATM    7  C2  UNL     1       4.866   1.192   1.369  1.00  0.00     0.046 C 
HETATM    8  C20 UNL     1       3.943   1.492   2.528  1.00  0.00     0.100 C 
HETATM    9  C18 UNL     1       2.718   0.631   2.362  1.00  0.00    -0.046 C 
BRANCH   7  10
HETATM   10  O1  UNL     1       6.253   1.041   1.156  1.00  0.00    -0.360 OA
HETATM   11  C1  UNL     1       7.027   0.180   1.942  1.00  0.00     0.209 C 
ENDBRANCH   7  10
BRANCH   9  12
HETATM   12  C19 UNL     1       2.292   0.026   3.623  1.00  0.00     0.199 C 
BRANCH  12  13
HETATM   13  O3  UNL     1       1.217  -0.795   3.620  1.00  0.00    -0.397 OA
HETATM   14  H24 UNL     1       0.980  -1.205   4.473  1.00  0.00     0.209 HD
ENDBRANCH  12  13
ENDBRANCH   9  12
ENDBRANCH   3   4
ENDBRANCH   1   3
BRANCH   1  15
HETATM   15  C7  UNL     1      -1.351   0.321  -0.427  1.00  0.00     0.029 C 
HETATM   16  C8  UNL     1      -0.676  -0.201  -1.439  1.00  0.00     0.048 C 
HETATM   17  C9  UNL     1      -0.023  -0.771  -2.561  1.00  0.00     0.113 C 
HETATM   18  N2  UNL     1      -0.330  -1.307  -3.742  1.00  0.00    -0.294 NA
HETATM   19  C10 UNL     1      -1.701  -1.375  -4.100  1.00  0.00     0.139 C 
HETATM   20  C11 UNL     1      -3.000  -1.597  -4.170  1.00  0.00     0.045 C 
HETATM   21  C12 UNL     1      -4.247  -2.206  -3.542  1.00  0.00     0.181 C 
HETATM   22  O2  UNL     1      -5.132  -1.083  -3.304  1.00  0.00    -0.362 OA
HETATM   23  C13 UNL     1      -5.132  -0.392  -2.121  1.00  0.00     0.141 C 
HETATM   24  C14 UNL     1      -4.957   0.279  -0.938  1.00  0.00    -0.040 C 
HETATM   25  C15 UNL     1      -6.355   0.527  -0.792  1.00  0.00     0.050 C 
HETATM   26  C16 UNL     1      -3.909   0.691  -0.015  1.00  0.00     0.011 C 
HETATM   27  C17 UNL     1      -2.598   0.682   0.139  1.00  0.00     0.030 C 
ENDBRANCH   1  15
TORSDOF 6
