REMARK  4 active torsions:
REMARK  status: ('A' for Active; 'I' for Inactive)
REMARK    1  A    between atoms: O1_2  and  C2_3 
REMARK    2  A    between atoms: C5_6  and  C6_7 
REMARK    3  A    between atoms: C11_14  and  O2_15 
REMARK    4  A    between atoms: C13_17  and  O3_18 
ROOT
HETATM    1  C6  UNL     1       0.943  -0.401   1.852  1.00  0.00     0.080 C 
HETATM    2  C7  UNL     1       0.224  -1.250   2.546  1.00  0.00     0.057 C 
HETATM    3  C8  UNL     1      -1.128  -1.117   3.045  1.00  0.00     0.128 C 
HETATM    4  N1  UNL     1      -2.123  -0.333   3.123  1.00  0.00    -0.223 NA
HETATM    5  S1  UNL     1      -2.086   1.255   2.445  1.00  0.00     0.011 SA
HETATM    6  C9  UNL     1      -2.556   1.248   0.735  1.00  0.00     0.035 A 
HETATM    7  C10 UNL     1      -3.833   1.318   0.233  1.00  0.00     0.060 A 
HETATM    8  C11 UNL     1      -4.119   1.317  -1.111  1.00  0.00     0.102 A 
HETATM    9  C13 UNL     1      -3.032   1.240  -1.977  1.00  0.00     0.102 A 
HETATM   10  C15 UNL     1      -1.749   1.169  -1.476  1.00  0.00     0.050 A 
HETATM   11  C16 UNL     1      -1.472   1.171  -0.104  1.00  0.00    -0.013 A 
HETATM   12  C17 UNL     1      -0.032   1.072   0.255  1.00  0.00     0.215 C 
HETATM   13  O4  UNL     1       0.173   0.738   1.623  1.00  0.00    -0.346 OA
ENDROOT
BRANCH   1  14
HETATM   14  C5  UNL     1       2.301  -0.653   1.414  1.00  0.00    -0.003 A 
HETATM   15  C4  UNL     1       3.032   0.283   0.724  1.00  0.00     0.017 A 
HETATM   16  C3  UNL     1       4.322   0.038   0.295  1.00  0.00     0.037 A 
HETATM   17  C2  UNL     1       4.930  -1.193   0.555  1.00  0.00     0.068 A 
HETATM   18  C19 UNL     1       4.196  -2.129   1.246  1.00  0.00     0.037 A 
HETATM   19  C18 UNL     1       2.912  -1.852   1.660  1.00  0.00     0.017 A 
BRANCH  17  20
HETATM   20  O1  UNL     1       6.231  -1.323   0.073  1.00  0.00    -0.356 OA
HETATM   21  C1  UNL     1       6.923  -2.520   0.283  1.00  0.00     0.210 C 
ENDBRANCH  17  20
ENDBRANCH   1  14
BRANCH   9  22
HETATM   22  O3  UNL     1      -3.324   1.238  -3.327  1.00  0.00    -0.353 OA
HETATM   23  C14 UNL     1      -2.382   1.168  -4.368  1.00  0.00     0.210 C 
ENDBRANCH   9  22
BRANCH   8  24
HETATM   24  O2  UNL     1      -5.408   1.387  -1.601  1.00  0.00    -0.353 OA
HETATM   25  C12 UNL     1      -6.468   1.461  -0.671  1.00  0.00     0.210 C 
ENDBRANCH   8  24
TORSDOF 4
