REMARK  6 active torsions:
REMARK  status: ('A' for Active; 'I' for Inactive)
REMARK    1  A    between atoms: N1_1  and  C1_2 
REMARK    2  A    between atoms: C1_2  and  C2_3 
REMARK    3  A    between atoms: C5_6  and  C6_7 
REMARK    4  A    between atoms: C6_7  and  C7_8 
REMARK    5  A    between atoms: C7_8  and  N2_9 
REMARK    6  A    between atoms: C13_16  and  N4_17 
ROOT
HETATM    1  N2  UNL     1       0.720  -0.372  -1.236  1.00  0.00    -0.358 N 
HETATM    2  C8  UNL     1       0.137  -1.412  -1.866  1.00  0.00     0.103 A 
HETATM    3  C9  UNL     1      -1.101  -1.462  -1.331  1.00  0.00    -0.008 A 
HETATM    4  C10 UNL     1      -1.184  -0.445  -0.404  1.00  0.00     0.040 A 
HETATM    5  C11 UNL     1      -0.019   0.278  -0.329  1.00  0.00     0.032 A 
HETATM    6  C12 UNL     1      -0.385   1.295   0.683  1.00  0.00     0.208 C 
HETATM    7  N3  UNL     1      -1.666   1.891   0.416  1.00  0.00    -0.271 NA
HETATM    8  C13 UNL     1      -2.829   1.649   0.866  1.00  0.00     0.099 C 
HETATM    9  C14 UNL     1      -4.093   1.232   1.495  1.00  0.00     0.087 C 
HETATM   10  C15 UNL     1      -3.791   0.560   2.857  1.00  0.00     0.041 C 
HETATM   11  C16 UNL     1      -3.964  -0.882   2.525  1.00  0.00     0.169 C 
HETATM   12  O1  UNL     1      -4.372  -1.007   1.226  1.00  0.00    -0.383 OA
HETATM   13  C17 UNL     1      -4.941   0.206   0.874  1.00  0.00     0.157 C 
HETATM   14  C18 UNL     1      -5.388   0.349  -0.522  1.00  0.00     0.208 C 
HETATM   15  O2  UNL     1      -5.687  -0.893  -1.163  1.00  0.00    -0.349 OA
HETATM   16  C19 UNL     1      -4.736  -1.868  -1.341  1.00  0.00     0.069 A 
HETATM   17  C20 UNL     1      -4.751  -3.226  -1.534  1.00  0.00     0.037 A 
HETATM   18  C21 UNL     1      -3.625  -4.005  -1.688  1.00  0.00     0.004 A 
HETATM   19  C22 UNL     1      -2.325  -3.546  -1.668  1.00  0.00     0.012 A 
HETATM   20  C23 UNL     1      -2.336  -2.210  -1.476  1.00  0.00    -0.022 A 
HETATM   21  C24 UNL     1      -3.448  -1.392  -1.322  1.00  0.00     0.049 A 
ENDROOT
BRANCH   1  22
HETATM   22  C7  UNL     1       2.042   0.100  -1.440  1.00  0.00     0.130 C 
BRANCH  22  23
HETATM   23  C6  UNL     1       3.069  -0.551  -0.546  1.00  0.00     0.055 C 
BRANCH  23  24
HETATM   24  C5  UNL     1       4.440   0.030  -0.853  1.00  0.00     0.222 C 
HETATM   25  C4  UNL     1       4.469   1.524  -0.617  1.00  0.00     0.038 C 
HETATM   26  C3  UNL     1       5.956   1.800  -0.549  1.00  0.00     0.039 C 
HETATM   27  C2  UNL     1       6.534   0.486  -0.077  1.00  0.00     0.248 C 
HETATM   28  N5  UNL     1       5.438  -0.426   0.071  1.00  0.00     0.094 N 
HETATM   29  H33 UNL     1       5.766  -1.391  -0.149  1.00  0.00     0.316 HD
BRANCH  27  30
HETATM   30  C1  UNL     1       7.234   0.712   1.265  1.00  0.00     0.302 C 
BRANCH  30  31
HETATM   31  N1  UNL     1       6.279   1.206   2.248  1.00  0.00     0.080 N 
HETATM   32  H1  UNL     1       5.825   0.421   2.765  1.00  0.00     0.312 HD
HETATM   33  H2  UNL     1       6.701   1.933   2.889  1.00  0.00     0.312 HD
ENDBRANCH  30  31
ENDBRANCH  27  30
ENDBRANCH  23  24
ENDBRANCH  22  23
ENDBRANCH   1  22
BRANCH   8  34
HETATM   34  N4  UNL     1      -3.072   2.746  -0.057  1.00  0.00    -0.387 N 
HETATM   35  H19 UNL     1      -3.263   3.526  -0.726  1.00  0.00     0.157 HD
HETATM   36  H20 UNL     1      -3.349   3.474  -0.751  1.00  0.00     0.157 HD
ENDBRANCH   8  34
TORSDOF 6
