REMARK  6 active torsions:
REMARK  status: ('A' for Active; 'I' for Inactive)
REMARK    1  A    between atoms: O1_2  and  C2_3 
REMARK    2  A    between atoms: N3_20  and  C16_21 
REMARK    3  A    between atoms: C16_21  and  C17_22 
REMARK    4  A    between atoms: C17_22  and  C19_24 
REMARK    5  A    between atoms: C19_24  and  N4_25 
REMARK    6  A    between atoms: C22_28  and  N5_29 
ROOT
HETATM    1  C2  UNL     1      -2.801   1.432   0.575  1.00  0.00     0.080 C 
HETATM    2  C3  UNL     1      -2.342   0.241   0.887  1.00  0.00     0.044 C 
HETATM    3  C4  UNL     1      -1.746  -0.793   0.056  1.00  0.00     0.078 C 
HETATM    4  C5  UNL     1      -2.101  -0.719  -1.388  1.00  0.00     0.033 C 
HETATM    5  C6  UNL     1      -2.322   0.290  -2.237  1.00  0.00     0.135 C 
HETATM    6  O2  UNL     1      -2.222   1.607  -1.768  1.00  0.00    -0.345 OA
HETATM    7  C7  UNL     1      -2.895   2.168  -0.676  1.00  0.00     0.115 A 
HETATM    8  C8  UNL     1      -3.129   3.638  -0.657  1.00  0.00     0.049 A 
HETATM    9  C9  UNL     1      -4.319   2.714  -0.989  1.00  0.00     0.049 A 
HETATM   10  C10 UNL     1      -2.122  -2.198   0.502  1.00  0.00     0.084 C 
HETATM   11  C11 UNL     1      -1.052  -3.035  -0.148  1.00  0.00     0.015 A 
HETATM   12  C12 UNL     1      -1.131  -4.384  -0.461  1.00  0.00     0.042 A 
HETATM   13  C13 UNL     1      -2.353  -5.167  -0.176  1.00  0.00     0.071 C 
HETATM   14  N1  UNL     1      -0.011  -4.865  -1.029  1.00  0.00    -0.246 NA
HETATM   15  C14 UNL     1       1.068  -4.075  -1.258  1.00  0.00     0.235 A 
HETATM   16  N2  UNL     1       1.083  -2.774  -0.933  1.00  0.00    -0.224 NA
HETATM   17  C15 UNL     1       0.031  -2.177  -0.362  1.00  0.00     0.136 A 
HETATM   18  N3  UNL     1      -0.305  -0.885   0.111  1.00  0.00    -0.348 N 
ENDROOT
BRANCH  18  19
HETATM   19  C16 UNL     1       0.545   0.122   0.594  1.00  0.00     0.132 C 
BRANCH  19  20
HETATM   20  C17 UNL     1       2.011  -0.019   0.398  1.00  0.00     0.028 C 
HETATM   21  C18 UNL     1       2.260  -0.039  -1.091  1.00  0.00     0.013 C 
BRANCH  20  22
HETATM   22  C19 UNL     1       2.779   1.119   1.023  1.00  0.00     0.281 C 
BRANCH  22  23
HETATM   23  N4  UNL     1       4.202   1.031   0.868  1.00  0.00     0.122 N 
HETATM   24  C20 UNL     1       4.834   2.144   1.600  1.00  0.00     0.279 C 
HETATM   25  C21 UNL     1       5.937   2.093   0.565  1.00  0.00     0.098 C 
HETATM   26  C22 UNL     1       4.785   1.585  -0.319  1.00  0.00     0.453 C 
BRANCH  26  27
HETATM   27  N5  UNL     1       5.347   0.659  -1.276  1.00  0.00     0.112 N 
HETATM   28  H30 UNL     1       5.225  -0.307  -0.898  1.00  0.00     0.315 HD
HETATM   29  H31 UNL     1       4.933   0.831  -2.202  1.00  0.00     0.315 HD
ENDBRANCH  26  27
ENDBRANCH  22  23
ENDBRANCH  20  22
ENDBRANCH  19  20
ENDBRANCH  18  19
BRANCH   1  30
HETATM   30  O1  UNL     1      -3.312   2.163   1.664  1.00  0.00    -0.357 OA
HETATM   31  C1  UNL     1      -4.367   1.546   2.405  1.00  0.00     0.209 C 
ENDBRANCH   1  30
TORSDOF 6
