REMARK  8 active torsions:
REMARK  status: ('A' for Active; 'I' for Inactive)
REMARK    1  A    between atoms: C2_2  and  C3_3 
REMARK    2  A    between atoms: C3_3  and  C4_4 
REMARK    3  A    between atoms: C4_4  and  C5_5 
REMARK    4  A    between atoms: C5_5  and  C6_6 
REMARK    5  A    between atoms: C6_6  and  N1_7 
REMARK    6  A    between atoms: N1_7  and  C7_8 
REMARK    7  A    between atoms: N3_13  and  C11_14 
REMARK    8  A    between atoms: C11_14  and  C12_15 
ROOT
HETATM    1  C7  UNL     1      -1.472   0.912   0.651  1.00  0.00     0.312 A 
HETATM    2  N2  UNL     1      -1.585   2.312   0.981  1.00  0.00    -0.257 NA
HETATM    3  C8  UNL     1      -1.910   2.753   2.125  1.00  0.00     0.116 A 
HETATM    4  C9  UNL     1      -2.225   1.988   3.322  1.00  0.00     0.036 A 
HETATM    5  C10 UNL     1      -2.121   0.696   3.093  1.00  0.00     0.091 A 
HETATM    6  N3  UNL     1      -1.740   0.109   1.826  1.00  0.00    -0.351 N 
ENDROOT
BRANCH   1   7
HETATM    7  N1  UNL     1      -0.215   0.684   0.036  1.00  0.00    -0.361 N 
HETATM    8  H8  UNL     1       0.365  -0.022   0.595  1.00  0.00     0.162 HD
BRANCH   7   9
HETATM    9  C6  UNL     1       0.745   0.849  -0.908  1.00  0.00     0.086 C 
BRANCH   9  10
HETATM   10  C5  UNL     1       1.992   0.933  -1.137  1.00  0.00     0.017 C 
BRANCH  10  11
HETATM   11  C4  UNL     1       2.343   1.134  -2.562  1.00  0.00     0.001 C 
BRANCH  11  12
HETATM   12  C3  UNL     1       3.620   1.251  -2.797  1.00  0.00    -0.004 C 
BRANCH  12  13
HETATM   13  C2  UNL     1       5.015   1.389  -3.139  1.00  0.00    -0.026 C 
HETATM   14  C1  UNL     1       6.328   1.491  -3.223  1.00  0.00     0.031 C 
ENDBRANCH  12  13
ENDBRANCH  11  12
ENDBRANCH  10  11
ENDBRANCH   9  10
ENDBRANCH   7   9
ENDBRANCH   1   7
BRANCH   6  15
HETATM   15  C11 UNL     1      -1.599  -1.306   1.804  1.00  0.00     0.140 C 
BRANCH  15  16
HETATM   16  C12 UNL     1      -2.533  -2.119   0.986  1.00  0.00     0.066 A 
HETATM   17  C13 UNL     1      -2.543  -1.872  -0.458  1.00  0.00    -0.015 A 
HETATM   18  C14 UNL     1      -2.110  -2.965  -1.110  1.00  0.00    -0.002 A 
HETATM   19  C15 UNL     1      -1.778  -4.030  -0.150  1.00  0.00     0.015 A 
HETATM   20  C16 UNL     1      -2.024  -3.544   1.086  1.00  0.00    -0.002 A 
HETATM   21 BR1  UNL     1      -1.804  -4.414   2.787  1.00  0.00    -0.055 Br
ENDBRANCH  15  16
ENDBRANCH   6  15
TORSDOF 8
