REMARK  0 active torsions:
REMARK  status: ('A' for Active; 'I' for Inactive)
ROOT
HETATM    1  B1  UNL     1      -0.685   0.705  -0.263  1.00  0.00     0.199 B 
HETATM    2  C1  UNL     1      -0.622   1.546  -1.595  1.00  0.00    -0.024 C 
HETATM    3  C2  UNL     1       0.391   2.653  -1.517  1.00  0.00     0.157 C 
HETATM    4  O1  UNL     1       1.672   2.113  -1.368  1.00  0.00    -0.390 OA
HETATM    5  C3  UNL     1       2.616   3.105  -1.257  1.00  0.00     0.194 C 
HETATM    6  C4  UNL     1       4.006   2.626  -1.162  1.00  0.00     0.201 C 
HETATM    7  O2  UNL     1       4.391   1.802  -0.135  1.00  0.00    -0.349 OA
HETATM    8  C5  UNL     1       3.990   0.563   0.211  1.00  0.00     0.069 A 
HETATM    9  C6  UNL     1       5.090  -0.283   0.004  1.00  0.00     0.037 A 
HETATM   10  C7  UNL     1       5.091  -1.666   0.244  1.00  0.00     0.003 A 
HETATM   11  C8  UNL     1       3.925  -2.273   0.725  1.00  0.00     0.007 A 
HETATM   12  C9  UNL     1       2.839  -1.453   0.932  1.00  0.00    -0.052 A 
HETATM   13  C10 UNL     1       2.890  -0.102   0.682  1.00  0.00     0.044 A 
HETATM   14  C11 UNL     1       1.548  -1.967   1.405  1.00  0.00     0.067 C 
HETATM   15  C12 UNL     1       1.149  -3.186   0.655  1.00  0.00    -0.006 C 
HETATM   16  C13 UNL     1       0.094  -3.065  -0.171  1.00  0.00     0.079 C 
HETATM   17  N1  UNL     1      -0.561  -1.820  -0.285  1.00  0.00    -0.394 N 
HETATM   18  C14 UNL     1      -1.440  -0.673  -0.126  1.00  0.00     0.029 C 
HETATM   19  C15 UNL     1      -2.496  -0.860  -1.181  1.00  0.00     0.104 C 
HETATM   20  N2  UNL     1      -3.602  -0.270  -1.394  1.00  0.00    -0.274 NA
HETATM   21  C16 UNL     1      -4.259   0.787  -0.717  1.00  0.00     0.420 C 
HETATM   22  N3  UNL     1      -4.094   0.659   0.696  1.00  0.00     0.112 N 
HETATM   23  C17 UNL     1      -5.333   0.259   1.347  1.00  0.00     0.277 C 
HETATM   24  C18 UNL     1      -4.480  -0.654   2.221  1.00  0.00     0.066 C 
HETATM   25  C19 UNL     1      -3.598  -0.670   1.017  1.00  0.00     0.228 C 
HETATM   26  C20 UNL     1      -2.119  -0.690   1.225  1.00  0.00     0.061 C 
HETATM   27  H1  UNL     1      -0.245   1.223   0.718  1.00  0.00    -0.023 HD
HETATM   28  H18 UNL     1       0.100  -1.558  -1.082  1.00  0.00     0.159 HD
ENDROOT
TORSDOF 0
