REMARK  2 active torsions:
REMARK  status: ('A' for Active; 'I' for Inactive)
REMARK    1  A    between atoms: C12_15  and  C13_16 
REMARK    2  A    between atoms: C13_16  and  N4_17 
ROOT
HETATM    1  C1  UNL     1      -3.469  -2.062  -0.074  1.00  0.00     0.110 C 
HETATM    2  N1  UNL     1      -4.192  -1.360   0.694  1.00  0.00    -0.257 NA
HETATM    3  C2  UNL     1      -5.545  -1.034   0.591  1.00  0.00     0.227 C 
HETATM    4  N2  UNL     1      -5.440  -0.001  -0.205  1.00  0.00    -0.264 NA
HETATM    5  C3  UNL     1      -4.128   0.413  -0.664  1.00  0.00     0.271 C 
HETATM    6  N3  UNL     1      -3.180   0.526   0.418  1.00  0.00    -0.373 N 
HETATM    7  C4  UNL     1      -1.795   0.619   0.096  1.00  0.00     0.029 C 
HETATM    8  C5  UNL     1      -1.546   1.907   0.396  1.00  0.00     0.034 C 
HETATM    9  C6  UNL     1      -0.618   3.054   0.484  1.00  0.00    -0.049 C 
HETATM   10  C7  UNL     1      -0.472   4.182   1.213  1.00  0.00    -0.007 C 
HETATM   11  C8  UNL     1       0.660   4.363   0.340  1.00  0.00     0.008 A 
HETATM   12  C9  UNL     1       1.660   3.913  -0.617  1.00  0.00     0.020 A 
HETATM   13  C10 UNL     1       0.755   2.992  -0.139  1.00  0.00     0.005 A 
HETATM   14  C11 UNL     1       1.471   1.907   0.775  1.00  0.00     0.022 C 
HETATM   15  C12 UNL     1       1.514   0.608  -0.033  1.00  0.00     0.017 C 
HETATM   16  C17 UNL     1       0.461  -0.320   0.508  1.00  0.00     0.037 C 
HETATM   17  C18 UNL     1      -0.804  -0.329  -0.403  1.00  0.00     0.127 C 
HETATM   18  N5  UNL     1      -1.171  -1.629  -0.745  1.00  0.00    -0.407 N 
HETATM   19  C19 UNL     1      -2.037  -2.439  -0.020  1.00  0.00     0.161 C 
HETATM   20  H5  UNL     1      -3.038   0.582   1.443  1.00  0.00     0.161 HD
HETATM   21  H23 UNL     1      -0.774  -2.007  -1.627  1.00  0.00     0.154 HD
ENDROOT
BRANCH  15  22
HETATM   22  C13 UNL     1       2.901   0.078   0.158  1.00  0.00     0.277 C 
BRANCH  22  23
HETATM   23  N4  UNL     1       3.247  -1.133  -0.514  1.00  0.00     0.088 N 
HETATM   24  C14 UNL     1       4.688  -1.375  -0.254  1.00  0.00     0.274 C 
HETATM   25  C15 UNL     1       4.395  -2.828  -0.191  1.00  0.00     0.060 C 
HETATM   26  C16 UNL     1       2.998  -2.328   0.220  1.00  0.00     0.274 C 
ENDBRANCH  22  23
ENDBRANCH  15  22
TORSDOF 2
