REMARK  5 active torsions:
REMARK  status: ('A' for Active; 'I' for Inactive)
REMARK    1  A    between atoms: N1_1  and  C1_2 
REMARK    2  A    between atoms: C11_14  and  C12_15 
REMARK    3  A    between atoms: C12_15  and  C13_16 
REMARK    4  A    between atoms: C18_21  and  N4_22 
REMARK    5  A    between atoms: C23_27  and  O1_28 
ROOT
HETATM    1  C1  UNL     1      -3.737   0.947   1.513  1.00  0.00     0.102 C 
HETATM    2  N2  UNL     1      -4.230   0.071   0.724  1.00  0.00    -0.229 NA
HETATM    3  C2  UNL     1      -5.627   0.008   0.554  1.00  0.00     0.229 C 
HETATM    4  N3  UNL     1      -5.322   0.573  -0.595  1.00  0.00    -0.271 NA
HETATM    5  C3  UNL     1      -3.919   0.839  -0.856  1.00  0.00     0.068 A 
HETATM    6  C4  UNL     1      -3.750   2.121  -1.539  1.00  0.00     0.042 A 
HETATM    7  C5  UNL     1      -3.410   0.750  -2.172  1.00  0.00     0.030 A 
HETATM    8  C6  UNL     1      -3.320  -0.457  -1.212  1.00  0.00     0.054 A 
HETATM    9  C7  UNL     1      -2.091  -0.674  -0.418  1.00  0.00    -0.041 C 
HETATM   10  C8  UNL     1      -1.630  -0.140   0.727  1.00  0.00    -0.064 C 
HETATM   11  C9  UNL     1      -0.332  -0.463   1.434  1.00  0.00     0.062 C 
HETATM   12  C10 UNL     1       0.736  -0.881   0.519  1.00  0.00    -0.019 C 
HETATM   13  C11 UNL     1       0.958  -1.148  -0.742  1.00  0.00    -0.076 C 
HETATM   14  C22 UNL     1      -0.123  -1.053  -1.763  1.00  0.00     0.070 C 
HETATM   15  C23 UNL     1      -1.350  -1.724  -1.196  1.00  0.00     0.151 C 
HETATM   16  C24 UNL     1      -2.280   0.875   1.558  1.00  0.00     0.112 C 
ENDROOT
BRANCH  13  17
HETATM   17  C12 UNL     1       2.274  -1.562  -1.273  1.00  0.00     0.074 C 
BRANCH  17  18
HETATM   18  C13 UNL     1       3.314  -1.625  -0.224  1.00  0.00    -0.028 A 
HETATM   19  C14 UNL     1       3.769  -2.825   0.328  1.00  0.00     0.010 A 
HETATM   20  C15 UNL     1       4.734  -2.900   1.308  1.00  0.00     0.001 A 
HETATM   21  C16 UNL     1       5.292  -1.736   1.780  1.00  0.00     0.002 A 
HETATM   22  C17 UNL     1       4.856  -0.544   1.248  1.00  0.00     0.030 A 
HETATM   23  C18 UNL     1       3.878  -0.436   0.253  1.00  0.00     0.036 A 
BRANCH  23  24
HETATM   24  N4  UNL     1       3.509   0.856  -0.223  1.00  0.00    -0.380 N 
HETATM   25  C19 UNL     1       3.417   1.766  -1.325  1.00  0.00     0.124 C 
HETATM   26  C20 UNL     1       2.580   2.743  -0.526  1.00  0.00     0.040 C 
HETATM   27  C21 UNL     1       2.947   1.872   0.653  1.00  0.00     0.124 C 
ENDBRANCH  23  24
ENDBRANCH  17  18
ENDBRANCH  13  17
BRANCH  15  28
HETATM   28  O1  UNL     1      -2.115  -2.401  -2.101  1.00  0.00    -0.391 OA
HETATM   29  H26 UNL     1      -2.157  -1.980  -2.994  1.00  0.00     0.210 HD
ENDBRANCH  15  28
BRANCH   1  30
HETATM   30  N1  UNL     1      -4.583   1.860   2.225  1.00  0.00    -0.387 N 
HETATM   31  H1  UNL     1      -4.892   1.458   3.147  1.00  0.00     0.157 HD
HETATM   32  H2  UNL     1      -4.959   2.824   2.042  1.00  0.00     0.157 HD
ENDBRANCH   1  30
TORSDOF 5
