REMARK  6 active torsions:
REMARK  status: ('A' for Active; 'I' for Inactive)
REMARK    1  A    between atoms: N1_1  and  C1_2 
REMARK    2  A    between atoms: N4_10  and  C7_11 
REMARK    3  A    between atoms: C7_11  and  C8_12 
REMARK    4  A    between atoms: C8_12  and  C9_13 
REMARK    5  A    between atoms: C12_16  and  C13_17 
REMARK    6  A    between atoms: C17_21  and  O1_22 
ROOT
HETATM    1  C7  UNL     1      -0.924  -0.299  -0.099  1.00  0.00     0.130 C 
ENDROOT
BRANCH   1   2
HETATM    2  N4  UNL     1      -2.310  -0.200  -0.420  1.00  0.00    -0.341 N 
HETATM    3  C3  UNL     1      -3.390  -0.712   0.194  1.00  0.00     0.145 A 
HETATM    4  N3  UNL     1      -3.372  -1.457   1.287  1.00  0.00    -0.223 NA
HETATM    5  C4  UNL     1      -4.551  -0.348  -0.487  1.00  0.00     0.057 A 
HETATM    6  C2  UNL     1      -4.559  -1.896   1.778  1.00  0.00     0.237 A 
HETATM    7  N2  UNL     1      -5.705  -1.568   1.154  1.00  0.00    -0.224 NA
HETATM    8  C1  UNL     1      -5.738  -0.812   0.042  1.00  0.00     0.136 A 
HETATM    9  C5  UNL     1      -4.097   0.409  -1.538  1.00  0.00     0.036 A 
HETATM   10  C6  UNL     1      -2.723   0.511  -1.512  1.00  0.00     0.093 A 
BRANCH   8  11
HETATM   11  N1  UNL     1      -6.921  -0.439  -0.655  1.00  0.00    -0.383 N 
HETATM   12  H1  UNL     1      -7.210   0.522  -0.947  1.00  0.00     0.157 HD
HETATM   13  H2  UNL     1      -7.601  -1.161  -0.924  1.00  0.00     0.157 HD
ENDBRANCH   8  11
ENDBRANCH   1   2
BRANCH   1  14
HETATM   14  C8  UNL     1      -0.366   0.745   0.797  1.00  0.00     0.025 C 
BRANCH  14  15
HETATM   15  C9  UNL     1       1.124   0.439   1.000  1.00  0.00    -0.008 A 
HETATM   16  C10 UNL     1       1.823   1.427   1.897  1.00  0.00     0.005 A 
HETATM   17  C11 UNL     1       2.771   1.815   0.777  1.00  0.00     0.006 A 
HETATM   18  C12 UNL     1       2.001   0.893  -0.125  1.00  0.00     0.001 A 
BRANCH  18  19
HETATM   19  C13 UNL     1       2.805  -0.183  -0.786  1.00  0.00     0.038 C 
HETATM   20  C14 UNL     1       3.626   0.429  -1.886  1.00  0.00    -0.006 C 
HETATM   21  C15 UNL     1       4.818  -0.001  -2.247  1.00  0.00    -0.027 C 
HETATM   22  C16 UNL     1       5.648  -0.242  -1.252  1.00  0.00     0.048 C 
HETATM   23  C17 UNL     1       5.058  -0.862  -0.055  1.00  0.00     0.063 C 
HETATM   24  C18 UNL     1       3.735  -0.840   0.172  1.00  0.00     0.018 C 
BRANCH  23  25
HETATM   25  O1  UNL     1       5.890  -1.496   0.881  1.00  0.00    -0.361 OA
HETATM   26  H19 UNL     1       5.918  -2.505   0.988  1.00  0.00     0.217 HD
ENDBRANCH  23  25
ENDBRANCH  18  19
ENDBRANCH  14  15
ENDBRANCH   1  14
TORSDOF 6
