REMARK  3 active torsions:
REMARK  status: ('A' for Active; 'I' for Inactive)
REMARK    1  A    between atoms: C2_2  and  C3_3 
REMARK    2  A    between atoms: C4_4  and  C5_5 
REMARK    3  A    between atoms: C5_5  and  C6_6 
ROOT
HETATM    1  C6  UNL     1      -0.847  -0.287  -1.674  1.00  0.00     0.047 A 
HETATM    2  C7  UNL     1      -0.328  -0.631  -0.505  1.00  0.00     0.121 A 
HETATM    3  N1  UNL     1       1.018  -0.328  -0.161  1.00  0.00    -0.314 N 
HETATM    4  C8  UNL     1       1.508  -0.731   1.117  1.00  0.00     0.173 A 
HETATM    5  C9  UNL     1       2.923  -0.323   1.277  1.00  0.00    -0.005 A 
HETATM    6  C10 UNL     1       3.505  -0.661   2.479  1.00  0.00     0.030 A 
HETATM    7  C11 UNL     1       4.822  -0.313   2.702  1.00  0.00     0.011 A 
HETATM    8 BR1  UNL     1       5.751  -0.725   4.334  1.00  0.00    -0.051 Br
HETATM    9  C12 UNL     1       5.597   0.359   1.783  1.00  0.00     0.022 A 
HETATM   10  C13 UNL     1       4.999   0.696   0.573  1.00  0.00     0.039 A 
HETATM   11  C14 UNL     1       3.682   0.350   0.347  1.00  0.00     0.087 A 
HETATM   12  O1  UNL     1       3.112   0.697  -0.867  1.00  0.00    -0.276 OA
HETATM   13  C15 UNL     1       1.791   0.365  -1.128  1.00  0.00     0.271 A 
HETATM   14  N2  UNL     1       1.298   0.708  -2.272  1.00  0.00    -0.130 NA
HETATM   15  N3  UNL     1      -0.033   0.417  -2.633  1.00  0.00    -0.277 N 
HETATM   16  H16 UNL     1      -0.345   0.732  -3.577  1.00  0.00     0.189 HD
ENDROOT
BRANCH   1  17
HETATM   17  C5  UNL     1      -2.231  -0.527  -2.189  1.00  0.00     0.086 C 
BRANCH  17  18
HETATM   18  C4  UNL     1      -2.967  -1.250  -1.126  1.00  0.00    -0.025 C 
HETATM   19  C3  UNL     1      -4.053  -0.879  -0.496  1.00  0.00    -0.031 C 
BRANCH  19  20
HETATM   20  C2  UNL     1      -4.770   0.386  -0.745  1.00  0.00     0.022 C 
HETATM   21  C1  UNL     1      -4.769   1.161   0.572  1.00  0.00     0.009 C 
ENDBRANCH  19  20
ENDBRANCH  17  18
ENDBRANCH   1  17
TORSDOF 3
