REMARK  7 active torsions:
REMARK  status: ('A' for Active; 'I' for Inactive)
REMARK    1  A    between atoms: N1_1  and  C1_2 
REMARK    2  A    between atoms: C5_8  and  C6_9 
REMARK    3  A    between atoms: C6_9  and  N4_10 
REMARK    4  A    between atoms: C12_17  and  C13_18 
REMARK    5  A    between atoms: C17_22  and  O1_23 
REMARK    6  A    between atoms: O1_23  and  C18_24 
REMARK    7  A    between atoms: C18_24  and  C19_25 
ROOT
HETATM    1  C1  UNL     1      -1.515   1.489   0.049  1.00  0.00     0.126 C 
HETATM    2  N2  UNL     1      -2.512   2.110   0.644  1.00  0.00    -0.227 NA
HETATM    3  C2  UNL     1      -3.321   3.028  -0.039  1.00  0.00     0.228 C 
HETATM    4  N3  UNL     1      -4.467   2.738   0.388  1.00  0.00    -0.283 NA
HETATM    5  C3  UNL     1      -4.841   1.759   1.307  1.00  0.00     0.150 C 
HETATM    6  C4  UNL     1      -4.048   0.542   1.541  1.00  0.00     0.030 C 
HETATM    7  C5  UNL     1      -3.833  -0.443   0.461  1.00  0.00     0.033 C 
HETATM    8  C10 UNL     1      -2.758  -1.424   0.860  1.00  0.00     0.130 C 
HETATM    9  N5  UNL     1      -1.436  -0.774   0.863  1.00  0.00    -0.373 N 
HETATM   10  C11 UNL     1      -0.104  -1.325   0.644  1.00  0.00     0.097 A 
HETATM   11  C12 UNL     1       0.355  -0.094   0.677  1.00  0.00    -0.002 A 
HETATM   12  C26 UNL     1      -0.925   0.578   1.013  1.00  0.00     0.188 A 
ENDROOT
BRANCH  11  13
HETATM   13  C13 UNL     1       1.634   0.646   0.557  1.00  0.00    -0.023 A 
HETATM   14  C14 UNL     1       1.856   2.005   0.622  1.00  0.00     0.012 A 
HETATM   15  C15 UNL     1       3.113   2.542   0.499  1.00  0.00     0.004 A 
HETATM   16  C16 UNL     1       4.225   1.755   0.302  1.00  0.00     0.037 A 
HETATM   17  C17 UNL     1       4.041   0.389   0.232  1.00  0.00     0.070 A 
HETATM   18  C25 UNL     1       2.776  -0.139   0.357  1.00  0.00     0.049 A 
BRANCH  17  19
HETATM   19  O1  UNL     1       5.153  -0.437   0.033  1.00  0.00    -0.347 OA
BRANCH  19  20
HETATM   20  C18 UNL     1       6.446   0.101  -0.095  1.00  0.00     0.214 C 
BRANCH  20  21
HETATM   21  C19 UNL     1       7.489  -0.924  -0.298  1.00  0.00    -0.034 A 
HETATM   22  C20 UNL     1       8.081  -1.443   0.842  1.00  0.00     0.009 A 
HETATM   23  C21 UNL     1       9.070  -2.405   0.780  1.00  0.00     0.001 A 
HETATM   24  C22 UNL     1       9.435  -2.821  -0.486  1.00  0.00     0.000 A 
HETATM   25  C23 UNL     1       8.876  -2.335  -1.643  1.00  0.00     0.001 A 
HETATM   26  C24 UNL     1       7.882  -1.366  -1.536  1.00  0.00     0.009 A 
ENDBRANCH  20  21
ENDBRANCH  19  20
ENDBRANCH  17  19
ENDBRANCH  11  13
BRANCH   1  27
HETATM   27  N1  UNL     1      -1.730   2.129  -1.200  1.00  0.00    -0.385 N 
HETATM   28  H1  UNL     1      -1.217   3.017  -1.415  1.00  0.00     0.157 HD
HETATM   29  H2  UNL     1      -2.403   1.716  -1.914  1.00  0.00     0.157 HD
ENDBRANCH   1  27
BRANCH   7  30
HETATM   30  C6  UNL     1      -5.124  -1.161   0.140  1.00  0.00     0.278 C 
BRANCH  30  31
HETATM   31  N4  UNL     1      -6.190  -0.346  -0.309  1.00  0.00     0.088 N 
HETATM   32  C7  UNL     1      -5.989   0.247  -1.612  1.00  0.00     0.274 C 
HETATM   33  C8  UNL     1      -6.803  -0.852  -2.250  1.00  0.00     0.060 C 
HETATM   34  C9  UNL     1      -7.264  -1.148  -0.861  1.00  0.00     0.274 C 
ENDBRANCH  30  31
ENDBRANCH   7  30
TORSDOF 7
