REMARK  6 active torsions:
REMARK  status: ('A' for Active; 'I' for Inactive)
REMARK    1  A    between atoms: N1_1  and  C1_2 
REMARK    2  A    between atoms: C5_8  and  C6_9 
REMARK    3  A    between atoms: C10_13  and  O1_14 
REMARK    4  A    between atoms: N4_17  and  C13_18 
REMARK    5  A    between atoms: C15_20  and  C16_21 
REMARK    6  A    between atoms: C16_21  and  N5_22 
ROOT
HETATM    1  C1  UNL     1      -3.068   2.655  -0.234  1.00  0.00     0.137 A 
HETATM    2  N2  UNL     1      -2.586   3.924  -0.296  1.00  0.00    -0.224 NA
HETATM    3  C2  UNL     1      -1.275   4.161  -0.504  1.00  0.00     0.237 A 
HETATM    4  N3  UNL     1      -0.428   3.128  -0.653  1.00  0.00    -0.223 NA
HETATM    5  C3  UNL     1      -0.839   1.830  -0.604  1.00  0.00     0.146 A 
HETATM    6  C4  UNL     1      -2.189   1.616  -0.389  1.00  0.00     0.068 A 
HETATM    7  C5  UNL     1      -2.465   0.267  -0.358  1.00  0.00     0.008 A 
HETATM    8  C12 UNL     1      -1.213  -0.322  -0.564  1.00  0.00     0.106 A 
HETATM    9  N4  UNL     1      -0.265   0.595  -0.707  1.00  0.00    -0.335 N 
ENDROOT
BRANCH   9  10
HETATM   10  C13 UNL     1       1.155   0.568  -0.935  1.00  0.00     0.092 A 
HETATM   11  C14 UNL     1       1.883  -0.710  -0.600  1.00  0.00     0.032 A 
HETATM   12  C15 UNL     1       2.568  -0.030   0.518  1.00  0.00     0.018 A 
HETATM   13  C20 UNL     1       1.860   1.294   0.177  1.00  0.00     0.032 A 
BRANCH  12  14
HETATM   14  C16 UNL     1       4.034   0.211   0.501  1.00  0.00     0.277 C 
BRANCH  14  15
HETATM   15  N5  UNL     1       4.885  -0.923   0.416  1.00  0.00     0.088 N 
HETATM   16  C17 UNL     1       4.958  -1.663  -0.802  1.00  0.00     0.274 C 
HETATM   17  C18 UNL     1       6.466  -1.850  -0.585  1.00  0.00     0.060 C 
HETATM   18  C19 UNL     1       6.274  -0.570   0.223  1.00  0.00     0.274 C 
ENDBRANCH  14  15
ENDBRANCH  12  14
ENDBRANCH   9  10
BRANCH   7  19
HETATM   19  C6  UNL     1      -3.676  -0.522  -0.195  1.00  0.00    -0.021 A 
HETATM   20  C7  UNL     1      -4.875  -0.443  -0.859  1.00  0.00     0.012 A 
HETATM   21  C8  UNL     1      -5.956  -1.231  -0.606  1.00  0.00     0.004 A 
HETATM   22  C9  UNL     1      -5.828  -2.188   0.404  1.00  0.00     0.036 A 
HETATM   23  C10 UNL     1      -4.630  -2.310   1.109  1.00  0.00     0.066 A 
HETATM   24  C11 UNL     1      -3.569  -1.486   0.811  1.00  0.00     0.049 A 
BRANCH  23  25
HETATM   25  O1  UNL     1      -4.589  -3.277   2.087  1.00  0.00    -0.361 OA
HETATM   26  H7  UNL     1      -5.391  -3.518   2.660  1.00  0.00     0.217 HD
ENDBRANCH  23  25
ENDBRANCH   7  19
BRANCH   1  27
HETATM   27  N1  UNL     1      -4.456   2.467  -0.002  1.00  0.00    -0.383 N 
HETATM   28  H1  UNL     1      -4.485   1.937   0.913  1.00  0.00     0.157 HD
HETATM   29  H2  UNL     1      -5.208   2.810  -0.644  1.00  0.00     0.157 HD
ENDBRANCH   1  27
TORSDOF 6
