REMARK  3 active torsions:
REMARK  status: ('A' for Active; 'I' for Inactive)
REMARK    1  A    between atoms: C10_11  and  N2_12 
REMARK    2  A    between atoms: N2_12  and  C11_13 
REMARK    3  A    between atoms: C16_18  and  O1_19 
ROOT
HETATM    1  C1  UNL     1      -6.210  -0.551   0.337  1.00  0.00     0.048 C 
HETATM    2  C2  UNL     1      -4.874   0.077   0.512  1.00  0.00    -0.061 A 
HETATM    3  C3  UNL     1      -4.812   1.411   0.813  1.00  0.00     0.009 A 
HETATM    4  C4  UNL     1      -3.613   2.044   0.985  1.00  0.00     0.038 A 
HETATM    5  C5  UNL     1      -2.434   1.340   0.857  1.00  0.00     0.086 A 
HETATM    6  C6  UNL     1      -2.499  -0.000   0.554  1.00  0.00    -0.006 A 
HETATM    7  C7  UNL     1      -3.716  -0.669   0.373  1.00  0.00     0.018 A 
HETATM    8  C8  UNL     1      -1.421  -1.001   0.365  1.00  0.00     0.161 C 
HETATM    9  N1  UNL     1      -0.290  -0.472  -0.345  1.00  0.00    -0.379 N 
HETATM   10  C9  UNL     1       0.373   0.796  -0.379  1.00  0.00     0.129 A 
HETATM   11  C10 UNL     1       1.545   0.816  -1.136  1.00  0.00     0.160 A 
HETATM   12  N3  UNL     1       2.233   1.985  -1.240  1.00  0.00    -0.222 NA
HETATM   13  C17 UNL     1       1.765   3.078  -0.612  1.00  0.00     0.238 A 
HETATM   14  N4  UNL     1       0.625   3.118   0.143  1.00  0.00    -0.215 NA
HETATM   15  C18 UNL     1      -0.079   1.944   0.256  1.00  0.00     0.202 A 
HETATM   16  O2  UNL     1      -1.239   2.057   1.046  1.00  0.00    -0.289 OA
HETATM   17  H9  UNL     1       0.166  -1.177  -0.999  1.00  0.00     0.160 HD
ENDROOT
BRANCH  11  18
HETATM   18  N2  UNL     1       1.976  -0.404  -1.738  1.00  0.00    -0.337 N 
HETATM   19  H10 UNL     1       1.583  -1.019  -2.489  1.00  0.00     0.167 HD
BRANCH  18  20
HETATM   20  C11 UNL     1       3.202  -0.814  -1.147  1.00  0.00     0.067 A 
HETATM   21  C12 UNL     1       4.285  -0.962  -2.008  1.00  0.00     0.032 A 
HETATM   22  C13 UNL     1       5.574  -1.349  -1.610  1.00  0.00     0.002 A 
HETATM   23  C14 UNL     1       5.744  -1.593  -0.248  1.00  0.00     0.003 A 
HETATM   24  C15 UNL     1       4.718  -1.463   0.633  1.00  0.00     0.039 A 
HETATM   25  C16 UNL     1       3.509  -1.087   0.170  1.00  0.00     0.092 A 
BRANCH  25  26
HETATM   26  O1  UNL     1       2.450  -0.950   1.054  1.00  0.00    -0.358 OA
HETATM   27  H15 UNL     1       2.496  -1.384   1.979  1.00  0.00     0.217 HD
ENDBRANCH  25  26
ENDBRANCH  18  20
ENDBRANCH  11  18
TORSDOF 3
