REMARK  8 active torsions:
REMARK  status: ('A' for Active; 'I' for Inactive)
REMARK    1  A    between atoms: C3_3  and  O1_4 
REMARK    2  A    between atoms: C3_3  and  C4_5 
REMARK    3  A    between atoms: C5_6  and  C6_7 
REMARK    4  A    between atoms: C7_8  and  C8_9 
REMARK    5  A    between atoms: N1_11  and  C10_12 
REMARK    6  A    between atoms: C10_12  and  C12_14 
REMARK    7  A    between atoms: C12_14  and  N2_15 
REMARK    8  A    between atoms: C18_21  and  N3_22 
ROOT
HETATM    1  C8  UNL     1      -0.207  -0.565   0.057  1.00  0.00    -0.003 A 
HETATM    2  C9  UNL     1      -1.474  -0.514   0.602  1.00  0.00     0.105 A 
HETATM    3  N1  UNL     1      -2.291  -1.216  -0.219  1.00  0.00    -0.334 N 
HETATM    4  C16 UNL     1      -1.618  -1.721  -1.273  1.00  0.00     0.147 A 
HETATM    5  C17 UNL     1      -0.308  -1.320  -1.111  1.00  0.00     0.067 A 
HETATM    6  C18 UNL     1      -0.012  -2.030  -2.352  1.00  0.00     0.138 A 
HETATM    7  N4  UNL     1      -1.256  -2.392  -2.474  1.00  0.00    -0.212 NA
ENDROOT
BRANCH   1   8
HETATM    8  C7  UNL     1       1.023   0.033   0.564  1.00  0.00     0.014 C 
HETATM    9  C6  UNL     1       2.155  -0.107  -0.087  1.00  0.00     0.001 C 
BRANCH   9  10
HETATM   10  C5  UNL     1       3.415   0.484   0.397  1.00  0.00     0.003 C 
HETATM   11  C4  UNL     1       4.546   0.313  -0.305  1.00  0.00     0.036 C 
BRANCH  11  12
HETATM   12  C3  UNL     1       5.836   0.859   0.095  1.00  0.00     0.061 C 
HETATM   13  C2  UNL     1       6.916   0.637  -0.674  1.00  0.00     0.005 C 
HETATM   14  C1  UNL     1       8.236   1.195  -0.264  1.00  0.00     0.038 C 
BRANCH  12  15
HETATM   15  O1  UNL     1       6.087   1.611   1.221  1.00  0.00    -0.361 OA
HETATM   16  H5  UNL     1       6.483   1.268   2.088  1.00  0.00     0.217 HD
ENDBRANCH  12  15
ENDBRANCH  11  12
ENDBRANCH   9  10
ENDBRANCH   1   8
BRANCH   3  17
HETATM   17  C10 UNL     1      -3.705  -1.352   0.075  1.00  0.00     0.115 C 
HETATM   18  C11 UNL     1      -3.831  -2.684   0.795  1.00  0.00     0.034 C 
BRANCH  17  19
HETATM   19  C12 UNL     1      -4.189  -0.272   1.010  1.00  0.00     0.297 C 
BRANCH  19  20
HETATM   20  N2  UNL     1      -4.015   1.044   0.501  1.00  0.00     0.090 N 
HETATM   21  C13 UNL     1      -4.782   1.475  -0.618  1.00  0.00     0.274 C 
HETATM   22  C14 UNL     1      -4.864   2.856   0.051  1.00  0.00     0.060 C 
HETATM   23  C15 UNL     1      -4.661   2.040   1.317  1.00  0.00     0.274 C 
ENDBRANCH  19  20
ENDBRANCH  17  19
ENDBRANCH   3  17
BRANCH   6  24
HETATM   24  N3  UNL     1       1.161  -2.237  -3.112  1.00  0.00    -0.383 N 
HETATM   25  H23 UNL     1       1.456  -1.540  -3.840  1.00  0.00     0.157 HD
HETATM   26  H24 UNL     1       1.876  -2.979  -3.134  1.00  0.00     0.157 HD
ENDBRANCH   6  24
TORSDOF 8
