REMARK  5 active torsions:
REMARK  status: ('A' for Active; 'I' for Inactive)
REMARK    1  A    between atoms: N1_1  and  C1_2 
REMARK    2  A    between atoms: N4_10  and  C7_11 
REMARK    3  A    between atoms: C7_11  and  C8_12 
REMARK    4  A    between atoms: C8_12  and  C9_13 
REMARK    5  A    between atoms: C13_17  and  O1_18 
ROOT
HETATM    1  C8  UNL     1       0.619   0.379  -0.172  1.00  0.00     0.027 C 
ENDROOT
BRANCH   1   2
HETATM    2  C7  UNL     1       1.242  -0.424   0.943  1.00  0.00     0.130 C 
BRANCH   2   3
HETATM    3  N4  UNL     1       2.684  -0.200   0.913  1.00  0.00    -0.341 N 
HETATM    4  C3  UNL     1       3.659  -0.855   0.267  1.00  0.00     0.145 A 
HETATM    5  N3  UNL     1       3.577  -1.909  -0.540  1.00  0.00    -0.223 NA
HETATM    6  C4  UNL     1       4.884  -0.264   0.552  1.00  0.00     0.057 A 
HETATM    7  C2  UNL     1       4.710  -2.421  -1.099  1.00  0.00     0.237 A 
HETATM    8  N2  UNL     1       5.931  -1.888  -0.857  1.00  0.00    -0.224 NA
HETATM    9  C1  UNL     1       6.004  -0.820  -0.038  1.00  0.00     0.136 A 
HETATM   10  C5  UNL     1       4.642   0.793   1.407  1.00  0.00     0.036 A 
HETATM   11  C6  UNL     1       3.279   0.808   1.612  1.00  0.00     0.093 A 
BRANCH   9  12
HETATM   12  N1  UNL     1       7.238  -0.171   0.292  1.00  0.00    -0.383 N 
HETATM   13  H1  UNL     1       8.081  -0.344   0.885  1.00  0.00     0.157 HD
HETATM   14  H2  UNL     1       7.494   0.763  -0.116  1.00  0.00     0.157 HD
ENDBRANCH   9  12
ENDBRANCH   2   3
ENDBRANCH   1   2
BRANCH   1  15
HETATM   15  C9  UNL     1      -0.863   0.218  -0.242  1.00  0.00     0.019 C 
HETATM   16  C10 UNL     1      -1.623   0.876  -1.206  1.00  0.00     0.033 C 
HETATM   17  C11 UNL     1      -1.850   1.055  -2.594  1.00  0.00    -0.024 C 
HETATM   18  C12 UNL     1      -3.103   0.583  -2.951  1.00  0.00     0.032 C 
HETATM   19  C13 UNL     1      -4.117  -0.049  -2.054  1.00  0.00     0.063 C 
HETATM   20  C14 UNL     1      -4.312  -0.414  -0.792  1.00  0.00     0.045 C 
HETATM   21  C15 UNL     1      -3.698  -0.460   0.586  1.00  0.00     0.250 C 
HETATM   22  C16 UNL     1      -4.739  -0.112   1.662  1.00  0.00     0.070 C 
HETATM   23  N5  UNL     1      -2.964   0.633   1.023  1.00  0.00     0.097 N 
HETATM   24  C17 UNL     1      -3.583   0.667   2.310  1.00  0.00     0.275 C 
HETATM   25  C18 UNL     1      -1.530   0.673   1.092  1.00  0.00     0.278 C 
BRANCH  19  26
HETATM   26  O1  UNL     1      -5.243  -0.348  -2.866  1.00  0.00    -0.361 OA
HETATM   27  H15 UNL     1      -5.232  -1.301  -3.223  1.00  0.00     0.217 HD
ENDBRANCH  19  26
ENDBRANCH   1  15
TORSDOF 5
