REMARK  10 active torsions:
REMARK  status: ('A' for Active; 'I' for Inactive)
REMARK    1  A    between atoms: C2_2  and  C3_3 
REMARK    2  A    between atoms: C2_2  and  N2_8 
REMARK    3  A    between atoms: C3_3  and  N1_4 
REMARK    4  A    between atoms: N2_8  and  C7_9 
REMARK    5  A    between atoms: C9_13  and  N5_14 
REMARK    6  A    between atoms: C10_15  and  C11_16 
REMARK    7  A    between atoms: C11_16  and  C12_17 
REMARK    8  A    between atoms: C11_16  and  C15_20 
REMARK    9  A    between atoms: C12_17  and  C13_18 
REMARK   10  A    between atoms: C19_24  and  O1_25 
ROOT
HETATM    1  C7  UNL     1       0.686   0.200  -1.454  1.00  0.00     0.144 A 
HETATM    2  N3  UNL     1       1.575   0.908  -2.169  1.00  0.00    -0.223 NA
HETATM    3  C8  UNL     1       1.433   2.184  -2.494  1.00  0.00     0.237 A 
HETATM    4  N4  UNL     1       0.306   2.773  -2.058  1.00  0.00    -0.224 NA
HETATM    5  C9  UNL     1      -0.594   2.083  -1.344  1.00  0.00     0.137 A 
HETATM    6  C10 UNL     1      -0.470   0.767  -0.994  1.00  0.00     0.066 A 
ENDROOT
BRANCH   6   7
HETATM    7  C11 UNL     1      -1.574   0.105  -0.331  1.00  0.00    -0.012 C 
BRANCH   7   8
HETATM    8  C12 UNL     1      -2.003  -1.148  -0.413  1.00  0.00    -0.014 C 
BRANCH   8   9
HETATM    9  C13 UNL     1      -2.686  -2.420  -0.295  1.00  0.00     0.023 C 
HETATM   10  C14 UNL     1      -3.299  -2.919  -1.589  1.00  0.00     0.009 C 
ENDBRANCH   8   9
ENDBRANCH   7   8
BRANCH   7  11
HETATM   11  C15 UNL     1      -2.406   0.808   0.638  1.00  0.00    -0.022 A 
HETATM   12  C16 UNL     1      -3.661   0.514   1.052  1.00  0.00     0.012 A 
HETATM   13  C17 UNL     1      -4.371   1.120   2.054  1.00  0.00     0.004 A 
HETATM   14  C18 UNL     1      -3.784   2.152   2.748  1.00  0.00     0.036 A 
HETATM   15  C19 UNL     1      -2.509   2.538   2.415  1.00  0.00     0.066 A 
HETATM   16  C20 UNL     1      -1.876   1.867   1.393  1.00  0.00     0.048 A 
BRANCH  15  17
HETATM   17  O1  UNL     1      -1.946   3.579   3.131  1.00  0.00    -0.361 OA
HETATM   18  H24 UNL     1      -2.059   4.557   2.835  1.00  0.00     0.217 HD
ENDBRANCH  15  17
ENDBRANCH   7  11
ENDBRANCH   6   7
BRANCH   1  19
HETATM   19  N2  UNL     1       1.000  -1.137  -1.182  1.00  0.00    -0.343 N 
HETATM   20  H11 UNL     1       0.921  -2.073  -1.689  1.00  0.00     0.167 HD
BRANCH  19  21
HETATM   21  C2  UNL     1       1.610  -1.484   0.071  1.00  0.00     0.029 C 
HETATM   22  C1  UNL     1       1.340  -2.566   0.824  1.00  0.00     0.040 C 
BRANCH  21  23
HETATM   23  C3  UNL     1       2.628  -0.558   0.570  1.00  0.00     0.328 C 
BRANCH  23  24
HETATM   24  N1  UNL     1       3.752  -0.403  -0.322  1.00  0.00     0.094 N 
HETATM   25  C4  UNL     1       4.614  -1.551  -0.483  1.00  0.00     0.274 C 
HETATM   26  C5  UNL     1       5.795  -0.697  -0.145  1.00  0.00     0.060 C 
HETATM   27  C6  UNL     1       4.814   0.347   0.314  1.00  0.00     0.274 C 
ENDBRANCH  23  24
ENDBRANCH  21  23
ENDBRANCH  19  21
ENDBRANCH   1  19
BRANCH   5  28
HETATM   28  N5  UNL     1      -1.728   2.898  -1.096  1.00  0.00    -0.383 N 
HETATM   29  H13 UNL     1      -2.567   3.462  -0.942  1.00  0.00     0.157 HD
HETATM   30  H14 UNL     1      -2.618   2.610  -1.611  1.00  0.00     0.157 HD
ENDBRANCH   5  28
TORSDOF 10
