REMARK  5 active torsions:
REMARK  status: ('A' for Active; 'I' for Inactive)
REMARK    1  A    between atoms: N1_1  and  C1_2 
REMARK    2  A    between atoms: C14_19  and  C15_20 
REMARK    3  A    between atoms: C15_20  and  C16_21 
REMARK    4  A    between atoms: C17_22  and  C18_23 
REMARK    5  A    between atoms: C18_23  and  C19_24 
ROOT
HETATM    1  C1  UNL     1      -0.427   0.801  -0.757  1.00  0.00     0.058 C 
HETATM    2  C2  UNL     1      -1.448   1.534  -0.362  1.00  0.00     0.032 C 
HETATM    3  C3  UNL     1      -2.253   2.229  -1.396  1.00  0.00     0.059 C 
HETATM    4  C4  UNL     1      -3.356   3.001  -0.672  1.00  0.00     0.008 C 
HETATM    5  C5  UNL     1      -2.661   4.026   0.220  1.00  0.00     0.020 C 
HETATM    6  C6  UNL     1      -2.089   3.220   1.375  1.00  0.00     0.123 C 
HETATM    7  N2  UNL     1      -1.962   1.820   0.934  1.00  0.00    -0.382 N 
HETATM    8  C7  UNL     1      -2.351   0.702   1.800  1.00  0.00     0.125 C 
HETATM    9  C8  UNL     1      -2.704  -0.507   0.958  1.00  0.00     0.046 C 
HETATM   10  C9  UNL     1      -2.959  -1.724   1.775  1.00  0.00     0.169 C 
HETATM   11  O1  UNL     1      -2.932  -2.909   1.126  1.00  0.00    -0.388 OA
HETATM   12  C10 UNL     1      -1.771  -3.503   0.796  1.00  0.00     0.205 C 
HETATM   13  C11 UNL     1      -0.838  -2.672  -0.022  1.00  0.00     0.185 C 
HETATM   14  C12 UNL     1       0.236  -3.581  -0.642  1.00  0.00     0.124 C 
HETATM   15  N3  UNL     1       1.110  -3.221  -1.562  1.00  0.00    -0.256 NA
HETATM   16  C13 UNL     1       1.248  -2.020  -2.363  1.00  0.00     0.227 C 
HETATM   17  N4  UNL     1       0.906  -0.818  -2.033  1.00  0.00    -0.263 NA
HETATM   18  C14 UNL     1       0.750  -0.078  -0.783  1.00  0.00     0.122 C 
HETATM   19  C20 UNL     1       0.846  -1.062   0.350  1.00  0.00     0.208 C 
HETATM   20  O2  UNL     1      -0.254  -1.711   0.738  1.00  0.00    -0.376 OA
ENDROOT
BRANCH  18  21
HETATM   21  C15 UNL     1       2.041   0.786  -0.760  1.00  0.00     0.069 C 
BRANCH  21  22
HETATM   22  C16 UNL     1       3.163  -0.192  -0.788  1.00  0.00    -0.028 C 
HETATM   23  C17 UNL     1       4.054  -0.224   0.219  1.00  0.00    -0.029 C 
BRANCH  23  24
HETATM   24  C18 UNL     1       5.260  -0.980   0.594  1.00  0.00     0.042 C 
BRANCH  24  25
HETATM   25  C19 UNL     1       6.476  -0.088   0.744  1.00  0.00     0.118 C 
HETATM   26 CL1  UNL     1       6.818   0.740  -0.777  1.00  0.00    -0.130 Cl
ENDBRANCH  24  25
ENDBRANCH  23  24
ENDBRANCH  21  22
ENDBRANCH  18  21
BRANCH   1  27
HETATM   27  N1  UNL     1      -0.711   1.136  -2.135  1.00  0.00    -0.399 N 
HETATM   28  H1  UNL     1      -1.058   0.475  -2.839  1.00  0.00     0.156 HD
HETATM   29  H2  UNL     1      -0.898   1.437  -3.118  1.00  0.00     0.156 HD
ENDBRANCH   1  27
TORSDOF 5
