REMARK  6 active torsions:
REMARK  status: ('A' for Active; 'I' for Inactive)
REMARK    1  A    between atoms: C5_7  and  C6_8 
REMARK    2  A    between atoms: C6_8  and  C7_9 
REMARK    3  A    between atoms: C7_9  and  O2_10 
REMARK    4  A    between atoms: O2_10  and  C8_11 
REMARK    5  A    between atoms: C10_13  and  N2_14 
REMARK    6  A    between atoms: N2_14  and  C11_15 
ROOT
HETATM    1  C8  UNL     1      -0.044   0.223  -1.125  1.00  0.00     0.176 C 
HETATM    2  C9  UNL     1       0.487  -1.049  -1.713  1.00  0.00     0.059 C 
HETATM    3  C10 UNL     1       1.293  -1.993  -2.061  1.00  0.00     0.125 C 
HETATM    4  N4  UNL     1       1.030  -3.089  -2.960  1.00  0.00    -0.231 NA
HETATM    5  C16 UNL     1       0.832  -2.646  -4.233  1.00  0.00     0.328 C 
HETATM    6  N5  UNL     1       0.796  -1.433  -5.003  1.00  0.00    -0.291 NA
HETATM    7  C17 UNL     1       0.567  -0.220  -4.656  1.00  0.00     0.097 C 
HETATM    8  C18 UNL     1       0.240   0.764  -3.584  1.00  0.00    -0.001 C 
HETATM    9  C19 UNL     1      -0.031   1.217  -2.311  1.00  0.00    -0.054 C 
HETATM   10  C20 UNL     1      -0.328   2.666  -2.338  1.00  0.00     0.046 C 
ENDROOT
BRANCH   1  11
HETATM   11  O2  UNL     1      -1.347   0.134  -0.713  1.00  0.00    -0.377 OA
BRANCH  11  12
HETATM   12  C7  UNL     1      -1.576   0.694   0.530  1.00  0.00     0.171 C 
BRANCH  12  13
HETATM   13  C6  UNL     1      -3.039   0.533   0.925  1.00  0.00     0.069 C 
BRANCH  13  14
HETATM   14  C5  UNL     1      -3.248   1.171   2.275  1.00  0.00     0.277 C 
HETATM   15  C2  UNL     1      -2.368   0.475   3.247  1.00  0.00     0.070 C 
HETATM   16  C1  UNL     1      -1.369   1.112   3.795  1.00  0.00     0.048 C 
HETATM   17  O1  UNL     1      -2.792  -0.826   3.417  1.00  0.00    -0.352 OA
HETATM   18  C3  UNL     1      -4.151  -1.017   3.846  1.00  0.00     0.205 C 
HETATM   19  C4  UNL     1      -4.713   0.398   3.958  1.00  0.00     0.297 C 
HETATM   20  N1  UNL     1      -4.652   1.063   2.678  1.00  0.00     0.096 N 
HETATM   21  H7  UNL     1      -5.179   0.505   1.933  1.00  0.00     0.316 HD
ENDBRANCH  13  14
ENDBRANCH  12  13
ENDBRANCH  11  12
ENDBRANCH   1  11
BRANCH   3  22
HETATM   22  N2  UNL     1       2.602  -1.822  -1.660  1.00  0.00    -0.350 N 
HETATM   23  H15 UNL     1       3.100  -1.686  -2.599  1.00  0.00     0.163 HD
BRANCH  22  24
HETATM   24  C11 UNL     1       3.477  -1.747  -0.490  1.00  0.00     0.208 A 
HETATM   25  C12 UNL     1       4.860  -1.616  -1.004  1.00  0.00     0.046 A 
HETATM   26  C13 UNL     1       5.799  -0.695  -0.956  1.00  0.00     0.073 A 
HETATM   27 CL1  UNL     1       7.398  -0.795  -1.674  1.00  0.00    -0.081 Cl
HETATM   28  C14 UNL     1       5.392   0.482  -0.185  1.00  0.00     0.152 A 
HETATM   29  F1  UNL     1       6.255   1.495  -0.058  1.00  0.00    -0.203 F 
HETATM   30  C15 UNL     1       4.185   0.467   0.348  1.00  0.00     0.129 A 
HETATM   31  N3  UNL     1       3.199  -0.547   0.284  1.00  0.00    -0.372 N 
HETATM   32  H19 UNL     1       2.313  -0.390   0.807  1.00  0.00     0.161 HD
ENDBRANCH  22  24
ENDBRANCH   3  22
TORSDOF 6
