REMARK  2 active torsions:
REMARK  status: ('A' for Active; 'I' for Inactive)
REMARK    1  A    between atoms: C14_20  and  B1_21 
REMARK    2  A    between atoms: B1_21  and  N5_22 
ROOT
HETATM    1  N1  UNL     1      -3.244   1.131  -1.311  1.00  0.00    -0.197 NA
HETATM    2  C1  UNL     1      -2.117   1.228  -1.567  1.00  0.00     0.065 C 
HETATM    3  C2  UNL     1      -0.673   1.344  -1.874  1.00  0.00     0.112 C 
HETATM    4  C3  UNL     1       0.061   0.065  -1.677  1.00  0.00     0.030 C 
HETATM    5  C4  UNL     1      -0.433  -0.828  -0.589  1.00  0.00     0.028 C 
HETATM    6  C5  UNL     1       0.754  -1.504   0.045  1.00  0.00     0.036 C 
HETATM    7  C6  UNL     1       1.839  -1.869  -0.876  1.00  0.00    -0.029 C 
HETATM    8  C7  UNL     1       3.152  -1.555  -0.986  1.00  0.00    -0.023 C 
HETATM    9  C8  UNL     1       3.151  -0.679   0.180  1.00  0.00     0.110 C 
HETATM   10  C9  UNL     1       4.121   0.029   0.733  1.00  0.00     0.114 C 
HETATM   11  O1  UNL     1       3.364   0.589   1.779  1.00  0.00    -0.350 OA
HETATM   12  P1  UNL     1       2.718   2.199   1.600  1.00  0.00     0.122 P 
HETATM   13  C10 UNL     1       1.264   2.616   0.922  1.00  0.00     0.134 C 
HETATM   14  N2  UNL     1       0.087   2.118   0.300  1.00  0.00    -0.337 N 
HETATM   15  C11 UNL     1      -0.160   2.513  -1.075  1.00  0.00     0.149 C 
HETATM   16  C12 UNL     1      -0.856   1.256   0.943  1.00  0.00     0.138 A 
HETATM   17  N3  UNL     1      -1.555   1.734   1.984  1.00  0.00    -0.224 NA
HETATM   18  C13 UNL     1      -2.458   0.979   2.635  1.00  0.00     0.234 A 
HETATM   19  N4  UNL     1      -2.708  -0.308   2.269  1.00  0.00    -0.257 NA
HETATM   20  C14 UNL     1      -2.021  -0.833   1.218  1.00  0.00     0.018 A 
HETATM   21  C15 UNL     1      -1.088  -0.068   0.540  1.00  0.00     0.007 A 
ENDROOT
BRANCH  20  22
HETATM   22  B1  UNL     1      -2.303  -2.320   0.789  1.00  0.00     0.296 B 
HETATM   23  H15 UNL     1      -1.693  -3.218   1.299  1.00  0.00    -0.001 HD
BRANCH  22  24
HETATM   24  N5  UNL     1      -3.596  -2.715   0.088  1.00  0.00    -0.377 NA
HETATM   25  H16 UNL     1      -4.184  -1.857   0.030  1.00  0.00     0.100 HD
HETATM   26  H17 UNL     1      -4.057  -3.460   0.666  1.00  0.00     0.100 HD
ENDBRANCH  22  24
ENDBRANCH  20  22
TORSDOF 2
