REMARK  9 active torsions:
REMARK  status: ('A' for Active; 'I' for Inactive)
REMARK    1  A    between atoms: O1_2  and  C2_3 
REMARK    2  A    between atoms: C6_9  and  N3_10 
REMARK    3  A    between atoms: N3_10  and  C7_11 
REMARK    4  A    between atoms: C8_12  and  C9_13 
REMARK    5  A    between atoms: C12_17  and  O2_18 
REMARK    6  A    between atoms: O2_18  and  C13_19 
REMARK    7  A    between atoms: C13_19  and  C14_20 
REMARK    8  A    between atoms: C14_20  and  C15_21 
REMARK    9  A    between atoms: C15_21  and  N4_22 
ROOT
HETATM    1  C2  UNL     1      -1.039  -3.330   0.019  1.00  0.00     0.103 A 
HETATM    2  C3  UNL     1      -2.188  -3.482   0.797  1.00  0.00     0.072 A 
HETATM    3  C4  UNL     1      -2.907  -2.339   1.072  1.00  0.00     0.075 A 
HETATM    4  N1  UNL     1      -4.026  -2.395   1.815  1.00  0.00    -0.241 NA
HETATM    5  C5  UNL     1      -4.755  -1.297   2.105  1.00  0.00     0.236 A 
HETATM    6  N2  UNL     1      -4.420  -0.047   1.671  1.00  0.00    -0.224 NA
HETATM    7  C6  UNL     1      -3.298   0.058   0.917  1.00  0.00     0.141 A 
HETATM    8  C10 UNL     1      -2.577  -1.075   0.639  1.00  0.00     0.042 A 
HETATM    9  C11 UNL     1      -1.425  -0.997  -0.128  1.00  0.00     0.057 A 
HETATM   10  C12 UNL     1      -0.623  -2.085  -0.467  1.00  0.00     0.103 A 
ENDROOT
BRANCH  10  11
HETATM   11  O2  UNL     1       0.437  -2.070  -1.161  1.00  0.00    -0.348 OA
BRANCH  11  12
HETATM   12  C13 UNL     1       1.481  -1.781  -1.890  1.00  0.00     0.177 C 
BRANCH  12  13
HETATM   13  C14 UNL     1       2.522  -0.832  -1.330  1.00  0.00     0.046 C 
BRANCH  13  14
HETATM   14  C15 UNL     1       2.003   0.522  -1.003  1.00  0.00     0.119 C 
BRANCH  14  15
HETATM   15  N4  UNL     1       3.034   1.378  -0.485  1.00  0.00    -0.408 N 
HETATM   16  C16 UNL     1       4.051   1.762  -1.397  1.00  0.00     0.143 C 
HETATM   17  C17 UNL     1       5.355   1.817  -0.590  1.00  0.00     0.187 C 
HETATM   18  O3  UNL     1       5.125   2.787   0.382  1.00  0.00    -0.388 OA
HETATM   19  C18 UNL     1       4.324   2.216   1.364  1.00  0.00     0.187 C 
HETATM   20  C19 UNL     1       3.434   1.111   0.853  1.00  0.00     0.143 C 
ENDBRANCH  14  15
ENDBRANCH  13  14
ENDBRANCH  12  13
ENDBRANCH  11  12
ENDBRANCH  10  11
BRANCH   1  21
HETATM   21  O1  UNL     1      -0.317  -4.482  -0.257  1.00  0.00    -0.353 OA
HETATM   22  C1  UNL     1      -0.762  -5.726   0.246  1.00  0.00     0.210 C 
ENDBRANCH   1  21
BRANCH   7  23
HETATM   23  N3  UNL     1      -2.936   1.333   0.459  1.00  0.00    -0.350 N 
HETATM   24  H6  UNL     1      -2.127   1.613  -0.110  1.00  0.00     0.166 HD
BRANCH  23  25
HETATM   25  C7  UNL     1      -3.786   2.436   0.811  1.00  0.00     0.087 C 
HETATM   26  C8  UNL     1      -3.598   3.677   0.385  1.00  0.00     0.005 C 
BRANCH  26  27
HETATM   27  C9  UNL     1      -4.476   4.809   0.750  1.00  0.00     0.143 C 
HETATM   28 CL1  UNL     1      -5.225   5.564  -0.652  1.00  0.00    -0.126 Cl
ENDBRANCH  26  27
ENDBRANCH  23  25
ENDBRANCH   7  23
TORSDOF 9
