REMARK  6 active torsions:
REMARK  status: ('A' for Active; 'I' for Inactive)
REMARK    1  A    between atoms: N1_1  and  C1_2 
REMARK    2  A    between atoms: C5_7  and  C6_8 
REMARK    3  A    between atoms: C10_12  and  O1_13 
REMARK    4  A    between atoms: N3_16  and  C13_17 
REMARK    5  A    between atoms: C15_19  and  C16_20 
REMARK    6  A    between atoms: C16_20  and  C17_21 
ROOT
HETATM    1  C1  UNL     1      -2.109   1.945  -1.461  1.00  0.00     0.072 C 
HETATM    2  C2  UNL     1      -0.912   2.459  -1.693  1.00  0.00     0.117 C 
HETATM    3  N2  UNL     1       0.026   1.971  -0.964  1.00  0.00    -0.225 NA
HETATM    4  C3  UNL     1      -0.483   0.882  -0.228  1.00  0.00     0.144 A 
HETATM    5  C4  UNL     1      -1.835   0.855  -0.534  1.00  0.00     0.051 A 
HETATM    6  C5  UNL     1      -2.451  -0.181   0.134  1.00  0.00     0.006 A 
HETATM    7  C12 UNL     1      -1.443  -0.776   0.847  1.00  0.00     0.106 A 
HETATM    8  N3  UNL     1      -0.272  -0.137   0.626  1.00  0.00    -0.335 N 
ENDROOT
BRANCH   8   9
HETATM    9  C13 UNL     1       1.045  -0.395   1.148  1.00  0.00     0.091 C 
HETATM   10  C14 UNL     1       2.160  -0.381   0.098  1.00  0.00     0.030 C 
HETATM   11  C15 UNL     1       3.035   0.128   1.233  1.00  0.00    -0.011 C 
HETATM   12  C20 UNL     1       1.771   0.791   1.750  1.00  0.00     0.030 C 
BRANCH  11  13
HETATM   13  C16 UNL     1       4.122   1.075   0.838  1.00  0.00    -0.001 C 
BRANCH  13  14
HETATM   14  C17 UNL     1       5.106   0.527  -0.124  1.00  0.00    -0.057 C 
HETATM   15  B1  UNL     1       4.609   0.042  -1.519  1.00  0.00     0.159 B 
HETATM   16  C18 UNL     1       5.857  -0.956  -1.384  1.00  0.00    -0.053 C 
HETATM   17  H16 UNL     1       4.169   0.593  -2.471  1.00  0.00    -0.026 HD
HETATM   18  C19 UNL     1       5.685  -0.827   0.136  1.00  0.00    -0.016 C 
ENDBRANCH  13  14
ENDBRANCH  11  13
ENDBRANCH   8   9
BRANCH   6  19
HETATM   19  C6  UNL     1      -3.843  -0.618   0.141  1.00  0.00    -0.021 A 
HETATM   20  C7  UNL     1      -4.496  -0.941   1.324  1.00  0.00     0.012 A 
HETATM   21  C8  UNL     1      -5.812  -1.357   1.372  1.00  0.00     0.004 A 
HETATM   22  C9  UNL     1      -6.472  -1.444   0.170  1.00  0.00     0.036 A 
HETATM   23  C10 UNL     1      -5.867  -1.135  -1.015  1.00  0.00     0.066 A 
HETATM   24  C11 UNL     1      -4.562  -0.723  -1.054  1.00  0.00     0.049 A 
BRANCH  23  25
HETATM   25  O1  UNL     1      -6.565  -1.232  -2.229  1.00  0.00    -0.361 OA
HETATM   26  H6  UNL     1      -6.342  -0.557  -2.950  1.00  0.00     0.217 HD
ENDBRANCH  23  25
ENDBRANCH   6  19
BRANCH   1  27
HETATM   27  N1  UNL     1      -3.374   2.322  -1.962  1.00  0.00    -0.396 N 
HETATM   28  H1  UNL     1      -4.058   2.940  -1.485  1.00  0.00     0.156 HD
HETATM   29  H2  UNL     1      -3.915   2.114  -2.842  1.00  0.00     0.156 HD
ENDBRANCH   1  27
TORSDOF 6
