REMARK  8 active torsions:
REMARK  status: ('A' for Active; 'I' for Inactive)
REMARK    1  A    between atoms: C4_4  and  N1_5 
REMARK    2  A    between atoms: N1_5  and  C5_6 
REMARK    3  A    between atoms: C9_12  and  O1_13 
REMARK    4  A    between atoms: C11_15  and  O2_16 
REMARK    5  A    between atoms: O2_16  and  C12_17 
REMARK    6  A    between atoms: C12_17  and  C13_18 
REMARK    7  A    between atoms: C13_18  and  C14_19 
REMARK    8  A    between atoms: C14_19  and  N4_20 
ROOT
HETATM    1  C5  UNL     1       3.523  -0.788   0.117  1.00  0.00     0.142 A 
HETATM    2  N2  UNL     1       4.473  -1.500   0.611  1.00  0.00    -0.224 NA
HETATM    3  C6  UNL     1       4.585  -2.713   1.083  1.00  0.00     0.236 A 
HETATM    4  N3  UNL     1       3.425  -3.339   1.028  1.00  0.00    -0.241 NA
HETATM    5  C7  UNL     1       2.262  -2.799   0.541  1.00  0.00     0.075 A 
HETATM    6  C8  UNL     1       1.137  -3.561   0.501  1.00  0.00     0.072 A 
HETATM    7  C9  UNL     1      -0.079  -3.049  -0.035  1.00  0.00     0.103 A 
HETATM    8  C11 UNL     1       0.090  -1.680  -0.477  1.00  0.00     0.103 A 
HETATM    9  C19 UNL     1       1.167  -0.900  -0.460  1.00  0.00     0.057 A 
HETATM   10  C20 UNL     1       2.343  -1.477   0.077  1.00  0.00     0.042 A 
ENDROOT
BRANCH   1  11
HETATM   11  N1  UNL     1       3.587   0.528  -0.358  1.00  0.00    -0.340 N 
HETATM   12  H5  UNL     1       2.883   1.161  -0.741  1.00  0.00     0.167 HD
BRANCH  11  13
HETATM   13  C4  UNL     1       4.882   1.072  -0.255  1.00  0.00     0.034 A 
HETATM   14  C3  UNL     1       5.403   2.022   0.558  1.00  0.00     0.039 A 
HETATM   15  C2  UNL     1       6.558   2.653   0.828  1.00  0.00    -0.021 A 
HETATM   16  C1  UNL     1       6.652   3.676   1.891  1.00  0.00     0.051 C 
HETATM   17  C23 UNL     1       7.438   2.122  -0.032  1.00  0.00     0.122 A 
HETATM   18  C22 UNL     1       7.326   1.156  -1.016  1.00  0.00     0.045 A 
HETATM   19  F1  UNL     1       8.722   2.611   0.069  1.00  0.00    -0.206 F 
HETATM   20  C21 UNL     1       5.993   0.677  -1.062  1.00  0.00     0.032 A 
ENDBRANCH  11  13
ENDBRANCH   1  11
BRANCH   8  21
HETATM   21  O2  UNL     1      -1.193  -1.392  -0.906  1.00  0.00    -0.348 OA
BRANCH  21  22
HETATM   22  C12 UNL     1      -2.319  -1.137  -1.283  1.00  0.00     0.177 C 
BRANCH  22  23
HETATM   23  C13 UNL     1      -2.948   0.060  -0.400  1.00  0.00     0.046 C 
BRANCH  23  24
HETATM   24  C14 UNL     1      -4.348   0.224  -0.896  1.00  0.00     0.119 C 
BRANCH  24  25
HETATM   25  N4  UNL     1      -5.209   1.059  -0.209  1.00  0.00    -0.408 N 
HETATM   26  C15 UNL     1      -5.211   2.444  -0.159  1.00  0.00     0.143 C 
HETATM   27  C16 UNL     1      -6.016   2.988   1.025  1.00  0.00     0.187 C 
HETATM   28  O3  UNL     1      -6.421   1.981   1.863  1.00  0.00    -0.388 OA
HETATM   29  C17 UNL     1      -7.147   0.991   1.280  1.00  0.00     0.187 C 
HETATM   30  C18 UNL     1      -6.532   0.486   0.013  1.00  0.00     0.143 C 
ENDBRANCH  24  25
ENDBRANCH  23  24
ENDBRANCH  22  23
ENDBRANCH  21  22
ENDBRANCH   8  21
BRANCH   7  31
HETATM   31  O1  UNL     1      -1.223  -3.631  -0.180  1.00  0.00    -0.353 OA
HETATM   32  C10 UNL     1      -1.982  -4.706  -0.064  1.00  0.00     0.210 C 
ENDBRANCH   7  31
TORSDOF 8
