REMARK  7 active torsions:
REMARK  status: ('A' for Active; 'I' for Inactive)
REMARK    1  A    between atoms: C4_5  and  N1_6 
REMARK    2  A    between atoms: N1_6  and  C5_7 
REMARK    3  A    between atoms: C8_10  and  O1_11 
REMARK    4  A    between atoms: O1_11  and  C9_12 
REMARK    5  A    between atoms: C9_12  and  C10_13 
REMARK    6  A    between atoms: C10_13  and  C11_14 
REMARK    7  A    between atoms: C11_14  and  N2_15 
ROOT
HETATM    1  C5  UNL     1      -2.693  -1.111   0.739  1.00  0.00     0.129 C 
HETATM    2  C6  UNL     1      -1.648  -0.908   1.572  1.00  0.00     0.053 C 
HETATM    3  C7  UNL     1      -0.454  -1.541   1.357  1.00  0.00     0.043 C 
HETATM    4  C8  UNL     1      -0.117  -1.865   0.067  1.00  0.00     0.107 C 
HETATM    5  C16 UNL     1      -0.616  -2.909  -0.671  1.00  0.00     0.150 C 
HETATM    6  F2  UNL     1      -0.385  -3.095  -1.986  1.00  0.00    -0.203 F 
HETATM    7  C17 UNL     1      -1.403  -4.015  -0.446  1.00  0.00     0.064 C 
HETATM    8  C18 UNL     1      -2.560  -4.422  -1.071  1.00  0.00     0.121 C 
HETATM    9  N3  UNL     1      -3.292  -3.297  -1.097  1.00  0.00    -0.254 NA
HETATM   10  C19 UNL     1      -3.924  -2.951   0.020  1.00  0.00     0.234 C 
HETATM   11  N4  UNL     1      -3.007  -2.405   0.831  1.00  0.00    -0.225 NA
ENDROOT
BRANCH   1  12
HETATM   12  N1  UNL     1      -3.053   0.087   0.102  1.00  0.00    -0.341 N 
HETATM   13  H3  UNL     1      -2.297   0.612  -0.434  1.00  0.00     0.167 HD
BRANCH  12  14
HETATM   14  C4  UNL     1      -4.340   0.740   0.052  1.00  0.00     0.035 A 
HETATM   15  C3  UNL     1      -4.568   1.938  -0.602  1.00  0.00     0.032 A 
HETATM   16  C2  UNL     1      -5.834   2.469  -0.600  1.00  0.00     0.046 A 
HETATM   17  C1  UNL     1      -6.920   1.873   0.025  1.00  0.00     0.138 A 
HETATM   18  F1  UNL     1      -8.126   2.488  -0.038  1.00  0.00    -0.204 F 
HETATM   19  C21 UNL     1      -6.697   0.662   0.689  1.00  0.00     0.074 A 
HETATM   20  C20 UNL     1      -5.426   0.138   0.682  1.00  0.00     0.056 A 
HETATM   21 CL1  UNL     1      -8.064  -0.103   1.482  1.00  0.00    -0.081 Cl
ENDBRANCH  12  14
ENDBRANCH   1  12
BRANCH   4  22
HETATM   22  O1  UNL     1       0.807  -1.134  -0.647  1.00  0.00    -0.348 OA
BRANCH  22  23
HETATM   23  C9  UNL     1       1.489  -0.014  -0.128  1.00  0.00     0.177 C 
BRANCH  23  24
HETATM   24  C10 UNL     1       2.396   0.545  -1.204  1.00  0.00     0.057 C 
BRANCH  24  25
HETATM   25  C11 UNL     1       3.198   1.729  -0.775  1.00  0.00     0.274 C 
BRANCH  25  26
HETATM   26  N2  UNL     1       4.083   1.436   0.340  1.00  0.00     0.092 N 
HETATM   27  C12 UNL     1       4.801   2.647   0.647  1.00  0.00     0.298 C 
HETATM   28  C13 UNL     1       6.219   2.632   0.092  1.00  0.00     0.198 C 
HETATM   29  O2  UNL     1       6.907   1.610   0.695  1.00  0.00    -0.388 OA
HETATM   30  C14 UNL     1       6.217   0.438   0.870  1.00  0.00     0.198 C 
HETATM   31  C15 UNL     1       4.935   0.323   0.094  1.00  0.00     0.298 C 
ENDBRANCH  25  26
ENDBRANCH  24  25
ENDBRANCH  23  24
ENDBRANCH  22  23
ENDBRANCH   4  22
TORSDOF 7
