REMARK  7 active torsions:
REMARK  status: ('A' for Active; 'I' for Inactive)
REMARK    1  A    between atoms: C4_5  and  N1_6 
REMARK    2  A    between atoms: N1_6  and  C5_7 
REMARK    3  A    between atoms: C10_14  and  O1_15 
REMARK    4  A    between atoms: O1_15  and  C11_16 
REMARK    5  A    between atoms: C11_16  and  C12_17 
REMARK    6  A    between atoms: C12_17  and  C13_18 
REMARK    7  A    between atoms: C13_18  and  N4_19 
ROOT
HETATM    1  C5  UNL     1       3.314   0.987  -0.633  1.00  0.00     0.142 A 
HETATM    2  N2  UNL     1       4.297   1.518  -1.368  1.00  0.00    -0.224 NA
HETATM    3  C6  UNL     1       4.247   2.671  -2.046  1.00  0.00     0.236 A 
HETATM    4  N3  UNL     1       3.118   3.396  -2.011  1.00  0.00    -0.241 NA
HETATM    5  C7  UNL     1       2.058   2.935  -1.287  1.00  0.00     0.072 A 
HETATM    6  C8  UNL     1       0.918   3.705  -1.278  1.00  0.00     0.035 A 
HETATM    7  C9  UNL     1      -0.189   3.253  -0.542  1.00  0.00     0.039 A 
HETATM    8  C10 UNL     1      -0.130   2.039   0.168  1.00  0.00     0.069 A 
HETATM    9  C18 UNL     1       1.064   1.366   0.079  1.00  0.00     0.054 A 
HETATM   10  C19 UNL     1       2.173   1.746  -0.614  1.00  0.00     0.041 A 
ENDROOT
BRANCH   1  11
HETATM   11  N1  UNL     1       3.392  -0.228   0.068  1.00  0.00    -0.340 N 
HETATM   12  H3  UNL     1       2.620  -0.579   0.641  1.00  0.00     0.167 HD
BRANCH  11  13
HETATM   13  C4  UNL     1       4.487  -1.128   0.103  1.00  0.00     0.035 A 
HETATM   14  C3  UNL     1       5.536  -1.038  -0.787  1.00  0.00     0.032 A 
HETATM   15  C2  UNL     1       6.605  -1.934  -0.718  1.00  0.00     0.046 A 
HETATM   16  C1  UNL     1       6.674  -2.936   0.220  1.00  0.00     0.138 A 
HETATM   17  F1  UNL     1       7.692  -3.823   0.319  1.00  0.00    -0.204 F 
HETATM   18  C21 UNL     1       5.640  -3.044   1.115  1.00  0.00     0.074 A 
HETATM   19  C20 UNL     1       4.605  -2.148   1.018  1.00  0.00     0.056 A 
HETATM   20 CL1  UNL     1       5.637  -4.287   2.344  1.00  0.00    -0.081 Cl
ENDBRANCH  11  13
ENDBRANCH   1  11
BRANCH   8  21
HETATM   21  O1  UNL     1      -1.323   1.852   0.778  1.00  0.00    -0.351 OA
BRANCH  21  22
HETATM   22  C11 UNL     1      -1.744   0.816   1.565  1.00  0.00     0.177 C 
BRANCH  22  23
HETATM   23  C12 UNL     1      -1.809  -0.547   0.960  1.00  0.00     0.057 C 
BRANCH  23  24
HETATM   24  C13 UNL     1      -2.741  -0.620  -0.227  1.00  0.00     0.274 C 
BRANCH  24  25
HETATM   25  N4  UNL     1      -4.096  -0.264   0.137  1.00  0.00     0.092 N 
HETATM   26  C14 UNL     1      -4.604  -1.309   1.006  1.00  0.00     0.298 C 
HETATM   27  C15 UNL     1      -6.121  -1.250   1.011  1.00  0.00     0.198 C 
HETATM   28  O2  UNL     1      -6.596   0.009   0.662  1.00  0.00    -0.388 OA
HETATM   29  C16 UNL     1      -6.291   0.287  -0.681  1.00  0.00     0.198 C 
HETATM   30  C17 UNL     1      -4.929  -0.255  -1.054  1.00  0.00     0.298 C 
ENDBRANCH  24  25
ENDBRANCH  23  24
ENDBRANCH  22  23
ENDBRANCH  21  22
ENDBRANCH   8  21
TORSDOF 7
