REMARK  8 active torsions:
REMARK  status: ('A' for Active; 'I' for Inactive)
REMARK    1  A    between atoms: O1_2  and  C2_3 
REMARK    2  A    between atoms: C6_9  and  N3_10 
REMARK    3  A    between atoms: N3_10  and  C7_11 
REMARK    4  A    between atoms: C15_21  and  O2_22 
REMARK    5  A    between atoms: O2_22  and  C16_23 
REMARK    6  A    between atoms: C16_23  and  C17_24 
REMARK    7  A    between atoms: C17_24  and  C18_25 
REMARK    8  A    between atoms: C18_25  and  N4_26 
ROOT
HETATM    1  C2  UNL     1       0.662  -0.665  -2.359  1.00  0.00     0.103 A 
HETATM    2  C3  UNL     1       1.767  -1.236  -2.964  1.00  0.00     0.072 A 
HETATM    3  C4  UNL     1       2.853  -1.648  -2.205  1.00  0.00     0.075 A 
HETATM    4  N1  UNL     1       3.967  -2.215  -2.733  1.00  0.00    -0.241 NA
HETATM    5  C5  UNL     1       4.986  -2.594  -1.939  1.00  0.00     0.236 A 
HETATM    6  N2  UNL     1       4.920  -2.418  -0.620  1.00  0.00    -0.224 NA
HETATM    7  C6  UNL     1       3.853  -1.862  -0.007  1.00  0.00     0.142 A 
HETATM    8  C13 UNL     1       2.821  -1.481  -0.834  1.00  0.00     0.042 A 
HETATM    9  C14 UNL     1       1.717  -0.912  -0.242  1.00  0.00     0.057 A 
HETATM   10  C15 UNL     1       0.629  -0.497  -0.979  1.00  0.00     0.103 A 
ENDROOT
BRANCH   7  11
HETATM   11  N3  UNL     1       3.881  -1.722   1.407  1.00  0.00    -0.340 N 
HETATM   12  H6  UNL     1       3.473  -2.526   1.915  1.00  0.00     0.167 HD
BRANCH  11  13
HETATM   13  C7  UNL     1       4.404  -0.611   2.140  1.00  0.00     0.035 A 
HETATM   14  C8  UNL     1       4.428  -0.555   3.525  1.00  0.00     0.032 A 
HETATM   15  C9  UNL     1       4.956   0.562   4.132  1.00  0.00     0.046 A 
HETATM   16  C10 UNL     1       5.467   1.635   3.430  1.00  0.00     0.138 A 
HETATM   17  F1  UNL     1       5.957   2.673   4.140  1.00  0.00    -0.204 F 
HETATM   18  C11 UNL     1       5.444   1.582   2.062  1.00  0.00     0.074 A 
HETATM   19 CL1  UNL     1       6.082   2.925   1.143  1.00  0.00    -0.081 Cl
HETATM   20  C12 UNL     1       4.914   0.461   1.441  1.00  0.00     0.056 A 
ENDBRANCH  11  13
ENDBRANCH   7  11
BRANCH  10  21
HETATM   21  O2  UNL     1      -0.543   0.087  -0.533  1.00  0.00    -0.348 OA
BRANCH  21  22
HETATM   22  C16 UNL     1      -0.778   0.346   0.823  1.00  0.00     0.177 C 
BRANCH  22  23
HETATM   23  C17 UNL     1      -2.152   0.990   1.016  1.00  0.00     0.057 C 
BRANCH  23  24
HETATM   24  C18 UNL     1      -3.244   0.088   0.518  1.00  0.00     0.274 C 
BRANCH  24  25
HETATM   25  N4  UNL     1      -4.558   0.625   0.662  1.00  0.00     0.092 N 
HETATM   26  C19 UNL     1      -5.591  -0.295   0.225  1.00  0.00     0.298 C 
HETATM   27  C20 UNL     1      -6.927   0.377   0.377  1.00  0.00     0.198 C 
HETATM   28  O3  UNL     1      -7.004   1.349  -0.586  1.00  0.00    -0.388 OA
HETATM   29  C21 UNL     1      -5.917   2.148  -0.755  1.00  0.00     0.198 C 
HETATM   30  C22 UNL     1      -4.751   1.950   0.137  1.00  0.00     0.298 C 
ENDBRANCH  24  25
ENDBRANCH  23  24
ENDBRANCH  22  23
ENDBRANCH  21  22
ENDBRANCH  10  21
BRANCH   1  31
HETATM   31  O1  UNL     1      -0.375  -0.285  -3.199  1.00  0.00    -0.353 OA
HETATM   32  C1  UNL     1      -0.250  -0.495  -4.591  1.00  0.00     0.210 C 
ENDBRANCH   1  31
TORSDOF 8
