REMARK  5 active torsions:
REMARK  status: ('A' for Active; 'I' for Inactive)
REMARK    1  A    between atoms: C2_2  and  C3_3 
REMARK    2  A    between atoms: C3_3  and  C4_4 
REMARK    3  A    between atoms: C4_4  and  N1_5 
REMARK    4  A    between atoms: C11_13  and  N3_14 
REMARK    5  A    between atoms: N3_14  and  C12_15 
ROOT
HETATM    1  N1  UNL     1       2.782  -0.462   0.039  1.00  0.00    -0.379 N 
HETATM    2  C5  UNL     1       3.598  -1.533   0.634  1.00  0.00     0.124 C 
HETATM    3  C6  UNL     1       2.747  -2.635   1.172  1.00  0.00     0.039 C 
HETATM    4  C7  UNL     1       1.968  -3.405   0.161  1.00  0.00     0.121 C 
HETATM    5  N2  UNL     1       0.639  -2.777   0.087  1.00  0.00    -0.388 N 
HETATM    6  C8  UNL     1       0.426  -1.363   0.016  1.00  0.00     0.056 A 
HETATM    7  C9  UNL     1      -0.902  -1.001  -0.038  1.00  0.00     0.049 A 
HETATM    8  C10 UNL     1      -1.393   0.282  -0.111  1.00  0.00     0.041 A 
HETATM    9  C11 UNL     1      -2.731   0.602  -0.165  1.00  0.00     0.142 A 
HETATM   10  N4  UNL     1      -2.977   1.913  -0.234  1.00  0.00    -0.224 NA
HETATM   11  C18 UNL     1      -2.080   2.888  -0.254  1.00  0.00     0.236 A 
HETATM   12  N5  UNL     1      -0.759   2.545  -0.200  1.00  0.00    -0.241 NA
HETATM   13  C19 UNL     1      -0.401   1.238  -0.128  1.00  0.00     0.074 A 
HETATM   14  C20 UNL     1       0.946   0.959  -0.077  1.00  0.00     0.064 A 
HETATM   15  C21 UNL     1       1.365  -0.351  -0.005  1.00  0.00     0.059 A 
HETATM   16  H16 UNL     1      -0.228  -3.359   0.083  1.00  0.00     0.159 HD
ENDROOT
BRANCH   9  17
HETATM   17  N3  UNL     1      -3.694  -0.430  -0.134  1.00  0.00    -0.340 N 
HETATM   18  H18 UNL     1      -3.435  -1.412  -0.045  1.00  0.00     0.167 HD
BRANCH  17  19
HETATM   19  C12 UNL     1      -5.101  -0.297  -0.218  1.00  0.00     0.035 A 
HETATM   20  C13 UNL     1      -5.726   0.880  -0.536  1.00  0.00     0.032 A 
HETATM   21  C14 UNL     1      -7.091   1.039  -0.615  1.00  0.00     0.046 A 
HETATM   22  C15 UNL     1      -7.922  -0.017  -0.368  1.00  0.00     0.138 A 
HETATM   23  F1  UNL     1      -9.270   0.059  -0.425  1.00  0.00    -0.204 F 
HETATM   24  C16 UNL     1      -7.352  -1.227  -0.043  1.00  0.00     0.074 A 
HETATM   25 CL1  UNL     1      -8.348  -2.627   0.288  1.00  0.00    -0.081 Cl
HETATM   26  C17 UNL     1      -5.991  -1.316   0.018  1.00  0.00     0.056 A 
ENDBRANCH  17  19
ENDBRANCH   9  17
BRANCH   1  27
HETATM   27  C4  UNL     1       3.508   0.615  -0.580  1.00  0.00     0.123 C 
BRANCH  27  28
HETATM   28  C3  UNL     1       4.281   1.495   0.326  1.00  0.00     0.019 C 
BRANCH  28  29
HETATM   29  C2  UNL     1       5.006   2.597  -0.463  1.00  0.00    -0.003 C 
HETATM   30  C1  UNL     1       5.963   2.001  -1.457  1.00  0.00     0.005 C 
ENDBRANCH  28  29
ENDBRANCH  27  28
ENDBRANCH   1  27
TORSDOF 5
