REMARK  5 active torsions:
REMARK  status: ('A' for Active; 'I' for Inactive)
REMARK    1  A    between atoms: C7_11  and  N3_12 
REMARK    2  A    between atoms: N4_23  and  C16_24 
REMARK    3  A    between atoms: C16_24  and  C17_25 
REMARK    4  A    between atoms: C17_25  and  C18_26 
REMARK    5  A    between atoms: C18_26  and  N5_27 
ROOT
HETATM    1  O1  UNL     1       2.145  -2.092   1.914  1.00  0.00    -0.271 OA
HETATM    2  C1  UNL     1       0.976  -2.440   1.560  1.00  0.00     0.248 C 
HETATM    3  C2  UNL     1       0.717  -3.899   1.667  1.00  0.00     0.279 C 
HETATM    4  O2  UNL     1      -0.693  -4.067   1.882  1.00  0.00    -0.340 OA
HETATM    5  C3  UNL     1      -1.605  -3.133   1.450  1.00  0.00     0.098 A 
HETATM    6  C4  UNL     1      -2.912  -3.529   1.400  1.00  0.00     0.071 A 
HETATM    7  C5  UNL     1      -3.862  -2.629   0.968  1.00  0.00     0.075 A 
HETATM    8  N1  UNL     1      -5.162  -2.989   0.901  1.00  0.00    -0.241 NA
HETATM    9  C6  UNL     1      -6.100  -2.129   0.480  1.00  0.00     0.236 A 
HETATM   10  N2  UNL     1      -5.828  -0.836   0.089  1.00  0.00    -0.223 NA
HETATM   11  C7  UNL     1      -4.505  -0.480   0.158  1.00  0.00     0.147 A 
HETATM   12  C13 UNL     1      -3.526  -1.347   0.589  1.00  0.00     0.042 A 
HETATM   13  C14 UNL     1      -2.212  -0.886   0.619  1.00  0.00     0.050 A 
HETATM   14  C15 UNL     1      -1.295  -1.846   1.065  1.00  0.00     0.071 A 
HETATM   15  N4  UNL     1       0.047  -1.426   1.104  1.00  0.00    -0.314 N 
ENDROOT
BRANCH  15  16
HETATM   16  C16 UNL     1       0.620  -0.166   0.753  1.00  0.00     0.134 C 
BRANCH  16  17
HETATM   17  C17 UNL     1       0.965  -0.138  -0.703  1.00  0.00     0.050 C 
BRANCH  17  18
HETATM   18  C18 UNL     1       1.659   1.133  -1.148  1.00  0.00     0.274 C 
BRANCH  18  19
HETATM   19  N5  UNL     1       2.915   1.306  -0.436  1.00  0.00     0.088 N 
HETATM   20  C19 UNL     1       3.555   2.493  -0.959  1.00  0.00     0.272 C 
HETATM   21  C20 UNL     1       4.923   2.709  -0.350  1.00  0.00     0.030 C 
HETATM   22  C21 UNL     1       5.783   1.472  -0.361  1.00  0.00     0.003 C 
HETATM   23  C22 UNL     1       4.983   0.354   0.279  1.00  0.00     0.030 C 
HETATM   24  C23 UNL     1       3.768   0.137  -0.605  1.00  0.00     0.272 C 
ENDBRANCH  18  19
ENDBRANCH  17  18
ENDBRANCH  16  17
ENDBRANCH  15  16
BRANCH  11  25
HETATM   25  N3  UNL     1      -4.179   0.852  -0.257  1.00  0.00    -0.314 N 
HETATM   26  C8  UNL     1      -4.132   0.942  -1.686  1.00  0.00     0.113 C 
HETATM   27  C9  UNL     1      -3.494   1.966  -2.220  1.00  0.00     0.035 C 
HETATM   28  C10 UNL     1      -3.608   3.109  -1.605  1.00  0.00     0.152 C 
HETATM   29  F1  UNL     1      -3.693   4.295  -2.255  1.00  0.00    -0.203 F 
HETATM   30  C11 UNL     1      -3.641   3.082  -0.154  1.00  0.00     0.089 C 
HETATM   31 CL1  UNL     1      -3.308   4.513   0.762  1.00  0.00    -0.080 Cl
HETATM   32  C12 UNL     1      -3.920   1.987   0.558  1.00  0.00     0.125 C 
ENDBRANCH  11  25
TORSDOF 5
