REMARK  6 active torsions:
REMARK  status: ('A' for Active; 'I' for Inactive)
REMARK    1  A    between atoms: N3_11  and  C7_12 
REMARK    2  A    between atoms: C7_12  and  C8_13 
REMARK    3  A    between atoms: C8_13  and  C9_14 
REMARK    4  A    between atoms: C9_14  and  N4_15 
REMARK    5  A    between atoms: C18_24  and  N5_25 
REMARK    6  A    between atoms: N5_25  and  C19_26 
ROOT
HETATM    1  N1  UNL     1       6.313  -2.255   2.879  1.00  0.00    -0.170 NA
HETATM    2  C1  UNL     1       5.654  -1.588   2.174  1.00  0.00     0.206 C 
HETATM    3  N2  UNL     1       4.855  -0.792   1.355  1.00  0.00    -0.173 NA
HETATM    4  C2  UNL     1       3.569  -0.787   1.447  1.00  0.00     0.083 A 
HETATM    5  C3  UNL     1       2.909  -1.632   2.433  1.00  0.00     0.072 A 
HETATM    6  C4  UNL     1       1.592  -1.644   2.547  1.00  0.00     0.098 A 
HETATM    7  O1  UNL     1       1.029  -2.476   3.511  1.00  0.00    -0.340 OA
HETATM    8  C5  UNL     1      -0.371  -2.592   3.686  1.00  0.00     0.279 A 
HETATM    9  C6  UNL     1      -1.125  -1.690   2.799  1.00  0.00     0.248 A 
HETATM   10  O2  UNL     1      -2.374  -1.762   3.024  1.00  0.00    -0.271 OA
HETATM   11  N3  UNL     1      -0.641  -0.795   1.774  1.00  0.00    -0.314 N 
HETATM   12  C15 UNL     1       0.785  -0.800   1.674  1.00  0.00     0.071 A 
HETATM   13  C16 UNL     1       1.302  -0.002   0.750  1.00  0.00     0.048 A 
HETATM   14  C17 UNL     1       2.750   0.045   0.588  1.00  0.00     0.011 A 
HETATM   15  C18 UNL     1       3.275   0.837  -0.325  1.00  0.00     0.102 C 
ENDROOT
BRANCH  15  16
HETATM   16  N5  UNL     1       4.672   0.950  -0.552  1.00  0.00    -0.365 N 
HETATM   17  H22 UNL     1       5.558   1.025  -0.004  1.00  0.00     0.165 HD
BRANCH  16  18
HETATM   18  C19 UNL     1       5.326   0.997  -1.837  1.00  0.00     0.033 A 
HETATM   19  C20 UNL     1       5.763  -0.146  -2.474  1.00  0.00     0.032 A 
HETATM   20  C21 UNL     1       6.387  -0.035  -3.711  1.00  0.00     0.046 A 
HETATM   21  C22 UNL     1       6.537   1.222  -4.238  1.00  0.00     0.138 A 
HETATM   22  F1  UNL     1       7.149   1.357  -5.453  1.00  0.00    -0.204 F 
HETATM   23  C23 UNL     1       6.125   2.400  -3.654  1.00  0.00     0.074 A 
HETATM   24 CL1  UNL     1       6.361   3.963  -4.407  1.00  0.00    -0.081 Cl
HETATM   25  C24 UNL     1       5.501   2.259  -2.414  1.00  0.00     0.056 A 
ENDBRANCH  16  18
ENDBRANCH  15  16
BRANCH  11  26
HETATM   26  C7  UNL     1      -1.580  -0.024   0.988  1.00  0.00     0.134 C 
BRANCH  26  27
HETATM   27  C8  UNL     1      -2.015  -0.737  -0.268  1.00  0.00     0.050 C 
BRANCH  27  28
HETATM   28  C9  UNL     1      -2.979  -0.001  -1.114  1.00  0.00     0.274 C 
BRANCH  28  29
HETATM   29  N4  UNL     1      -4.223   0.343  -0.533  1.00  0.00     0.088 N 
HETATM   30  C10 UNL     1      -5.108  -0.740  -0.236  1.00  0.00     0.272 C 
HETATM   31  C11 UNL     1      -6.543  -0.275  -0.085  1.00  0.00     0.030 C 
HETATM   32  C12 UNL     1      -6.628   1.156   0.362  1.00  0.00     0.003 C 
HETATM   33  C13 UNL     1      -5.848   2.121  -0.480  1.00  0.00     0.030 C 
HETATM   34  C14 UNL     1      -4.877   1.374  -1.337  1.00  0.00     0.272 C 
ENDBRANCH  28  29
ENDBRANCH  27  28
ENDBRANCH  26  27
ENDBRANCH  11  26
TORSDOF 6
