REMARK  2 active torsions:
REMARK  status: ('A' for Active; 'I' for Inactive)
REMARK    1  A    between atoms: C4_5  and  N1_6 
REMARK    2  A    between atoms: N1_6  and  C5_7 
ROOT
HETATM    1  C5  UNL     1       3.052  -1.202  -0.148  1.00  0.00     0.142 A 
HETATM    2  N2  UNL     1       3.592  -2.369  -0.437  1.00  0.00    -0.224 NA
HETATM    3  C6  UNL     1       2.944  -3.398  -0.989  1.00  0.00     0.236 A 
HETATM    4  N3  UNL     1       1.640  -3.314  -1.303  1.00  0.00    -0.241 NA
HETATM    5  C7  UNL     1       1.013  -2.140  -1.035  1.00  0.00     0.074 A 
HETATM    6  C8  UNL     1      -0.323  -2.088  -1.369  1.00  0.00     0.070 A 
HETATM    7  C9  UNL     1      -1.039  -0.952  -1.137  1.00  0.00     0.080 A 
HETATM    8  C10 UNL     1      -0.392   0.122  -0.567  1.00  0.00    -0.016 A 
HETATM    9  C11 UNL     1       0.947  -0.002  -0.259  1.00  0.00     0.028 A 
HETATM   10  C12 UNL     1       1.728  -1.106  -0.462  1.00  0.00     0.039 A 
HETATM   11  C13 UNL     1      -0.992   1.441  -0.237  1.00  0.00     0.057 C 
HETATM   12  C14 UNL     1      -1.776   1.401   1.035  1.00  0.00     0.130 C 
HETATM   13  N4  UNL     1      -3.143   1.081   0.942  1.00  0.00    -0.392 N 
HETATM   14  C15 UNL     1      -3.662   0.028   1.685  1.00  0.00     0.119 C 
HETATM   15  C16 UNL     1      -4.821  -0.709   1.103  1.00  0.00     0.020 C 
HETATM   16  C17 UNL     1      -5.801   0.151   0.378  1.00  0.00     0.005 C 
HETATM   17  C18 UNL     1      -5.240   1.346  -0.312  1.00  0.00     0.046 C 
HETATM   18  C19 UNL     1      -3.775   1.553  -0.224  1.00  0.00     0.178 C 
HETATM   19  N5  UNL     1      -3.096   1.235  -1.463  1.00  0.00    -0.370 N 
HETATM   20  C20 UNL     1      -3.257  -0.064  -1.957  1.00  0.00     0.297 C 
HETATM   21  O1  UNL     1      -2.357  -1.047  -1.520  1.00  0.00    -0.332 OA
HETATM   22  C21 UNL     1      -1.812   1.818  -1.453  1.00  0.00     0.132 C 
ENDROOT
BRANCH   1  23
HETATM   23  N1  UNL     1       3.699  -0.102   0.431  1.00  0.00    -0.340 N 
HETATM   24  H3  UNL     1       3.229   0.783   0.616  1.00  0.00     0.167 HD
BRANCH  23  25
HETATM   25  C4  UNL     1       5.052  -0.013   0.847  1.00  0.00     0.035 A 
HETATM   26  C3  UNL     1       5.908  -1.089   0.863  1.00  0.00     0.032 A 
HETATM   27  C2  UNL     1       7.223  -1.033   1.253  1.00  0.00     0.046 A 
HETATM   28  C1  UNL     1       7.775   0.155   1.665  1.00  0.00     0.138 A 
HETATM   29  F1  UNL     1       9.048   0.301   2.061  1.00  0.00    -0.204 F 
HETATM   30  C23 UNL     1       6.971   1.256   1.668  1.00  0.00     0.074 A 
HETATM   31  C22 UNL     1       5.671   1.143   1.271  1.00  0.00     0.056 A 
HETATM   32 CL1  UNL     1       7.605   2.804   2.180  1.00  0.00    -0.081 Cl
ENDBRANCH  23  25
ENDBRANCH   1  23
TORSDOF 2
