REMARK  3 active torsions:
REMARK  status: ('A' for Active; 'I' for Inactive)
REMARK    1  A    between atoms: N1_9  and  C7_10 
REMARK    2  A    between atoms: C15_21  and  N4_22 
REMARK    3  A    between atoms: C22_30  and  O2_31 
ROOT
HETATM    1  C7  UNL     1       0.878  -0.293  -0.412  1.00  0.00     0.203 C 
HETATM    2  N2  UNL     1       1.484  -1.637  -0.364  1.00  0.00    -0.260 NA
HETATM    3  C8  UNL     1       1.210  -2.509  -1.294  1.00  0.00     0.272 C 
HETATM    4  N3  UNL     1       1.413  -3.828  -1.801  1.00  0.00    -0.270 NA
HETATM    5  C9  UNL     1       0.554  -4.773  -1.511  1.00  0.00     0.113 C 
HETATM    6  C10 UNL     1      -0.606  -4.449  -0.693  1.00  0.00     0.024 C 
HETATM    7  C11 UNL     1      -1.470  -3.654  -0.078  1.00  0.00    -0.054 C 
HETATM    8  C12 UNL     1      -2.579  -2.991   0.719  1.00  0.00     0.116 C 
HETATM    9  C13 UNL     1      -1.833  -1.859   1.445  1.00  0.00     0.155 C 
HETATM   10  O1  UNL     1      -2.493  -1.693   2.488  1.00  0.00    -0.295 OA
HETATM   11  C14 UNL     1      -0.678  -1.425   0.667  1.00  0.00     0.190 C 
HETATM   12  C15 UNL     1       0.049  -0.173   0.853  1.00  0.00     0.307 C 
HETATM   13  N5  UNL     1      -1.087  -1.391  -0.719  1.00  0.00    -0.367 N 
HETATM   14  C21 UNL     1      -1.477  -2.616  -1.196  1.00  0.00     0.155 C 
HETATM   15  C22 UNL     1      -0.258  -0.509  -1.429  1.00  0.00     0.270 C 
ENDROOT
BRANCH   1  16
HETATM   16  N1  UNL     1       1.757   0.706  -0.794  1.00  0.00    -0.329 N 
HETATM   17  C2  UNL     1       2.213   1.986  -0.303  1.00  0.00     0.162 A 
HETATM   18  C1  UNL     1       2.684   1.993   1.097  1.00  0.00     0.065 C 
HETATM   19 CL1  UNL     1       0.832   3.135  -0.476  1.00  0.00    -0.088 Cl
HETATM   20  C3  UNL     1       3.272   2.585  -1.159  1.00  0.00     0.137 A 
HETATM   21  F1  UNL     1       3.678   3.783  -0.622  1.00  0.00    -0.207 F 
HETATM   22  C4  UNL     1       3.838   2.166  -2.277  1.00  0.00     0.043 A 
HETATM   23  C5  UNL     1       3.302   0.867  -2.726  1.00  0.00     0.020 A 
HETATM   24  C6  UNL     1       2.353   0.229  -2.030  1.00  0.00     0.091 A 
ENDBRANCH   1  16
BRANCH  12  25
HETATM   25  N4  UNL     1      -0.694   1.019   1.019  1.00  0.00     0.100 N 
HETATM   26  C16 UNL     1      -0.578   1.462   2.439  1.00  0.00     0.273 C 
HETATM   27  C17 UNL     1      -0.954   2.895   2.489  1.00  0.00     0.030 C 
HETATM   28  C18 UNL     1      -1.993   3.379   1.550  1.00  0.00     0.003 C 
HETATM   29  C19 UNL     1      -2.509   2.428   0.535  1.00  0.00     0.030 C 
HETATM   30  C20 UNL     1      -2.121   0.976   0.875  1.00  0.00     0.273 C 
ENDBRANCH  12  25
BRANCH  15  31
HETATM   31  O2  UNL     1      -0.877   0.620  -1.834  1.00  0.00    -0.372 OA
HETATM   32  H27 UNL     1      -0.741   0.882  -2.777  1.00  0.00     0.212 HD
ENDBRANCH  15  31
TORSDOF 3
