REMARK  4 active torsions:
REMARK  status: ('A' for Active; 'I' for Inactive)
REMARK    1  A    between atoms: N3_14  and  C10_15 
REMARK    2  A    between atoms: C10_15  and  C11_16 
REMARK    3  A    between atoms: C11_16  and  C12_17 
REMARK    4  A    between atoms: C12_17  and  N4_18 
ROOT
HETATM    1  O1  UNL     1       0.898   1.036   2.115  1.00  0.00    -0.271 OA
HETATM    2  C1  UNL     1       1.913   1.060   1.334  1.00  0.00     0.247 C 
HETATM    3  C2  UNL     1       2.850   1.955   2.003  1.00  0.00     0.278 C 
HETATM    4  O2  UNL     1       4.190   2.056   1.423  1.00  0.00    -0.341 OA
HETATM    5  C3  UNL     1       4.718   1.589   0.225  1.00  0.00     0.076 C 
HETATM    6  C4  UNL     1       5.733   0.784  -0.008  1.00  0.00     0.067 C 
HETATM    7  C5  UNL     1       5.412  -0.263  -1.010  1.00  0.00     0.068 A 
HETATM    8  N1  UNL     1       6.030  -1.399  -1.061  1.00  0.00    -0.244 NA
HETATM    9  C6  UNL     1       5.406  -2.131  -2.156  1.00  0.00     0.228 A 
HETATM   10  N2  UNL     1       4.470  -1.457  -2.719  1.00  0.00    -0.267 NA
HETATM   11  C7  UNL     1       4.333  -0.232  -2.134  1.00  0.00     0.196 A 
HETATM   12  C8  UNL     1       3.169   0.385  -1.557  1.00  0.00    -0.003 C 
HETATM   13  C9  UNL     1       2.037  -0.061  -1.076  1.00  0.00     0.104 C 
HETATM   14  N3  UNL     1       1.512   0.179   0.254  1.00  0.00    -0.326 N 
HETATM   15  P1  UNL     1       3.756   2.229  -1.317  1.00  0.00    -0.035 P 
HETATM   16  H23 UNL     1       4.616   2.599  -2.355  1.00  0.00     0.069 HD
ENDROOT
BRANCH  14  17
HETATM   17  C10 UNL     1       0.400  -0.715   0.359  1.00  0.00     0.133 C 
BRANCH  17  18
HETATM   18  C11 UNL     1      -0.914  -0.124  -0.093  1.00  0.00     0.050 C 
BRANCH  18  19
HETATM   19  C12 UNL     1      -2.032  -1.139   0.053  1.00  0.00     0.274 C 
BRANCH  19  20
HETATM   20  N4  UNL     1      -3.301  -0.583  -0.379  1.00  0.00     0.088 N 
HETATM   21  C13 UNL     1      -4.272  -1.665  -0.181  1.00  0.00     0.272 C 
HETATM   22  C14 UNL     1      -5.683  -1.240  -0.406  1.00  0.00     0.030 C 
HETATM   23  C15 UNL     1      -5.795   0.232  -0.752  1.00  0.00     0.003 C 
HETATM   24  C16 UNL     1      -5.068   0.971   0.366  1.00  0.00     0.030 C 
HETATM   25  C17 UNL     1      -3.623   0.555   0.437  1.00  0.00     0.272 C 
ENDBRANCH  19  20
ENDBRANCH  18  19
ENDBRANCH  17  18
ENDBRANCH  14  17
TORSDOF 4
