REMARK  7 active torsions:
REMARK  status: ('A' for Active; 'I' for Inactive)
REMARK    1  A    between atoms: C5_7  and  C6_8 
REMARK    2  A    between atoms: C7_9  and  N1_11 
REMARK    3  A    between atoms: N1_11  and  C8_12 
REMARK    4  A    between atoms: N2_19  and  C14_20 
REMARK    5  A    between atoms: C14_20  and  C15_21 
REMARK    6  A    between atoms: C15_21  and  C16_22 
REMARK    7  A    between atoms: C16_22  and  N3_23 
ROOT
HETATM    1  O1  UNL     1       1.974  -3.424  -1.307  1.00  0.00    -0.271 OA
HETATM    2  C1  UNL     1       0.851  -3.143  -1.761  1.00  0.00     0.247 C 
HETATM    3  C2  UNL     1       0.388  -3.839  -2.993  1.00  0.00     0.271 C 
HETATM    4  O2  UNL     1      -0.957  -3.661  -3.232  1.00  0.00    -0.376 OA
HETATM    5  C3  UNL     1      -1.719  -3.481  -2.078  1.00  0.00     0.225 C 
HETATM    6  C4  UNL     1      -1.383  -2.255  -1.345  1.00  0.00     0.038 C 
HETATM    7  C5  UNL     1      -2.164  -1.310  -0.913  1.00  0.00     0.030 C 
HETATM    8  N2  UNL     1       0.019  -2.173  -1.117  1.00  0.00    -0.318 N 
ENDROOT
BRANCH   7   9
HETATM    9  C6  UNL     1      -3.607  -1.198  -1.035  1.00  0.00     0.044 C 
HETATM   10  C7  UNL     1      -4.378  -0.207  -0.577  1.00  0.00     0.103 C 
HETATM   11 CL1  UNL     1      -6.111  -0.238  -0.813  1.00  0.00    -0.065 Cl
BRANCH  10  12
HETATM   12  N1  UNL     1      -3.653   0.826   0.071  1.00  0.00    -0.347 N 
HETATM   13  H7  UNL     1      -2.771   1.283  -0.219  1.00  0.00     0.167 HD
BRANCH  12  14
HETATM   14  C8  UNL     1      -3.888   1.553   1.290  1.00  0.00     0.033 A 
HETATM   15  C9  UNL     1      -3.410   1.185   2.533  1.00  0.00     0.032 A 
HETATM   16  C10 UNL     1      -3.731   1.996   3.601  1.00  0.00     0.044 A 
HETATM   17  C11 UNL     1      -4.490   3.133   3.488  1.00  0.00     0.116 A 
HETATM   18  F1  UNL     1      -4.812   3.933   4.515  1.00  0.00    -0.206 F 
HETATM   19  C12 UNL     1      -4.955   3.473   2.223  1.00  0.00     0.044 A 
HETATM   20  C13 UNL     1      -4.651   2.686   1.143  1.00  0.00     0.032 A 
ENDBRANCH  12  14
ENDBRANCH  10  12
ENDBRANCH   7   9
BRANCH   8  21
HETATM   21  C14 UNL     1       0.631  -1.147  -0.262  1.00  0.00     0.134 C 
BRANCH  21  22
HETATM   22  C15 UNL     1       1.000   0.096  -1.023  1.00  0.00     0.050 C 
BRANCH  22  23
HETATM   23  C16 UNL     1       1.612   1.044  -0.001  1.00  0.00     0.274 C 
BRANCH  23  24
HETATM   24  N3  UNL     1       2.778   0.454   0.604  1.00  0.00     0.088 N 
HETATM   25  C17 UNL     1       3.893   0.294  -0.273  1.00  0.00     0.272 C 
HETATM   26  C18 UNL     1       4.973   1.312   0.068  1.00  0.00     0.030 C 
HETATM   27  C19 UNL     1       5.531   0.935   1.424  1.00  0.00     0.003 C 
HETATM   28  C20 UNL     1       4.431   0.582   2.383  1.00  0.00     0.030 C 
HETATM   29  C21 UNL     1       3.076   0.989   1.898  1.00  0.00     0.272 C 
ENDBRANCH  23  24
ENDBRANCH  22  23
ENDBRANCH  21  22
ENDBRANCH   8  21
TORSDOF 7
