REMARK  1 active torsions:
REMARK  status: ('A' for Active; 'I' for Inactive)
REMARK    1  A    between atoms: N3_10  and  C6_11 
ROOT
HETATM    1  O1  UNL     1      -3.775   1.508  -0.072  1.00  0.00    -0.271 OA
HETATM    2  C1  UNL     1      -2.599   1.694  -0.412  1.00  0.00     0.247 C 
HETATM    3  C2  UNL     1      -2.336   3.117  -0.130  1.00  0.00     0.271 C 
HETATM    4  O2  UNL     1      -0.949   3.343  -0.015  1.00  0.00    -0.376 OA
HETATM    5  C3  UNL     1      -0.404   2.692   1.044  1.00  0.00     0.226 C 
HETATM    6  C4  UNL     1      -0.465   1.231   1.165  1.00  0.00     0.083 A 
HETATM    7  N1  UNL     1      -0.877   0.057   1.442  1.00  0.00    -0.235 NA
HETATM    8  C5  UNL     1      -0.082  -1.103   1.203  1.00  0.00     0.154 A 
HETATM    9  N2  UNL     1       1.138  -1.369   0.705  1.00  0.00    -0.061 NA
HETATM   10  N3  UNL     1       1.828  -0.108   0.291  1.00  0.00     0.097 N 
HETATM   11  C12 UNL     1       0.750   0.716   0.685  1.00  0.00     0.281 A 
HETATM   12  C13 UNL     1       0.863   0.027  -0.559  1.00  0.00     0.298 A 
HETATM   13  C14 UNL     1      -0.241  -0.293  -1.512  1.00  0.00     0.030 C 
HETATM   14  C15 UNL     1      -1.592  -0.167  -1.573  1.00  0.00     0.092 C 
HETATM   15  N4  UNL     1      -2.693   0.331  -0.741  1.00  0.00    -0.327 N 
HETATM   16  C16 UNL     1      -3.568  -0.824  -0.563  1.00  0.00     0.131 C 
HETATM   17  C17 UNL     1      -3.379  -1.713   0.568  1.00  0.00     0.021 C 
HETATM   18  C18 UNL     1      -2.242  -2.480   0.970  1.00  0.00     0.009 C 
HETATM   19  C19 UNL     1      -1.024  -2.075   1.658  1.00  0.00     0.082 C 
ENDROOT
BRANCH  10  20
HETATM   20  C6  UNL     1       3.129   0.043  -0.227  1.00  0.00     0.167 A 
HETATM   21  C7  UNL     1       3.615   1.276  -0.595  1.00  0.00     0.043 A 
HETATM   22  C8  UNL     1       4.885   1.283  -1.075  1.00  0.00     0.046 A 
HETATM   23  C9  UNL     1       5.634   0.137  -1.186  1.00  0.00     0.138 A 
HETATM   24  F1  UNL     1       6.893   0.192  -1.669  1.00  0.00    -0.204 F 
HETATM   25  C10 UNL     1       5.062  -1.068  -0.790  1.00  0.00     0.074 A 
HETATM   26 CL1  UNL     1       6.038  -2.532  -0.939  1.00  0.00    -0.081 Cl
HETATM   27  C11 UNL     1       3.758  -1.155  -0.285  1.00  0.00     0.067 A 
ENDBRANCH  10  20
TORSDOF 1
