REMARK  5 active torsions:
REMARK  status: ('A' for Active; 'I' for Inactive)
REMARK    1  A    between atoms: C2_2  and  C3_3 
REMARK    2  A    between atoms: C3_3  and  O1_4 
REMARK    3  A    between atoms: C6_8  and  N2_9 
REMARK    4  A    between atoms: N2_9  and  C7_10 
REMARK    5  A    between atoms: C7_10  and  C8_11 
ROOT
HETATM    1  C3  UNL     1      -3.173  -0.111  -0.381  1.00  0.00     0.259 C 
HETATM    2  N1  UNL     1      -1.861   0.547  -0.355  1.00  0.00    -0.328 N 
HETATM    3  C5  UNL     1      -1.002  -0.440   0.200  1.00  0.00     0.132 A 
HETATM    4  C6  UNL     1       0.290  -0.326   0.728  1.00  0.00     0.156 A 
HETATM    5  N3  UNL     1       0.855  -1.453   1.184  1.00  0.00    -0.222 NA
HETATM    6  C14 UNL     1       0.226  -2.640   1.144  1.00  0.00     0.238 A 
HETATM    7  N4  UNL     1      -1.025  -2.772   0.638  1.00  0.00    -0.216 NA
HETATM    8  C15 UNL     1      -1.634  -1.660   0.165  1.00  0.00     0.200 A 
HETATM    9  O2  UNL     1      -2.889  -1.496  -0.400  1.00  0.00    -0.275 OA
HETATM   10  H7  UNL     1      -1.644   1.515  -0.676  1.00  0.00     0.165 HD
ENDROOT
BRANCH   4  11
HETATM   11  N2  UNL     1       0.931   0.937   0.760  1.00  0.00    -0.369 N 
HETATM   12  H8  UNL     1       0.387   1.762   0.373  1.00  0.00     0.161 HD
BRANCH  11  13
HETATM   13  C7  UNL     1       2.253   1.244   1.263  1.00  0.00     0.160 C 
BRANCH  13  14
HETATM   14  C8  UNL     1       3.317   0.520   0.523  1.00  0.00    -0.041 A 
HETATM   15  C9  UNL     1       3.755   1.202  -0.618  1.00  0.00     0.009 A 
HETATM   16  C10 UNL     1       4.740   0.727  -1.457  1.00  0.00     0.001 A 
HETATM   17  C11 UNL     1       5.337  -0.473  -1.181  1.00  0.00     0.000 A 
HETATM   18  C12 UNL     1       4.914  -1.151  -0.062  1.00  0.00     0.001 A 
HETATM   19  C13 UNL     1       3.933  -0.685   0.781  1.00  0.00     0.009 A 
ENDBRANCH  13  14
ENDBRANCH  11  13
ENDBRANCH   4  11
BRANCH   1  20
HETATM   20  C2  UNL     1      -3.937   0.218  -1.605  1.00  0.00     0.083 C 
HETATM   21  C1  UNL     1      -5.135  -0.346  -1.477  1.00  0.00     0.013 C 
ENDBRANCH   1  20
BRANCH   1  22
HETATM   22  O1  UNL     1      -3.883   0.174   0.788  1.00  0.00    -0.343 OA
HETATM   23  C4  UNL     1      -4.209   1.512   0.899  1.00  0.00     0.207 C 
ENDBRANCH   1  22
TORSDOF 5
