REMARK  6 active torsions:
REMARK  status: ('A' for Active; 'I' for Inactive)
REMARK    1  A    between atoms: C7_7  and  N1_8 
REMARK    2  A    between atoms: C15_18  and  N4_19 
REMARK    3  A    between atoms: C15_18  and  C16_20 
REMARK    4  A    between atoms: C16_20  and  C17_21 
REMARK    5  A    between atoms: C17_21  and  C18_22 
REMARK    6  A    between atoms: C18_22  and  N5_23 
ROOT
HETATM    1  N1  UNL     1      -1.820  -1.908   0.524  1.00  0.00    -0.257 N 
HETATM    2  N2  UNL     1      -1.855  -2.970   1.364  1.00  0.00    -0.287 N 
HETATM    3  C8  UNL     1      -1.379  -4.280   1.129  1.00  0.00     0.224 A 
HETATM    4  N3  UNL     1      -0.832  -4.511  -0.048  1.00  0.00    -0.241 NA
HETATM    5  C9  UNL     1      -0.753  -3.473  -0.973  1.00  0.00     0.081 A 
HETATM    6  C10 UNL     1      -0.309  -3.547  -2.259  1.00  0.00     0.019 A 
HETATM    7  C11 UNL     1      -0.549  -2.250  -2.744  1.00  0.00     0.014 A 
HETATM    8  C12 UNL     1      -0.772  -1.072  -3.170  1.00  0.00     0.025 A 
HETATM    9  C13 UNL     1      -1.152  -1.342  -1.704  1.00  0.00     0.049 A 
HETATM   10  C14 UNL     1      -1.232  -2.194  -0.689  1.00  0.00     0.075 A 
HETATM   11  C15 UNL     1      -0.824   0.106  -1.093  1.00  0.00     0.038 C 
HETATM   12  C24 UNL     1       0.229   0.176  -2.325  1.00  0.00     0.034 C 
HETATM   13  O2  UNL     1      -0.668  -0.853  -3.145  1.00  0.00     0.000 OA
HETATM   14  H7  UNL     1      -2.273  -2.835   2.286  1.00  0.00     0.188 HD
ENDROOT
BRANCH  11  15
HETATM   15  N4  UNL     1      -1.674   1.102  -1.487  1.00  0.00    -0.420 N 
HETATM   16  H11 UNL     1      -2.141   1.734  -0.849  1.00  0.00     0.150 HD
HETATM   17  H12 UNL     1      -1.843   1.262  -2.492  1.00  0.00     0.150 HD
ENDBRANCH  11  15
BRANCH  11  18
HETATM   18  C16 UNL     1       0.214   0.198  -0.082  1.00  0.00     0.033 C 
BRANCH  18  19
HETATM   19  C17 UNL     1       0.395   1.636   0.346  1.00  0.00     0.022 C 
BRANCH  19  20
HETATM   20  C18 UNL     1       1.478   1.640   1.405  1.00  0.00     0.126 C 
BRANCH  20  21
HETATM   21  N5  UNL     1       2.744   1.145   0.974  1.00  0.00    -0.352 N 
HETATM   22  C19 UNL     1       3.623   2.160   0.402  1.00  0.00     0.125 C 
HETATM   23  C20 UNL     1       5.076   1.802   0.556  1.00  0.00     0.020 C 
HETATM   24  C21 UNL     1       5.430   0.433   0.079  1.00  0.00     0.011 C 
HETATM   25  C22 UNL     1       4.279  -0.513  -0.005  1.00  0.00     0.103 C 
HETATM   26  C23 UNL     1       3.242  -0.209   1.033  1.00  0.00     0.219 C 
HETATM   27  O1  UNL     1       2.699  -0.885   1.964  1.00  0.00    -0.273 OA
ENDBRANCH  20  21
ENDBRANCH  19  20
ENDBRANCH  18  19
ENDBRANCH  11  18
BRANCH   1  28
HETATM   28  C7  UNL     1      -2.511  -0.712   0.760  1.00  0.00     0.057 C 
HETATM   29  C6  UNL     1      -3.653  -0.788  -0.229  1.00  0.00     0.031 C 
HETATM   30  C5  UNL     1      -4.645   0.100  -0.461  1.00  0.00     0.003 C 
HETATM   31  C4  UNL     1      -4.861   1.392   0.213  1.00  0.00     0.013 C 
HETATM   32  C3  UNL     1      -4.373   1.789   1.330  1.00  0.00    -0.019 C 
HETATM   33  C2  UNL     1      -3.249   1.442   1.840  1.00  0.00    -0.049 C 
HETATM   34  C1  UNL     1      -2.612   2.329   2.851  1.00  0.00     0.049 C 
HETATM   35  C25 UNL     1      -2.413   0.281   1.616  1.00  0.00     0.039 C 
ENDBRANCH   1  28
TORSDOF 6
