REMARK  5 active torsions:
REMARK  status: ('A' for Active; 'I' for Inactive)
REMARK    1  A    between atoms: C3_5  and  C4_6 
REMARK    2  A    between atoms: C5_7  and  N1_8 
REMARK    3  A    between atoms: C6_9  and  N2_10 
REMARK    4  A    between atoms: C7_11  and  N3_12 
REMARK    5  A    between atoms: N3_12  and  C8_13 
ROOT
HETATM    1  O1  UNL     1      -2.625   2.244   2.157  1.00  0.00    -0.293 OA
HETATM    2  C1  UNL     1      -2.704   1.625   1.101  1.00  0.00     0.184 C 
HETATM    3  C2  UNL     1      -1.352   1.018   0.934  1.00  0.00     0.256 C 
HETATM    4  O2  UNL     1      -1.200   0.269  -0.233  1.00  0.00    -0.342 OA
HETATM    5  C3  UNL     1      -0.274  -0.702  -0.503  1.00  0.00     0.085 C 
HETATM    6  C14 UNL     1      -0.788  -1.546  -1.385  1.00  0.00     0.120 C 
HETATM    7  N4  UNL     1      -1.972  -1.755  -2.121  1.00  0.00    -0.397 N 
HETATM    8  C15 UNL     1      -3.010  -2.591  -1.484  1.00  0.00     0.121 C 
HETATM    9  C16 UNL     1      -3.561  -1.814  -0.288  1.00  0.00     0.050 C 
HETATM   10  C17 UNL     1      -4.157  -0.529  -0.767  1.00  0.00     0.275 C 
HETATM   11  N5  UNL     1      -4.625   0.348   0.235  1.00  0.00     0.100 N 
HETATM   12  C18 UNL     1      -6.029   0.622   0.040  1.00  0.00     0.273 C 
HETATM   13  C19 UNL     1      -6.307   1.561  -1.089  1.00  0.00     0.030 C 
HETATM   14  C20 UNL     1      -5.112   2.069  -1.816  1.00  0.00     0.004 C 
HETATM   15  C21 UNL     1      -3.869   2.222  -1.032  1.00  0.00     0.044 C 
HETATM   16  C22 UNL     1      -3.973   1.627   0.337  1.00  0.00     0.294 C 
HETATM   17  H14 UNL     1      -2.123  -1.340  -3.081  1.00  0.00     0.158 HD
ENDROOT
BRANCH   5  18
HETATM   18  C4  UNL     1       1.071  -1.059  -0.109  1.00  0.00     0.057 C 
HETATM   19  C5  UNL     1       1.620  -0.266   0.753  1.00  0.00     0.120 C 
BRANCH  19  20
HETATM   20  N1  UNL     1       2.616   0.223   1.609  1.00  0.00    -0.254 NA
HETATM   21  C6  UNL     1       3.824  -0.233   1.665  1.00  0.00     0.233 C 
BRANCH  21  22
HETATM   22  N2  UNL     1       3.733  -1.241   0.685  1.00  0.00    -0.237 NA
HETATM   23  C7  UNL     1       4.633  -2.059   0.321  1.00  0.00     0.208 C 
BRANCH  23  24
HETATM   24  N3  UNL     1       5.916  -2.022   0.922  1.00  0.00    -0.351 N 
HETATM   25  H7  UNL     1       6.287  -2.897   1.382  1.00  0.00     0.166 HD
BRANCH  24  26
HETATM   26  C8  UNL     1       6.694  -0.841   0.890  1.00  0.00     0.032 A 
HETATM   27  C9  UNL     1       6.464   0.314   0.200  1.00  0.00     0.029 A 
HETATM   28  C10 UNL     1       7.259   1.438   0.237  1.00  0.00     0.002 A 
HETATM   29  C11 UNL     1       8.390   1.429   1.025  1.00  0.00     0.000 A 
HETATM   30  C12 UNL     1       8.674   0.288   1.744  1.00  0.00     0.002 A 
HETATM   31  C13 UNL     1       7.845  -0.806   1.671  1.00  0.00     0.029 A 
ENDBRANCH  24  26
ENDBRANCH  23  24
ENDBRANCH  21  22
ENDBRANCH  19  20
ENDBRANCH   5  18
TORSDOF 5
