REMARK  5 active torsions:
REMARK  status: ('A' for Active; 'I' for Inactive)
REMARK    1  A    between atoms: C7_7  and  N1_8 
REMARK    2  A    between atoms: N1_8  and  C8_9 
REMARK    3  A    between atoms: N4_19  and  C16_20 
REMARK    4  A    between atoms: C16_20  and  C17_21 
REMARK    5  A    between atoms: C17_21  and  C18_22 
ROOT
HETATM    1  C1  UNL     1       5.210   5.833  -0.204  1.00  0.00     0.018 C 
HETATM    2  C2  UNL     1       5.411   4.656  -0.050  1.00  0.00    -0.078 C 
HETATM    3  C3  UNL     1       5.648   3.234   0.133  1.00  0.00     0.019 A 
HETATM    4  C4  UNL     1       6.880   2.723   0.490  1.00  0.00     0.021 A 
HETATM    5  C5  UNL     1       7.032   1.376   0.643  1.00  0.00     0.004 A 
HETATM    6  C6  UNL     1       5.956   0.537   0.443  1.00  0.00     0.029 A 
HETATM    7  C7  UNL     1       4.693   0.958   0.087  1.00  0.00     0.035 A 
HETATM    8  C25 UNL     1       4.636   2.328  -0.046  1.00  0.00     0.050 A 
ENDROOT
BRANCH   7   9
HETATM    9  N1  UNL     1       3.579   0.112  -0.107  1.00  0.00    -0.340 N 
HETATM   10  H5  UNL     1       2.787   0.645  -0.467  1.00  0.00     0.167 HD
BRANCH   9  11
HETATM   11  C8  UNL     1       3.466  -1.272   0.118  1.00  0.00     0.142 A 
HETATM   12  N2  UNL     1       4.516  -2.013   0.506  1.00  0.00    -0.224 NA
HETATM   13  C9  UNL     1       4.419  -3.324   0.751  1.00  0.00     0.236 A 
HETATM   14  N3  UNL     1       3.237  -3.939   0.609  1.00  0.00    -0.241 NA
HETATM   15  C10 UNL     1       2.127  -3.259   0.219  1.00  0.00     0.075 A 
HETATM   16  C11 UNL     1       0.950  -3.951   0.101  1.00  0.00     0.071 A 
HETATM   17  C15 UNL     1       2.250  -1.897  -0.032  1.00  0.00     0.041 A 
HETATM   18  C12 UNL     1      -0.137  -3.214  -0.288  1.00  0.00     0.097 A 
HETATM   19  C13 UNL     1      -0.161  -1.838  -0.575  1.00  0.00     0.065 A 
HETATM   20  O1  UNL     1      -1.337  -3.924  -0.404  1.00  0.00    -0.347 OA
HETATM   21  C14 UNL     1       1.088  -1.278  -0.414  1.00  0.00     0.050 A 
HETATM   22  N4  UNL     1      -1.383  -1.167  -0.968  1.00  0.00    -0.377 N 
HETATM   23  C23 UNL     1      -2.379  -2.091  -1.456  1.00  0.00     0.149 C 
HETATM   24  C24 UNL     1      -2.568  -3.195  -0.432  1.00  0.00     0.195 C 
BRANCH  22  25
HETATM   25  C16 UNL     1      -1.366   0.249  -0.764  1.00  0.00     0.125 C 
BRANCH  25  26
HETATM   26  C17 UNL     1      -2.179   0.671   0.402  1.00  0.00     0.055 C 
BRANCH  26  27
HETATM   27  C18 UNL     1      -3.655   0.399   0.364  1.00  0.00     0.222 C 
HETATM   28  C19 UNL     1      -4.223   1.136  -0.807  1.00  0.00     0.036 C 
HETATM   29  C20 UNL     1      -5.723   1.293  -0.786  1.00  0.00     0.004 C 
HETATM   30  C21 UNL     1      -6.341   0.831   0.502  1.00  0.00     0.030 C 
HETATM   31  C22 UNL     1      -5.504   1.348   1.629  1.00  0.00     0.270 C 
HETATM   32  N5  UNL     1      -4.166   0.895   1.636  1.00  0.00     0.088 N 
HETATM   33  H22 UNL     1      -4.032   0.133   2.346  1.00  0.00     0.316 HD
ENDBRANCH  26  27
ENDBRANCH  25  26
ENDBRANCH  22  25
ENDBRANCH   9  11
ENDBRANCH   7   9
TORSDOF 5
