REMARK  6 active torsions:
REMARK  status: ('A' for Active; 'I' for Inactive)
REMARK    1  A    between atoms: C7_7  and  N1_8 
REMARK    2  A    between atoms: N1_8  and  C8_9 
REMARK    3  A    between atoms: N4_19  and  C16_20 
REMARK    4  A    between atoms: C16_20  and  C17_21 
REMARK    5  A    between atoms: C17_21  and  C18_22 
REMARK    6  A    between atoms: C18_22  and  N5_23 
ROOT
HETATM    1  C1  UNL     1       6.166   4.845   1.218  1.00  0.00     0.018 C 
HETATM    2  C2  UNL     1       6.164   3.714   0.821  1.00  0.00    -0.078 C 
HETATM    3  C3  UNL     1       6.147   2.372   0.337  1.00  0.00     0.019 A 
HETATM    4  C4  UNL     1       7.279   1.823  -0.204  1.00  0.00     0.021 A 
HETATM    5  C5  UNL     1       7.210   0.533  -0.656  1.00  0.00     0.004 A 
HETATM    6  C6  UNL     1       6.039  -0.185  -0.567  1.00  0.00     0.029 A 
HETATM    7  C7  UNL     1       4.881   0.313  -0.037  1.00  0.00     0.035 A 
HETATM    8  C26 UNL     1       5.010   1.604   0.397  1.00  0.00     0.050 A 
ENDROOT
BRANCH   7   9
HETATM    9  N1  UNL     1       3.687  -0.447   0.046  1.00  0.00    -0.340 N 
HETATM   10  H5  UNL     1       2.930   0.145   0.437  1.00  0.00     0.167 HD
BRANCH   9  11
HETATM   11  C8  UNL     1       3.460  -1.774  -0.312  1.00  0.00     0.142 A 
HETATM   12  N2  UNL     1       4.394  -2.593  -0.805  1.00  0.00    -0.224 NA
HETATM   13  C9  UNL     1       4.201  -3.865  -1.156  1.00  0.00     0.236 A 
HETATM   14  N3  UNL     1       2.975  -4.401  -1.014  1.00  0.00    -0.241 NA
HETATM   15  C10 UNL     1       1.964  -3.628  -0.515  1.00  0.00     0.075 A 
HETATM   16  C11 UNL     1       0.753  -4.266  -0.410  1.00  0.00     0.071 A 
HETATM   17  C15 UNL     1       2.208  -2.327  -0.168  1.00  0.00     0.041 A 
HETATM   18  C12 UNL     1      -0.276  -3.504   0.089  1.00  0.00     0.098 A 
HETATM   19  C13 UNL     1      -0.164  -2.162   0.483  1.00  0.00     0.071 A 
HETATM   20  O2  UNL     1      -1.532  -4.118   0.207  1.00  0.00    -0.340 OA
HETATM   21  C14 UNL     1       1.109  -1.660   0.319  1.00  0.00     0.050 A 
HETATM   22  N4  UNL     1      -1.270  -1.398   1.035  1.00  0.00    -0.314 N 
HETATM   23  C24 UNL     1      -2.491  -2.156   1.141  1.00  0.00     0.248 C 
HETATM   24  O1  UNL     1      -3.249  -1.755   2.061  1.00  0.00    -0.271 OA
HETATM   25  C25 UNL     1      -2.707  -3.284   0.192  1.00  0.00     0.279 C 
BRANCH  22  26
HETATM   26  C16 UNL     1      -1.035  -0.013   1.363  1.00  0.00     0.134 C 
BRANCH  26  27
HETATM   27  C17 UNL     1      -1.211   0.961   0.258  1.00  0.00     0.040 C 
BRANCH  27  28
HETATM   28  C18 UNL     1      -2.492   1.163  -0.407  1.00  0.00     0.118 C 
BRANCH  28  29
HETATM   29  N5  UNL     1      -3.628   1.665   0.187  1.00  0.00    -0.412 N 
HETATM   30  C19 UNL     1      -4.421   1.070   1.145  1.00  0.00     0.117 C 
HETATM   31  C20 UNL     1      -5.772   1.803   1.272  1.00  0.00     0.019 C 
HETATM   32  C21 UNL     1      -6.540   1.581  -0.012  1.00  0.00     0.003 C 
HETATM   33  C22 UNL     1      -5.621   1.979  -1.149  1.00  0.00     0.019 C 
HETATM   34  C23 UNL     1      -4.377   2.619  -0.614  1.00  0.00     0.117 C 
ENDBRANCH  28  29
ENDBRANCH  27  28
ENDBRANCH  26  27
ENDBRANCH  22  26
ENDBRANCH   9  11
ENDBRANCH   7   9
TORSDOF 6
