REMARK  6 active torsions:
REMARK  status: ('A' for Active; 'I' for Inactive)
REMARK    1  A    between atoms: C5_7  and  N1_8 
REMARK    2  A    between atoms: C6_9  and  N2_10 
REMARK    3  A    between atoms: N3_16  and  C11_17 
REMARK    4  A    between atoms: C11_17  and  C12_18 
REMARK    5  A    between atoms: C12_18  and  C13_19 
REMARK    6  A    between atoms: C13_19  and  N4_20 
ROOT
HETATM    1  O1  UNL     1      -0.408  -0.595  -2.779  1.00  0.00    -0.271 OA
HETATM    2  C1  UNL     1       0.407  -0.114  -1.982  1.00  0.00     0.248 C 
HETATM    3  C2  UNL     1       1.017   1.195  -2.319  1.00  0.00     0.279 C 
HETATM    4  O2  UNL     1       2.340   1.286  -1.822  1.00  0.00    -0.340 OA
HETATM    5  C3  UNL     1       2.741   0.672  -0.643  1.00  0.00     0.098 A 
HETATM    6  C4  UNL     1       3.896   1.018   0.068  1.00  0.00     0.070 A 
HETATM    7  C5  UNL     1       4.249   0.364   1.244  1.00  0.00     0.061 A 
HETATM    8  C8  UNL     1       3.466  -0.651   1.750  1.00  0.00     0.034 A 
HETATM    9  C9  UNL     1       2.326  -1.001   1.060  1.00  0.00     0.035 A 
HETATM   10  C10 UNL     1       1.955  -0.358  -0.123  1.00  0.00     0.070 A 
HETATM   11  N3  UNL     1       0.757  -0.800  -0.761  1.00  0.00    -0.314 N 
ENDROOT
BRANCH  11  12
HETATM   12  C11 UNL     1      -0.078  -1.860  -0.294  1.00  0.00     0.134 C 
BRANCH  12  13
HETATM   13  C12 UNL     1      -1.203  -1.404   0.621  1.00  0.00     0.050 C 
BRANCH  13  14
HETATM   14  C13 UNL     1      -2.081  -0.445  -0.136  1.00  0.00     0.274 C 
BRANCH  14  15
HETATM   15  N4  UNL     1      -3.191   0.054   0.612  1.00  0.00     0.088 N 
HETATM   16  C14 UNL     1      -4.187  -0.960   0.897  1.00  0.00     0.272 C 
HETATM   17  C15 UNL     1      -5.377  -0.910  -0.033  1.00  0.00     0.030 C 
HETATM   18  C16 UNL     1      -6.055   0.425  -0.073  1.00  0.00     0.003 C 
HETATM   19  C17 UNL     1      -5.117   1.547   0.329  1.00  0.00     0.030 C 
HETATM   20  C18 UNL     1      -3.742   1.167  -0.138  1.00  0.00     0.272 C 
ENDBRANCH  14  15
ENDBRANCH  13  14
ENDBRANCH  12  13
ENDBRANCH  11  12
BRANCH   7  21
HETATM   21  N1  UNL     1       5.484   0.939   1.719  1.00  0.00    -0.242 NA
HETATM   22  C6  UNL     1       6.614   0.450   1.265  1.00  0.00     0.234 C 
BRANCH  22  23
HETATM   23  N2  UNL     1       8.028   0.447   1.229  1.00  0.00    -0.242 NA
HETATM   24  C7  UNL     1       8.603   1.181   0.316  1.00  0.00     0.202 C 
HETATM   25 CL1  UNL     1      10.111   0.606   0.974  1.00  0.00    -0.076 Cl
ENDBRANCH  22  23
ENDBRANCH   7  21
TORSDOF 6
