REMARK  4 active torsions:
REMARK  status: ('A' for Active; 'I' for Inactive)
REMARK    1  A    between atoms: C2_2  and  C3_3 
REMARK    2  A    between atoms: N1_9  and  C7_10 
REMARK    3  A    between atoms: C7_10  and  C8_11 
REMARK    4  A    between atoms: C8_11  and  N2_12 
ROOT
HETATM    1  C3  UNL     1       3.875  -1.198   1.522  1.00  0.00     0.155 C 
HETATM    2  C4  UNL     1       2.405  -0.854   1.880  1.00  0.00     0.199 C 
HETATM    3  O1  UNL     1       1.828   0.142   1.444  1.00  0.00    -0.380 OA
HETATM    4  C5  UNL     1       1.248   1.185   1.013  1.00  0.00     0.270 C 
HETATM    5  C6  UNL     1       0.589   0.985  -0.359  1.00  0.00     0.243 C 
HETATM    6  O2  UNL     1       1.401   0.157  -0.270  1.00  0.00    -0.271 OA
HETATM    7  N1  UNL     1      -0.014   0.804  -1.613  1.00  0.00    -0.349 N 
HETATM    8  C14 UNL     1       0.508   0.060  -2.730  1.00  0.00     0.129 C 
HETATM    9  C15 UNL     1       0.328  -1.389  -2.830  1.00  0.00     0.066 C 
HETATM   10  C16 UNL     1       1.085  -2.152  -1.773  1.00  0.00     0.146 A 
HETATM   11  O3  UNL     1       1.791  -2.748  -0.934  1.00  0.00    -0.343 OA
HETATM   12  C17 UNL     1       2.525  -1.818  -2.070  1.00  0.00     0.284 A 
HETATM   13  N3  UNL     1       3.793  -1.931  -1.676  1.00  0.00    -0.248 NA
HETATM   14  C18 UNL     1       3.979  -2.671  -0.435  1.00  0.00     0.224 C 
HETATM   15  N4  UNL     1       3.837  -1.475   0.090  1.00  0.00    -0.272 NA
ENDROOT
BRANCH   7  16
HETATM   16  C7  UNL     1      -1.190   1.591  -1.708  1.00  0.00     0.156 C 
BRANCH  16  17
HETATM   17  C8  UNL     1      -2.471   0.973  -1.300  1.00  0.00     0.292 C 
BRANCH  17  18
HETATM   18  N2  UNL     1      -2.666   0.561   0.029  1.00  0.00     0.090 N 
HETATM   19  C9  UNL     1      -2.809   1.619   0.977  1.00  0.00     0.272 C 
HETATM   20  C10 UNL     1      -3.448   1.108   2.243  1.00  0.00     0.030 C 
HETATM   21  C11 UNL     1      -4.838   0.565   2.028  1.00  0.00     0.003 C 
HETATM   22  C12 UNL     1      -5.029   0.225   0.562  1.00  0.00     0.030 C 
HETATM   23  C13 UNL     1      -3.731  -0.414   0.097  1.00  0.00     0.272 C 
ENDBRANCH  17  18
ENDBRANCH  16  17
ENDBRANCH   7  16
BRANCH   1  24
HETATM   24  C2  UNL     1       4.791  -0.098   1.854  1.00  0.00    -0.008 C 
HETATM   25  C1  UNL     1       5.314   0.761   0.987  1.00  0.00     0.009 C 
ENDBRANCH   1  24
TORSDOF 4
