REMARK  6 active torsions:
REMARK  status: ('A' for Active; 'I' for Inactive)
REMARK    1  A    between atoms: C3_3  and  C4_4 
REMARK    2  A    between atoms: N1_8  and  C8_9 
REMARK    3  A    between atoms: N4_22  and  C17_23 
REMARK    4  A    between atoms: C17_23  and  C18_24 
REMARK    5  A    between atoms: C18_24  and  C19_25 
REMARK    6  A    between atoms: C19_25  and  N5_26 
ROOT
HETATM    1  C1  UNL     1       3.851  -0.974   7.351  1.00  0.00     0.112 C 
HETATM    2  C2  UNL     1       3.853  -0.702   5.902  1.00  0.00    -0.106 C 
HETATM    3  C3  UNL     1       3.857  -0.463   4.719  1.00  0.00    -0.070 C 
ENDROOT
BRANCH   3   4
HETATM    4  C4  UNL     1       3.877  -0.170   3.313  1.00  0.00     0.009 C 
HETATM    5  C5  UNL     1       4.671   0.763   2.807  1.00  0.00    -0.007 C 
HETATM    6  C6  UNL     1       4.819   1.193   1.385  1.00  0.00     0.048 C 
HETATM    7  C7  UNL     1       3.512   0.780   0.694  1.00  0.00     0.128 C 
HETATM    8  N1  UNL     1       3.361  -0.644   1.008  1.00  0.00    -0.360 N 
HETATM    9  C25 UNL     1       2.979  -0.935   2.385  1.00  0.00     0.172 C 
BRANCH   8  10
HETATM   10  C8  UNL     1       3.571  -1.703   0.037  1.00  0.00     0.136 C 
HETATM   11  N2  UNL     1       4.463  -2.462  -0.580  1.00  0.00    -0.224 NA
HETATM   12  C9  UNL     1       4.121  -3.466  -1.525  1.00  0.00     0.230 C 
HETATM   13  N3  UNL     1       2.920  -3.861  -1.947  1.00  0.00    -0.266 NA
HETATM   14  C10 UNL     1       1.853  -3.145  -1.301  1.00  0.00     0.205 A 
HETATM   15  C11 UNL     1       2.311  -1.845  -0.765  1.00  0.00     0.021 A 
HETATM   16  C14 UNL     1       0.632  -2.857  -2.018  1.00  0.00     0.103 A 
HETATM   17  C12 UNL     1       1.365  -0.975  -1.173  1.00  0.00     0.046 A 
HETATM   18  C13 UNL     1       0.302  -1.583  -1.962  1.00  0.00     0.069 A 
HETATM   19  N4  UNL     1      -0.863  -1.067  -2.583  1.00  0.00    -0.314 N 
HETATM   20  C16 UNL     1      -1.666  -2.012  -3.278  1.00  0.00     0.248 A 
HETATM   21  C15 UNL     1      -1.344  -3.460  -3.349  1.00  0.00     0.278 A 
HETATM   22  O2  UNL     1      -2.698  -1.583  -3.858  1.00  0.00    -0.271 OA
HETATM   23  O1  UNL     1      -0.144  -3.762  -2.702  1.00  0.00    -0.341 OA
BRANCH  19  24
HETATM   24  C17 UNL     1      -1.182   0.356  -2.485  1.00  0.00     0.134 C 
BRANCH  24  25
HETATM   25  C18 UNL     1      -2.033   0.459  -1.208  1.00  0.00     0.050 C 
BRANCH  25  26
HETATM   26  C19 UNL     1      -2.457   1.874  -0.948  1.00  0.00     0.274 C 
BRANCH  26  27
HETATM   27  N5  UNL     1      -3.241   1.976   0.243  1.00  0.00     0.088 N 
HETATM   28  C20 UNL     1      -3.655   3.344   0.512  1.00  0.00     0.272 C 
HETATM   29  C21 UNL     1      -4.618   3.845  -0.514  1.00  0.00     0.030 C 
HETATM   30  C22 UNL     1      -5.789   2.949  -0.775  1.00  0.00     0.003 C 
HETATM   31  C23 UNL     1      -5.401   1.485  -0.805  1.00  0.00     0.030 C 
HETATM   32  C24 UNL     1      -4.406   1.152   0.282  1.00  0.00     0.272 C 
ENDBRANCH  26  27
ENDBRANCH  25  26
ENDBRANCH  24  25
ENDBRANCH  19  24
ENDBRANCH   8  10
ENDBRANCH   3   4
TORSDOF 6
