REMARK  4 active torsions:
REMARK  status: ('A' for Active; 'I' for Inactive)
REMARK    1  A    between atoms: N1_1  and  C1_2 
REMARK    2  A    between atoms: C6_7  and  N2_8 
REMARK    3  A    between atoms: N2_8  and  C7_9 
REMARK    4  A    between atoms: C15_19  and  O1_20 
ROOT
HETATM    1  C7  UNL     1      -1.144  -0.292   0.108  1.00  0.00     0.136 A 
HETATM    2  N3  UNL     1      -1.952  -1.219   0.654  1.00  0.00    -0.224 NA
HETATM    3  C8  UNL     1      -1.504  -2.268   1.362  1.00  0.00     0.238 A 
HETATM    4  N4  UNL     1      -0.167  -2.391   1.532  1.00  0.00    -0.217 NA
HETATM    5  C9  UNL     1       0.694  -1.482   1.001  1.00  0.00     0.181 A 
HETATM    6  C10 UNL     1       0.222  -0.405   0.273  1.00  0.00     0.045 A 
HETATM    7  C11 UNL     1       1.089   0.616  -0.329  1.00  0.00     0.088 A 
HETATM    8  C12 UNL     1       2.517   0.330  -0.048  1.00  0.00    -0.023 A 
HETATM    9  C13 UNL     1       3.324   1.228  -0.574  1.00  0.00    -0.010 A 
HETATM   10  C14 UNL     1       4.758   1.492  -0.649  1.00  0.00     0.092 A 
HETATM   11  C15 UNL     1       5.632   0.534   0.030  1.00  0.00     0.046 A 
HETATM   12  C16 UNL     1       5.444  -0.572   0.733  1.00  0.00     0.035 A 
HETATM   13  C17 UNL     1       4.186  -1.229   1.073  1.00  0.00     0.040 A 
HETATM   14  C18 UNL     1       2.978  -0.813   0.722  1.00  0.00     0.084 A 
HETATM   15  O2  UNL     1       2.044  -1.703   1.235  1.00  0.00    -0.291 OA
ENDROOT
BRANCH   1  16
HETATM   16  N2  UNL     1      -1.721   0.798  -0.636  1.00  0.00    -0.361 N 
HETATM   17  H9  UNL     1      -1.082   1.505  -1.050  1.00  0.00     0.162 HD
BRANCH  16  18
HETATM   18  C6  UNL     1      -3.168   0.823  -0.749  1.00  0.00     0.155 A 
HETATM   19  C1  UNL     1      -3.825   0.901   0.575  1.00  0.00     0.026 A 
HETATM   20  C2  UNL     1      -4.743   0.043   1.035  1.00  0.00     0.004 A 
HETATM   21  C3  UNL     1      -5.226  -1.126   0.246  1.00  0.00     0.056 A 
HETATM   22  C4  UNL     1      -4.596  -1.138  -1.093  1.00  0.00    -0.024 A 
HETATM   23  C5  UNL     1      -3.684  -0.295  -1.570  1.00  0.00     0.000 A 
BRANCH  19  24
HETATM   24  N1  UNL     1      -3.360   2.030   1.340  1.00  0.00    -0.401 N 
HETATM   25  H1  UNL     1      -2.524   2.274   1.885  1.00  0.00     0.156 HD
HETATM   26  H2  UNL     1      -3.996   2.854   1.397  1.00  0.00     0.156 HD
ENDBRANCH  19  24
ENDBRANCH  16  18
ENDBRANCH   1  16
BRANCH  11  27
HETATM   27  O1  UNL     1       6.974   0.883  -0.106  1.00  0.00    -0.365 OA
HETATM   28  H16 UNL     1       7.648   0.125  -0.266  1.00  0.00     0.217 HD
ENDBRANCH  11  27
TORSDOF 4
