REMARK  6 active torsions:
REMARK  status: ('A' for Active; 'I' for Inactive)
REMARK    1  A    between atoms: C7_7  and  N1_8 
REMARK    2  A    between atoms: N1_8  and  C8_9 
REMARK    3  A    between atoms: N5_19  and  C15_20 
REMARK    4  A    between atoms: C15_20  and  C16_21 
REMARK    5  A    between atoms: C16_21  and  C17_22 
REMARK    6  A    between atoms: C17_22  and  N6_23 
ROOT
HETATM    1  C1  UNL     1       8.285   2.320  -1.603  1.00  0.00     0.018 C 
HETATM    2  C2  UNL     1       7.151   2.419  -1.201  1.00  0.00    -0.078 C 
HETATM    3  C3  UNL     1       5.794   2.521  -0.728  1.00  0.00     0.019 A 
HETATM    4  C4  UNL     1       5.361   3.769  -0.400  1.00  0.00     0.021 A 
HETATM    5  C5  UNL     1       4.088   3.908   0.050  1.00  0.00     0.004 A 
HETATM    6  C6  UNL     1       3.280   2.810   0.164  1.00  0.00     0.029 A 
HETATM    7  C7  UNL     1       3.639   1.507  -0.147  1.00  0.00     0.035 A 
HETATM    8  C25 UNL     1       4.946   1.446  -0.597  1.00  0.00     0.050 A 
ENDROOT
BRANCH   7   9
HETATM    9  N1  UNL     1       2.818   0.369  -0.026  1.00  0.00    -0.339 N 
HETATM   10  H5  UNL     1       1.991   0.640   0.508  1.00  0.00     0.167 HD
BRANCH   9  11
HETATM   11  C8  UNL     1       3.021  -0.941  -0.519  1.00  0.00     0.164 A 
HETATM   12  N2  UNL     1       4.088  -1.272  -1.251  1.00  0.00    -0.111 NA
HETATM   13  N3  UNL     1       4.225  -2.503  -1.681  1.00  0.00    -0.041 NA
HETATM   14  N4  UNL     1       3.348  -3.451  -1.424  1.00  0.00    -0.130 NA
HETATM   15  C9  UNL     1       2.230  -3.194  -0.683  1.00  0.00     0.097 A 
HETATM   16  C10 UNL     1       1.358  -4.226  -0.454  1.00  0.00     0.073 A 
HETATM   17  C14 UNL     1       2.069  -1.888  -0.217  1.00  0.00     0.045 A 
HETATM   18  C11 UNL     1       0.221  -3.997   0.291  1.00  0.00     0.098 A 
HETATM   19  C12 UNL     1       0.031  -2.720   0.767  1.00  0.00     0.071 A 
HETATM   20  O2  UNL     1      -0.667  -5.017   0.534  1.00  0.00    -0.340 OA
HETATM   21  C13 UNL     1       0.928  -1.713   0.515  1.00  0.00     0.050 A 
HETATM   22  N5  UNL     1      -1.093  -2.390   1.558  1.00  0.00    -0.314 N 
HETATM   23  C23 UNL     1      -1.980  -3.505   1.803  1.00  0.00     0.248 C 
HETATM   24  O1  UNL     1      -2.832  -3.424   2.748  1.00  0.00    -0.271 OA
HETATM   25  C24 UNL     1      -1.989  -4.774   1.031  1.00  0.00     0.279 C 
BRANCH  22  26
HETATM   26  C15 UNL     1      -1.473  -1.152   2.149  1.00  0.00     0.134 C 
BRANCH  26  27
HETATM   27  C16 UNL     1      -2.376  -0.280   1.335  1.00  0.00     0.040 C 
BRANCH  27  28
HETATM   28  C17 UNL     1      -1.828   0.136   0.028  1.00  0.00     0.118 C 
BRANCH  28  29
HETATM   29  N6  UNL     1      -2.716   0.975  -0.746  1.00  0.00    -0.412 N 
HETATM   30  C18 UNL     1      -3.890   0.351  -1.235  1.00  0.00     0.117 C 
HETATM   31  C19 UNL     1      -5.182   0.782  -0.630  1.00  0.00     0.019 C 
HETATM   32  C20 UNL     1      -5.285   2.235  -0.293  1.00  0.00     0.003 C 
HETATM   33  C21 UNL     1      -4.062   2.978  -0.795  1.00  0.00     0.019 C 
HETATM   34  C22 UNL     1      -2.870   2.287  -0.216  1.00  0.00     0.117 C 
ENDBRANCH  28  29
ENDBRANCH  27  28
ENDBRANCH  26  27
ENDBRANCH  22  26
ENDBRANCH   9  11
ENDBRANCH   7   9
TORSDOF 6
