REMARK  5 active torsions:
REMARK  status: ('A' for Active; 'I' for Inactive)
REMARK    1  A    between atoms: C6_7  and  C7_8 
REMARK    2  A    between atoms: C7_8  and  C8_9 
REMARK    3  A    between atoms: C8_9  and  N2_10 
REMARK    4  A    between atoms: C15_21  and  N5_22 
REMARK    5  A    between atoms: N5_22  and  C16_23 
ROOT
HETATM    1  N2  UNL     1       0.526  -1.894   1.563  1.00  0.00    -0.314 N 
HETATM    2  C9  UNL     1       0.353  -2.868   2.600  1.00  0.00     0.248 C 
HETATM    3  O1  UNL     1      -0.060  -2.423   3.726  1.00  0.00    -0.271 OA
HETATM    4  C10 UNL     1       0.647  -4.320   2.355  1.00  0.00     0.279 C 
HETATM    5  O2  UNL     1       1.787  -4.404   1.488  1.00  0.00    -0.340 OA
HETATM    6  C11 UNL     1       1.974  -3.489   0.474  1.00  0.00     0.098 A 
HETATM    7  C12 UNL     1       2.796  -3.844  -0.575  1.00  0.00     0.071 A 
HETATM    8  C13 UNL     1       2.974  -2.922  -1.580  1.00  0.00     0.075 A 
HETATM    9  N3  UNL     1       3.764  -3.289  -2.593  1.00  0.00    -0.241 NA
HETATM   10  C14 UNL     1       3.996  -2.484  -3.620  1.00  0.00     0.235 A 
HETATM   11  N4  UNL     1       3.431  -1.281  -3.643  1.00  0.00    -0.224 NA
HETATM   12  C15 UNL     1       2.618  -0.778  -2.697  1.00  0.00     0.138 A 
HETATM   13  C23 UNL     1       2.414  -1.662  -1.657  1.00  0.00     0.041 A 
HETATM   14  C24 UNL     1       1.612  -1.407  -0.566  1.00  0.00     0.050 A 
HETATM   15  C25 UNL     1       1.373  -2.248   0.474  1.00  0.00     0.071 A 
ENDROOT
BRANCH   1  16
HETATM   16  C8  UNL     1      -0.138  -0.607   1.629  1.00  0.00     0.135 C 
BRANCH  16  17
HETATM   17  C7  UNL     1      -1.497  -0.618   0.971  1.00  0.00     0.060 C 
BRANCH  17  18
HETATM   18  C6  UNL     1      -2.187   0.721   1.035  1.00  0.00     0.250 C 
HETATM   19  C2  UNL     1      -3.509   0.584   0.358  1.00  0.00    -0.057 C 
HETATM   20  C1  UNL     1      -3.513  -0.198  -0.715  1.00  0.00     0.016 C 
HETATM   21  C3  UNL     1      -4.867   1.139   0.616  1.00  0.00     0.037 C 
HETATM   22  C4  UNL     1      -4.808   1.724   2.027  1.00  0.00     0.034 C 
HETATM   23  C5  UNL     1      -3.432   2.225   2.319  1.00  0.00     0.271 C 
HETATM   24  N1  UNL     1      -2.444   1.164   2.368  1.00  0.00     0.092 N 
HETATM   25  H9  UNL     1      -2.819   0.440   3.005  1.00  0.00     0.316 HD
ENDBRANCH  17  18
ENDBRANCH  16  17
ENDBRANCH   1  16
BRANCH  12  26
HETATM   26  N5  UNL     1       1.993   0.497  -2.700  1.00  0.00    -0.357 N 
HETATM   27  H19 UNL     1       2.219   0.880  -3.650  1.00  0.00     0.162 HD
BRANCH  26  28
HETATM   28  C16 UNL     1       1.223   1.504  -2.149  1.00  0.00     0.174 A 
HETATM   29  C17 UNL     1       1.558   2.163  -1.014  1.00  0.00    -0.141 A 
HETATM   30  C18 UNL     1       1.819   2.677  -0.174  1.00  0.00     0.045 A 
HETATM   31  C19 UNL     1       2.154   3.335   0.852  1.00  0.00     0.023 A 
HETATM   32  C20 UNL     1       2.592   4.164  -0.323  1.00  0.00     0.036 A 
HETATM   33  C21 UNL     1       2.525   4.014  -1.934  1.00  0.00    -0.021 A 
HETATM   34  C22 UNL     1       1.988   2.968  -2.819  1.00  0.00     0.006 A 
ENDBRANCH  26  28
ENDBRANCH  12  26
TORSDOF 5
