REMARK  4 active torsions:
REMARK  status: ('A' for Active; 'I' for Inactive)
REMARK    1  A    between atoms: C2_2  and  C3_3 
REMARK    2  A    between atoms: C2_2  and  C4_5 
REMARK    3  A    between atoms: C3_3  and  O1_4 
REMARK    4  A    between atoms: C4_5  and  N1_6 
ROOT
HETATM    1  N1  UNL     1       1.258   0.610  -0.005  1.00  0.00    -0.370 N 
HETATM    2  C5  UNL     1      -0.005   0.585   0.470  1.00  0.00     0.231 A 
HETATM    3  N2  UNL     1      -1.025   0.014   1.082  1.00  0.00     0.028 N 
HETATM    4  C6  UNL     1      -1.101  -1.223   1.596  1.00  0.00     0.192 A 
HETATM    5  C7  UNL     1      -1.753  -0.092   1.399  1.00  0.00     0.302 A 
HETATM    6  C8  UNL     1      -2.426   1.007   1.222  1.00  0.00     0.066 A 
HETATM    7  C9  UNL     1      -1.207   1.128   0.705  1.00  0.00     0.248 A 
HETATM    8  C10 UNL     1      -0.976   2.164  -0.150  1.00  0.00     0.007 C 
HETATM    9  C11 UNL     1      -2.138   1.943  -1.092  1.00  0.00     0.053 C 
HETATM   10  C12 UNL     1      -2.362   0.540  -1.523  1.00  0.00     0.279 C 
HETATM   11  N3  UNL     1      -1.189  -0.214  -1.803  1.00  0.00     0.084 N 
HETATM   12  C13 UNL     1      -1.422  -1.659  -1.913  1.00  0.00     0.270 C 
HETATM   13  C14 UNL     1      -1.733  -2.263  -0.571  1.00  0.00     0.036 C 
HETATM   14  C15 UNL     1      -0.589  -2.382   0.385  1.00  0.00     0.068 A 
HETATM   15  C16 UNL     1      -1.070  -2.471   1.807  1.00  0.00    -0.008 A 
HETATM   16  C17 UNL     1      -3.400   2.446  -0.331  1.00  0.00     0.129 C 
HETATM   17  N4  UNL     1      -3.219   2.115   1.086  1.00  0.00    -0.391 N 
HETATM   18  H10 UNL     1       0.996   1.584  -0.261  1.00  0.00     0.160 HD
HETATM   19  H16 UNL     1      -0.658   0.150  -2.597  1.00  0.00     0.315 HD
HETATM   20  H26 UNL     1      -3.627   2.634   1.893  1.00  0.00     0.159 HD
ENDROOT
BRANCH   1  21
HETATM   21  C4  UNL     1       2.557   0.623  -0.489  1.00  0.00     0.127 C 
BRANCH  21  22
HETATM   22  C2  UNL     1       3.620   0.477   0.601  1.00  0.00     0.023 C 
HETATM   23  C1  UNL     1       4.948   0.535  -0.117  1.00  0.00     0.014 C 
BRANCH  22  24
HETATM   24  C3  UNL     1       3.559  -0.912   1.237  1.00  0.00     0.170 C 
BRANCH  24  25
HETATM   25  O1  UNL     1       4.654  -0.970   2.102  1.00  0.00    -0.400 OA
HETATM   26  H7  UNL     1       4.501  -1.642   2.812  1.00  0.00     0.209 HD
ENDBRANCH  24  25
ENDBRANCH  22  24
ENDBRANCH  21  22
ENDBRANCH   1  21
TORSDOF 4
