REMARK  5 active torsions:
REMARK  status: ('A' for Active; 'I' for Inactive)
REMARK    1  A    between atoms: C6_6  and  N1_7 
REMARK    2  A    between atoms: N1_7  and  C7_8 
REMARK    3  A    between atoms: N4_18  and  C15_19 
REMARK    4  A    between atoms: C15_19  and  C16_20 
REMARK    5  A    between atoms: C16_20  and  N5_21 
ROOT
HETATM    1  C7  UNL     1       1.468  -0.005  -2.182  1.00  0.00     0.142 A 
HETATM    2  N2  UNL     1       2.319   0.097  -3.224  1.00  0.00    -0.224 NA
HETATM    3  C8  UNL     1       2.434  -0.930  -4.081  1.00  0.00     0.236 A 
HETATM    4  N3  UNL     1       1.735  -2.091  -3.963  1.00  0.00    -0.241 NA
HETATM    5  C9  UNL     1       0.887  -2.193  -2.924  1.00  0.00     0.075 A 
HETATM    6  C10 UNL     1       0.115  -3.330  -2.708  1.00  0.00     0.071 A 
HETATM    7  C11 UNL     1      -0.758  -3.379  -1.615  1.00  0.00     0.098 A 
HETATM    8  C12 UNL     1      -0.846  -2.302  -0.760  1.00  0.00     0.071 A 
HETATM    9  C13 UNL     1      -0.104  -1.150  -0.925  1.00  0.00     0.050 A 
HETATM   10  C14 UNL     1       0.740  -1.163  -2.024  1.00  0.00     0.041 A 
HETATM   11  N4  UNL     1      -1.774  -2.424   0.305  1.00  0.00    -0.312 N 
HETATM   12  C21 UNL     1      -2.534  -3.646   0.394  1.00  0.00     0.248 A 
HETATM   13  O1  UNL     1      -3.403  -3.824   1.285  1.00  0.00    -0.271 OA
HETATM   14  C22 UNL     1      -2.378  -4.797  -0.530  1.00  0.00     0.279 A 
HETATM   15  O2  UNL     1      -1.437  -4.571  -1.558  1.00  0.00    -0.340 OA
ENDROOT
BRANCH   1  16
HETATM   16  N1  UNL     1       1.481   1.182  -1.394  1.00  0.00    -0.340 N 
HETATM   17  H7  UNL     1       0.820   1.977  -1.389  1.00  0.00     0.167 HD
BRANCH  16  18
HETATM   18  C6  UNL     1       2.594   1.202  -0.510  1.00  0.00     0.034 A 
HETATM   19  C5  UNL     1       3.385   0.124  -0.214  1.00  0.00     0.029 A 
HETATM   20  C4  UNL     1       4.486   0.074   0.599  1.00  0.00     0.003 A 
HETATM   21  C3  UNL     1       4.836   1.287   1.198  1.00  0.00     0.007 A 
HETATM   22  C2  UNL     1       4.074   2.405   0.936  1.00  0.00    -0.060 A 
HETATM   23  C1  UNL     1       4.594   3.627   1.644  1.00  0.00     0.048 C 
HETATM   24  C23 UNL     1       2.968   2.404   0.105  1.00  0.00     0.036 A 
ENDBRANCH  16  18
ENDBRANCH   1  16
BRANCH  11  25
HETATM   25  C15 UNL     1      -1.973  -1.363   1.283  1.00  0.00     0.162 C 
BRANCH  25  26
HETATM   26  C16 UNL     1      -3.023  -0.376   0.840  1.00  0.00     0.292 C 
BRANCH  26  27
HETATM   27  N5  UNL     1      -3.206   0.675   1.827  1.00  0.00     0.090 N 
HETATM   28  C17 UNL     1      -4.211   1.573   1.328  1.00  0.00     0.272 C 
HETATM   29  C18 UNL     1      -3.481   2.788   0.817  1.00  0.00     0.032 C 
HETATM   30  C19 UNL     1      -2.351   2.899   1.811  1.00  0.00     0.032 C 
HETATM   31  C20 UNL     1      -2.002   1.438   2.036  1.00  0.00     0.272 C 
ENDBRANCH  26  27
ENDBRANCH  25  26
ENDBRANCH  11  25
TORSDOF 5
