REMARK  6 active torsions:
REMARK  status: ('A' for Active; 'I' for Inactive)
REMARK    1  A    between atoms: C2_2  and  C3_3 
REMARK    2  A    between atoms: C7_7  and  N1_8 
REMARK    3  A    between atoms: N1_8  and  C8_9 
REMARK    4  A    between atoms: N4_19  and  C16_20 
REMARK    5  A    between atoms: C16_20  and  C17_21 
REMARK    6  A    between atoms: C17_21  and  N5_22 
ROOT
HETATM    1  C8  UNL     1      -1.961  -2.206   0.459  1.00  0.00     0.142 A 
HETATM    2  N2  UNL     1      -2.836  -3.122   0.854  1.00  0.00    -0.224 NA
HETATM    3  C9  UNL     1      -2.635  -4.425   0.883  1.00  0.00     0.236 A 
HETATM    4  N3  UNL     1      -1.466  -4.953   0.495  1.00  0.00    -0.241 NA
HETATM    5  C10 UNL     1      -0.500  -4.088   0.071  1.00  0.00     0.075 A 
HETATM    6  C11 UNL     1       0.687  -4.664  -0.321  1.00  0.00     0.071 A 
HETATM    7  C12 UNL     1       1.719  -3.869  -0.764  1.00  0.00     0.098 A 
HETATM    8  C13 UNL     1       1.524  -2.506  -0.799  1.00  0.00     0.071 A 
HETATM    9  C14 UNL     1       0.312  -1.990  -0.395  1.00  0.00     0.050 A 
HETATM   10  C15 UNL     1      -0.756  -2.733   0.057  1.00  0.00     0.041 A 
HETATM   11  N4  UNL     1       2.587  -1.679  -1.258  1.00  0.00    -0.312 N 
HETATM   12  C22 UNL     1       3.809  -2.318  -1.660  1.00  0.00     0.248 C 
HETATM   13  O1  UNL     1       4.716  -1.664  -2.264  1.00  0.00    -0.271 OA
HETATM   14  C23 UNL     1       4.091  -3.750  -1.403  1.00  0.00     0.279 C 
HETATM   15  O2  UNL     1       2.891  -4.482  -1.146  1.00  0.00    -0.340 OA
ENDROOT
BRANCH   1  16
HETATM   16  N1  UNL     1      -2.149  -0.809   0.416  1.00  0.00    -0.340 N 
HETATM   17  H9  UNL     1      -1.413  -0.163   0.077  1.00  0.00     0.167 HD
BRANCH  16  18
HETATM   18  C7  UNL     1      -3.303  -0.088   0.806  1.00  0.00     0.034 A 
HETATM   19  C6  UNL     1      -4.365  -0.663   1.433  1.00  0.00     0.029 A 
HETATM   20  C5  UNL     1      -5.508   0.004   1.820  1.00  0.00     0.003 A 
HETATM   21  C4  UNL     1      -5.631   1.357   1.574  1.00  0.00     0.007 A 
HETATM   22  C3  UNL     1      -4.583   1.987   0.941  1.00  0.00    -0.056 A 
HETATM   23  C24 UNL     1      -3.471   1.262   0.581  1.00  0.00     0.036 A 
BRANCH  22  24
HETATM   24  C2  UNL     1      -4.640   3.441   0.640  1.00  0.00     0.034 C 
HETATM   25  C1  UNL     1      -5.233   3.692  -0.707  1.00  0.00     0.010 C 
ENDBRANCH  22  24
ENDBRANCH  16  18
ENDBRANCH   1  16
BRANCH  11  26
HETATM   26  C16 UNL     1       2.449  -0.261  -1.320  1.00  0.00     0.162 C 
BRANCH  26  27
HETATM   27  C17 UNL     1       2.896   0.344  -0.008  1.00  0.00     0.292 C 
BRANCH  27  28
HETATM   28  N5  UNL     1       2.779   1.800  -0.007  1.00  0.00     0.090 N 
HETATM   29  C18 UNL     1       3.726   2.403  -0.917  1.00  0.00     0.272 C 
HETATM   30  C19 UNL     1       4.247   3.654  -0.241  1.00  0.00     0.032 C 
HETATM   31  C20 UNL     1       4.241   3.231   1.212  1.00  0.00     0.032 C 
HETATM   32  C21 UNL     1       3.098   2.250   1.330  1.00  0.00     0.272 C 
ENDBRANCH  27  28
ENDBRANCH  26  27
ENDBRANCH  11  26
TORSDOF 6
