REMARK  3 active torsions:
REMARK  status: ('A' for Active; 'I' for Inactive)
REMARK       I    between atoms: N2_17  and  C16_18 
REMARK    1  A    between atoms: C16_18  and  C17_20 
REMARK    2  A    between atoms: C17_20  and  O2_21 
REMARK    3  A    between atoms: O2_21  and  C18_22 
ROOT
HETATM    1  C1  UNL     1      -4.330  -3.879  -1.093  1.00  0.00     0.048 C 
HETATM    2  C2  UNL     1      -3.551  -2.843  -0.410  1.00  0.00    -0.061 A 
HETATM    3  C3  UNL     1      -2.236  -3.102  -0.121  1.00  0.00     0.014 A 
HETATM    4  C4  UNL     1      -1.484  -2.152   0.521  1.00  0.00    -0.054 A 
HETATM    5  C5  UNL     1      -2.184  -0.953   0.832  1.00  0.00     0.014 A 
HETATM    6  C6  UNL     1      -3.532  -0.678   0.538  1.00  0.00    -0.057 A 
HETATM    7  C7  UNL     1      -4.215  -1.683  -0.109  1.00  0.00     0.013 A 
HETATM    8  C8  UNL     1      -3.856   0.713   1.013  1.00  0.00     0.038 C 
HETATM    9  C9  UNL     1      -2.832   1.669   0.373  1.00  0.00     0.005 C 
HETATM   10  C10 UNL     1      -2.900   3.034   0.948  1.00  0.00     0.002 C 
HETATM   11  C11 UNL     1      -1.900   3.978   0.408  1.00  0.00     0.030 C 
HETATM   12  C12 UNL     1      -0.457   3.592   0.460  1.00  0.00     0.269 C 
HETATM   13  N1  UNL     1      -0.154   2.580  -0.472  1.00  0.00     0.083 N 
HETATM   14  C13 UNL     1       1.261   2.136  -0.501  1.00  0.00     0.271 C 
HETATM   15  C14 UNL     1       1.432   1.248  -1.709  1.00  0.00     0.050 C 
HETATM   16  C15 UNL     1       2.699   0.640  -2.009  1.00  0.00     0.128 C 
HETATM   17  N2  UNL     1       3.378  -0.326  -1.210  1.00  0.00    -0.347 N 
HETATM   18  C16 UNL     1       4.398  -0.366  -0.243  1.00  0.00     0.243 C 
HETATM   19  O1  UNL     1       4.792  -1.434   0.286  1.00  0.00    -0.271 OA
HETATM   20  C19 UNL     1       2.792  -1.636  -1.532  1.00  0.00     0.153 C 
HETATM   21  C20 UNL     1       1.784  -2.091  -0.539  1.00  0.00    -0.011 C 
HETATM   22  C21 UNL     1       0.971  -2.721   0.375  1.00  0.00    -0.025 C 
HETATM   23  C22 UNL     1      -0.131  -1.950   0.957  1.00  0.00     0.065 C 
HETATM   24  H17 UNL     1      -0.371   2.857  -1.456  1.00  0.00     0.315 HD
ENDROOT
BRANCH  18  25
HETATM   25  C17 UNL     1       5.442   0.162   0.660  1.00  0.00     0.274 C 
BRANCH  25  26
HETATM   26  O2  UNL     1       6.000  -0.850   1.456  1.00  0.00    -0.345 OA
BRANCH  26  27
HETATM   27  C18 UNL     1       5.380  -1.585   2.419  1.00  0.00     0.562 C 
HETATM   28  O3  UNL     1       4.169  -1.445   2.751  1.00  0.00    -0.406 OA
ENDBRANCH  26  27
ENDBRANCH  25  26
ENDBRANCH  18  25
TORSDOF 3
