REMARK  6 active torsions:
REMARK  status: ('A' for Active; 'I' for Inactive)
REMARK    1  A    between atoms: C6_6  and  N1_7 
REMARK    2  A    between atoms: N1_7  and  C7_8 
REMARK    3  A    between atoms: N4_22  and  C17_23 
REMARK    4  A    between atoms: C17_23  and  C18_24 
REMARK    5  A    between atoms: C18_24  and  C19_25 
REMARK    6  A    between atoms: C19_25  and  N5_26 
ROOT
HETATM    1  C7  UNL     1       2.749  -0.760   1.020  1.00  0.00     0.128 C 
HETATM    2  C8  UNL     1       1.795  -1.487   1.963  1.00  0.00     0.115 C 
HETATM    3  N2  UNL     1       0.733  -2.213   1.619  1.00  0.00    -0.263 NA
HETATM    4  C9  UNL     1       0.291  -2.558   0.208  1.00  0.00     0.081 C 
HETATM    5  C10 UNL     1      -0.340  -1.747  -0.643  1.00  0.00     0.099 C 
HETATM    6  C11 UNL     1       0.894  -1.487  -1.478  1.00  0.00     0.120 C 
HETATM    7  C12 UNL     1       1.934  -2.208  -0.922  1.00  0.00     0.043 C 
HETATM    8  C13 UNL     1       3.135  -1.816  -0.043  1.00  0.00     0.090 C 
HETATM    9  N3  UNL     1       1.780  -3.664  -1.292  1.00  0.00    -0.385 N 
HETATM   10  C14 UNL     1       0.704  -3.957  -0.299  1.00  0.00     0.181 C 
HETATM   11  O1  UNL     1       0.691  -0.596  -2.588  1.00  0.00    -0.338 OA
HETATM   12  C15 UNL     1      -0.363   0.330  -2.576  1.00  0.00     0.279 C 
HETATM   13  C16 UNL     1      -1.660  -0.259  -2.161  1.00  0.00     0.248 C 
HETATM   14  O2  UNL     1      -2.848  -0.196  -2.566  1.00  0.00    -0.271 OA
HETATM   15  N4  UNL     1      -1.585  -1.110  -1.029  1.00  0.00    -0.312 N 
HETATM   16  H12 UNL     1       1.908  -4.616  -1.769  1.00  0.00     0.159 HD
ENDROOT
BRANCH   1  17
HETATM   17  N1  UNL     1       3.962  -0.542   1.766  1.00  0.00    -0.380 N 
HETATM   18  H7  UNL     1       4.095  -0.938   2.746  1.00  0.00     0.160 HD
BRANCH  17  19
HETATM   19  C6  UNL     1       5.120   0.196   1.346  1.00  0.00     0.029 A 
HETATM   20  C5  UNL     1       6.287   0.353   2.103  1.00  0.00     0.029 A 
HETATM   21  C4  UNL     1       7.333   1.093   1.602  1.00  0.00     0.003 A 
HETATM   22  C3  UNL     1       7.311   1.700   0.386  1.00  0.00     0.007 A 
HETATM   23  C2  UNL     1       6.176   1.563  -0.382  1.00  0.00    -0.060 A 
HETATM   24  C1  UNL     1       6.173   2.234  -1.706  1.00  0.00     0.048 C 
HETATM   25  C25 UNL     1       5.131   0.824   0.118  1.00  0.00     0.036 A 
ENDBRANCH  17  19
ENDBRANCH   1  17
BRANCH  15  26
HETATM   26  C17 UNL     1      -2.666  -1.475  -0.154  1.00  0.00     0.134 C 
BRANCH  26  27
HETATM   27  C18 UNL     1      -2.850  -0.548   1.001  1.00  0.00     0.040 C 
BRANCH  27  28
HETATM   28  C19 UNL     1      -3.144   0.864   0.649  1.00  0.00     0.118 C 
BRANCH  28  29
HETATM   29  N5  UNL     1      -4.302   1.121  -0.102  1.00  0.00    -0.412 N 
HETATM   30  C20 UNL     1      -4.561   2.471  -0.424  1.00  0.00     0.117 C 
HETATM   31  C21 UNL     1      -5.738   3.025   0.373  1.00  0.00     0.019 C 
HETATM   32  C22 UNL     1      -6.947   2.203  -0.094  1.00  0.00     0.003 C 
HETATM   33  C23 UNL     1      -6.710   0.812   0.387  1.00  0.00     0.019 C 
HETATM   34  C24 UNL     1      -5.383   0.231  -0.053  1.00  0.00     0.117 C 
ENDBRANCH  28  29
ENDBRANCH  27  28
ENDBRANCH  26  27
ENDBRANCH  15  26
TORSDOF 6
