REMARK  10 active torsions:
REMARK  status: ('A' for Active; 'I' for Inactive)
REMARK    1  A    between atoms: C2_2  and  N1_3 
REMARK    2  A    between atoms: N1_3  and  C4_5 
REMARK    3  A    between atoms: C4_5  and  C5_6 
REMARK    4  A    between atoms: C5_6  and  C6_7 
REMARK    5  A    between atoms: C6_7  and  N2_8 
REMARK    6  A    between atoms: C8_10  and  C9_11 
REMARK    7  A    between atoms: C12_16  and  C13_17 
REMARK    8  A    between atoms: C13_17  and  N5_18 
REMARK    9  A    between atoms: N5_18  and  C14_19 
REMARK   10  A    between atoms: C18_23  and  C19_24 
ROOT
HETATM    1  C9  UNL     1      -1.220  -2.931  -0.960  1.00  0.00     0.043 A 
HETATM    2  C10 UNL     1      -1.977  -3.921  -0.375  1.00  0.00     0.134 A 
HETATM    3  N3  UNL     1      -3.253  -4.152  -0.604  1.00  0.00    -0.253 NA
HETATM    4  C11 UNL     1      -3.921  -3.393  -1.467  1.00  0.00     0.232 A 
HETATM    5  N4  UNL     1      -3.201  -2.431  -2.040  1.00  0.00    -0.244 NA
HETATM    6  C12 UNL     1      -1.912  -2.161  -1.839  1.00  0.00     0.068 A 
ENDROOT
BRANCH   1   7
HETATM    7  C8  UNL     1       0.144  -2.784  -0.564  1.00  0.00     0.098 C 
HETATM    8  C7  UNL     1       1.181  -2.151  -1.020  1.00  0.00     0.131 C 
HETATM    9  N2  UNL     1       2.492  -2.092  -0.507  1.00  0.00    -0.324 N 
HETATM   10  C23 UNL     1       2.800  -2.819   0.709  1.00  0.00     0.248 C 
HETATM   11  C22 UNL     1       1.522  -2.998   1.494  1.00  0.00     0.279 C 
HETATM   12  O2  UNL     1       3.956  -3.209   1.003  1.00  0.00    -0.271 OA
HETATM   13  O1  UNL     1       0.524  -3.454   0.585  1.00  0.00    -0.340 OA
BRANCH   9  14
HETATM   14  C6  UNL     1       3.586  -1.372  -1.093  1.00  0.00     0.133 C 
BRANCH  14  15
HETATM   15  C5  UNL     1       3.666   0.064  -0.561  1.00  0.00     0.040 C 
BRANCH  15  16
HETATM   16  C4  UNL     1       3.800   0.046   0.939  1.00  0.00     0.123 C 
BRANCH  16  17
HETATM   17  N1  UNL     1       3.912   1.396   1.511  1.00  0.00    -0.395 N 
HETATM   18  C3  UNL     1       2.769   2.322   1.438  1.00  0.00     0.148 C 
BRANCH  17  19
HETATM   19  C2  UNL     1       5.112   1.805   2.141  1.00  0.00     0.075 C 
HETATM   20  C1  UNL     1       6.341   2.374   2.168  1.00  0.00     0.029 C 
ENDBRANCH  17  19
ENDBRANCH  16  17
ENDBRANCH  15  16
ENDBRANCH  14  15
ENDBRANCH   9  14
ENDBRANCH   1   7
BRANCH   6  21
HETATM   21  C13 UNL     1      -1.337  -1.032  -2.587  1.00  0.00     0.180 C 
BRANCH  21  22
HETATM   22  N5  UNL     1      -1.081   0.082  -1.711  1.00  0.00    -0.384 N 
HETATM   23  H18 UNL     1      -0.069   0.365  -1.735  1.00  0.00     0.160 HD
BRANCH  22  24
HETATM   24  C14 UNL     1      -1.793   0.925  -0.830  1.00  0.00     0.028 A 
HETATM   25  C15 UNL     1      -1.201   1.963  -0.106  1.00  0.00     0.029 A 
HETATM   26  C16 UNL     1      -1.911   2.759   0.738  1.00  0.00     0.003 A 
HETATM   27  C17 UNL     1      -3.262   2.549   0.893  1.00  0.00     0.007 A 
HETATM   28  C18 UNL     1      -3.948   1.556   0.227  1.00  0.00    -0.056 A 
HETATM   29  C21 UNL     1      -3.139   0.789  -0.616  1.00  0.00     0.036 A 
BRANCH  28  30
HETATM   30  C19 UNL     1      -5.386   1.390   0.456  1.00  0.00     0.034 C 
HETATM   31  C20 UNL     1      -6.168   2.201  -0.553  1.00  0.00     0.010 C 
ENDBRANCH  28  30
ENDBRANCH  22  24
ENDBRANCH  21  22
ENDBRANCH   6  21
TORSDOF 10
