REMARK  4 active torsions:
REMARK  status: ('A' for Active; 'I' for Inactive)
REMARK    1  A    between atoms: O1_2  and  C2_3 
REMARK    2  A    between atoms: C9_11  and  N2_12 
REMARK    3  A    between atoms: N2_12  and  C10_13 
REMARK    4  A    between atoms: C15_18  and  N3_19 
ROOT
HETATM    1  C2  UNL     1      -4.866   0.856  -0.039  1.00  0.00     0.057 C 
HETATM    2  C3  UNL     1      -4.343   0.991  -1.235  1.00  0.00     0.049 C 
HETATM    3  C4  UNL     1      -3.661  -0.344  -1.180  1.00  0.00     0.119 A 
HETATM    4  C5  UNL     1      -3.848  -1.128  -0.087  1.00  0.00     0.005 A 
HETATM    5  C6  UNL     1      -3.546   0.205   0.464  1.00  0.00     0.109 A 
HETATM    6  C7  UNL     1      -2.309   0.869   0.191  1.00  0.00     0.149 C 
HETATM    7  N1  UNL     1      -1.223   0.239  -0.601  1.00  0.00    -0.319 N 
HETATM    8  C8  UNL     1       0.111   0.547  -0.081  1.00  0.00     0.121 A 
HETATM    9  C9  UNL     1       1.035  -0.031  -0.830  1.00  0.00     0.041 A 
HETATM   10  C16 UNL     1       1.002  -0.885  -2.028  1.00  0.00     0.211 A 
HETATM   11  N4  UNL     1      -0.351  -1.118  -2.447  1.00  0.00    -0.245 NA
HETATM   12  C17 UNL     1      -1.298  -0.630  -1.825  1.00  0.00     0.245 A 
HETATM   13  O2  UNL     1      -2.752  -0.854  -2.238  1.00  0.00    -0.300 OA
ENDROOT
BRANCH   9  14
HETATM   14  N2  UNL     1       2.290   0.342  -0.225  1.00  0.00    -0.380 N 
HETATM   15  H10 UNL     1       2.536   1.376  -0.142  1.00  0.00     0.160 HD
BRANCH  14  16
HETATM   16  C10 UNL     1       3.322  -0.527   0.305  1.00  0.00     0.134 A 
HETATM   17  C11 UNL     1       4.021  -1.360  -0.725  1.00  0.00     0.058 A 
HETATM   18  C12 UNL     1       5.485  -1.180  -0.577  1.00  0.00    -0.024 A 
HETATM   19  C13 UNL     1       6.314  -0.499   0.189  1.00  0.00    -0.002 A 
HETATM   20  C14 UNL     1       5.628   0.315   1.181  1.00  0.00     0.026 A 
HETATM   21  C15 UNL     1       4.319   0.199   1.109  1.00  0.00     0.026 A 
BRANCH  21  22
HETATM   22  N3  UNL     1       3.554   0.976   2.056  1.00  0.00    -0.401 N 
HETATM   23  H17 UNL     1       3.479   1.968   1.725  1.00  0.00     0.156 HD
HETATM   24  H18 UNL     1       3.047   0.858   2.978  1.00  0.00     0.156 HD
ENDBRANCH  21  22
ENDBRANCH  14  16
ENDBRANCH   9  14
BRANCH   1  25
HETATM   25  O1  UNL     1      -6.137   1.237   0.361  1.00  0.00    -0.360 OA
HETATM   26  C1  UNL     1      -6.905   0.567   1.341  1.00  0.00     0.209 C 
ENDBRANCH   1  25
TORSDOF 4
