REMARK  2 active torsions:
REMARK  status: ('A' for Active; 'I' for Inactive)
REMARK    1  A    between atoms: C1_2  and  C2_3 
REMARK    2  A    between atoms: C2_3  and  N1_4 
ROOT
HETATM    1  N1  UNL     1      -0.422  -1.265  -1.109  1.00  0.00    -0.373 N 
HETATM    2  C3  UNL     1      -1.535  -0.376  -1.308  1.00  0.00     0.130 C 
HETATM    3  C4  UNL     1      -2.018   0.305  -0.088  1.00  0.00     0.033 C 
HETATM    4  C5  UNL     1      -3.186  -0.575   0.430  1.00  0.00     0.008 C 
HETATM    5  C6  UNL     1      -4.520   0.015   0.040  1.00  0.00     0.001 C 
HETATM    6  C7  UNL     1      -4.726   1.200   0.974  1.00  0.00     0.002 C 
HETATM    7  C8  UNL     1      -3.514   2.049   0.849  1.00  0.00     0.032 C 
HETATM    8  C9  UNL     1      -2.610   1.686  -0.306  1.00  0.00     0.177 C 
HETATM    9  N2  UNL     1      -1.528   2.734  -0.206  1.00  0.00    -0.109 N 
HETATM   10  C10 UNL     1      -0.171   3.264  -0.014  1.00  0.00     0.577 C 
HETATM   11  C11 UNL     1       0.796   2.284   0.101  1.00  0.00     0.032 C 
HETATM   12  C12 UNL     1       2.000   3.173   0.273  1.00  0.00     0.037 C 
HETATM   13  C13 UNL     1       3.344   2.962   0.451  1.00  0.00     0.021 C 
HETATM   14  C14 UNL     1       4.604   2.142   0.614  1.00  0.00     0.013 C 
HETATM   15 CL1  UNL     1       6.025   3.120   0.799  1.00  0.00    -0.089 Cl
HETATM   16  C15 UNL     1       4.684   0.842   0.623  1.00  0.00     0.028 C 
HETATM   17  C16 UNL     1       3.991  -0.408   0.534  1.00  0.00    -0.036 C 
HETATM   18  C17 UNL     1       2.813  -0.563  -0.006  1.00  0.00     0.025 C 
HETATM   19  C18 UNL     1       1.745  -1.500   0.241  1.00  0.00     0.019 A 
HETATM   20  C19 UNL     1       0.544  -1.741  -0.185  1.00  0.00     0.043 A 
HETATM   21  C20 UNL     1       0.038  -2.900   0.586  1.00  0.00     0.032 A 
HETATM   22  C21 UNL     1       0.924  -3.361   1.489  1.00  0.00     0.034 A 
HETATM   23  C22 UNL     1       2.062  -2.451   1.286  1.00  0.00     0.064 A 
HETATM   24  N3  UNL     1       3.247  -2.314   1.828  1.00  0.00    -0.284 NA
HETATM   25  C23 UNL     1       4.317  -1.767   1.007  1.00  0.00     0.188 C 
HETATM   26  H16 UNL     1      -2.058   3.674  -0.372  1.00  0.00     0.260 HD
ENDROOT
BRANCH   1  27
HETATM   27  C2  UNL     1      -0.206  -1.971  -2.359  1.00  0.00     0.192 C 
BRANCH  27  28
HETATM   28  C1  UNL     1       0.921  -2.923  -2.357  1.00  0.00     0.250 C 
HETATM   29  O1  UNL     1       1.112  -3.528  -3.419  1.00  0.00    -0.305 OA
ENDBRANCH  27  28
ENDBRANCH   1  27
TORSDOF 2
