REMARK  6 active torsions:
REMARK  status: ('A' for Active; 'I' for Inactive)
REMARK    1  A    between atoms: C1_2  and  C2_3 
REMARK    2  A    between atoms: C7_11  and  N3_12 
REMARK    3  A    between atoms: C14_20  and  N4_21 
REMARK    4  A    between atoms: N4_21  and  C15_22 
REMARK    5  A    between atoms: C15_22  and  C16_23 
REMARK    6  A    between atoms: C16_23  and  C17_24 
ROOT
HETATM    1  C2  UNL     1      -0.347   1.821   0.531  1.00  0.00     0.237 C 
HETATM    2  O2  UNL     1      -1.357   2.713   0.137  1.00  0.00    -0.345 OA
HETATM    3  C3  UNL     1      -1.870   2.620  -1.142  1.00  0.00     0.137 C 
HETATM    4  C4  UNL     1      -3.023   2.289  -1.649  1.00  0.00     0.043 C 
HETATM    5  C5  UNL     1      -4.232   1.878  -0.946  1.00  0.00     0.120 C 
HETATM    6  N1  UNL     1      -3.417   2.074  -0.007  1.00  0.00    -0.254 NA
HETATM    7  C6  UNL     1      -3.628   1.930   1.385  1.00  0.00     0.229 C 
HETATM    8  N2  UNL     1      -3.370   0.856   2.035  1.00  0.00    -0.253 NA
HETATM    9  C7  UNL     1      -2.847  -0.370   1.556  1.00  0.00     0.234 C 
HETATM   10  C13 UNL     1      -1.659  -0.325   0.706  1.00  0.00     0.049 C 
HETATM   11  C14 UNL     1      -0.656   0.401   0.238  1.00  0.00     0.041 C 
ENDROOT
BRANCH  11  12
HETATM   12  N4  UNL     1       0.270  -0.245  -0.654  1.00  0.00    -0.391 N 
HETATM   13  H14 UNL     1      -0.288  -0.028  -1.530  1.00  0.00     0.159 HD
BRANCH  12  14
HETATM   14  C15 UNL     1       1.515  -0.944  -0.465  1.00  0.00     0.120 C 
BRANCH  14  15
HETATM   15  C16 UNL     1       2.563   0.021  -0.022  1.00  0.00     0.024 C 
BRANCH  15  16
HETATM   16  C17 UNL     1       3.902  -0.649   0.197  1.00  0.00    -0.013 C 
HETATM   17  C18 UNL     1       4.851   0.469   0.642  1.00  0.00     0.005 C 
HETATM   18  C19 UNL     1       6.230  -0.127   0.913  1.00  0.00     0.000 C 
HETATM   19  C20 UNL     1       6.794  -0.514  -0.425  1.00  0.00     0.000 C 
HETATM   20  C21 UNL     1       5.737  -0.526  -1.507  1.00  0.00     0.000 C 
HETATM   21  C22 UNL     1       4.470  -1.222  -1.077  1.00  0.00     0.005 C 
ENDBRANCH  15  16
ENDBRANCH  14  15
ENDBRANCH  12  14
ENDBRANCH  11  12
BRANCH   1  22
HETATM   22  C1  UNL     1       0.062   2.018   1.952  1.00  0.00     0.269 C 
HETATM   23  O1  UNL     1       0.751   1.692   2.870  1.00  0.00    -0.304 OA
ENDBRANCH   1  22
BRANCH   9  24
HETATM   24  N3  UNL     1      -3.953  -1.036   0.853  1.00  0.00    -0.359 N 
HETATM   25  C8  UNL     1      -5.157  -1.061   1.635  1.00  0.00     0.107 A 
HETATM   26  C9  UNL     1      -6.254  -1.628   1.153  1.00  0.00     0.026 A 
HETATM   27 BR1  UNL     1      -7.854  -1.663   2.187  1.00  0.00    -0.050 Br
HETATM   28  C10 UNL     1      -6.285  -2.236  -0.154  1.00  0.00     0.018 A 
HETATM   29  C11 UNL     1      -5.170  -2.202  -0.847  1.00  0.00    -0.006 A 
HETATM   30  C12 UNL     1      -3.866  -1.619  -0.472  1.00  0.00     0.152 A 
ENDBRANCH   9  24
TORSDOF 6
