REMARK  5 active torsions:
REMARK  status: ('A' for Active; 'I' for Inactive)
REMARK    1  A    between atoms: C6_6  and  N1_7 
REMARK    2  A    between atoms: N1_7  and  C7_8 
REMARK    3  A    between atoms: N4_18  and  C15_19 
REMARK    4  A    between atoms: C15_19  and  C16_20 
REMARK    5  A    between atoms: C16_20  and  C17_21 
ROOT
HETATM    1  C7  UNL     1       2.989  -0.984   0.101  1.00  0.00     0.142 A 
HETATM    2  N2  UNL     1       4.069  -1.585   0.550  1.00  0.00    -0.224 NA
HETATM    3  C8  UNL     1       4.131  -2.844   0.991  1.00  0.00     0.236 A 
HETATM    4  N3  UNL     1       3.008  -3.584   0.987  1.00  0.00    -0.241 NA
HETATM    5  C9  UNL     1       1.860  -3.033   0.540  1.00  0.00     0.075 A 
HETATM    6  C10 UNL     1       0.784  -3.878   0.583  1.00  0.00     0.071 A 
HETATM    7  C11 UNL     1      -0.437  -3.409   0.147  1.00  0.00     0.098 A 
HETATM    8  C12 UNL     1      -0.532  -2.101  -0.318  1.00  0.00     0.071 A 
HETATM    9  C13 UNL     1       0.598  -1.314  -0.329  1.00  0.00     0.050 A 
HETATM   10  C14 UNL     1       1.843  -1.728   0.093  1.00  0.00     0.041 A 
HETATM   11  N4  UNL     1      -1.782  -1.585  -0.776  1.00  0.00    -0.314 N 
HETATM   12  C22 UNL     1      -2.914  -2.481  -0.727  1.00  0.00     0.248 C 
HETATM   13  O1  UNL     1      -3.938  -2.285  -1.430  1.00  0.00    -0.271 OA
HETATM   14  C23 UNL     1      -2.866  -3.676   0.184  1.00  0.00     0.279 C 
HETATM   15  O2  UNL     1      -1.553  -4.236   0.176  1.00  0.00    -0.340 OA
ENDROOT
BRANCH   1  16
HETATM   16  N1  UNL     1       2.934   0.339  -0.360  1.00  0.00    -0.340 N 
HETATM   17  H7  UNL     1       2.060   0.772  -0.718  1.00  0.00     0.167 HD
BRANCH  16  18
HETATM   18  C6  UNL     1       3.962   1.313  -0.441  1.00  0.00     0.034 A 
HETATM   19  C5  UNL     1       3.833   2.591  -0.984  1.00  0.00     0.029 A 
HETATM   20  C4  UNL     1       4.831   3.517  -1.052  1.00  0.00     0.003 A 
HETATM   21  C3  UNL     1       6.077   3.214  -0.560  1.00  0.00     0.007 A 
HETATM   22  C2  UNL     1       6.282   1.956  -0.002  1.00  0.00    -0.060 A 
HETATM   23  C1  UNL     1       7.636   1.709   0.500  1.00  0.00     0.048 C 
HETATM   24  C24 UNL     1       5.226   1.070   0.033  1.00  0.00     0.036 A 
ENDBRANCH  16  18
ENDBRANCH   1  16
BRANCH  11  25
HETATM   25  C15 UNL     1      -1.964  -0.234  -1.270  1.00  0.00     0.134 C 
BRANCH  25  26
HETATM   26  C16 UNL     1      -2.304   0.764  -0.245  1.00  0.00     0.056 C 
BRANCH  26  27
HETATM   27  C17 UNL     1      -3.539   0.596   0.550  1.00  0.00     0.222 C 
HETATM   28  C18 UNL     1      -4.816   0.569  -0.187  1.00  0.00     0.036 C 
HETATM   29  C19 UNL     1      -5.778   1.615   0.376  1.00  0.00     0.004 C 
HETATM   30  C20 UNL     1      -5.966   1.393   1.871  1.00  0.00     0.030 C 
HETATM   31  C21 UNL     1      -4.624   1.329   2.560  1.00  0.00     0.270 C 
HETATM   32  N5  UNL     1      -3.610   1.623   1.581  1.00  0.00     0.088 N 
HETATM   33  H24 UNL     1      -3.689   2.587   1.209  1.00  0.00     0.316 HD
ENDBRANCH  26  27
ENDBRANCH  25  26
ENDBRANCH  11  25
TORSDOF 5
