REMARK  6 active torsions:
REMARK  status: ('A' for Active; 'I' for Inactive)
REMARK    1  A    between atoms: C2_2  and  C3_3 
REMARK    2  A    between atoms: C2_2  and  C16_20 
REMARK    3  A    between atoms: N1_10  and  C8_11 
REMARK    4  A    between atoms: C8_11  and  C9_12 
REMARK    5  A    between atoms: C9_12  and  C10_13 
REMARK    6  A    between atoms: C10_13  and  N2_14 
ROOT
HETATM    1  C3  UNL     1       2.434  -0.012  -0.245  1.00  0.00     0.010 C 
HETATM    2  C4  UNL     1       1.968   0.130   0.984  1.00  0.00     0.035 C 
HETATM    3  C5  UNL     1       2.738  -0.519   2.071  1.00  0.00     0.225 C 
HETATM    4  O1  UNL     1       2.094  -0.442   3.296  1.00  0.00    -0.376 OA
HETATM    5  C6  UNL     1       1.737   0.860   3.631  1.00  0.00     0.271 C 
HETATM    6  C7  UNL     1       0.676   1.262   2.637  1.00  0.00     0.247 C 
HETATM    7  O2  UNL     1      -0.339   1.953   2.971  1.00  0.00    -0.271 OA
HETATM    8  N1  UNL     1       0.790   0.866   1.261  1.00  0.00    -0.318 N 
ENDROOT
BRANCH   8   9
HETATM    9  C8  UNL     1      -0.163   1.162   0.250  1.00  0.00     0.134 C 
BRANCH   9  10
HETATM   10  C9  UNL     1      -1.191   0.032   0.196  1.00  0.00     0.050 C 
BRANCH  10  11
HETATM   11  C10 UNL     1      -2.234   0.263  -0.844  1.00  0.00     0.274 C 
BRANCH  11  12
HETATM   12  N2  UNL     1      -3.173  -0.812  -0.863  1.00  0.00     0.088 N 
HETATM   13  C11 UNL     1      -4.209  -0.637  -1.857  1.00  0.00     0.272 C 
HETATM   14  C12 UNL     1      -5.486  -0.100  -1.268  1.00  0.00     0.030 C 
HETATM   15  C13 UNL     1      -5.317   0.597   0.049  1.00  0.00     0.003 C 
HETATM   16  C14 UNL     1      -4.580  -0.240   1.062  1.00  0.00     0.030 C 
HETATM   17  C15 UNL     1      -3.666  -1.246   0.400  1.00  0.00     0.272 C 
ENDBRANCH  11  12
ENDBRANCH  10  11
ENDBRANCH   9  10
ENDBRANCH   8   9
BRANCH   1  18
HETATM   18  C2  UNL     1       3.667  -0.785  -0.509  1.00  0.00     0.039 C 
HETATM   19  C1  UNL     1       3.400  -1.958  -1.443  1.00  0.00     0.019 C 
BRANCH  18  20
HETATM   20  C16 UNL     1       4.714   0.079  -1.158  1.00  0.00    -0.048 A 
HETATM   21  C17 UNL     1       5.953   0.555  -1.002  1.00  0.00     0.027 A 
HETATM   22  C18 UNL     1       5.894   1.272  -2.260  1.00  0.00     0.012 A 
HETATM   23 BR1  UNL     1       7.340   2.323  -2.917  1.00  0.00    -0.051 Br
HETATM   24  C19 UNL     1       4.668   0.798  -2.409  1.00  0.00     0.027 A 
ENDBRANCH  18  20
ENDBRANCH   1  18
TORSDOF 6
