REMARK  5 active torsions:
REMARK  status: ('A' for Active; 'I' for Inactive)
REMARK    1  A    between atoms: C7_11  and  N3_12 
REMARK    2  A    between atoms: N3_12  and  C8_13 
REMARK    3  A    between atoms: N4_23  and  C17_24 
REMARK    4  A    between atoms: C17_24  and  C18_25 
REMARK    5  A    between atoms: C18_25  and  N5_26 
ROOT
HETATM    1  O1  UNL     1      -3.375  -0.912  -2.477  1.00  0.00    -0.271 OA
HETATM    2  C1  UNL     1      -2.631  -1.466  -1.605  1.00  0.00     0.248 C 
HETATM    3  C2  UNL     1      -2.776  -2.727  -0.822  1.00  0.00     0.279 C 
HETATM    4  O2  UNL     1      -1.567  -3.463  -1.020  1.00  0.00    -0.340 OA
HETATM    5  C3  UNL     1      -0.362  -2.852  -0.712  1.00  0.00     0.098 A 
HETATM    6  C4  UNL     1       0.699  -3.614  -0.279  1.00  0.00     0.071 A 
HETATM    7  C5  UNL     1       1.884  -2.948   0.015  1.00  0.00     0.075 A 
HETATM    8  N1  UNL     1       2.897  -3.722   0.438  1.00  0.00    -0.241 NA
HETATM    9  C6  UNL     1       4.088  -3.187   0.755  1.00  0.00     0.236 A 
HETATM   10  N2  UNL     1       4.204  -1.859   0.625  1.00  0.00    -0.224 NA
HETATM   11  C7  UNL     1       3.249  -1.020   0.212  1.00  0.00     0.142 A 
HETATM   12  C14 UNL     1       2.047  -1.576  -0.105  1.00  0.00     0.041 A 
HETATM   13  C15 UNL     1       0.939  -0.894  -0.542  1.00  0.00     0.050 A 
HETATM   14  C16 UNL     1      -0.268  -1.461  -0.855  1.00  0.00     0.071 A 
HETATM   15  N4  UNL     1      -1.417  -0.746  -1.310  1.00  0.00    -0.312 N 
ENDROOT
BRANCH  11  16
HETATM   16  N3  UNL     1       3.425   0.380   0.084  1.00  0.00    -0.340 N 
HETATM   17  H5  UNL     1       2.711   1.011  -0.279  1.00  0.00     0.167 HD
BRANCH  16  18
HETATM   18  C8  UNL     1       4.593   1.109   0.433  1.00  0.00     0.035 A 
HETATM   19  C9  UNL     1       5.553   0.656   1.309  1.00  0.00     0.029 A 
HETATM   20  C10 UNL     1       6.711   1.335   1.655  1.00  0.00     0.004 A 
HETATM   21  C11 UNL     1       6.894   2.566   1.059  1.00  0.00     0.024 A 
HETATM   22  C12 UNL     1       6.001   3.113   0.172  1.00  0.00     0.036 A 
HETATM   23 CL1  UNL     1       6.222   4.685  -0.600  1.00  0.00    -0.084 Cl
HETATM   24  C13 UNL     1       4.894   2.365  -0.102  1.00  0.00     0.053 A 
ENDBRANCH  16  18
ENDBRANCH  11  16
BRANCH  15  25
HETATM   25  C17 UNL     1      -1.259   0.686  -1.449  1.00  0.00     0.151 C 
BRANCH  25  26
HETATM   26  C18 UNL     1      -1.616   1.464  -0.217  1.00  0.00     0.137 C 
BRANCH  26  27
HETATM   27  N5  UNL     1      -2.949   1.358   0.239  1.00  0.00    -0.411 N 
HETATM   28  C19 UNL     1      -3.964   1.927  -0.525  1.00  0.00     0.117 C 
HETATM   29  C20 UNL     1      -5.320   1.284  -0.471  1.00  0.00     0.019 C 
HETATM   30  C21 UNL     1      -5.627   0.933   0.985  1.00  0.00     0.003 C 
HETATM   31  C22 UNL     1      -4.595  -0.113   1.359  1.00  0.00     0.019 C 
HETATM   32  C23 UNL     1      -3.224   0.503   1.309  1.00  0.00     0.117 C 
ENDBRANCH  26  27
ENDBRANCH  25  26
ENDBRANCH  15  25
TORSDOF 5
