REMARK  9 active torsions:
REMARK  status: ('A' for Active; 'I' for Inactive)
REMARK    1  A    between atoms: C2_2  and  O1_3 
REMARK    2  A    between atoms: O1_3  and  C3_4 
REMARK    3  A    between atoms: C3_4  and  C4_5 
REMARK    4  A    between atoms: C6_9  and  N3_10 
REMARK    5  A    between atoms: N3_10  and  C7_11 
REMARK    6  A    between atoms: C8_12  and  C9_13 
REMARK    7  A    between atoms: C11_15  and  C12_16 
REMARK    8  A    between atoms: C13_17  and  C14_18 
REMARK    9  A    between atoms: C15_19  and  N4_20 
ROOT
HETATM    1  C4  UNL     1      -1.207  -0.514   1.353  1.00  0.00     0.073 A 
HETATM    2  N1  UNL     1      -0.874  -0.985   2.584  1.00  0.00    -0.243 NA
HETATM    3  C5  UNL     1       0.300  -0.758   3.164  1.00  0.00     0.235 A 
HETATM    4  N2  UNL     1       1.206  -0.018   2.482  1.00  0.00    -0.224 NA
HETATM    5  C6  UNL     1       0.887   0.464   1.235  1.00  0.00     0.138 A 
HETATM    6  C13 UNL     1      -0.376   0.227   0.595  1.00  0.00     0.038 A 
ENDROOT
BRANCH   5   7
HETATM    7  N3  UNL     1       1.926   1.196   0.689  1.00  0.00    -0.357 N 
HETATM    8  H9  UNL     1       1.574   1.810  -0.113  1.00  0.00     0.162 HD
BRANCH   7   9
HETATM    9  C7  UNL     1       2.937   1.919   0.142  1.00  0.00     0.094 A 
HETATM   10  C8  UNL     1       3.980   1.932  -0.332  1.00  0.00    -0.037 A 
HETATM   11  C12 UNL     1       3.833   0.600  -0.029  1.00  0.00     0.062 A 
BRANCH  10  12
HETATM   12  C9  UNL     1       4.956   1.921  -0.776  1.00  0.00    -0.063 A 
HETATM   13  C10 UNL     1       5.990   1.889  -1.239  1.00  0.00     0.033 A 
HETATM   14  C11 UNL     1       5.264   0.597  -0.679  1.00  0.00     0.035 A 
ENDBRANCH  10  12
ENDBRANCH   7   9
ENDBRANCH   5   7
BRANCH   6  15
HETATM   15  C14 UNL     1      -0.297   0.629  -0.780  1.00  0.00     0.039 C 
HETATM   16  C15 UNL     1      -0.599  -0.124  -1.852  1.00  0.00     0.150 C 
BRANCH  16  17
HETATM   17  N4  UNL     1      -1.040  -1.361  -2.481  1.00  0.00    -0.110 NA
HETATM   18  O2  UNL     1      -0.411  -2.383  -1.999  1.00  0.00    -0.062 OA
ENDBRANCH  16  17
ENDBRANCH   6  15
BRANCH   1  19
HETATM   19  C3  UNL     1      -2.585  -0.667   0.904  1.00  0.00     0.227 C 
BRANCH  19  20
HETATM   20  O1  UNL     1      -2.831  -1.525  -0.106  1.00  0.00    -0.386 OA
BRANCH  20  21
HETATM   21  C2  UNL     1      -4.228  -1.514  -0.322  1.00  0.00     0.163 C 
HETATM   22  C1  UNL     1      -4.689  -0.123  -0.616  1.00  0.00     0.033 C 
ENDBRANCH  20  21
ENDBRANCH  19  20
ENDBRANCH   1  19
TORSDOF 9
