REMARK  0 active torsions:
REMARK  status: ('A' for Active; 'I' for Inactive)
ROOT
HETATM    1  O1  UNL     1      -1.562   3.176   1.362  1.00  0.00    -0.295 OA
HETATM    2  C1  UNL     1      -1.123   2.525   0.402  1.00  0.00     0.156 C 
HETATM    3  C2  UNL     1       0.368   2.641   0.380  1.00  0.00     0.246 C 
HETATM    4  O2  UNL     1       0.959   2.036  -0.698  1.00  0.00    -0.378 OA
HETATM    5  C3  UNL     1       2.325   2.064  -0.745  1.00  0.00     0.223 C 
HETATM    6  C4  UNL     1       2.970   1.346   0.400  1.00  0.00     0.043 C 
HETATM    7  N1  UNL     1       3.077   1.639   1.652  1.00  0.00    -0.248 NA
HETATM    8  C5  UNL     1       3.123   0.597   2.653  1.00  0.00     0.232 C 
HETATM    9  N2  UNL     1       3.056  -0.663   2.276  1.00  0.00    -0.248 NA
HETATM   10  C6  UNL     1       2.961  -1.066   0.921  1.00  0.00     0.044 C 
HETATM   11  C7  UNL     1       2.321  -2.228   0.987  1.00  0.00     0.153 C 
HETATM   12  N3  UNL     1       1.726  -3.405   0.468  1.00  0.00    -0.410 N 
HETATM   13  C8  UNL     1       0.260  -3.274   0.654  1.00  0.00     0.116 C 
HETATM   14  C9  UNL     1      -0.118  -2.152  -0.295  1.00  0.00     0.038 C 
HETATM   15  C10 UNL     1      -1.541  -1.753  -0.292  1.00  0.00     0.118 C 
HETATM   16  N4  UNL     1      -1.862  -0.695  -1.192  1.00  0.00    -0.412 N 
HETATM   17  C11 UNL     1      -3.241  -0.667  -1.487  1.00  0.00     0.117 C 
HETATM   18  C12 UNL     1      -3.992   0.548  -1.066  1.00  0.00     0.020 C 
HETATM   19  C13 UNL     1      -3.242   1.291   0.016  1.00  0.00     0.015 C 
HETATM   20  C14 UNL     1      -1.936   1.726  -0.603  1.00  0.00     0.075 C 
HETATM   21  C15 UNL     1      -1.165   0.516  -1.010  1.00  0.00     0.129 C 
HETATM   22  C16 UNL     1       3.642   0.035   0.129  1.00  0.00     0.114 C 
HETATM   23  H7  UNL     1       2.150  -4.277   0.019  1.00  0.00     0.154 HD
ENDROOT
TORSDOF 0
