REMARK  7 active torsions:
REMARK  status: ('A' for Active; 'I' for Inactive)
REMARK    1  A    between atoms: C2_2  and  C3_3 
REMARK    2  A    between atoms: C3_3  and  C4_4 
REMARK    3  A    between atoms: C4_4  and  N1_5 
REMARK    4  A    between atoms: N1_5  and  C5_7 
REMARK    5  A    between atoms: C5_7  and  C6_8 
REMARK    6  A    between atoms: C6_8  and  C7_9 
REMARK    7  A    between atoms: C7_9  and  N2_10 
ROOT
HETATM    1  N2  UNL     1       1.778   0.551  -0.927  1.00  0.00    -0.314 N 
HETATM    2  C8  UNL     1       2.042   1.902  -1.360  1.00  0.00     0.248 C 
HETATM    3  O1  UNL     1       1.180   2.571  -2.024  1.00  0.00    -0.271 OA
HETATM    4  C9  UNL     1       3.299   2.642  -1.092  1.00  0.00     0.279 C 
HETATM    5  O2  UNL     1       4.377   1.774  -0.808  1.00  0.00    -0.340 OA
HETATM    6  C10 UNL     1       4.200   0.468  -0.372  1.00  0.00     0.098 A 
HETATM    7  C11 UNL     1       5.237  -0.197   0.095  1.00  0.00     0.067 A 
HETATM    8  C12 UNL     1       5.006  -1.564   0.542  1.00  0.00     0.053 A 
HETATM    9  N3  UNL     1       6.041  -2.224   0.999  1.00  0.00    -0.178 NA
HETATM   10  C13 UNL     1       7.313  -1.599   1.039  1.00  0.00     0.206 C 
HETATM   11  N4  UNL     1       8.365  -1.080   1.083  1.00  0.00    -0.170 NA
HETATM   12  C14 UNL     1       3.709  -2.256   0.520  1.00  0.00     0.089 A 
HETATM   13  C15 UNL     1       2.631  -1.394  -0.028  1.00  0.00     0.012 A 
HETATM   14  C16 UNL     1       2.899  -0.161  -0.425  1.00  0.00     0.067 A 
ENDROOT
BRANCH   1  15
HETATM   15  C7  UNL     1       0.414   0.132  -1.065  1.00  0.00     0.133 C 
BRANCH  15  16
HETATM   16  C6  UNL     1      -0.346   0.440   0.222  1.00  0.00     0.036 C 
BRANCH  16  17
HETATM   17  C5  UNL     1      -1.807   0.028   0.140  1.00  0.00     0.110 C 
BRANCH  17  18
HETATM   18  N1  UNL     1      -2.463   0.333   1.392  1.00  0.00    -0.228 NA
HETATM   19 CL1  UNL     1      -2.379   2.052   1.683  1.00  0.00    -0.022 Cl
BRANCH  18  20
HETATM   20  C4  UNL     1      -3.848  -0.052   1.302  1.00  0.00     0.108 C 
BRANCH  20  21
HETATM   21  C3  UNL     1      -4.670   0.785   0.371  1.00  0.00     0.015 C 
BRANCH  21  22
HETATM   22  C2  UNL     1      -6.098   0.262   0.404  1.00  0.00    -0.003 C 
HETATM   23  C1  UNL     1      -6.071  -1.176  -0.063  1.00  0.00     0.005 C 
ENDBRANCH  21  22
ENDBRANCH  20  21
ENDBRANCH  18  20
ENDBRANCH  17  18
ENDBRANCH  16  17
ENDBRANCH  15  16
ENDBRANCH   1  15
TORSDOF 7
