REMARK  8 active torsions:
REMARK  status: ('A' for Active; 'I' for Inactive)
REMARK    1  A    between atoms: C2_3  and  C3_4 
REMARK    2  A    between atoms: C3_4  and  N1_5 
REMARK    3  A    between atoms: N1_5  and  C4_6 
REMARK    4  A    between atoms: C7_11  and  C8_12 
REMARK    5  A    between atoms: N4_16  and  C12_17 
REMARK    6  A    between atoms: C12_17  and  C13_18 
REMARK    7  A    between atoms: C13_18  and  C14_19 
REMARK    8  A    between atoms: C14_19  and  N5_20 
ROOT
HETATM    1  C8  UNL     1       1.541  -1.809  -0.821  1.00  0.00     0.261 C 
HETATM    2  C9  UNL     1       1.920  -2.725  -1.943  1.00  0.00     0.042 C 
HETATM    3  C10 UNL     1       0.505  -2.901  -2.515  1.00  0.00     0.033 C 
HETATM    4  C11 UNL     1       0.191  -1.428  -2.677  1.00  0.00     0.273 C 
HETATM    5  N4  UNL     1       0.577  -0.881  -1.367  1.00  0.00     0.097 N 
ENDROOT
BRANCH   1   6
HETATM    6  C7  UNL     1       2.585  -1.266  -0.003  1.00  0.00     0.038 A 
HETATM    7  C4  UNL     1       3.273  -0.078  -0.139  1.00  0.00     0.135 A 
HETATM    8  N2  UNL     1       4.229   0.321   0.686  1.00  0.00    -0.224 NA
HETATM    9  C5  UNL     1       4.581  -0.441   1.727  1.00  0.00     0.234 A 
HETATM   10  N3  UNL     1       3.976  -1.617   1.953  1.00  0.00    -0.253 NA
HETATM   11  C6  UNL     1       3.007  -2.018   1.113  1.00  0.00     0.131 A 
BRANCH   7  12
HETATM   12  N1  UNL     1       2.928   0.751  -1.236  1.00  0.00    -0.371 N 
HETATM   13  H5  UNL     1       2.221   0.593  -1.984  1.00  0.00     0.161 HD
BRANCH  12  14
HETATM   14  C3  UNL     1       3.613   2.015  -1.427  1.00  0.00     0.149 C 
BRANCH  14  15
HETATM   15  C2  UNL     1       3.457   2.869  -0.213  1.00  0.00     0.004 C 
HETATM   16  C1  UNL     1       4.467   3.311   0.486  1.00  0.00     0.082 C 
HETATM   17 CL1  UNL     1       4.158   4.308   1.893  1.00  0.00    -0.097 Cl
ENDBRANCH  14  15
ENDBRANCH  12  14
ENDBRANCH   7  12
ENDBRANCH   1   6
BRANCH   5  18
HETATM   18  C12 UNL     1      -0.684  -0.852  -0.605  1.00  0.00     0.275 C 
BRANCH  18  19
HETATM   19  C13 UNL     1      -0.478  -0.285   0.759  1.00  0.00     0.060 C 
BRANCH  19  20
HETATM   20  C14 UNL     1      -1.663  -0.201   1.642  1.00  0.00     0.274 C 
BRANCH  20  21
HETATM   21  N5  UNL     1      -2.782   0.566   1.215  1.00  0.00     0.088 N 
HETATM   22  C15 UNL     1      -3.675   0.844   2.387  1.00  0.00     0.272 C 
HETATM   23  C16 UNL     1      -4.924   1.509   1.850  1.00  0.00     0.030 C 
HETATM   24  C17 UNL     1      -4.711   2.015   0.439  1.00  0.00     0.003 C 
HETATM   25  C18 UNL     1      -4.360   0.893  -0.535  1.00  0.00     0.030 C 
HETATM   26  C19 UNL     1      -3.715  -0.176   0.343  1.00  0.00     0.272 C 
ENDBRANCH  20  21
ENDBRANCH  19  20
ENDBRANCH  18  19
ENDBRANCH   5  18
TORSDOF 8
