REMARK  8 active torsions:
REMARK  status: ('A' for Active; 'I' for Inactive)
REMARK    1  A    between atoms: C4_6  and  C5_7 
REMARK    2  A    between atoms: C6_8  and  C7_9 
REMARK    3  A    between atoms: C8_11  and  N2_12 
REMARK    4  A    between atoms: N3_14  and  C10_15 
REMARK    5  A    between atoms: C10_15  and  C11_16 
REMARK    6  A    between atoms: C12_17  and  C13_18 
REMARK    7  A    between atoms: C13_18  and  N4_19 
REMARK    8  A    between atoms: C18_24  and  N5_25 
ROOT
HETATM    1  C11 UNL     1       0.719   1.012  -1.560  1.00  0.00    -0.009 C 
HETATM    2  C12 UNL     1      -0.574   0.977  -1.323  1.00  0.00     0.001 C 
ENDROOT
BRANCH   1   3
HETATM    3  C10 UNL     1       1.777   1.957  -1.113  1.00  0.00     0.153 C 
BRANCH   3   4
HETATM    4  N3  UNL     1       2.813   1.290  -0.351  1.00  0.00    -0.341 N 
HETATM    5  C1  UNL     1       2.603   1.224   1.071  1.00  0.00     0.244 C 
HETATM    6  O1  UNL     1       1.535   1.592   1.571  1.00  0.00    -0.271 OA
HETATM    7  C2  UNL     1       3.792   0.679   1.814  1.00  0.00     0.278 C 
HETATM    8  O2  UNL     1       4.435  -0.303   1.014  1.00  0.00    -0.345 OA
HETATM    9  C3  UNL     1       4.736  -0.095  -0.296  1.00  0.00     0.063 C 
HETATM   10  C4  UNL     1       5.714  -0.581  -0.996  1.00  0.00     0.041 C 
HETATM   11  C9  UNL     1       3.912   0.788  -1.147  1.00  0.00     0.190 C 
BRANCH  10  12
HETATM   12  C5  UNL     1       6.764  -1.474  -0.613  1.00  0.00     0.110 A 
HETATM   13  C6  UNL     1       6.947  -1.045   0.347  1.00  0.00     0.050 A 
HETATM   14  N2  UNL     1       7.799  -2.087   0.176  1.00  0.00    -0.233 NA
BRANCH  13  15
HETATM   15  C7  UNL     1       7.127  -0.675   1.210  1.00  0.00     0.090 A 
HETATM   16  N1  UNL     1       7.342  -0.289   2.155  1.00  0.00    -0.262 NA
HETATM   17  C8  UNL     1       8.346  -1.815   1.501  1.00  0.00     0.242 A 
ENDBRANCH  13  15
ENDBRANCH  10  12
ENDBRANCH   3   4
ENDBRANCH   1   3
BRANCH   2  18
HETATM   18  C13 UNL     1      -1.773   0.141  -1.664  1.00  0.00     0.302 C 
BRANCH  18  19
HETATM   19  N4  UNL     1      -2.286  -0.334  -0.389  1.00  0.00     0.114 N 
HETATM   20  C14 UNL     1      -1.341  -1.250   0.157  1.00  0.00     0.275 C 
HETATM   21  C15 UNL     1      -1.853  -2.062   1.306  1.00  0.00     0.030 C 
HETATM   22  C16 UNL     1      -3.015  -2.885   0.731  1.00  0.00     0.005 C 
HETATM   23  C17 UNL     1      -4.069  -1.872   0.384  1.00  0.00     0.057 C 
HETATM   24  C18 UNL     1      -3.623  -0.796  -0.550  1.00  0.00     0.324 C 
BRANCH  24  25
HETATM   25  N5  UNL     1      -4.500   0.349  -0.267  1.00  0.00    -0.355 N 
HETATM   26  C19 UNL     1      -4.422   0.846   1.064  1.00  0.00     0.112 A 
HETATM   27  C20 UNL     1      -5.160   1.856   1.455  1.00  0.00     0.049 A 
HETATM   28 CL1  UNL     1      -5.107   2.509   3.080  1.00  0.00    -0.083 Cl
HETATM   29  C21 UNL     1      -6.093   2.516   0.535  1.00  0.00     0.023 A 
HETATM   30  C22 UNL     1      -6.134   2.028  -0.695  1.00  0.00    -0.005 A 
HETATM   31  C23 UNL     1      -5.359   0.901  -1.265  1.00  0.00     0.151 A 
ENDBRANCH  24  25
ENDBRANCH  18  19
ENDBRANCH   2  18
TORSDOF 8
