REMARK  5 active torsions:
REMARK  status: ('A' for Active; 'I' for Inactive)
REMARK    1  A    between atoms: N1_2  and  C1_3 
REMARK    2  A    between atoms: C1_3  and  C2_4 
REMARK    3  A    between atoms: C2_4  and  C3_5 
REMARK    4  A    between atoms: C10_16  and  N3_17 
REMARK    5  A    between atoms: N3_17  and  C11_18 
ROOT
HETATM    1  C3  UNL     1      -3.213   0.768   0.111  1.00  0.00     0.173 C 
HETATM    2  C4  UNL     1      -4.493   0.339  -0.497  1.00  0.00     0.174 C 
HETATM    3  O2  UNL     1      -5.427   1.000  -0.972  1.00  0.00    -0.293 OA
HETATM    4  C5  UNL     1      -4.631  -1.142  -0.516  1.00  0.00     0.258 C 
HETATM    5  O3  UNL     1      -3.617  -1.637  -1.371  1.00  0.00    -0.328 OA
HETATM    6  C6  UNL     1      -2.324  -1.145  -1.292  1.00  0.00     0.153 A 
HETATM    7  C7  UNL     1      -1.402  -1.835  -1.909  1.00  0.00     0.087 A 
HETATM    8  C8  UNL     1      -0.022  -1.405  -1.887  1.00  0.00     0.055 A 
HETATM    9  C9  UNL     1       0.508  -0.350  -1.302  1.00  0.00     0.070 A 
HETATM   10  S1  UNL     1      -0.551   0.760  -0.388  1.00  0.00    -0.008 SA
HETATM   11  N2  UNL     1      -2.154   0.048  -0.552  1.00  0.00    -0.285 N 
HETATM   12  C10 UNL     1       1.899   0.066  -1.291  1.00  0.00     0.251 A 
HETATM   13  N4  UNL     1       2.775  -0.824  -2.030  1.00  0.00    -0.254 NA
HETATM   14  C17 UNL     1       2.339  -1.881  -2.634  1.00  0.00     0.204 A 
HETATM   15  N5  UNL     1       0.950  -2.184  -2.572  1.00  0.00    -0.350 N 
HETATM   16  H16 UNL     1       0.703  -3.055  -3.090  1.00  0.00     0.166 HD
ENDROOT
BRANCH  12  17
HETATM   17  N3  UNL     1       2.378   0.045   0.078  1.00  0.00    -0.363 N 
HETATM   18  H10 UNL     1       1.747  -0.250   0.879  1.00  0.00     0.162 HD
BRANCH  17  19
HETATM   19  C11 UNL     1       3.699   0.416   0.414  1.00  0.00     0.032 A 
HETATM   20  C12 UNL     1       4.617   0.823  -0.528  1.00  0.00     0.029 A 
HETATM   21  C13 UNL     1       5.915   1.193  -0.262  1.00  0.00     0.005 A 
HETATM   22  C14 UNL     1       6.338   1.156   1.063  1.00  0.00     0.042 A 
HETATM   23  C15 UNL     1       5.463   0.753   2.078  1.00  0.00     0.118 A 
HETATM   24  F1  UNL     1       5.869   0.715   3.367  1.00  0.00    -0.206 F 
HETATM   25  C16 UNL     1       4.176   0.402   1.687  1.00  0.00     0.071 A 
ENDBRANCH  17  19
ENDBRANCH  12  17
BRANCH   1  26
HETATM   26  C2  UNL     1      -3.186   0.567   1.611  1.00  0.00     0.058 C 
BRANCH  26  27
HETATM   27  C1  UNL     1      -4.315   1.396   2.194  1.00  0.00     0.184 C 
BRANCH  27  28
HETATM   28  N1  UNL     1      -5.604   1.008   1.694  1.00  0.00    -0.141 NA
HETATM   29  O1  UNL     1      -6.561   1.373   2.291  1.00  0.00    -0.067 OA
ENDBRANCH  27  28
ENDBRANCH  26  27
ENDBRANCH   1  26
TORSDOF 5
