REMARK  6 active torsions:
REMARK  status: ('A' for Active; 'I' for Inactive)
REMARK    1  A    between atoms: C2_2  and  C11_15 
REMARK    2  A    between atoms: N1_3  and  C3_4 
REMARK    3  A    between atoms: C3_4  and  N2_5 
REMARK    4  A    between atoms: N2_5  and  C4_6 
REMARK    5  A    between atoms: C4_6  and  N3_7 
REMARK    6  A    between atoms: N3_7  and  C5_8 
ROOT
HETATM    1  C1  UNL     1      -0.265   1.873  -1.696  1.00  0.00     0.068 C 
HETATM    2  C2  UNL     1       0.068   0.624  -0.966  1.00  0.00     0.034 C 
HETATM    3  N1  UNL     1       1.333   0.385  -1.215  1.00  0.00    -0.256 NA
ENDROOT
BRANCH   2   4
HETATM    4  C11 UNL     1      -0.848  -0.210  -0.109  1.00  0.00     0.185 C 
HETATM    5  C12 UNL     1      -1.381   0.597   1.028  1.00  0.00     0.081 A 
HETATM    6  C13 UNL     1      -2.552   1.190   1.172  1.00  0.00    -0.002 A 
HETATM    7  O1  UNL     1      -0.997   1.062   2.295  1.00  0.00    -0.348 OA
HETATM    8  C14 UNL     1      -2.204   1.715   2.526  1.00  0.00     0.214 A 
HETATM    9  C15 UNL     1      -3.718   1.244   0.248  1.00  0.00     0.114 C 
HETATM   10  C16 UNL     1      -4.975   1.671   0.960  1.00  0.00     0.030 C 
HETATM   11  N4  UNL     1      -3.946   0.078  -0.507  1.00  0.00    -0.389 N 
HETATM   12  C17 UNL     1      -6.161   1.245   0.113  1.00  0.00     0.004 C 
HETATM   13  C18 UNL     1      -6.226  -0.270   0.154  1.00  0.00     0.020 C 
HETATM   14  C19 UNL     1      -4.851  -0.878   0.011  1.00  0.00     0.119 C 
HETATM   15  C20 UNL     1      -2.928  -0.358  -1.378  1.00  0.00     0.239 C 
HETATM   16  N5  UNL     1      -1.792  -0.943  -0.831  1.00  0.00    -0.387 N 
HETATM   17  C21 UNL     1      -1.519  -2.310  -1.090  1.00  0.00     0.146 C 
ENDBRANCH   2   4
BRANCH   3  18
HETATM   18  C3  UNL     1       2.017  -0.719  -0.695  1.00  0.00     0.807 C 
BRANCH  18  19
HETATM   19  N2  UNL     1       2.493  -1.843  -0.281  1.00  0.00     0.060 NA
BRANCH  19  20
HETATM   20  C4  UNL     1       3.795  -1.827   0.395  1.00  0.00     0.375 C 
BRANCH  20  21
HETATM   21  N3  UNL     1       4.621  -0.775  -0.201  1.00  0.00    -0.366 N 
HETATM   22  H7  UNL     1       4.234  -0.194  -0.978  1.00  0.00     0.161 HD
BRANCH  21  23
HETATM   23  C5  UNL     1       5.953  -0.462   0.198  1.00  0.00     0.032 A 
HETATM   24  C6  UNL     1       6.709   0.529  -0.376  1.00  0.00     0.029 A 
HETATM   25  C7  UNL     1       7.993   0.788   0.052  1.00  0.00     0.005 A 
HETATM   26  C8  UNL     1       8.585   0.071   1.073  1.00  0.00     0.042 A 
HETATM   27  C9  UNL     1       7.836  -0.927   1.658  1.00  0.00     0.118 A 
HETATM   28  F1  UNL     1       8.452  -1.606   2.654  1.00  0.00    -0.206 F 
HETATM   29  C10 UNL     1       6.546  -1.162   1.203  1.00  0.00     0.071 A 
ENDBRANCH  21  23
ENDBRANCH  20  21
ENDBRANCH  19  20
ENDBRANCH  18  19
ENDBRANCH   3  18
TORSDOF 6
