REMARK  8 active torsions:
REMARK  status: ('A' for Active; 'I' for Inactive)
REMARK    1  A    between atoms: C5_7  and  C6_8 
REMARK    2  A    between atoms: C6_8  and  O1_9 
REMARK    3  A    between atoms: O1_9  and  C7_10 
REMARK    4  A    between atoms: C7_10  and  C8_11 
REMARK       I    between atoms: C8_11  and  N3_13 
REMARK    5  A    between atoms: N3_13  and  C9_14 
REMARK    6  A    between atoms: C9_14  and  C10_15 
REMARK    7  A    between atoms: C10_15  and  C11_16 
REMARK    8  A    between atoms: C11_16  and  N4_17 
ROOT
HETATM    1  C8  UNL     1      -1.327  -0.300   1.006  1.00  0.00     0.241 C 
HETATM    2  O2  UNL     1      -0.716   0.062   2.073  1.00  0.00    -0.271 OA
HETATM    3  N3  UNL     1      -0.718  -1.055  -0.053  1.00  0.00    -0.359 N 
HETATM    4  H8  UNL     1      -1.481  -1.165  -0.767  1.00  0.00     0.162 HD
ENDROOT
BRANCH   1   5
HETATM    5  C7  UNL     1      -2.657   0.271   1.270  1.00  0.00     0.277 C 
BRANCH   5   6
HETATM    6  O1  UNL     1      -3.566  -0.004   0.192  1.00  0.00    -0.353 OA
BRANCH   6   7
HETATM    7  C6  UNL     1      -4.927   0.229   0.481  1.00  0.00     0.150 C 
BRANCH   7   8
HETATM    8  C5  UNL     1      -5.888  -0.089  -0.361  1.00  0.00     0.031 A 
HETATM    9  C2  UNL     1      -7.235   0.094  -0.174  1.00  0.00     0.062 A 
HETATM   10  C1  UNL     1      -7.625   0.639   0.955  1.00  0.00     0.046 C 
HETATM   11  N1  UNL     1      -8.180  -0.243  -1.058  1.00  0.00    -0.242 NA
HETATM   12  C3  UNL     1      -7.811  -0.810  -2.234  1.00  0.00     0.233 A 
HETATM   13  N2  UNL     1      -6.511  -1.012  -2.469  1.00  0.00    -0.253 NA
HETATM   14  C4  UNL     1      -5.554  -0.665  -1.561  1.00  0.00     0.133 A 
ENDBRANCH   7   8
ENDBRANCH   6   7
ENDBRANCH   5   6
ENDBRANCH   1   5
BRANCH   3  15
HETATM   15  C9  UNL     1       0.664  -1.409   0.155  1.00  0.00     0.124 C 
BRANCH  15  16
HETATM   16  C10 UNL     1       1.608  -0.250   0.297  1.00  0.00     0.050 C 
BRANCH  16  17
HETATM   17  C11 UNL     1       3.002  -0.767   0.560  1.00  0.00     0.274 C 
BRANCH  17  18
HETATM   18  N4  UNL     1       3.959   0.320   0.706  1.00  0.00     0.088 N 
HETATM   19  C12 UNL     1       5.251  -0.192   1.138  1.00  0.00     0.272 C 
HETATM   20  C13 UNL     1       6.254  -0.349   0.027  1.00  0.00     0.030 C 
HETATM   21  C14 UNL     1       6.553   0.981  -0.648  1.00  0.00     0.003 C 
HETATM   22  C15 UNL     1       5.353   1.891  -0.447  1.00  0.00     0.030 C 
HETATM   23  C16 UNL     1       4.117   1.024  -0.567  1.00  0.00     0.272 C 
ENDBRANCH  17  18
ENDBRANCH  16  17
ENDBRANCH  15  16
ENDBRANCH   3  15
TORSDOF 8
