REMARK  4 active torsions:
REMARK  status: ('A' for Active; 'I' for Inactive)
REMARK    1  A    between atoms: N3_13  and  C9_14 
REMARK    2  A    between atoms: C9_14  and  C10_15 
REMARK    3  A    between atoms: C10_15  and  C11_16 
REMARK    4  A    between atoms: C11_16  and  N4_17 
ROOT
HETATM    1  O1  UNL     1      -1.558  -2.478   2.705  1.00  0.00    -0.271 OA
HETATM    2  C1  UNL     1      -2.297  -2.072   1.731  1.00  0.00     0.248 C 
HETATM    3  C2  UNL     1      -3.441  -2.885   1.261  1.00  0.00     0.279 C 
HETATM    4  O2  UNL     1      -4.403  -2.249   0.464  1.00  0.00    -0.340 OA
HETATM    5  C3  UNL     1      -4.173  -1.041  -0.114  1.00  0.00     0.100 C 
HETATM    6  C4  UNL     1      -4.870  -0.244  -1.000  1.00  0.00     0.066 C 
HETATM    7  C5  UNL     1      -4.232   1.020  -1.344  1.00  0.00     0.044 C 
HETATM    8  N1  UNL     1      -4.383   2.305  -1.176  1.00  0.00    -0.246 NA
HETATM    9  C6  UNL     1      -3.218   2.891  -0.311  1.00  0.00     0.233 C 
HETATM   10  N2  UNL     1      -2.206   2.019   0.148  1.00  0.00    -0.244 NA
HETATM   11  C7  UNL     1      -2.547   0.697  -0.298  1.00  0.00     0.071 C 
HETATM   12  C8  UNL     1      -2.861  -0.424   0.343  1.00  0.00     0.096 C 
HETATM   13  N3  UNL     1      -1.847  -0.788   1.225  1.00  0.00    -0.312 N 
HETATM   14  C17 UNL     1      -2.791   0.810  -1.875  1.00  0.00     0.121 C 
ENDROOT
BRANCH  13  15
HETATM   15  C9  UNL     1      -0.756   0.107   1.466  1.00  0.00     0.134 C 
BRANCH  15  16
HETATM   16  C10 UNL     1       0.418  -0.224   0.529  1.00  0.00     0.040 C 
BRANCH  16  17
HETATM   17  C11 UNL     1       1.511   0.759   0.850  1.00  0.00     0.118 C 
BRANCH  17  18
HETATM   18  N4  UNL     1       2.700   0.655   0.117  1.00  0.00    -0.412 N 
HETATM   19  C12 UNL     1       2.648   0.981  -1.262  1.00  0.00     0.117 C 
HETATM   20  C13 UNL     1       4.076   1.082  -1.761  1.00  0.00     0.019 C 
HETATM   21  C14 UNL     1       4.698  -0.295  -1.716  1.00  0.00     0.003 C 
HETATM   22  C15 UNL     1       4.257  -1.121  -0.554  1.00  0.00     0.019 C 
HETATM   23  C16 UNL     1       3.716  -0.222   0.551  1.00  0.00     0.117 C 
ENDBRANCH  17  18
ENDBRANCH  16  17
ENDBRANCH  15  16
ENDBRANCH  13  15
TORSDOF 4
