REMARK  6 active torsions:
REMARK  status: ('A' for Active; 'I' for Inactive)
REMARK    1  A    between atoms: C7_11  and  S1_12 
REMARK    2  A    between atoms: S1_12  and  C8_13 
REMARK    3  A    between atoms: N3_23  and  C17_24 
REMARK    4  A    between atoms: C17_24  and  C18_25 
REMARK    5  A    between atoms: C18_25  and  C19_26 
REMARK    6  A    between atoms: C19_26  and  N4_27 
ROOT
HETATM    1  O1  UNL     1       2.693  -4.587   0.408  1.00  0.00    -0.271 OA
HETATM    2  C1  UNL     1       1.437  -4.479   0.305  1.00  0.00     0.248 A 
HETATM    3  C2  UNL     1       0.712  -5.758   0.213  1.00  0.00     0.279 A 
HETATM    4  O2  UNL     1      -0.687  -5.576   0.105  1.00  0.00    -0.340 OA
HETATM    5  C3  UNL     1      -1.266  -4.302   0.088  1.00  0.00     0.098 A 
HETATM    6  C4  UNL     1      -2.637  -4.245  -0.024  1.00  0.00     0.071 A 
HETATM    7  C5  UNL     1      -3.218  -2.983  -0.042  1.00  0.00     0.074 A 
HETATM    8  N1  UNL     1      -4.579  -2.967  -0.152  1.00  0.00    -0.241 NA
HETATM    9  C6  UNL     1      -5.213  -1.774  -0.174  1.00  0.00     0.234 A 
HETATM   10  N2  UNL     1      -4.539  -0.613  -0.091  1.00  0.00    -0.234 NA
HETATM   11  C7  UNL     1      -3.215  -0.575   0.018  1.00  0.00     0.112 A 
HETATM   12  C14 UNL     1      -2.516  -1.777   0.045  1.00  0.00     0.031 A 
HETATM   13  C15 UNL     1      -1.137  -1.885   0.156  1.00  0.00     0.049 A 
HETATM   14  C16 UNL     1      -0.553  -3.126   0.174  1.00  0.00     0.071 A 
HETATM   15  N3  UNL     1       0.860  -3.158   0.290  1.00  0.00    -0.314 N 
ENDROOT
BRANCH  15  16
HETATM   16  C17 UNL     1       1.757  -1.994   0.391  1.00  0.00     0.134 C 
BRANCH  16  17
HETATM   17  C18 UNL     1       2.195  -1.539  -0.965  1.00  0.00     0.040 C 
BRANCH  17  18
HETATM   18  C19 UNL     1       3.139  -0.387  -1.024  1.00  0.00     0.118 C 
BRANCH  18  19
HETATM   19  N4  UNL     1       2.758   0.848  -0.492  1.00  0.00    -0.412 N 
HETATM   20  C20 UNL     1       2.620   1.062   0.874  1.00  0.00     0.117 C 
HETATM   21  C21 UNL     1       3.307   2.280   1.435  1.00  0.00     0.019 C 
HETATM   22  C22 UNL     1       3.403   3.446   0.517  1.00  0.00     0.003 C 
HETATM   23  C23 UNL     1       4.020   2.928  -0.790  1.00  0.00     0.019 C 
HETATM   24  C24 UNL     1       2.958   1.989  -1.333  1.00  0.00     0.117 C 
ENDBRANCH  18  19
ENDBRANCH  17  18
ENDBRANCH  16  17
ENDBRANCH  15  16
BRANCH  11  25
HETATM   25  S1  UNL     1      -2.170   0.843   0.140  1.00  0.00    -0.070 SA
BRANCH  25  26
HETATM   26  C8  UNL     1      -3.044   2.376   0.111  1.00  0.00     0.010 A 
HETATM   27  C9  UNL     1      -4.393   2.621   0.008  1.00  0.00     0.019 A 
HETATM   28  C10 UNL     1      -4.915   3.896   0.001  1.00  0.00     0.004 A 
HETATM   29  C11 UNL     1      -4.049   4.974   0.103  1.00  0.00     0.042 A 
HETATM   30  C12 UNL     1      -2.685   4.779   0.209  1.00  0.00     0.117 A 
HETATM   31  F1  UNL     1      -1.921   5.888   0.303  1.00  0.00    -0.206 F 
HETATM   32  C13 UNL     1      -2.193   3.481   0.212  1.00  0.00     0.061 A 
ENDBRANCH  25  26
ENDBRANCH  11  25
TORSDOF 6
