REMARK  7 active torsions:
REMARK  status: ('A' for Active; 'I' for Inactive)
REMARK    1  A    between atoms: C2_2  and  C3_3 
REMARK    2  A    between atoms: C3_3  and  C4_4 
REMARK    3  A    between atoms: C4_4  and  N1_5 
REMARK    4  A    between atoms: N1_5  and  C5_7 
REMARK    5  A    between atoms: C5_7  and  C6_8 
REMARK    6  A    between atoms: C13_20  and  N5_21 
REMARK    7  A    between atoms: N5_21  and  C14_22 
ROOT
HETATM    1  C6  UNL     1       0.850  -0.794   1.939  1.00  0.00     0.135 C 
HETATM    2  N2  UNL     1       1.141  -2.020   2.658  1.00  0.00    -0.349 N 
HETATM    3  C7  UNL     1       1.918  -3.126   2.216  1.00  0.00     0.242 C 
HETATM    4  O1  UNL     1       1.970  -4.098   3.033  1.00  0.00    -0.271 OA
HETATM    5  C8  UNL     1       2.665  -3.323   0.976  1.00  0.00     0.278 C 
HETATM    6  O2  UNL     1       2.039  -2.766  -0.173  1.00  0.00    -0.341 OA
HETATM    7  C9  UNL     1       0.824  -2.101  -0.276  1.00  0.00     0.080 A 
HETATM    8  C10 UNL     1       0.139  -2.372  -1.417  1.00  0.00     0.070 A 
HETATM    9  C11 UNL     1      -1.082  -1.780  -1.646  1.00  0.00     0.074 A 
HETATM   10  N3  UNL     1      -1.721  -2.091  -2.812  1.00  0.00    -0.241 NA
HETATM   11  C12 UNL     1      -2.920  -1.546  -3.101  1.00  0.00     0.236 A 
HETATM   12  N4  UNL     1      -3.447  -0.703  -2.215  1.00  0.00    -0.224 NA
HETATM   13  C13 UNL     1      -2.917  -0.329  -1.052  1.00  0.00     0.142 A 
HETATM   14  C20 UNL     1      -1.695  -0.898  -0.781  1.00  0.00     0.039 A 
HETATM   15  C21 UNL     1      -0.953  -0.671   0.343  1.00  0.00     0.029 A 
HETATM   16  C22 UNL     1       0.273  -1.232   0.630  1.00  0.00     0.000 A 
HETATM   17  H13 UNL     1       0.740  -2.104   3.601  1.00  0.00     0.163 HD
ENDROOT
BRANCH  13  18
HETATM   18  N5  UNL     1      -3.479   0.563  -0.119  1.00  0.00    -0.340 N 
HETATM   19  H18 UNL     1      -3.013   0.793   0.776  1.00  0.00     0.167 HD
BRANCH  18  20
HETATM   20  C14 UNL     1      -4.703   1.265  -0.223  1.00  0.00     0.033 A 
HETATM   21  C15 UNL     1      -5.473   1.265  -1.358  1.00  0.00     0.029 A 
HETATM   22  C16 UNL     1      -6.665   1.931  -1.481  1.00  0.00     0.002 A 
HETATM   23  C17 UNL     1      -7.171   2.663  -0.430  1.00  0.00     0.000 A 
HETATM   24  C18 UNL     1      -6.441   2.699   0.737  1.00  0.00     0.002 A 
HETATM   25  C19 UNL     1      -5.255   2.010   0.795  1.00  0.00     0.029 A 
ENDBRANCH  18  20
ENDBRANCH  13  18
BRANCH   1  26
HETATM   26  C5  UNL     1       2.178  -0.134   1.616  1.00  0.00     0.138 C 
BRANCH  26  27
HETATM   27  N1  UNL     1       2.012   1.100   0.898  1.00  0.00    -0.226 NA
HETATM   28 CL1  UNL     1       0.917   2.120   1.743  1.00  0.00    -0.022 Cl
BRANCH  27  29
HETATM   29  C4  UNL     1       3.245   1.765   0.562  1.00  0.00     0.108 C 
BRANCH  29  30
HETATM   30  C3  UNL     1       4.051   1.007  -0.465  1.00  0.00     0.015 C 
BRANCH  30  31
HETATM   31  C2  UNL     1       5.358   1.735  -0.808  1.00  0.00    -0.003 C 
HETATM   32  C1  UNL     1       6.088   0.906  -1.836  1.00  0.00     0.005 C 
ENDBRANCH  30  31
ENDBRANCH  29  30
ENDBRANCH  27  29
ENDBRANCH  26  27
ENDBRANCH   1  26
TORSDOF 7
