REMARK  6 active torsions:
REMARK  status: ('A' for Active; 'I' for Inactive)
REMARK    1  A    between atoms: C7_11  and  N3_12 
REMARK    2  A    between atoms: N3_12  and  C8_13 
REMARK    3  A    between atoms: N4_23  and  C17_24 
REMARK    4  A    between atoms: C17_24  and  C18_25 
REMARK    5  A    between atoms: C18_25  and  C19_26 
REMARK    6  A    between atoms: C19_26  and  N5_27 
ROOT
HETATM    1  O1  UNL     1      -3.007  -3.028  -0.742  1.00  0.00    -0.271 OA
HETATM    2  C1  UNL     1      -1.769  -3.291  -0.782  1.00  0.00     0.248 C 
HETATM    3  C2  UNL     1      -1.392  -4.686  -1.132  1.00  0.00     0.279 C 
HETATM    4  O2  UNL     1      -0.019  -4.782  -1.467  1.00  0.00    -0.340 OA
HETATM    5  C3  UNL     1       0.882  -3.755  -1.189  1.00  0.00     0.098 A 
HETATM    6  C4  UNL     1       2.225  -3.985  -1.396  1.00  0.00     0.071 A 
HETATM    7  C5  UNL     1       3.148  -2.995  -1.134  1.00  0.00     0.075 A 
HETATM    8  N1  UNL     1       4.420  -3.338  -1.375  1.00  0.00    -0.241 NA
HETATM    9  C6  UNL     1       5.381  -2.431  -1.148  1.00  0.00     0.236 A 
HETATM   10  N2  UNL     1       5.029  -1.226  -0.692  1.00  0.00    -0.224 NA
HETATM   11  C7  UNL     1       3.787  -0.815  -0.429  1.00  0.00     0.142 A 
HETATM   12  C14 UNL     1       2.798  -1.738  -0.660  1.00  0.00     0.041 A 
HETATM   13  C15 UNL     1       1.461  -1.557  -0.471  1.00  0.00     0.050 A 
HETATM   14  C16 UNL     1       0.508  -2.505  -0.714  1.00  0.00     0.071 A 
HETATM   15  N4  UNL     1      -0.869  -2.211  -0.484  1.00  0.00    -0.314 N 
ENDROOT
BRANCH  11  16
HETATM   16  N3  UNL     1       3.426   0.466   0.052  1.00  0.00    -0.340 N 
HETATM   17  H5  UNL     1       2.437   0.713   0.245  1.00  0.00     0.167 HD
BRANCH  16  18
HETATM   18  C8  UNL     1       4.237   1.578   0.346  1.00  0.00     0.035 A 
HETATM   19  C9  UNL     1       3.798   2.786   0.847  1.00  0.00     0.029 A 
HETATM   20  C10 UNL     1       4.599   3.864   1.129  1.00  0.00     0.004 A 
HETATM   21  C11 UNL     1       5.956   3.779   0.909  1.00  0.00     0.024 A 
HETATM   22  C12 UNL     1       6.448   2.593   0.409  1.00  0.00     0.036 A 
HETATM   23 CL1  UNL     1       8.178   2.563   0.156  1.00  0.00    -0.084 Cl
HETATM   24  C13 UNL     1       5.595   1.545   0.145  1.00  0.00     0.053 A 
ENDBRANCH  16  18
ENDBRANCH  11  16
BRANCH  15  25
HETATM   25  C17 UNL     1      -1.379  -0.980  -0.000  1.00  0.00     0.134 C 
BRANCH  25  26
HETATM   26  C18 UNL     1      -1.732   0.049  -1.032  1.00  0.00     0.040 C 
BRANCH  26  27
HETATM   27  C19 UNL     1      -2.256   1.259  -0.275  1.00  0.00     0.118 C 
BRANCH  27  28
HETATM   28  N5  UNL     1      -3.399   0.988   0.506  1.00  0.00    -0.412 N 
HETATM   29  C20 UNL     1      -4.548   0.701  -0.257  1.00  0.00     0.117 C 
HETATM   30  C21 UNL     1      -5.764   1.528  -0.012  1.00  0.00     0.019 C 
HETATM   31  C22 UNL     1      -5.610   2.540   1.093  1.00  0.00     0.003 C 
HETATM   32  C23 UNL     1      -4.927   1.813   2.241  1.00  0.00     0.019 C 
HETATM   33  C24 UNL     1      -3.512   1.544   1.786  1.00  0.00     0.117 C 
ENDBRANCH  27  28
ENDBRANCH  26  27
ENDBRANCH  25  26
ENDBRANCH  15  25
TORSDOF 6
