REMARK  5 active torsions:
REMARK  status: ('A' for Active; 'I' for Inactive)
REMARK    1  A    between atoms: C2_2  and  C3_3 
REMARK    2  A    between atoms: C3_3  and  C4_5 
REMARK    3  A    between atoms: C4_5  and  N1_6 
REMARK    4  A    between atoms: N1_6  and  C5_7 
REMARK    5  A    between atoms: C13_18  and  N5_19 
ROOT
HETATM    1  C5  UNL     1       1.872  -0.498  -0.808  1.00  0.00     0.137 A 
HETATM    2  N2  UNL     1       1.688  -0.574  -2.122  1.00  0.00    -0.224 NA
HETATM    3  C6  UNL     1       0.474  -0.772  -2.654  1.00  0.00     0.235 A 
HETATM    4  N3  UNL     1      -0.638  -0.909  -1.914  1.00  0.00    -0.243 NA
HETATM    5  C7  UNL     1      -0.572  -0.851  -0.595  1.00  0.00     0.083 A 
HETATM    6  C8  UNL     1       0.717  -0.641  -0.075  1.00  0.00     0.038 A 
HETATM    7  C9  UNL     1       1.124  -0.505   1.347  1.00  0.00     0.034 C 
HETATM    8  C10 UNL     1       0.576  -0.982   2.487  1.00  0.00     0.084 C 
HETATM    9  N4  UNL     1      -0.609  -1.795   2.690  1.00  0.00    -0.399 N 
HETATM   10  C11 UNL     1      -1.276  -2.723   1.839  1.00  0.00     0.121 C 
HETATM   11  C12 UNL     1      -2.128  -2.289   0.752  1.00  0.00     0.062 C 
HETATM   12  C13 UNL     1      -1.929  -1.033   0.018  1.00  0.00     0.277 C 
HETATM   13  H11 UNL     1      -0.938  -1.570   3.681  1.00  0.00     0.158 HD
ENDROOT
BRANCH   1  14
HETATM   14  N1  UNL     1       3.150  -0.318  -0.222  1.00  0.00    -0.371 N 
HETATM   15  H7  UNL     1       3.625  -0.256   0.685  1.00  0.00     0.161 HD
BRANCH  14  16
HETATM   16  C4  UNL     1       4.214  -0.180  -1.189  1.00  0.00     0.162 C 
BRANCH  16  17
HETATM   17  C3  UNL     1       5.574   0.015  -0.618  1.00  0.00     0.210 C 
HETATM   18  F1  UNL     1       5.818  -1.058   0.253  1.00  0.00    -0.243 F 
BRANCH  17  19
HETATM   19  C2  UNL     1       5.694   1.229   0.223  1.00  0.00     0.001 C 
HETATM   20  C1  UNL     1       4.996   2.310  -0.046  1.00  0.00     0.010 C 
ENDBRANCH  17  19
ENDBRANCH  16  17
ENDBRANCH  14  16
ENDBRANCH   1  14
BRANCH  12  21
HETATM   21  N5  UNL     1      -2.265   0.182   0.724  1.00  0.00     0.099 N 
HETATM   22  C14 UNL     1      -1.965   1.258  -0.236  1.00  0.00     0.273 C 
HETATM   23  C15 UNL     1      -2.860   2.455  -0.026  1.00  0.00     0.030 C 
HETATM   24  C16 UNL     1      -4.288   2.177  -0.398  1.00  0.00     0.003 C 
HETATM   25  C17 UNL     1      -4.537   0.692  -0.111  1.00  0.00     0.030 C 
HETATM   26  C18 UNL     1      -3.641   0.331   1.055  1.00  0.00     0.273 C 
ENDBRANCH  12  21
TORSDOF 5
