REMARK  5 active torsions:
REMARK  status: ('A' for Active; 'I' for Inactive)
REMARK    1  A    between atoms: C5_5  and  N1_6 
REMARK    2  A    between atoms: N1_6  and  C6_7 
REMARK    3  A    between atoms: C11_15  and  C12_16 
REMARK    4  A    between atoms: C12_16  and  C13_17 
REMARK    5  A    between atoms: C13_17  and  N5_18 
ROOT
HETATM    1  C6  UNL     1       2.096  -0.506   0.794  1.00  0.00     0.138 C 
HETATM    2  N2  UNL     1       2.795  -0.421   1.904  1.00  0.00    -0.224 NA
HETATM    3  C7  UNL     1       2.616  -1.440   2.917  1.00  0.00     0.230 C 
HETATM    4  N3  UNL     1       1.863  -2.523   2.956  1.00  0.00    -0.266 NA
HETATM    5  C8  UNL     1       1.089  -2.801   1.842  1.00  0.00     0.204 C 
HETATM    6  C9  UNL     1      -0.276  -3.323   1.855  1.00  0.00     0.101 C 
HETATM    7  C10 UNL     1      -1.466  -3.898   1.842  1.00  0.00     0.120 C 
HETATM    8  N4  UNL     1      -1.890  -2.972   0.721  1.00  0.00    -0.376 N 
HETATM    9  C11 UNL     1      -1.611  -1.516   0.833  1.00  0.00     0.139 C 
HETATM   10  C18 UNL     1      -0.204  -1.298   0.282  1.00  0.00     0.028 C 
HETATM   11  C19 UNL     1       1.028  -1.523   0.941  1.00  0.00     0.018 C 
HETATM   12  C20 UNL     1      -1.640  -1.293   2.345  1.00  0.00     0.296 C 
HETATM   13  O2  UNL     1      -2.424  -0.707   3.127  1.00  0.00    -0.262 OA
HETATM   14  O3  UNL     1      -0.552  -1.987   2.136  1.00  0.00    -0.277 OA
HETATM   15  H10 UNL     1      -2.409  -3.163  -0.216  1.00  0.00     0.160 HD
ENDROOT
BRANCH   1  16
HETATM   16  N1  UNL     1       1.995   0.241  -0.394  1.00  0.00    -0.340 N 
HETATM   17  H6  UNL     1       1.131   0.373  -0.933  1.00  0.00     0.167 HD
BRANCH  16  18
HETATM   18  C5  UNL     1       3.285   0.777  -0.703  1.00  0.00     0.035 A 
HETATM   19  C4  UNL     1       4.072  -0.036  -1.528  1.00  0.00     0.030 A 
HETATM   20  C3  UNL     1       5.323   0.462  -1.844  1.00  0.00     0.011 A 
HETATM   21  C2  UNL     1       5.777   1.668  -1.389  1.00  0.00    -0.040 A 
HETATM   22  C1  UNL     1       7.153   2.079  -1.814  1.00  0.00     0.050 C 
HETATM   23  C22 UNL     1       4.987   2.466  -0.570  1.00  0.00     0.042 A 
HETATM   24  C21 UNL     1       3.738   1.990  -0.242  1.00  0.00     0.053 A 
HETATM   25 CL1  UNL     1       5.597   4.004  -0.002  1.00  0.00    -0.084 Cl
ENDBRANCH  16  18
ENDBRANCH   1  16
BRANCH   9  26
HETATM   26  C12 UNL     1      -2.614  -0.700   0.139  1.00  0.00     0.065 C 
BRANCH  26  27
HETATM   27  C13 UNL     1      -2.375   0.789   0.228  1.00  0.00     0.120 C 
BRANCH  27  28
HETATM   28  N5  UNL     1      -3.383   1.486  -0.464  1.00  0.00    -0.408 N 
HETATM   29  C14 UNL     1      -3.444   1.382  -1.865  1.00  0.00     0.143 C 
HETATM   30  C15 UNL     1      -4.821   0.899  -2.307  1.00  0.00     0.187 C 
HETATM   31  O1  UNL     1      -5.378   0.063  -1.318  1.00  0.00    -0.388 OA
HETATM   32  C16 UNL     1      -5.660   0.796  -0.169  1.00  0.00     0.187 C 
HETATM   33  C17 UNL     1      -4.589   1.806   0.175  1.00  0.00     0.143 C 
ENDBRANCH  27  28
ENDBRANCH  26  27
ENDBRANCH   9  26
TORSDOF 5
