REMARK  7 active torsions:
REMARK  status: ('A' for Active; 'I' for Inactive)
REMARK    1  A    between atoms: C2_2  and  C3_3 
REMARK    2  A    between atoms: C5_6  and  C6_7 
REMARK    3  A    between atoms: C6_7  and  N1_8 
REMARK    4  A    between atoms: C11_13  and  C12_14 
REMARK    5  A    between atoms: C12_14  and  C13_15 
REMARK    6  A    between atoms: C13_15  and  O1_16 
REMARK    7  A    between atoms: C21_27  and  N5_28 
ROOT
HETATM    1  C3  UNL     1      -2.383  -1.031  -1.164  1.00  0.00     0.070 C 
HETATM    2  C4  UNL     1      -1.313  -0.531  -0.477  1.00  0.00     0.124 C 
HETATM    3  F1  UNL     1      -0.348  -1.343  -1.025  1.00  0.00    -0.208 F 
HETATM    4  C5  UNL     1      -0.478   0.251   0.455  1.00  0.00     0.069 C 
HETATM    5  C15 UNL     1      -1.253   1.172   1.376  1.00  0.00     0.036 C 
HETATM    6  C16 UNL     1      -2.163   0.319   2.201  1.00  0.00     0.231 C 
HETATM    7  N3  UNL     1      -2.953  -0.342   3.042  1.00  0.00    -0.304 NA
HETATM    8  C17 UNL     1      -3.450  -1.537   2.305  1.00  0.00     0.002 A 
HETATM    9  C18 UNL     1      -3.813  -1.259   1.021  1.00  0.00     0.039 A 
HETATM   10  C19 UNL     1      -4.271  -2.354   0.173  1.00  0.00     0.025 A 
HETATM   11  C20 UNL     1      -4.537  -1.810  -0.979  1.00  0.00     0.099 C 
HETATM   12  N4  UNL     1      -3.795  -0.799  -1.327  1.00  0.00    -0.247 NA
HETATM   13  C21 UNL     1      -4.317  -3.661   0.742  1.00  0.00     0.060 A 
HETATM   14  C22 UNL     1      -3.915  -3.872   2.126  1.00  0.00     0.033 A 
HETATM   15  C23 UNL     1      -3.501  -2.873   2.880  1.00  0.00     0.025 A 
ENDROOT
BRANCH   4  16
HETATM   16  C6  UNL     1       0.472   1.017  -0.409  1.00  0.00     0.129 C 
BRANCH  16  17
HETATM   17  N1  UNL     1       1.410   1.868   0.131  1.00  0.00    -0.402 N 
HETATM   18  C7  UNL     1       1.117   3.080   0.752  1.00  0.00     0.117 C 
HETATM   19  C8  UNL     1       1.930   4.259   0.235  1.00  0.00     0.019 C 
HETATM   20  C9  UNL     1       3.280   3.786  -0.153  1.00  0.00     0.004 C 
HETATM   21  C10 UNL     1       3.749   2.515   0.462  1.00  0.00     0.031 C 
HETATM   22  C11 UNL     1       2.723   1.403   0.403  1.00  0.00     0.129 C 
BRANCH  22  23
HETATM   23  C12 UNL     1       3.196   0.344  -0.561  1.00  0.00     0.052 C 
HETATM   24  N2  UNL     1       3.343  -0.815  -0.054  1.00  0.00    -0.299 NA
HETATM   25  C14 UNL     1       3.781  -1.964  -0.779  1.00  0.00     0.177 C 
BRANCH  23  26
HETATM   26  C13 UNL     1       3.394   0.916  -1.927  1.00  0.00     0.220 C 
BRANCH  26  27
HETATM   27  O1  UNL     1       3.711  -0.168  -2.770  1.00  0.00    -0.395 OA
HETATM   28  H18 UNL     1       3.118  -0.183  -3.559  1.00  0.00     0.209 HD
ENDBRANCH  26  27
ENDBRANCH  23  26
ENDBRANCH  22  23
ENDBRANCH  16  17
ENDBRANCH   4  16
BRANCH   1  29
HETATM   29  C2  UNL     1      -1.681  -2.100  -2.000  1.00  0.00     0.025 C 
HETATM   30  C1  UNL     1      -2.667  -2.675  -2.766  1.00  0.00     0.043 C 
ENDBRANCH   1  29
BRANCH  13  31
HETATM   31  N5  UNL     1      -4.737  -4.526  -0.114  1.00  0.00    -0.299 NA
HETATM   32  H26 UNL     1      -4.829  -5.531   0.147  1.00  0.00     0.187 HD
ENDBRANCH  13  31
TORSDOF 7
