REMARK  5 active torsions:
REMARK  status: ('A' for Active; 'I' for Inactive)
REMARK    1  A    between atoms: N3_10  and  C7_11 
REMARK    2  A    between atoms: N4_21  and  C16_22 
REMARK    3  A    between atoms: C16_22  and  C17_23 
REMARK    4  A    between atoms: C17_23  and  C18_24 
REMARK    5  A    between atoms: C18_24  and  N5_25 
ROOT
HETATM    1  N1  UNL     1       2.207   0.492   2.580  1.00  0.00    -0.286 NA
HETATM    2  C1  UNL     1       1.260   1.007   1.925  1.00  0.00     0.123 C 
HETATM    3  C2  UNL     1       0.863   2.423   2.162  1.00  0.00     0.253 C 
HETATM    4  O1  UNL     1      -0.544   2.455   2.475  1.00  0.00    -0.342 OA
HETATM    5  C3  UNL     1      -1.426   1.836   1.554  1.00  0.00     0.093 C 
HETATM    6  C4  UNL     1      -2.651   2.312   1.439  1.00  0.00     0.027 C 
HETATM    7  C5  UNL     1      -3.558   1.688   0.474  1.00  0.00     0.087 A 
HETATM    8  C6  UNL     1      -4.981   1.929   0.618  1.00  0.00     0.125 A 
HETATM    9  N2  UNL     1      -5.809   0.961   0.473  1.00  0.00    -0.188 NA
HETATM   10  N3  UNL     1      -5.441  -0.357   0.184  1.00  0.00    -0.269 N 
HETATM   11  C12 UNL     1      -4.037  -0.663   0.043  1.00  0.00     0.121 A 
HETATM   12  C13 UNL     1      -3.146   0.307   0.187  1.00  0.00    -0.026 A 
HETATM   13  C14 UNL     1      -1.722  -0.034   0.137  1.00  0.00     0.042 C 
HETATM   14  C15 UNL     1      -0.824   0.715   0.825  1.00  0.00     0.070 C 
HETATM   15  N4  UNL     1       0.545   0.246   0.969  1.00  0.00    -0.331 N 
HETATM   16  H1  UNL     1       2.540  -0.453   2.487  1.00  0.00     0.188 HD
ENDROOT
BRANCH  15  17
HETATM   17  C16 UNL     1       0.822  -0.839   0.122  1.00  0.00     0.132 C 
BRANCH  17  18
HETATM   18  C17 UNL     1       2.252  -1.268  -0.015  1.00  0.00     0.050 C 
BRANCH  18  19
HETATM   19  C18 UNL     1       3.122  -0.178  -0.560  1.00  0.00     0.274 C 
BRANCH  19  20
HETATM   20  N5  UNL     1       4.503  -0.615  -0.699  1.00  0.00     0.088 N 
HETATM   21  C19 UNL     1       5.171   0.525  -1.349  1.00  0.00     0.272 C 
HETATM   22  C20 UNL     1       6.656   0.476  -1.253  1.00  0.00     0.030 C 
HETATM   23  C21 UNL     1       7.183  -0.851  -0.777  1.00  0.00     0.003 C 
HETATM   24  C22 UNL     1       6.510  -1.248   0.518  1.00  0.00     0.030 C 
HETATM   25  C23 UNL     1       5.110  -0.672   0.642  1.00  0.00     0.272 C 
ENDBRANCH  19  20
ENDBRANCH  18  19
ENDBRANCH  17  18
ENDBRANCH  15  17
BRANCH  10  26
HETATM   26  C7  UNL     1      -6.428  -1.421   0.018  1.00  0.00     0.158 A 
HETATM   27  C8  UNL     1      -7.773  -0.784   0.229  1.00  0.00     0.007 A 
HETATM   28  C9  UNL     1      -8.509  -0.874  -0.868  1.00  0.00     0.040 A 
HETATM   29  C10 UNL     1      -7.728  -1.566  -1.882  1.00  0.00     0.114 A 
HETATM   30  F1  UNL     1      -7.943  -1.945  -3.169  1.00  0.00    -0.206 F 
HETATM   31  C11 UNL     1      -6.529  -1.886  -1.383  1.00  0.00     0.046 A 
ENDBRANCH  10  26
TORSDOF 5
