REMARK  4 active torsions:
REMARK  status: ('A' for Active; 'I' for Inactive)
REMARK    1  A    between atoms: C5_5  and  N1_6 
REMARK    2  A    between atoms: N1_6  and  C6_7 
REMARK    3  A    between atoms: C17_23  and  N4_24 
REMARK    4  A    between atoms: C18_25  and  N5_26 
ROOT
HETATM    1  C6  UNL     1      -0.334   0.586  -0.321  1.00  0.00     0.045 C 
HETATM    2  C7  UNL     1       0.575  -0.452  -0.479  1.00  0.00     0.098 C 
HETATM    3  C8  UNL     1       0.169  -1.353  -1.521  1.00  0.00     0.144 C 
HETATM    4  N2  UNL     1       0.782  -2.409  -1.929  1.00  0.00    -0.289 NA
HETATM    5  C9  UNL     1       2.019  -2.729  -1.282  1.00  0.00     0.161 C 
HETATM    6  C10 UNL     1       2.983  -3.134  -2.418  1.00  0.00     0.204 C 
HETATM    7  O1  UNL     1       4.307  -2.714  -2.044  1.00  0.00    -0.361 OA
HETATM    8  C11 UNL     1       4.627  -2.809  -0.672  1.00  0.00     0.133 C 
HETATM    9  C12 UNL     1       3.789  -2.184   0.159  1.00  0.00     0.027 C 
HETATM   10  C13 UNL     1       2.703  -1.530  -0.647  1.00  0.00     0.166 C 
HETATM   11  N3  UNL     1       1.834  -0.758   0.224  1.00  0.00    -0.242 N 
HETATM   12  O2  UNL     1       2.270  -0.521   1.407  1.00  0.00    -0.251 OA
HETATM   13  C14 UNL     1       3.264   0.216   1.908  1.00  0.00     0.370 C 
HETATM   14  O3  UNL     1       3.164   1.597   1.530  1.00  0.00    -0.361 OA
HETATM   15  C15 UNL     1       1.960   2.107   1.939  1.00  0.00     0.200 C 
HETATM   16  C16 UNL     1       1.474   3.380   1.365  1.00  0.00     0.026 C 
HETATM   17  C17 UNL     1       0.287   2.981   0.694  1.00  0.00     0.039 C 
HETATM   18  C19 UNL     1      -0.010   1.581   0.608  1.00  0.00     0.118 C 
ENDROOT
BRANCH   1  19
HETATM   19  N1  UNL     1      -1.499   0.772  -1.036  1.00  0.00    -0.357 N 
HETATM   20  H6  UNL     1      -1.520   1.513  -1.806  1.00  0.00     0.166 HD
BRANCH  19  21
HETATM   21  C5  UNL     1      -2.611  -0.065  -0.650  1.00  0.00     0.034 A 
HETATM   22  C4  UNL     1      -3.416  -0.746  -1.540  1.00  0.00     0.030 A 
HETATM   23  C3  UNL     1      -4.477  -1.561  -1.234  1.00  0.00     0.011 A 
HETATM   24  C2  UNL     1      -4.785  -1.726   0.099  1.00  0.00    -0.040 A 
HETATM   25  C1  UNL     1      -5.911  -2.585   0.556  1.00  0.00     0.050 C 
HETATM   26  C21 UNL     1      -4.030  -1.076   1.074  1.00  0.00     0.042 A 
HETATM   27  C20 UNL     1      -2.981  -0.278   0.667  1.00  0.00     0.053 A 
HETATM   28 CL1  UNL     1      -4.446  -1.299   2.757  1.00  0.00    -0.084 Cl
ENDBRANCH  19  21
ENDBRANCH   1  19
BRANCH  17  29
HETATM   29  N4  UNL     1      -0.209   4.164   0.154  1.00  0.00    -0.249 NA
HETATM   30  C18 UNL     1      -0.642   5.193   0.729  1.00  0.00     0.200 C 
BRANCH  30  31
HETATM   31  N5  UNL     1      -0.870   5.735  -0.595  1.00  0.00    -0.394 N 
HETATM   32  H20 UNL     1      -1.425   5.897  -1.461  1.00  0.00     0.156 HD
HETATM   33  H21 UNL     1      -0.234   6.343  -1.200  1.00  0.00     0.156 HD
ENDBRANCH  30  31
ENDBRANCH  17  29
TORSDOF 4
