REMARK  7 active torsions:
REMARK  status: ('A' for Active; 'I' for Inactive)
REMARK    1  A    between atoms: C2_2  and  O1_3 
REMARK    2  A    between atoms: O1_3  and  C3_4 
REMARK    3  A    between atoms: C3_4  and  C4_5 
REMARK    4  A    between atoms: C10_14  and  O2_15 
REMARK    5  A    between atoms: O2_15  and  C11_16 
REMARK    6  A    between atoms: C11_16  and  C12_17 
REMARK    7  A    between atoms: C14_20  and  C15_21 
ROOT
HETATM    1  C4  UNL     1       2.301  -0.213  -0.928  1.00  0.00     0.154 C 
HETATM    2  N1  UNL     1       1.137   0.014  -0.299  1.00  0.00    -0.357 N 
HETATM    3  C5  UNL     1       0.751   1.228   0.520  1.00  0.00     0.104 C 
HETATM    4  C6  UNL     1      -0.616   1.416   0.630  1.00  0.00     0.031 C 
HETATM    5  C7  UNL     1      -1.545   1.294   1.818  1.00  0.00     0.138 C 
HETATM    6  N2  UNL     1      -2.131   2.344   2.271  1.00  0.00    -0.224 NA
HETATM    7  C8  UNL     1      -2.911   3.077   1.208  1.00  0.00     0.229 C 
HETATM    8  N3  UNL     1      -2.730   2.380   0.156  1.00  0.00    -0.270 NA
HETATM    9  C9  UNL     1      -1.680   1.665  -0.427  1.00  0.00     0.181 C 
HETATM   10  C10 UNL     1      -2.008   0.311  -1.065  1.00  0.00     0.186 C 
HETATM   11  C13 UNL     1      -1.183  -0.778  -0.340  1.00  0.00    -0.003 C 
HETATM   12  C14 UNL     1       0.178  -1.164  -0.362  1.00  0.00     0.020 C 
HETATM   13  C17 UNL     1      -1.459  -1.778   0.829  1.00  0.00     0.029 C 
HETATM   14  C18 UNL     1      -2.052  -1.344   2.049  1.00  0.00     0.090 C 
HETATM   15  N4  UNL     1      -2.051   0.079   2.606  1.00  0.00    -0.350 N 
HETATM   16  H24 UNL     1      -2.375   0.193   3.485  1.00  0.00     0.166 HD
ENDROOT
BRANCH   1  17
HETATM   17  C3  UNL     1       3.547  -0.438  -0.096  1.00  0.00     0.187 C 
BRANCH  17  18
HETATM   18  O1  UNL     1       3.896   0.603   0.738  1.00  0.00    -0.390 OA
BRANCH  18  19
HETATM   19  C2  UNL     1       4.161   1.795   0.121  1.00  0.00     0.163 C 
HETATM   20  C1  UNL     1       5.286   1.756  -0.872  1.00  0.00     0.033 C 
ENDBRANCH  18  19
ENDBRANCH  17  18
ENDBRANCH   1  17
BRANCH  12  21
HETATM   21  C15 UNL     1       0.358  -2.562  -0.305  1.00  0.00     0.053 C 
HETATM   22  C16 UNL     1       1.101  -3.344   0.730  1.00  0.00     0.011 C 
ENDBRANCH  12  21
BRANCH  10  23
HETATM   23  O2  UNL     1      -3.325   0.098  -0.901  1.00  0.00    -0.372 OA
BRANCH  23  24
HETATM   24  C11 UNL     1      -4.093  -0.133  -2.009  1.00  0.00     0.237 C 
BRANCH  24  25
HETATM   25  C12 UNL     1      -5.502  -0.330  -1.502  1.00  0.00     0.257 C 
HETATM   26  O3  UNL     1      -6.527  -0.559  -2.118  1.00  0.00    -0.305 OA
ENDBRANCH  24  25
ENDBRANCH  23  24
ENDBRANCH  10  23
TORSDOF 7
