REMARK  7 active torsions:
REMARK  status: ('A' for Active; 'I' for Inactive)
REMARK    1  A    between atoms: C5_5  and  N1_6 
REMARK    2  A    between atoms: N1_6  and  C6_7 
REMARK    3  A    between atoms: C10_13  and  C11_14 
REMARK    4  A    between atoms: N4_19  and  C15_20 
REMARK    5  A    between atoms: C15_20  and  C16_21 
REMARK    6  A    between atoms: C16_21  and  C17_22 
REMARK    7  A    between atoms: C17_22  and  N5_23 
ROOT
HETATM    1  C6  UNL     1       2.731  -0.738   0.159  1.00  0.00     0.144 A 
HETATM    2  N2  UNL     1       3.895  -0.912  -0.500  1.00  0.00    -0.223 NA
HETATM    3  C7  UNL     1       4.035  -1.857  -1.442  1.00  0.00     0.235 A 
HETATM    4  N3  UNL     1       2.967  -2.616  -1.694  1.00  0.00    -0.246 NA
HETATM    5  C8  UNL     1       1.786  -2.451  -1.036  1.00  0.00     0.048 A 
HETATM    6  C9  UNL     1       0.783  -3.453  -1.474  1.00  0.00     0.071 C 
HETATM    7  C10 UNL     1       1.600  -1.480  -0.048  1.00  0.00     0.063 A 
ENDROOT
BRANCH   7   8
HETATM    8  C11 UNL     1       0.382  -1.406   0.728  1.00  0.00     0.068 C 
HETATM    9  C12 UNL     1       0.346  -1.008   2.022  1.00  0.00     0.165 C 
HETATM   10  O1  UNL     1      -0.871  -0.975   2.643  1.00  0.00    -0.359 OA
HETATM   11  C13 UNL     1      -1.930  -1.868   2.388  1.00  0.00     0.194 C 
HETATM   12  C14 UNL     1      -1.887  -2.427   0.999  1.00  0.00     0.149 C 
HETATM   13  N4  UNL     1      -0.950  -1.670   0.187  1.00  0.00    -0.376 N 
BRANCH  13  14
HETATM   14  C15 UNL     1      -1.153  -1.084  -1.135  1.00  0.00     0.125 C 
BRANCH  14  15
HETATM   15  C16 UNL     1      -2.048   0.110  -1.188  1.00  0.00     0.050 C 
BRANCH  15  16
HETATM   16  C17 UNL     1      -3.413  -0.186  -0.714  1.00  0.00     0.274 C 
BRANCH  16  17
HETATM   17  N5  UNL     1      -4.303   0.979  -0.790  1.00  0.00     0.092 N 
HETATM   18  C18 UNL     1      -4.605   1.394  -2.119  1.00  0.00     0.298 C 
HETATM   19  C19 UNL     1      -6.045   1.140  -2.454  1.00  0.00     0.198 C 
HETATM   20  O2  UNL     1      -6.877   1.839  -1.590  1.00  0.00    -0.388 OA
HETATM   21  C20 UNL     1      -6.616   1.600  -0.251  1.00  0.00     0.198 C 
HETATM   22  C21 UNL     1      -5.483   0.621  -0.052  1.00  0.00     0.298 C 
ENDBRANCH  16  17
ENDBRANCH  15  16
ENDBRANCH  14  15
ENDBRANCH  13  14
ENDBRANCH   7   8
BRANCH   1  23
HETATM   23  N1  UNL     1       2.719   0.355   1.066  1.00  0.00    -0.340 N 
HETATM   24  H6  UNL     1       2.200   0.954   1.725  1.00  0.00     0.167 HD
BRANCH  23  25
HETATM   25  C5  UNL     1       3.916   1.106   1.227  1.00  0.00     0.035 A 
HETATM   26  C4  UNL     1       4.433   1.495  -0.013  1.00  0.00     0.030 A 
HETATM   27  C3  UNL     1       5.616   2.218  -0.111  1.00  0.00     0.011 A 
HETATM   28  C2  UNL     1       6.324   2.579   1.041  1.00  0.00    -0.040 A 
HETATM   29  C1  UNL     1       7.590   3.359   0.995  1.00  0.00     0.050 C 
HETATM   30  C23 UNL     1       5.805   2.191   2.257  1.00  0.00     0.042 A 
HETATM   31  C22 UNL     1       4.634   1.474   2.361  1.00  0.00     0.053 A 
HETATM   32 CL1  UNL     1       6.579   2.567   3.767  1.00  0.00    -0.084 Cl
ENDBRANCH  23  25
ENDBRANCH   1  23
TORSDOF 7
