REMARK  3 active torsions:
REMARK  status: ('A' for Active; 'I' for Inactive)
REMARK    1  A    between atoms: C2_2  and  C3_3 
REMARK    2  A    between atoms: C3_3  and  C4_4 
REMARK    3  A    between atoms: C4_4  and  C5_5 
ROOT
HETATM    1  C5  UNL     1       3.003  -1.371  -0.427  1.00  0.00     0.104 A 
HETATM    2  N1  UNL     1       2.497  -1.157   1.053  1.00  0.00    -0.372 N 
HETATM    3  C6  UNL     1       1.860   0.193   1.114  1.00  0.00     0.298 C 
HETATM    4  N2  UNL     1       1.224   1.354   0.974  1.00  0.00    -0.272 NA
HETATM    5  C7  UNL     1       0.584   1.555  -0.294  1.00  0.00     0.146 C 
HETATM    6  N3  UNL     1       0.283   2.681  -1.082  1.00  0.00    -0.262 NA
HETATM    7  C8  UNL     1      -1.089   3.017  -0.528  1.00  0.00     0.053 C 
HETATM    8  C9  UNL     1      -1.384   3.729   0.528  1.00  0.00     0.028 C 
HETATM    9  C10 UNL     1      -2.741   4.322   0.573  1.00  0.00     0.197 C 
HETATM   10  O1  UNL     1      -3.683   3.732  -0.235  1.00  0.00    -0.378 OA
HETATM   11  C11 UNL     1      -4.162   2.585   0.298  1.00  0.00     0.270 C 
HETATM   12  C12 UNL     1      -4.107   1.385  -0.705  1.00  0.00     0.244 C 
HETATM   13  O2  UNL     1      -4.854   0.470  -1.094  1.00  0.00    -0.271 OA
HETATM   14  N4  UNL     1      -2.714   1.325  -1.339  1.00  0.00    -0.340 N 
HETATM   15  C13 UNL     1      -2.585  -0.064  -1.729  1.00  0.00     0.128 C 
HETATM   16  C14 UNL     1      -2.558  -1.125  -0.678  1.00  0.00     0.039 C 
HETATM   17  C15 UNL     1      -2.003  -2.449  -1.234  1.00  0.00     0.115 C 
HETATM   18  N5  UNL     1      -2.046  -3.473  -0.310  1.00  0.00    -0.419 N 
HETATM   19  C16 UNL     1      -1.246  -3.548   0.868  1.00  0.00     0.140 C 
HETATM   20  C17 UNL     1       0.241  -3.720   0.439  1.00  0.00     0.188 C 
HETATM   21  O3  UNL     1       0.599  -2.574  -0.308  1.00  0.00    -0.371 OA
HETATM   22  C18 UNL     1       1.793  -2.050  -0.420  1.00  0.00     0.146 A 
HETATM   23  C19 UNL     1       2.978  -2.378  -1.169  1.00  0.00     0.290 A 
HETATM   24 CL1  UNL     1       2.540  -3.961  -2.107  1.00  0.00    -0.251 Cl
HETATM   25  C20 UNL     1      -1.671   2.228  -1.651  1.00  0.00     0.143 C 
HETATM   26  C21 UNL     1      -0.589   1.675  -2.460  1.00  0.00     0.058 C 
HETATM   27  C22 UNL     1      -0.119   0.892  -1.432  1.00  0.00     0.027 C 
HETATM   28  H7  UNL     1       2.378  -1.443   2.111  1.00  0.00     0.161 HD
HETATM   29  H20 UNL     1      -2.350  -4.433  -0.624  1.00  0.00     0.153 HD
ENDROOT
BRANCH   1  30
HETATM   30  C4  UNL     1       4.076  -0.674  -0.348  1.00  0.00     0.009 C 
BRANCH  30  31
HETATM   31  C3  UNL     1       4.561  -0.021   0.692  1.00  0.00    -0.006 C 
BRANCH  31  32
HETATM   32  C2  UNL     1       5.159   0.712   1.790  1.00  0.00    -0.031 C 
HETATM   33  C1  UNL     1       5.164   1.263   3.168  1.00  0.00     0.036 C 
ENDBRANCH  31  32
ENDBRANCH  30  31
ENDBRANCH   1  30
TORSDOF 3
