REMARK  6 active torsions:
REMARK  status: ('A' for Active; 'I' for Inactive)
REMARK    1  A    between atoms: C2_2  and  O1_5 
REMARK    2  A    between atoms: O1_5  and  C5_6 
REMARK       I    between atoms: C5_6  and  N1_8 
REMARK    3  A    between atoms: N1_8  and  C6_9 
REMARK    4  A    between atoms: C12_18  and  C13_19 
REMARK    5  A    between atoms: C16_24  and  N7_25 
REMARK    6  A    between atoms: N7_25  and  C17_26 
ROOT
HETATM    1  C6  UNL     1      -2.075  -1.418   0.746  1.00  0.00     0.034 C 
HETATM    2  C7  UNL     1      -1.102  -0.739   0.133  1.00  0.00     0.024 C 
HETATM    3  C8  UNL     1       0.391  -0.461   0.280  1.00  0.00     0.182 C 
HETATM    4  N2  UNL     1       1.206  -1.544   0.490  1.00  0.00    -0.248 N 
HETATM    5  N3  UNL     1       0.351  -2.302   0.971  1.00  0.00    -0.152 NA
HETATM    6  C9  UNL     1       0.390  -3.475   1.380  1.00  0.00     0.149 A 
HETATM    7  C10 UNL     1      -0.996  -3.435   1.706  1.00  0.00     0.054 C 
HETATM    8  C11 UNL     1      -2.138  -2.688   1.558  1.00  0.00     0.033 C 
HETATM    9  N4  UNL     1       1.731  -3.515   1.064  1.00  0.00    -0.324 N 
HETATM   10  C12 UNL     1       2.269  -2.353   0.516  1.00  0.00     0.137 A 
HETATM   11  H16 UNL     1       1.784  -4.464   1.400  1.00  0.00     0.169 HD
ENDROOT
BRANCH  10  12
HETATM   12  C13 UNL     1       3.389  -2.079   0.231  1.00  0.00     0.053 A 
HETATM   13  C14 UNL     1       4.247  -3.315   0.381  1.00  0.00     0.196 A 
HETATM   14  N5  UNL     1       5.541  -3.088  -0.011  1.00  0.00    -0.278 NA
HETATM   15  C15 UNL     1       6.273  -2.168  -0.400  1.00  0.00     0.229 A 
HETATM   16  N6  UNL     1       5.475  -1.032  -0.443  1.00  0.00    -0.224 NA
HETATM   17  C16 UNL     1       4.240  -1.020  -0.156  1.00  0.00     0.141 A 
BRANCH  17  18
HETATM   18  N7  UNL     1       3.641   0.253  -0.090  1.00  0.00    -0.340 N 
HETATM   19  H20 UNL     1       2.694   0.323   0.260  1.00  0.00     0.167 HD
BRANCH  18  20
HETATM   20  C17 UNL     1       4.143   1.531  -0.370  1.00  0.00     0.035 A 
HETATM   21  C18 UNL     1       3.363   2.687  -0.409  1.00  0.00     0.029 A 
HETATM   22  C19 UNL     1       3.814   3.961  -0.634  1.00  0.00     0.004 A 
HETATM   23  C20 UNL     1       5.168   4.051  -0.834  1.00  0.00     0.024 A 
HETATM   24  C21 UNL     1       6.032   2.974  -0.816  1.00  0.00     0.036 A 
HETATM   25 CL1  UNL     1       7.729   3.346  -1.092  1.00  0.00    -0.084 Cl
HETATM   26  C22 UNL     1       5.485   1.738  -0.583  1.00  0.00     0.053 A 
ENDBRANCH  18  20
ENDBRANCH  17  18
ENDBRANCH  10  12
BRANCH   1  27
HETATM   27  N1  UNL     1      -3.408  -1.050   0.722  1.00  0.00    -0.303 N 
HETATM   28  C5  UNL     1      -4.086  -0.008   0.077  1.00  0.00     0.365 C 
HETATM   29  O2  UNL     1      -3.457   0.799  -0.635  1.00  0.00    -0.238 OA
HETATM   30  H10 UNL     1      -4.154  -1.556   1.236  1.00  0.00     0.171 HD
BRANCH  28  31
HETATM   31  O1  UNL     1      -5.426   0.299   0.095  1.00  0.00    -0.294 OA
BRANCH  31  32
HETATM   32  C2  UNL     1      -5.972   1.390  -0.631  1.00  0.00     0.061 C 
HETATM   33  C1  UNL     1      -5.698   1.195  -2.131  1.00  0.00     0.046 C 
HETATM   34  C3  UNL     1      -7.478   1.423  -0.475  1.00  0.00     0.046 C 
HETATM   35  C4  UNL     1      -5.425   2.730  -0.199  1.00  0.00     0.046 C 
ENDBRANCH  31  32
ENDBRANCH  28  31
ENDBRANCH   1  27
TORSDOF 6
