REMARK  6 active torsions:
REMARK  status: ('A' for Active; 'I' for Inactive)
REMARK    1  A    between atoms: C2_2  and  C3_3 
REMARK    2  A    between atoms: C5_5  and  O1_6 
REMARK    3  A    between atoms: C7_8  and  O2_9 
REMARK    4  A    between atoms: C10_12  and  N1_13 
REMARK    5  A    between atoms: N1_13  and  C11_14 
REMARK    6  A    between atoms: C16_20  and  N2_21 
ROOT
HETATM    1  C11 UNL     1       0.487  -1.244  -0.953  1.00  0.00     0.120 C 
HETATM    2  C12 UNL     1      -0.124  -2.491  -1.569  1.00  0.00     0.056 C 
HETATM    3  C13 UNL     1       0.180  -3.726  -0.772  1.00  0.00     0.178 C 
HETATM    4  O3  UNL     1       1.062  -3.344   0.274  1.00  0.00    -0.345 OA
HETATM    5  C14 UNL     1       2.155  -2.522   0.059  1.00  0.00     0.144 A 
HETATM    6  C15 UNL     1       1.889  -1.402  -0.587  1.00  0.00     0.034 A 
HETATM    7  C16 UNL     1       3.085  -0.549  -0.804  1.00  0.00     0.359 A 
HETATM    8  N3  UNL     1       4.133  -1.350  -0.162  1.00  0.00    -0.322 N 
HETATM    9  C21 UNL     1       3.594  -2.555   0.367  1.00  0.00     0.277 A 
HETATM   10  O5  UNL     1       4.208  -3.469   0.975  1.00  0.00    -0.265 OA
HETATM   11  H29 UNL     1       5.135  -1.057  -0.111  1.00  0.00     0.165 HD
ENDROOT
BRANCH   1  12
HETATM   12  N1  UNL     1      -0.369  -0.833   0.125  1.00  0.00    -0.381 N 
HETATM   13  H14 UNL     1       0.081  -0.967   1.056  1.00  0.00     0.160 HD
BRANCH  12  14
HETATM   14  C10 UNL     1      -1.682  -0.294   0.113  1.00  0.00     0.037 A 
HETATM   15  C3  UNL     1      -2.347  -0.010   1.288  1.00  0.00    -0.029 A 
HETATM   16  C4  UNL     1      -3.615   0.525   1.267  1.00  0.00     0.049 A 
HETATM   17  C5  UNL     1      -4.272   0.799   0.088  1.00  0.00     0.102 A 
HETATM   18  C7  UNL     1      -3.633   0.527  -1.086  1.00  0.00     0.103 A 
HETATM   19  C9  UNL     1      -2.365  -0.008  -1.051  1.00  0.00     0.069 A 
BRANCH  15  20
HETATM   20  C2  UNL     1      -1.725  -0.269   2.615  1.00  0.00     0.036 C 
HETATM   21  C1  UNL     1      -0.714   0.816   2.865  1.00  0.00     0.010 C 
ENDBRANCH  15  20
BRANCH  17  22
HETATM   22  O1  UNL     1      -5.551   1.338   0.082  1.00  0.00    -0.353 OA
HETATM   23  C6  UNL     1      -6.139   1.589   1.353  1.00  0.00     0.210 C 
ENDBRANCH  17  22
BRANCH  18  24
HETATM   24  O2  UNL     1      -4.317   0.813  -2.270  1.00  0.00    -0.353 OA
HETATM   25  C8  UNL     1      -3.650   0.528  -3.498  1.00  0.00     0.210 C 
ENDBRANCH  18  24
ENDBRANCH  12  14
ENDBRANCH   1  12
BRANCH   7  26
HETATM   26  N2  UNL     1       2.983   0.773  -0.289  1.00  0.00     0.119 N 
HETATM   27  C17 UNL     1       2.780   0.899   1.114  1.00  0.00     0.301 C 
HETATM   28  C18 UNL     1       3.838   1.732   1.801  1.00  0.00     0.198 C 
HETATM   29  O4  UNL     1       3.863   2.976   1.184  1.00  0.00    -0.388 OA
HETATM   30  C19 UNL     1       4.144   2.930  -0.171  1.00  0.00     0.198 C 
HETATM   31  C20 UNL     1       4.133   1.528  -0.734  1.00  0.00     0.301 C 
ENDBRANCH   7  26
TORSDOF 6
