REMARK  5 active torsions:
REMARK  status: ('A' for Active; 'I' for Inactive)
REMARK    1  A    between atoms: O1_2  and  C2_3 
REMARK    2  A    between atoms: C5_6  and  C6_7 
REMARK    3  A    between atoms: N3_15  and  C12_16 
REMARK    4  A    between atoms: C12_16  and  C13_17 
REMARK    5  A    between atoms: C20_27  and  O4_28 
ROOT
HETATM    1  C13 UNL     1      -2.739   2.381   1.302  1.00  0.00     0.144 C 
HETATM    2  C14 UNL     1      -3.848   2.086   2.190  1.00  0.00     0.060 C 
HETATM    3  N4  UNL     1      -4.739   1.839   2.884  1.00  0.00    -0.197 NA
ENDROOT
BRANCH   1   4
HETATM    4  C12 UNL     1      -2.387   1.295   0.350  1.00  0.00     0.145 C 
BRANCH   4   5
HETATM    5  N3  UNL     1      -2.016   0.066   0.932  1.00  0.00    -0.325 N 
HETATM    6  C11 UNL     1      -0.564   0.060   0.975  1.00  0.00     0.107 C 
HETATM    7  C10 UNL     1      -0.339  -1.298   0.883  1.00  0.00     0.007 C 
HETATM    8  C9  UNL     1      -0.614  -1.453  -0.473  1.00  0.00     0.035 A 
HETATM    9  C6  UNL     1       0.462  -0.991  -1.186  1.00  0.00     0.082 A 
HETATM   10  C8  UNL     1      -1.735  -1.830  -1.102  1.00  0.00     0.070 A 
HETATM   11  N1  UNL     1       0.462  -0.881  -2.535  1.00  0.00    -0.240 NA
HETATM   12  C7  UNL     1      -0.649  -1.246  -3.180  1.00  0.00     0.234 A 
HETATM   13  N2  UNL     1      -1.635  -1.682  -2.416  1.00  0.00    -0.241 NA
HETATM   14  C18 UNL     1      -2.974  -2.384  -0.936  1.00  0.00     0.032 C 
HETATM   15  C17 UNL     1      -3.776  -2.834   0.202  1.00  0.00     0.198 C 
HETATM   16  O3  UNL     1      -4.919  -2.012   0.466  1.00  0.00    -0.378 OA
HETATM   17  C16 UNL     1      -4.391  -0.660   0.342  1.00  0.00     0.271 C 
HETATM   18  C15 UNL     1      -3.108  -0.807   1.074  1.00  0.00     0.247 C 
HETATM   19  O2  UNL     1      -2.354  -1.386   1.875  1.00  0.00    -0.271 OA
BRANCH   9  20
HETATM   20  C5  UNL     1       1.710  -0.575  -0.558  1.00  0.00    -0.004 A 
HETATM   21  C4  UNL     1       2.367  -1.272   0.433  1.00  0.00     0.017 A 
HETATM   22  C3  UNL     1       3.543  -0.855   1.010  1.00  0.00     0.040 A 
HETATM   23  C2  UNL     1       4.074   0.333   0.554  1.00  0.00     0.101 A 
HETATM   24  C20 UNL     1       3.450   1.064  -0.436  1.00  0.00     0.102 A 
HETATM   25  C19 UNL     1       2.278   0.621  -0.992  1.00  0.00     0.053 A 
BRANCH  23  26
HETATM   26  O1  UNL     1       5.257   0.833   1.078  1.00  0.00    -0.353 OA
HETATM   27  C1  UNL     1       6.020   0.229   2.080  1.00  0.00     0.210 C 
ENDBRANCH  23  26
BRANCH  24  28
HETATM   28  O4  UNL     1       4.027   2.259  -0.863  1.00  0.00    -0.353 OA
HETATM   29  C21 UNL     1       3.485   3.075  -1.852  1.00  0.00     0.210 C 
ENDBRANCH  24  28
ENDBRANCH   9  20
ENDBRANCH   4   5
ENDBRANCH   1   4
TORSDOF 5
