REMARK  6 active torsions:
REMARK  status: ('A' for Active; 'I' for Inactive)
REMARK    1  A    between atoms: O1_2  and  C2_3 
REMARK    2  A    between atoms: N1_6  and  C5_7 
REMARK    3  A    between atoms: N4_17  and  C13_18 
REMARK    4  A    between atoms: C13_18  and  C14_19 
REMARK    5  A    between atoms: C14_19  and  N5_20 
REMARK    6  A    between atoms: C23_32  and  O5_33 
ROOT
HETATM    1  C5  UNL     1      -2.090   1.593   0.817  1.00  0.00     0.140 A 
HETATM    2  N2  UNL     1      -3.090   2.464   0.806  1.00  0.00    -0.224 NA
HETATM    3  C6  UNL     1      -2.892   3.751   1.166  1.00  0.00     0.236 A 
HETATM    4  N3  UNL     1      -1.663   4.187   1.550  1.00  0.00    -0.241 NA
HETATM    5  C7  UNL     1      -0.641   3.333   1.571  1.00  0.00     0.075 A 
HETATM    6  C8  UNL     1       0.611   3.762   1.957  1.00  0.00     0.071 A 
HETATM    7  C9  UNL     1       1.641   2.846   1.964  1.00  0.00     0.098 A 
HETATM    8  C10 UNL     1       1.490   1.502   1.601  1.00  0.00     0.071 A 
HETATM    9  C11 UNL     1       0.216   1.135   1.224  1.00  0.00     0.050 A 
HETATM   10  C12 UNL     1      -0.838   2.022   1.205  1.00  0.00     0.041 A 
HETATM   11  N4  UNL     1       2.608   0.586   1.634  1.00  0.00    -0.312 N 
HETATM   12  C19 UNL     1       3.854   1.133   2.055  1.00  0.00     0.248 C 
HETATM   13  O3  UNL     1       4.687   0.325   2.543  1.00  0.00    -0.271 OA
HETATM   14  C20 UNL     1       4.068   2.613   1.886  1.00  0.00     0.279 C 
HETATM   15  O4  UNL     1       2.907   3.315   2.362  1.00  0.00    -0.340 OA
ENDROOT
BRANCH   1  16
HETATM   16  N1  UNL     1      -2.371   0.242   0.424  1.00  0.00    -0.354 N 
HETATM   17  C4  UNL     1      -2.294  -1.082   1.037  1.00  0.00     0.155 C 
HETATM   18  C3  UNL     1      -3.551  -1.833   0.798  1.00  0.00     0.028 C 
HETATM   19  C2  UNL     1      -4.528  -1.549  -0.054  1.00  0.00     0.074 C 
HETATM   20  C23 UNL     1      -4.332  -0.310  -0.878  1.00  0.00     0.199 C 
HETATM   21  C21 UNL     1      -2.869   0.063  -0.944  1.00  0.00     0.117 C 
HETATM   22  C22 UNL     1      -2.056  -0.977  -1.691  1.00  0.00     0.035 C 
BRANCH  19  23
HETATM   23  O1  UNL     1      -5.653  -2.354  -0.164  1.00  0.00    -0.358 OA
HETATM   24  C1  UNL     1      -5.630  -3.746   0.040  1.00  0.00     0.209 C 
ENDBRANCH  19  23
BRANCH  20  25
HETATM   25  O5  UNL     1      -4.998   0.703  -0.200  1.00  0.00    -0.382 OA
HETATM   26  C24 UNL     1      -5.971   1.337  -0.931  1.00  0.00     0.202 C 
ENDBRANCH  20  25
ENDBRANCH   1  16
BRANCH  11  27
HETATM   27  C13 UNL     1       2.376  -0.745   1.244  1.00  0.00     0.162 C 
BRANCH  27  28
HETATM   28  C14 UNL     1       2.563  -0.962  -0.235  1.00  0.00     0.292 C 
BRANCH  28  29
HETATM   29  N5  UNL     1       3.860  -0.680  -0.751  1.00  0.00     0.094 N 
HETATM   30  C15 UNL     1       3.933  -0.841  -2.196  1.00  0.00     0.298 C 
HETATM   31  C16 UNL     1       5.314  -0.381  -2.612  1.00  0.00     0.198 C 
HETATM   32  O2  UNL     1       6.207  -1.367  -2.194  1.00  0.00    -0.388 OA
HETATM   33  C17 UNL     1       5.619  -2.219  -1.259  1.00  0.00     0.198 C 
HETATM   34  C18 UNL     1       4.910  -1.460  -0.149  1.00  0.00     0.298 C 
ENDBRANCH  28  29
ENDBRANCH  27  28
ENDBRANCH  11  27
TORSDOF 6
