REMARK  6 active torsions:
REMARK  status: ('A' for Active; 'I' for Inactive)
REMARK    1  A    between atoms: O1_2  and  C2_3 
REMARK    2  A    between atoms: N1_6  and  C5_7 
REMARK    3  A    between atoms: C13_18  and  C14_19 
REMARK    4  A    between atoms: C14_19  and  C15_20 
REMARK    5  A    between atoms: C15_20  and  N5_21 
REMARK    6  A    between atoms: N6_32  and  O5_33 
ROOT
HETATM    1  C5  UNL     1      -2.311   1.114  -1.192  1.00  0.00     0.141 A 
HETATM    2  N2  UNL     1      -2.871   1.936  -2.104  1.00  0.00    -0.224 NA
HETATM    3  C6  UNL     1      -2.240   2.990  -2.652  1.00  0.00     0.236 A 
HETATM    4  N3  UNL     1      -0.970   3.307  -2.319  1.00  0.00    -0.241 NA
HETATM    5  C7  UNL     1      -0.348   2.530  -1.414  1.00  0.00     0.075 A 
HETATM    6  C8  UNL     1       0.964   2.839  -1.056  1.00  0.00     0.071 A 
HETATM    7  C9  UNL     1       1.644   2.057  -0.119  1.00  0.00     0.097 A 
HETATM    8  C10 UNL     1       0.951   0.991   0.409  1.00  0.00     0.063 A 
HETATM    9  C11 UNL     1      -0.333   0.693   0.054  1.00  0.00     0.049 A 
HETATM   10  C12 UNL     1      -1.019   1.437  -0.854  1.00  0.00     0.041 A 
HETATM   11  N4  UNL     1       1.661   0.215   1.352  1.00  0.00    -0.381 N 
HETATM   12  C13 UNL     1       2.817   0.703   2.125  1.00  0.00     0.107 C 
HETATM   13  C20 UNL     1       3.497   1.868   1.516  1.00  0.00     0.200 C 
HETATM   14  O4  UNL     1       2.929   2.283   0.293  1.00  0.00    -0.347 OA
HETATM   15  H10 UNL     1       1.372  -0.788   1.543  1.00  0.00     0.160 HD
ENDROOT
BRANCH   1  16
HETATM   16  N1  UNL     1      -3.005   0.006  -0.631  1.00  0.00    -0.338 N 
HETATM   17  C4  UNL     1      -2.548  -1.373  -0.767  1.00  0.00     0.158 C 
HETATM   18  C3  UNL     1      -3.604  -2.207  -1.446  1.00  0.00     0.051 C 
HETATM   19  C2  UNL     1      -4.823  -1.979  -0.927  1.00  0.00     0.164 C 
HETATM   20  N6  UNL     1      -5.022  -1.036   0.149  1.00  0.00    -0.213 N 
HETATM   21  C21 UNL     1      -4.234   0.196   0.125  1.00  0.00     0.214 C 
HETATM   22  C22 UNL     1      -5.053   1.213  -0.680  1.00  0.00     0.058 C 
BRANCH  19  23
HETATM   23  O1  UNL     1      -5.908  -2.683  -1.457  1.00  0.00    -0.340 OA
HETATM   24  C1  UNL     1      -6.321  -3.829  -0.714  1.00  0.00     0.211 C 
ENDBRANCH  19  23
BRANCH  20  25
HETATM   25  O5  UNL     1      -5.918  -1.376   1.084  1.00  0.00    -0.279 OA
HETATM   26  C23 UNL     1      -6.544  -0.334   1.715  1.00  0.00     0.238 C 
ENDBRANCH  20  25
ENDBRANCH   1  16
BRANCH  12  27
HETATM   27  C14 UNL     1       3.689  -0.403   2.581  1.00  0.00     0.047 C 
BRANCH  27  28
HETATM   28  C15 UNL     1       4.299  -1.290   1.573  1.00  0.00     0.128 C 
BRANCH  28  29
HETATM   29  N5  UNL     1       5.163  -0.676   0.600  1.00  0.00    -0.348 N 
HETATM   30  C16 UNL     1       6.596  -0.524   0.885  1.00  0.00     0.152 C 
HETATM   31  C17 UNL     1       7.427  -0.840  -0.327  1.00  0.00     0.188 C 
HETATM   32  O2  UNL     1       6.930  -0.340  -1.515  1.00  0.00    -0.380 OA
HETATM   33  C18 UNL     1       5.915   0.599  -1.337  1.00  0.00     0.270 C 
HETATM   34  C19 UNL     1       4.794  -0.155  -0.696  1.00  0.00     0.243 C 
HETATM   35  O3  UNL     1       3.596  -0.433  -1.046  1.00  0.00    -0.271 OA
ENDBRANCH  28  29
ENDBRANCH  27  28
ENDBRANCH  12  27
TORSDOF 6
