REMARK  7 active torsions:
REMARK  status: ('A' for Active; 'I' for Inactive)
REMARK    1  A    between atoms: C2_2  and  C3_3 
REMARK    2  A    between atoms: C3_3  and  B1_4 
REMARK    3  A    between atoms: B1_4  and  O1_5 
REMARK    4  A    between atoms: C4_6  and  C5_7 
REMARK    5  A    between atoms: C10_13  and  N2_14 
REMARK    6  A    between atoms: N2_14  and  C11_15 
REMARK    7  A    between atoms: C11_15  and  C12_16 
ROOT
HETATM    1  C5  UNL     1       3.493   0.232   0.180  1.00  0.00     0.032 C 
HETATM    2  C6  UNL     1       2.183   0.360   0.426  1.00  0.00     0.057 C 
HETATM    3  C7  UNL     1       1.561   1.324  -0.475  1.00  0.00     0.084 C 
HETATM    4  C8  UNL     1       0.153   1.703  -0.176  1.00  0.00     0.126 C 
HETATM    5  N1  UNL     1      -0.731   0.546  -0.066  1.00  0.00    -0.383 N 
HETATM    6  C9  UNL     1      -0.693  -0.471   0.959  1.00  0.00     0.128 A 
HETATM    7  C10 UNL     1      -1.949  -0.966   1.181  1.00  0.00     0.156 A 
HETATM    8  N3  UNL     1      -2.010  -1.925   2.116  1.00  0.00    -0.222 NA
HETATM    9  C18 UNL     1      -0.946  -2.378   2.789  1.00  0.00     0.238 A 
HETATM   10  N4  UNL     1       0.294  -1.868   2.549  1.00  0.00    -0.215 NA
HETATM   11  C19 UNL     1       0.445  -0.893   1.617  1.00  0.00     0.201 A 
HETATM   12  O2  UNL     1       1.769  -0.451   1.462  1.00  0.00    -0.294 OA
HETATM   13  H14 UNL     1      -1.507   0.344  -0.760  1.00  0.00     0.159 HD
ENDROOT
BRANCH   1  14
HETATM   14  C4  UNL     1       4.417   0.827  -0.765  1.00  0.00    -0.004 C 
HETATM   15  C3  UNL     1       5.699   0.746  -1.056  1.00  0.00    -0.092 C 
BRANCH  15  16
HETATM   16  C2  UNL     1       6.894   0.038  -0.615  1.00  0.00     0.020 C 
HETATM   17  C1  UNL     1       6.673  -0.936   0.519  1.00  0.00     0.008 C 
ENDBRANCH  15  16
BRANCH  15  18
HETATM   18  B1  UNL     1       6.199   1.651  -2.237  1.00  0.00     0.339 B 
HETATM   19  H6  UNL     1       5.885   1.321  -3.328  1.00  0.00     0.013 HD
BRANCH  18  20
HETATM   20  O1  UNL     1       6.254   3.090  -2.003  1.00  0.00    -0.462 OA
HETATM   21  H7  UNL     1       5.704   3.344  -1.226  1.00  0.00     0.182 HD
ENDBRANCH  18  20
ENDBRANCH  15  18
ENDBRANCH   1  14
BRANCH   7  22
HETATM   22  N2  UNL     1      -3.127  -0.531   0.518  1.00  0.00    -0.369 N 
HETATM   23  H15 UNL     1      -3.334   0.168  -0.192  1.00  0.00     0.161 HD
BRANCH  22  24
HETATM   24  C11 UNL     1      -4.358  -1.182   0.891  1.00  0.00     0.160 C 
BRANCH  24  25
HETATM   25  C12 UNL     1      -5.558  -0.724   0.198  1.00  0.00    -0.041 A 
HETATM   26  C13 UNL     1      -6.414   0.290   0.572  1.00  0.00     0.009 A 
HETATM   27  C14 UNL     1      -7.526   0.678  -0.117  1.00  0.00     0.001 A 
HETATM   28  C15 UNL     1      -7.832  -0.002  -1.301  1.00  0.00     0.000 A 
HETATM   29  C16 UNL     1      -7.002  -1.010  -1.693  1.00  0.00     0.001 A 
HETATM   30  C17 UNL     1      -5.882  -1.389  -0.984  1.00  0.00     0.009 A 
ENDBRANCH  24  25
ENDBRANCH  22  24
ENDBRANCH   7  22
TORSDOF 7
