REMARK  3 active torsions:
REMARK  status: ('A' for Active; 'I' for Inactive)
REMARK    1  A    between atoms: C11_16  and  C12_17 
REMARK    2  A    between atoms: C12_17  and  C13_18 
REMARK    3  A    between atoms: C13_18  and  N3_19 
ROOT
HETATM    1  O1  UNL     1      -0.167  -3.504   1.687  1.00  0.00    -0.271 OA
HETATM    2  C1  UNL     1       0.274  -2.715   0.791  1.00  0.00     0.241 C 
HETATM    3  C2  UNL     1       0.671  -3.367  -0.487  1.00  0.00     0.270 C 
HETATM    4  O2  UNL     1       2.019  -3.153  -0.633  1.00  0.00    -0.378 OA
HETATM    5  C3  UNL     1       2.363  -2.167  -1.539  1.00  0.00     0.204 C 
HETATM    6  C4  UNL     1       2.347  -0.787  -0.979  1.00  0.00    -0.029 C 
HETATM    7  C5  UNL     1       3.325  -0.253  -1.744  1.00  0.00     0.123 C 
HETATM    8  N1  UNL     1       3.787   1.096  -1.673  1.00  0.00    -0.254 NA
HETATM    9  C6  UNL     1       4.712   1.458  -0.850  1.00  0.00     0.234 C 
HETATM   10  N2  UNL     1       5.125   2.843  -0.838  1.00  0.00    -0.230 NA
HETATM   11  C7  UNL     1       4.558   3.517   0.135  1.00  0.00     0.258 C 
HETATM   12  O3  UNL     1       3.668   3.032   1.068  1.00  0.00    -0.316 OA
HETATM   13  C8  UNL     1       3.324   1.703   1.252  1.00  0.00     0.140 C 
HETATM   14  C9  UNL     1       2.749   0.526   1.061  1.00  0.00     0.009 C 
HETATM   15  C10 UNL     1       1.795   0.212  -0.035  1.00  0.00     0.065 C 
HETATM   16  C11 UNL     1       0.480  -0.090   0.564  1.00  0.00     0.098 C 
HETATM   17  N4  UNL     1       0.301  -1.351   1.192  1.00  0.00    -0.354 N 
HETATM   18  H24 UNL     1       0.136  -1.333   2.245  1.00  0.00     0.163 HD
ENDROOT
BRANCH  16  19
HETATM   19  C12 UNL     1      -0.697   0.163  -0.390  1.00  0.00     0.056 C 
BRANCH  19  20
HETATM   20  C13 UNL     1      -1.920  -0.199   0.402  1.00  0.00     0.274 C 
BRANCH  20  21
HETATM   21  N3  UNL     1      -3.155  -0.035  -0.302  1.00  0.00     0.092 N 
HETATM   22  C14 UNL     1      -3.481   1.348  -0.577  1.00  0.00     0.298 C 
HETATM   23  C15 UNL     1      -4.958   1.364  -0.956  1.00  0.00     0.198 C 
HETATM   24  O4  UNL     1      -5.747   1.196   0.198  1.00  0.00    -0.388 OA
HETATM   25  C16 UNL     1      -5.088   0.418   1.142  1.00  0.00     0.198 C 
HETATM   26  C17 UNL     1      -4.202  -0.636   0.514  1.00  0.00     0.298 C 
ENDBRANCH  20  21
ENDBRANCH  19  20
ENDBRANCH  16  19
TORSDOF 3
