REMARK  7 active torsions:
REMARK  status: ('A' for Active; 'I' for Inactive)
REMARK    1  A    between atoms: O1_2  and  C2_3 
REMARK    2  A    between atoms: C5_6  and  N1_7 
REMARK    3  A    between atoms: N1_7  and  C6_8 
REMARK    4  A    between atoms: N4_18  and  C14_19 
REMARK    5  A    between atoms: C14_19  and  C15_20 
REMARK    6  A    between atoms: C15_20  and  C16_21 
REMARK    7  A    between atoms: C23_32  and  O5_33 
ROOT
HETATM    1  C6  UNL     1       0.797  -3.226  -0.035  1.00  0.00     0.142 A 
HETATM    2  N2  UNL     1       1.295  -4.470  -0.250  1.00  0.00    -0.224 NA
HETATM    3  C7  UNL     1       1.443  -4.934  -1.524  1.00  0.00     0.236 A 
HETATM    4  N3  UNL     1       1.099  -4.166  -2.574  1.00  0.00    -0.241 NA
HETATM    5  C8  UNL     1       0.602  -2.925  -2.413  1.00  0.00     0.075 A 
HETATM    6  C9  UNL     1       0.256  -2.154  -3.504  1.00  0.00     0.071 A 
HETATM    7  C10 UNL     1      -0.250  -0.887  -3.322  1.00  0.00     0.098 A 
HETATM    8  C11 UNL     1      -0.434  -0.333  -2.059  1.00  0.00     0.071 A 
HETATM    9  C12 UNL     1      -0.069  -1.160  -1.020  1.00  0.00     0.050 A 
HETATM   10  C13 UNL     1       0.441  -2.429  -1.127  1.00  0.00     0.041 A 
HETATM   11  N4  UNL     1      -0.961   0.996  -1.841  1.00  0.00    -0.314 N 
HETATM   12  C20 UNL     1      -1.274   1.683  -3.057  1.00  0.00     0.248 C 
HETATM   13  O3  UNL     1      -1.374   2.941  -2.899  1.00  0.00    -0.271 OA
HETATM   14  C21 UNL     1      -1.457   0.981  -4.359  1.00  0.00     0.279 C 
HETATM   15  O4  UNL     1      -0.586  -0.144  -4.443  1.00  0.00    -0.340 OA
ENDROOT
BRANCH   1  16
HETATM   16  N1  UNL     1       0.572  -2.569   1.203  1.00  0.00    -0.340 N 
HETATM   17  H6  UNL     1      -0.225  -2.639   1.855  1.00  0.00     0.167 HD
BRANCH  16  18
HETATM   18  C5  UNL     1       1.620  -1.678   1.632  1.00  0.00     0.036 A 
HETATM   19  C4  UNL     1       1.435  -0.751   2.663  1.00  0.00     0.032 A 
HETATM   20  C3  UNL     1       2.457   0.101   3.074  1.00  0.00     0.042 A 
HETATM   21  C2  UNL     1       3.677   0.037   2.463  1.00  0.00     0.101 A 
HETATM   22  C23 UNL     1       3.907  -0.847   1.455  1.00  0.00     0.103 A 
HETATM   23  C22 UNL     1       2.887  -1.680   1.063  1.00  0.00     0.069 A 
BRANCH  21  24
HETATM   24  O1  UNL     1       4.637   0.942   2.957  1.00  0.00    -0.353 OA
HETATM   25  C1  UNL     1       4.456   1.872   3.954  1.00  0.00     0.210 C 
ENDBRANCH  21  24
BRANCH  22  26
HETATM   26  O5  UNL     1       5.169  -0.870   0.866  1.00  0.00    -0.353 OA
HETATM   27  C24 UNL     1       5.471  -1.777  -0.194  1.00  0.00     0.210 C 
ENDBRANCH  22  26
ENDBRANCH  16  18
ENDBRANCH   1  16
BRANCH  11  28
HETATM   28  C14 UNL     1      -1.099   1.400  -0.479  1.00  0.00     0.134 C 
BRANCH  28  29
HETATM   29  C15 UNL     1      -2.368   1.061   0.199  1.00  0.00     0.056 C 
BRANCH  29  30
HETATM   30  C16 UNL     1      -3.635   1.611  -0.304  1.00  0.00     0.226 C 
HETATM   31  C17 UNL     1      -3.746   3.104  -0.294  1.00  0.00     0.062 C 
HETATM   32  C18 UNL     1      -3.450   3.606   1.106  1.00  0.00     0.172 C 
HETATM   33  O2  UNL     1      -4.224   2.933   2.020  1.00  0.00    -0.363 OA
HETATM   34  C19 UNL     1      -5.183   2.098   1.496  1.00  0.00     0.437 C 
HETATM   35  N5  UNL     1      -4.697   1.120   0.567  1.00  0.00     0.111 N 
HETATM   36  H21 UNL     1      -5.510   0.756   0.026  1.00  0.00     0.319 HD
ENDBRANCH  29  30
ENDBRANCH  28  29
ENDBRANCH  11  28
TORSDOF 7
