REMARK  6 active torsions:
REMARK  status: ('A' for Active; 'I' for Inactive)
REMARK    1  A    between atoms: N1_1  and  C1_2 
REMARK    2  A    between atoms: N2_3  and  C2_4 
REMARK    3  A    between atoms: N3_10  and  C8_11 
REMARK    4  A    between atoms: C8_11  and  C9_12 
REMARK    5  A    between atoms: C9_12  and  C10_13 
REMARK    6  A    between atoms: C10_13  and  N4_14 
ROOT
HETATM    1  C2  UNL     1       2.772   0.679   0.498  1.00  0.00     0.060 A 
HETATM    2  C3  UNL     1       3.988   0.028   0.646  1.00  0.00     0.034 A 
HETATM    3  C4  UNL     1       4.092  -1.350   0.479  1.00  0.00     0.041 A 
HETATM    4  C5  UNL     1       2.953  -2.075   0.158  1.00  0.00     0.096 A 
HETATM    5  C6  UNL     1       1.766  -1.431   0.014  1.00  0.00     0.073 A 
HETATM    6  C7  UNL     1       1.661  -0.071   0.179  1.00  0.00     0.064 A 
HETATM    7  N3  UNL     1       0.567  -2.098  -0.302  1.00  0.00    -0.313 N 
HETATM    8  C15 UNL     1       0.699  -3.520  -0.460  1.00  0.00     0.248 C 
HETATM    9  O2  UNL     1      -0.154  -4.184  -1.113  1.00  0.00    -0.271 OA
HETATM   10  C16 UNL     1       1.864  -4.251   0.154  1.00  0.00     0.279 C 
HETATM   11  O3  UNL     1       3.030  -3.455  -0.015  1.00  0.00    -0.340 OA
ENDROOT
BRANCH   7  12
HETATM   12  C8  UNL     1      -0.770  -1.492  -0.480  1.00  0.00     0.134 C 
BRANCH  12  13
HETATM   13  C9  UNL     1      -1.508  -1.447   0.824  1.00  0.00     0.040 C 
BRANCH  13  14
HETATM   14  C10 UNL     1      -2.890  -0.896   0.780  1.00  0.00     0.118 C 
BRANCH  14  15
HETATM   15  N4  UNL     1      -3.143   0.379   0.350  1.00  0.00    -0.408 N 
HETATM   16  C11 UNL     1      -3.018   0.807  -0.976  1.00  0.00     0.143 C 
HETATM   17  C12 UNL     1      -2.087   2.004  -0.994  1.00  0.00     0.187 C 
HETATM   18  O1  UNL     1      -2.699   3.070  -0.346  1.00  0.00    -0.388 OA
HETATM   19  C13 UNL     1      -3.703   2.668   0.523  1.00  0.00     0.187 C 
HETATM   20  C14 UNL     1      -3.362   1.415   1.306  1.00  0.00     0.143 C 
ENDBRANCH  14  15
ENDBRANCH  13  14
ENDBRANCH  12  13
ENDBRANCH   7  12
BRANCH   1  21
HETATM   21  N2  UNL     1       2.896   2.076   0.713  1.00  0.00    -0.245 NA
HETATM   22  C1  UNL     1       3.484   2.751  -0.235  1.00  0.00     0.200 C 
BRANCH  22  23
HETATM   23  N1  UNL     1       3.797   4.116  -0.403  1.00  0.00    -0.394 N 
HETATM   24  H1  UNL     1       2.879   4.654  -0.428  1.00  0.00     0.156 HD
HETATM   25  H2  UNL     1       4.775   4.494  -0.483  1.00  0.00     0.156 HD
ENDBRANCH  22  23
ENDBRANCH   1  21
TORSDOF 6
