REMARK  9 active torsions:
REMARK  status: ('A' for Active; 'I' for Inactive)
REMARK    1  A    between atoms: C4_5  and  O2_6 
REMARK    2  A    between atoms: O2_6  and  C5_7 
REMARK    3  A    between atoms: C5_7  and  C6_8 
REMARK    4  A    between atoms: C8_10  and  N1_11 
REMARK    5  A    between atoms: N1_11  and  C9_12 
REMARK    6  A    between atoms: N4_22  and  C17_23 
REMARK    7  A    between atoms: C17_23  and  C18_24 
REMARK    8  A    between atoms: C18_24  and  C19_25 
REMARK    9  A    between atoms: C19_25  and  N5_26 
ROOT
HETATM    1  O2  UNL     1       1.013  -1.067   1.020  1.00  0.00    -0.352 OA
ENDROOT
BRANCH   1   2
HETATM    2  C4  UNL     1      -0.030  -0.149   0.983  1.00  0.00     0.061 C 
HETATM    3  C3  UNL     1       0.438   1.058   1.276  1.00  0.00     0.016 C 
HETATM    4  C2  UNL     1      -0.598   2.155   1.269  1.00  0.00     0.132 C 
HETATM    5  C1  UNL     1      -1.326   1.940  -0.036  1.00  0.00     0.223 C 
HETATM    6  O1  UNL     1      -1.499   2.921  -0.841  1.00  0.00    -0.273 OA
HETATM    7  N4  UNL     1      -1.817   0.625  -0.356  1.00  0.00    -0.346 N 
HETATM    8  C16 UNL     1      -1.496  -0.348   0.675  1.00  0.00     0.189 C 
BRANCH   7   9
HETATM    9  C17 UNL     1      -2.502   0.508  -1.600  1.00  0.00     0.128 C 
BRANCH   9  10
HETATM   10  C18 UNL     1      -3.965   0.786  -1.419  1.00  0.00     0.039 C 
BRANCH  10  11
HETATM   11  C19 UNL     1      -4.657  -0.141  -0.478  1.00  0.00     0.118 C 
BRANCH  11  12
HETATM   12  N5  UNL     1      -6.041   0.191  -0.384  1.00  0.00    -0.408 N 
HETATM   13  C20 UNL     1      -6.363   1.425   0.254  1.00  0.00     0.143 C 
HETATM   14  C21 UNL     1      -7.800   1.778  -0.148  1.00  0.00     0.187 C 
HETATM   15  O3  UNL     1      -8.695   0.767   0.090  1.00  0.00    -0.388 OA
HETATM   16  C22 UNL     1      -8.172  -0.348   0.702  1.00  0.00     0.187 C 
HETATM   17  C23 UNL     1      -6.914  -0.857   0.028  1.00  0.00     0.143 C 
ENDBRANCH  11  12
ENDBRANCH  10  11
ENDBRANCH   9  10
ENDBRANCH   7   9
ENDBRANCH   1   2
BRANCH   1  18
HETATM   18  C5  UNL     1       1.730  -1.309  -0.175  1.00  0.00     0.204 C 
BRANCH  18  19
HETATM   19  C6  UNL     1       2.758  -2.406  -0.047  1.00  0.00     0.133 A 
HETATM   20  C7  UNL     1       3.832  -2.058   0.919  1.00  0.00     0.050 A 
HETATM   21  C8  UNL     1       5.090  -1.906   0.543  1.00  0.00     0.127 A 
HETATM   22  N2  UNL     1       5.534  -2.060  -0.788  1.00  0.00    -0.227 NA
HETATM   23  C15 UNL     1       4.734  -2.367  -1.749  1.00  0.00     0.205 A 
HETATM   24  N3  UNL     1       3.385  -2.534  -1.355  1.00  0.00    -0.374 N 
HETATM   25  H15 UNL     1       2.610  -2.791  -2.014  1.00  0.00     0.161 HD
BRANCH  21  26
HETATM   26  N1  UNL     1       6.266  -1.572   1.318  1.00  0.00    -0.341 N 
HETATM   27  H8  UNL     1       6.659  -2.147   2.112  1.00  0.00     0.167 HD
BRANCH  26  28
HETATM   28  C9  UNL     1       7.001  -0.370   1.017  1.00  0.00     0.033 A 
HETATM   29  C10 UNL     1       6.904   0.877   1.549  1.00  0.00     0.029 A 
HETATM   30  C11 UNL     1       7.725   1.882   1.081  1.00  0.00     0.002 A 
HETATM   31  C12 UNL     1       8.640   1.634   0.079  1.00  0.00     0.000 A 
HETATM   32  C13 UNL     1       8.752   0.376  -0.474  1.00  0.00     0.002 A 
HETATM   33  C14 UNL     1       7.925  -0.632   0.000  1.00  0.00     0.029 A 
ENDBRANCH  26  28
ENDBRANCH  21  26
ENDBRANCH  18  19
ENDBRANCH   1  18
TORSDOF 9
