REMARK  7 active torsions:
REMARK  status: ('A' for Active; 'I' for Inactive)
REMARK    1  A    between atoms: C5_7  and  N1_8 
REMARK    2  A    between atoms: N1_8  and  C6_9 
REMARK    3  A    between atoms: C6_9  and  C7_10 
REMARK    4  A    between atoms: N3_18  and  C14_19 
REMARK    5  A    between atoms: C14_19  and  C15_20 
REMARK    6  A    between atoms: C15_20  and  C16_21 
REMARK    7  A    between atoms: C16_21  and  N4_22 
ROOT
HETATM    1  O1  UNL     1      -2.485  -1.754  -1.921  1.00  0.00    -0.271 OA
HETATM    2  C1  UNL     1      -1.388  -1.142  -1.850  1.00  0.00     0.248 C 
HETATM    3  C2  UNL     1      -0.684  -0.547  -3.040  1.00  0.00     0.279 C 
HETATM    4  O2  UNL     1       0.703  -0.827  -2.977  1.00  0.00    -0.340 OA
HETATM    5  C3  UNL     1       1.409  -0.661  -1.792  1.00  0.00     0.094 A 
HETATM    6  C4  UNL     1       2.665  -0.436  -1.526  1.00  0.00     0.051 A 
HETATM    7  C5  UNL     1       2.925  -0.335  -0.057  1.00  0.00     0.271 A 
HETATM    8  C12 UNL     1       1.549  -0.549   0.483  1.00  0.00     0.045 A 
HETATM    9  C13 UNL     1       0.684  -0.735  -0.507  1.00  0.00     0.069 A 
HETATM   10  N3  UNL     1      -0.736  -0.981  -0.572  1.00  0.00    -0.314 N 
ENDROOT
BRANCH   7  11
HETATM   11  N1  UNL     1       3.816  -1.391   0.284  1.00  0.00     0.099 N 
HETATM   12  H5  UNL     1       4.078  -1.380   1.314  1.00  0.00     0.317 HD
BRANCH  11  13
HETATM   13  C6  UNL     1       5.070  -1.413  -0.423  1.00  0.00     0.307 C 
BRANCH  13  14
HETATM   14  C7  UNL     1       5.995  -0.319  -0.115  1.00  0.00    -0.018 C 
HETATM   15  C8  UNL     1       7.132  -0.594   0.511  1.00  0.00     0.089 C 
HETATM   16  N2  UNL     1       7.286  -0.061   1.650  1.00  0.00    -0.259 NA
HETATM   17  C9  UNL     1       6.653   1.184   2.003  1.00  0.00     0.113 C 
HETATM   18  C10 UNL     1       6.021   1.808   1.026  1.00  0.00    -0.003 C 
HETATM   19  C11 UNL     1       6.045   1.148  -0.307  1.00  0.00     0.067 C 
ENDBRANCH  13  14
ENDBRANCH  11  13
ENDBRANCH   7  11
BRANCH  10  20
HETATM   20  C14 UNL     1      -1.469  -1.057   0.645  1.00  0.00     0.134 C 
BRANCH  20  21
HETATM   21  C15 UNL     1      -2.029   0.226   1.160  1.00  0.00     0.050 C 
BRANCH  21  22
HETATM   22  C16 UNL     1      -2.994   0.920   0.254  1.00  0.00     0.274 C 
BRANCH  22  23
HETATM   23  N4  UNL     1      -4.159   0.135  -0.050  1.00  0.00     0.092 N 
HETATM   24  C17 UNL     1      -5.074   0.824  -0.930  1.00  0.00     0.298 C 
HETATM   25  C18 UNL     1      -6.054   1.598  -0.057  1.00  0.00     0.198 C 
HETATM   26  O3  UNL     1      -6.971   0.702   0.494  1.00  0.00    -0.388 OA
HETATM   27  C19 UNL     1      -6.358  -0.489   0.874  1.00  0.00     0.198 C 
HETATM   28  C20 UNL     1      -4.873  -0.302   1.110  1.00  0.00     0.298 C 
ENDBRANCH  22  23
ENDBRANCH  21  22
ENDBRANCH  20  21
ENDBRANCH  10  20
TORSDOF 7
