REMARK  5 active torsions:
REMARK  status: ('A' for Active; 'I' for Inactive)
REMARK    1  A    between atoms: N2_11  and  C8_12 
REMARK    2  A    between atoms: N3_20  and  C16_21 
REMARK    3  A    between atoms: C16_21  and  C17_22 
REMARK    4  A    between atoms: C17_22  and  C18_23 
REMARK    5  A    between atoms: C18_23  and  N4_24 
ROOT
HETATM    1  O1  UNL     1      -1.600  -3.535  -2.723  1.00  0.00    -0.271 OA
HETATM    2  C1  UNL     1      -0.562  -3.322  -2.010  1.00  0.00     0.248 C 
HETATM    3  C2  UNL     1       0.287  -4.516  -1.797  1.00  0.00     0.279 C 
HETATM    4  O2  UNL     1       1.632  -4.224  -1.516  1.00  0.00    -0.340 OA
HETATM    5  C3  UNL     1       1.985  -2.991  -0.984  1.00  0.00     0.096 A 
HETATM    6  C4  UNL     1       3.216  -2.899  -0.510  1.00  0.00     0.051 A 
HETATM    7  C5  UNL     1       3.563  -1.595   0.043  1.00  0.00     0.012 A 
HETATM    8  C6  UNL     1       4.720  -1.235   0.556  1.00  0.00     0.090 C 
HETATM    9  N1  UNL     1       5.345  -0.372  -0.174  1.00  0.00    -0.257 NA
HETATM   10  C7  UNL     1       4.520   0.373  -1.105  1.00  0.00     0.423 C 
HETATM   11  N2  UNL     1       3.251   0.746  -0.533  1.00  0.00     0.132 N 
HETATM   12  C13 UNL     1       2.705  -0.376   0.155  1.00  0.00     0.287 A 
HETATM   13  C14 UNL     1       1.395  -0.731  -0.444  1.00  0.00     0.046 A 
HETATM   14  C15 UNL     1       1.028  -1.893  -0.968  1.00  0.00     0.069 A 
HETATM   15  N3  UNL     1      -0.279  -2.022  -1.481  1.00  0.00    -0.314 N 
ENDROOT
BRANCH  15  16
HETATM   16  C16 UNL     1      -1.271  -0.996  -1.500  1.00  0.00     0.134 C 
BRANCH  16  17
HETATM   17  C17 UNL     1      -2.049  -1.111  -0.180  1.00  0.00     0.050 C 
BRANCH  17  18
HETATM   18  C18 UNL     1      -3.109  -0.034  -0.169  1.00  0.00     0.274 C 
BRANCH  18  19
HETATM   19  N4  UNL     1      -3.851  -0.119   1.052  1.00  0.00     0.092 N 
HETATM   20  C19 UNL     1      -3.125   0.224   2.232  1.00  0.00     0.298 C 
HETATM   21  C20 UNL     1      -2.696   1.676   2.245  1.00  0.00     0.198 C 
HETATM   22  O3  UNL     1      -3.783   2.515   2.107  1.00  0.00    -0.388 OA
HETATM   23  C21 UNL     1      -4.997   1.872   1.966  1.00  0.00     0.198 C 
HETATM   24  C22 UNL     1      -5.004   0.760   0.969  1.00  0.00     0.298 C 
ENDBRANCH  18  19
ENDBRANCH  17  18
ENDBRANCH  16  17
ENDBRANCH  15  16
BRANCH  11  25
HETATM   25  C8  UNL     1       3.333   1.963   0.243  1.00  0.00     0.272 A 
HETATM   26  C9  UNL     1       3.783   3.049  -0.666  1.00  0.00     0.013 A 
HETATM   27  C10 UNL     1       2.855   4.016  -0.701  1.00  0.00    -0.002 A 
HETATM   28  C11 UNL     1       1.737   3.633   0.178  1.00  0.00    -0.002 A 
HETATM   29  C12 UNL     1       2.034   2.440   0.715  1.00  0.00     0.013 A 
ENDBRANCH  11  25
TORSDOF 5
