REMARK  9 active torsions:
REMARK  status: ('A' for Active; 'I' for Inactive)
REMARK    1  A    between atoms: O1_2  and  C2_3 
REMARK    2  A    between atoms: C2_3  and  C3_4 
REMARK    3  A    between atoms: C3_4  and  N1_5 
REMARK    4  A    between atoms: N1_5  and  C4_6 
REMARK    5  A    between atoms: C4_6  and  C5_7 
REMARK    6  A    between atoms: C5_7  and  C6_8 
REMARK    7  A    between atoms: C6_8  and  N2_9 
REMARK    8  A    between atoms: C13_20  and  N5_21 
REMARK    9  A    between atoms: N5_21  and  C14_22 
ROOT
HETATM    1  N2  UNL     1       0.772  -3.107   0.973  1.00  0.00    -0.314 N 
HETATM    2  C7  UNL     1       1.295  -4.435   1.108  1.00  0.00     0.248 C 
HETATM    3  O2  UNL     1       2.388  -4.627   1.660  1.00  0.00    -0.271 OA
HETATM    4  C8  UNL     1       0.595  -5.661   0.616  1.00  0.00     0.279 C 
HETATM    5  O3  UNL     1      -0.803  -5.415   0.531  1.00  0.00    -0.340 OA
HETATM    6  C9  UNL     1      -1.323  -4.142   0.395  1.00  0.00     0.098 A 
HETATM    7  C10 UNL     1      -2.648  -4.016   0.033  1.00  0.00     0.071 A 
HETATM    8  C11 UNL     1      -3.192  -2.760  -0.110  1.00  0.00     0.075 A 
HETATM    9  N3  UNL     1      -4.495  -2.729  -0.465  1.00  0.00    -0.241 NA
HETATM   10  C12 UNL     1      -5.103  -1.531  -0.625  1.00  0.00     0.236 A 
HETATM   11  N4  UNL     1      -4.391  -0.435  -0.426  1.00  0.00    -0.224 NA
HETATM   12  C13 UNL     1      -3.105  -0.356  -0.075  1.00  0.00     0.142 A 
HETATM   13  C20 UNL     1      -2.495  -1.573   0.086  1.00  0.00     0.041 A 
HETATM   14  C21 UNL     1      -1.193  -1.772   0.441  1.00  0.00     0.050 A 
HETATM   15  C22 UNL     1      -0.593  -3.000   0.600  1.00  0.00     0.071 A 
ENDROOT
BRANCH   1  16
HETATM   16  C6  UNL     1       1.630  -1.944   1.214  1.00  0.00     0.134 C 
BRANCH  16  17
HETATM   17  C5  UNL     1       2.258  -1.589  -0.094  1.00  0.00     0.050 C 
BRANCH  17  18
HETATM   18  C4  UNL     1       3.174  -0.413   0.044  1.00  0.00     0.271 C 
BRANCH  18  19
HETATM   19  N1  UNL     1       2.467   0.736   0.484  1.00  0.00     0.085 N 
HETATM   20  H8  UNL     1       1.842   0.621   1.294  1.00  0.00     0.315 HD
BRANCH  19  21
HETATM   21  C3  UNL     1       3.279   1.914   0.635  1.00  0.00     0.295 C 
BRANCH  21  22
HETATM   22  C2  UNL     1       3.744   2.403  -0.713  1.00  0.00     0.197 C 
BRANCH  22  23
HETATM   23  O1  UNL     1       4.538   3.564  -0.559  1.00  0.00    -0.394 OA
HETATM   24  C1  UNL     1       4.966   4.017  -1.812  1.00  0.00     0.201 C 
ENDBRANCH  22  23
ENDBRANCH  21  22
ENDBRANCH  19  21
ENDBRANCH  18  19
ENDBRANCH  17  18
ENDBRANCH  16  17
ENDBRANCH   1  16
BRANCH  12  25
HETATM   25  N5  UNL     1      -2.363   0.809   0.134  1.00  0.00    -0.340 N 
HETATM   26  H19 UNL     1      -1.375   0.789   0.384  1.00  0.00     0.167 HD
BRANCH  25  27
HETATM   27  C14 UNL     1      -2.793   2.157   0.051  1.00  0.00     0.033 A 
HETATM   28  C15 UNL     1      -4.122   2.471  -0.116  1.00  0.00     0.029 A 
HETATM   29  C16 UNL     1      -4.576   3.784  -0.208  1.00  0.00     0.002 A 
HETATM   30  C17 UNL     1      -3.707   4.848  -0.137  1.00  0.00     0.000 A 
HETATM   31  C18 UNL     1      -2.372   4.562   0.029  1.00  0.00     0.002 A 
HETATM   32  C19 UNL     1      -1.963   3.254   0.117  1.00  0.00     0.029 A 
ENDBRANCH  25  27
ENDBRANCH  12  25
TORSDOF 9
