REMARK  6 active torsions:
REMARK  status: ('A' for Active; 'I' for Inactive)
REMARK    1  A    between atoms: C7_11  and  N3_12 
REMARK    2  A    between atoms: N3_12  and  C8_13 
REMARK    3  A    between atoms: N4_22  and  C17_23 
REMARK    4  A    between atoms: C17_23  and  C18_24 
REMARK    5  A    between atoms: C18_24  and  C19_25 
REMARK    6  A    between atoms: C19_25  and  N5_26 
ROOT
HETATM    1  O1  UNL     1      -2.627  -0.332   3.024  1.00  0.00    -0.271 OA
HETATM    2  C1  UNL     1      -1.910  -1.032   2.252  1.00  0.00     0.248 C 
HETATM    3  C2  UNL     1      -2.175  -2.482   2.086  1.00  0.00     0.279 C 
HETATM    4  O2  UNL     1      -1.169  -3.152   1.389  1.00  0.00    -0.340 OA
HETATM    5  C3  UNL     1      -0.152  -2.441   0.753  1.00  0.00     0.098 A 
HETATM    6  C4  UNL     1       0.692  -3.263   0.012  1.00  0.00     0.071 A 
HETATM    7  C5  UNL     1       1.758  -2.702  -0.684  1.00  0.00     0.075 A 
HETATM    8  N1  UNL     1       2.627  -3.443  -1.435  1.00  0.00    -0.241 NA
HETATM    9  C6  UNL     1       3.625  -2.832  -2.079  1.00  0.00     0.236 A 
HETATM   10  N2  UNL     1       3.825  -1.481  -2.022  1.00  0.00    -0.224 NA
HETATM   11  C7  UNL     1       2.975  -0.711  -1.280  1.00  0.00     0.142 A 
HETATM   12  C14 UNL     1       1.948  -1.334  -0.618  1.00  0.00     0.041 A 
HETATM   13  C15 UNL     1       1.112  -0.519   0.118  1.00  0.00     0.050 A 
HETATM   14  C16 UNL     1       0.042  -1.065   0.819  1.00  0.00     0.071 A 
HETATM   15  N4  UNL     1      -0.864  -0.275   1.602  1.00  0.00    -0.314 N 
ENDROOT
BRANCH  15  16
HETATM   16  C17 UNL     1      -0.633   1.095   1.632  1.00  0.00     0.134 C 
BRANCH  16  17
HETATM   17  C18 UNL     1      -1.283   1.889   0.544  1.00  0.00     0.050 C 
BRANCH  17  18
HETATM   18  C19 UNL     1      -2.752   1.855   0.433  1.00  0.00     0.274 C 
BRANCH  18  19
HETATM   19  N5  UNL     1      -3.387   0.603   0.161  1.00  0.00     0.092 N 
HETATM   20  C20 UNL     1      -3.122   0.071  -1.165  1.00  0.00     0.298 C 
HETATM   21  C21 UNL     1      -4.272  -0.871  -1.535  1.00  0.00     0.198 C 
HETATM   22  O3  UNL     1      -4.789  -1.384  -0.321  1.00  0.00    -0.388 OA
HETATM   23  C22 UNL     1      -5.656  -0.374   0.149  1.00  0.00     0.198 C 
HETATM   24  C23 UNL     1      -4.846   0.865   0.262  1.00  0.00     0.298 C 
ENDBRANCH  18  19
ENDBRANCH  17  18
ENDBRANCH  16  17
ENDBRANCH  15  16
BRANCH  11  25
HETATM   25  N3  UNL     1       3.289   0.672  -1.312  1.00  0.00    -0.340 N 
HETATM   26  H5  UNL     1       2.685   1.186  -1.980  1.00  0.00     0.167 HD
BRANCH  25  27
HETATM   27  C8  UNL     1       4.305   1.290  -0.525  1.00  0.00     0.033 A 
HETATM   28  C9  UNL     1       4.548   2.616  -0.641  1.00  0.00     0.029 A 
HETATM   29  C10 UNL     1       5.521   3.276   0.076  1.00  0.00     0.002 A 
HETATM   30  C11 UNL     1       6.244   2.442   0.944  1.00  0.00     0.000 A 
HETATM   31  C12 UNL     1       6.067   1.094   1.126  1.00  0.00     0.002 A 
HETATM   32  C13 UNL     1       5.050   0.527   0.346  1.00  0.00     0.029 A 
ENDBRANCH  25  27
ENDBRANCH  11  25
TORSDOF 6
