REMARK  5 active torsions:
REMARK  status: ('A' for Active; 'I' for Inactive)
REMARK    1  A    between atoms: N1_7  and  C7_8 
REMARK    2  A    between atoms: C11_14  and  O1_15 
REMARK    3  A    between atoms: C12_16  and  C13_17 
REMARK    4  A    between atoms: C13_17  and  C14_18 
REMARK    5  A    between atoms: C14_18  and  N4_19 
ROOT
HETATM    1  C7  UNL     1      -3.148  -0.484   1.413  1.00  0.00     0.146 A 
HETATM    2  N2  UNL     1      -4.189   0.097   2.014  1.00  0.00    -0.223 NA
HETATM    3  C8  UNL     1      -4.535   1.361   1.766  1.00  0.00     0.236 A 
HETATM    4  N3  UNL     1      -3.825   2.085   0.887  1.00  0.00    -0.241 NA
HETATM    5  C9  UNL     1      -2.742   1.578   0.221  1.00  0.00     0.070 A 
HETATM    6  C10 UNL     1      -2.420   0.244   0.520  1.00  0.00     0.048 A 
HETATM    7  C11 UNL     1      -1.168  -0.205  -0.246  1.00  0.00     0.190 C 
HETATM    8  C12 UNL     1      -0.058   0.339   0.651  1.00  0.00     0.255 C 
HETATM    9  N5  UNL     1      -0.283   1.620   1.195  1.00  0.00     0.094 N 
HETATM   10  C19 UNL     1       0.832   2.413   1.572  1.00  0.00     0.297 C 
HETATM   11  C20 UNL     1       1.226   3.277   0.429  1.00  0.00     0.003 C 
HETATM   12  C21 UNL     1       0.398   3.482  -0.604  1.00  0.00    -0.002 C 
HETATM   13  C22 UNL     1      -0.934   3.100  -1.028  1.00  0.00     0.002 C 
HETATM   14  C23 UNL     1      -2.023   2.440  -0.744  1.00  0.00     0.032 C 
HETATM   15  H23 UNL     1      -1.002   1.646   1.950  1.00  0.00     0.316 HD
ENDROOT
BRANCH   8  16
HETATM   16  C13 UNL     1       1.284  -0.106   0.236  1.00  0.00     0.068 C 
BRANCH  16  17
HETATM   17  C14 UNL     1       1.778   0.206  -1.117  1.00  0.00     0.275 C 
BRANCH  17  18
HETATM   18  N4  UNL     1       3.113  -0.344  -1.296  1.00  0.00     0.092 N 
HETATM   19  C15 UNL     1       4.121   0.305  -0.487  1.00  0.00     0.298 C 
HETATM   20  C16 UNL     1       5.420   0.204  -1.296  1.00  0.00     0.198 C 
HETATM   21  O2  UNL     1       5.523  -1.004  -1.942  1.00  0.00    -0.388 OA
HETATM   22  C17 UNL     1       4.705  -0.979  -3.067  1.00  0.00     0.198 C 
HETATM   23  C18 UNL     1       3.455  -0.226  -2.724  1.00  0.00     0.298 C 
ENDBRANCH  17  18
ENDBRANCH  16  17
ENDBRANCH   8  16
BRANCH   7  24
HETATM   24  O1  UNL     1      -1.196   0.510  -1.429  1.00  0.00    -0.388 OA
HETATM   25  H9  UNL     1      -1.908   0.257  -2.036  1.00  0.00     0.210 HD
ENDBRANCH   7  24
BRANCH   1  26
HETATM   26  N1  UNL     1      -2.785  -1.828   1.657  1.00  0.00    -0.310 N 
HETATM   27  C2  UNL     1      -3.293  -2.847   0.770  1.00  0.00     0.014 C 
HETATM   28  C1  UNL     1      -4.163  -2.467  -0.390  1.00  0.00     0.068 C 
HETATM   29  C3  UNL     1      -2.975  -4.125   0.991  1.00  0.00     0.026 C 
HETATM   30  C4  UNL     1      -2.132  -4.507   2.112  1.00  0.00     0.015 C 
HETATM   31  C5  UNL     1      -1.542  -3.566   2.777  1.00  0.00    -0.009 C 
HETATM   32  C6  UNL     1      -1.968  -2.344   2.707  1.00  0.00     0.111 C 
ENDBRANCH   1  26
TORSDOF 5
