REMARK  2 active torsions:
REMARK  status: ('A' for Active; 'I' for Inactive)
REMARK    1  A    between atoms: C15_23  and  N5_24 
REMARK    2  A    between atoms: N5_24  and  C16_25 
ROOT
HETATM    1  O1  UNL     1      -2.768   3.131  -1.384  1.00  0.00    -0.271 OA
HETATM    2  C1  UNL     1      -1.532   3.038  -1.274  1.00  0.00     0.248 C 
HETATM    3  C2  UNL     1      -0.778   3.371  -2.502  1.00  0.00     0.279 C 
HETATM    4  O2  UNL     1       0.424   2.637  -2.502  1.00  0.00    -0.340 OA
HETATM    5  C3  UNL     1       1.019   2.241  -1.319  1.00  0.00     0.097 C 
HETATM    6  C4  UNL     1       2.301   1.855  -1.464  1.00  0.00     0.063 C 
HETATM    7  C5  UNL     1       1.894   0.570  -0.819  1.00  0.00     0.042 C 
HETATM    8  N1  UNL     1       1.339  -0.586  -0.897  1.00  0.00    -0.171 NA
HETATM    9  C6  UNL     1       0.747  -1.145  -2.040  1.00  0.00     0.175 A 
HETATM   10  N2  UNL     1      -0.058  -1.040  -1.063  1.00  0.00    -0.355 N 
HETATM   11  B1  UNL     1      -1.497  -1.441  -1.046  1.00  0.00     0.302 B 
HETATM   12  C7  UNL     1      -2.624  -0.419  -0.600  1.00  0.00     0.025 C 
HETATM   13  C8  UNL     1      -3.948  -1.180  -0.575  1.00  0.00     0.168 C 
HETATM   14  O3  UNL     1      -4.637  -0.731   0.562  1.00  0.00    -0.363 OA
HETATM   15  C9  UNL     1      -3.992  -1.309   1.656  1.00  0.00     0.437 C 
HETATM   16  N3  UNL     1      -2.649  -0.791   1.823  1.00  0.00     0.110 N 
HETATM   17  C10 UNL     1      -2.297   0.141   0.764  1.00  0.00     0.223 C 
HETATM   18  C11 UNL     1      -2.883   1.509   1.009  1.00  0.00     0.055 C 
HETATM   19  C12 UNL     1      -1.824   2.594   1.175  1.00  0.00     0.134 C 
HETATM   20  N4  UNL     1      -0.986   2.639  -0.032  1.00  0.00    -0.314 N 
HETATM   21  C13 UNL     1       0.360   2.214   0.011  1.00  0.00     0.069 C 
HETATM   22  C14 UNL     1       1.164   1.815   1.021  1.00  0.00     0.036 C 
HETATM   23  C15 UNL     1       2.250   0.854   0.624  1.00  0.00     0.154 C 
HETATM   24  H5  UNL     1      -1.711  -2.602  -0.809  1.00  0.00     0.002 HD
HETATM   25  H11 UNL     1      -1.930  -1.561   1.867  1.00  0.00     0.319 HD
ENDROOT
BRANCH  23  26
HETATM   26  N5  UNL     1       2.230  -0.343   1.385  1.00  0.00    -0.377 N 
HETATM   27  H19 UNL     1       1.590  -0.490   2.185  1.00  0.00     0.160 HD
BRANCH  26  28
HETATM   28  C16 UNL     1       3.112  -1.408   1.062  1.00  0.00     0.028 A 
HETATM   29  C17 UNL     1       3.123  -2.610   1.777  1.00  0.00     0.029 A 
HETATM   30  C18 UNL     1       3.960  -3.664   1.502  1.00  0.00     0.002 A 
HETATM   31  C19 UNL     1       4.853  -3.560   0.467  1.00  0.00     0.000 A 
HETATM   32  C20 UNL     1       4.888  -2.414  -0.265  1.00  0.00     0.002 A 
HETATM   33  C21 UNL     1       4.034  -1.373   0.037  1.00  0.00     0.029 A 
ENDBRANCH  26  28
ENDBRANCH  23  26
TORSDOF 2
