REMARK  2 active torsions:
REMARK  status: ('A' for Active; 'I' for Inactive)
REMARK    1  A    between atoms: O1_1  and  C1_2 
REMARK    2  A    between atoms: N1_7  and  C6_8 
ROOT
HETATM    1  C6  UNL     1       2.972  -0.884   0.349  1.00  0.00     0.142 A 
HETATM    2  N2  UNL     1       3.736  -1.935   0.763  1.00  0.00    -0.224 NA
HETATM    3  C7  UNL     1       3.234  -2.888   1.576  1.00  0.00     0.236 A 
HETATM    4  N3  UNL     1       1.963  -2.827   2.001  1.00  0.00    -0.241 NA
HETATM    5  C8  UNL     1       1.241  -1.789   1.579  1.00  0.00     0.074 A 
HETATM    6  C9  UNL     1      -0.070  -1.730   2.026  1.00  0.00     0.070 A 
HETATM    7  C10 UNL     1      -0.871  -0.705   1.649  1.00  0.00     0.079 A 
HETATM    8  C11 UNL     1      -0.473   0.342   0.812  1.00  0.00     0.011 A 
HETATM    9  C12 UNL     1       0.853   0.263   0.372  1.00  0.00     0.030 A 
HETATM   10  C13 UNL     1       1.653  -0.765   0.753  1.00  0.00     0.039 A 
HETATM   11  C14 UNL     1      -1.329   1.482   0.371  1.00  0.00     0.282 C 
HETATM   12  C15 UNL     1      -0.713   2.325  -0.667  1.00  0.00     0.208 C 
HETATM   13  O2  UNL     1      -1.489   3.407  -0.956  1.00  0.00    -0.387 OA
HETATM   14  C16 UNL     1      -2.827   3.234  -1.115  1.00  0.00     0.198 C 
HETATM   15  C17 UNL     1      -3.441   2.207  -0.198  1.00  0.00     0.299 C 
HETATM   16  N4  UNL     1      -2.634   1.033  -0.042  1.00  0.00     0.101 N 
HETATM   17  C18 UNL     1      -2.674   0.254  -1.209  1.00  0.00     0.275 C 
HETATM   18  C19 UNL     1      -2.685  -1.205  -1.143  1.00  0.00     0.049 C 
HETATM   19  C20 UNL     1      -3.868  -1.942  -0.643  1.00  0.00     0.115 C 
HETATM   20  N5  UNL     1      -4.532  -1.754   0.522  1.00  0.00    -0.419 N 
HETATM   21  C21 UNL     1      -4.118  -1.937   1.816  1.00  0.00     0.140 C 
HETATM   22  C22 UNL     1      -3.292  -0.858   2.404  1.00  0.00     0.195 C 
HETATM   23  O3  UNL     1      -2.131  -0.441   1.944  1.00  0.00    -0.349 OA
HETATM   24  H25 UNL     1      -5.574  -1.553   0.431  1.00  0.00     0.153 HD
ENDROOT
BRANCH   1  25
HETATM   25  N1  UNL     1       3.557   0.085  -0.509  1.00  0.00    -0.335 N 
HETATM   26  C1  UNL     1       4.660   0.847   0.044  1.00  0.00     0.225 C 
HETATM   27  C2  UNL     1       5.934   0.287  -0.561  1.00  0.00     0.080 C 
HETATM   28  C3  UNL     1       5.745   0.307  -2.052  1.00  0.00    -0.025 C 
HETATM   29  C4  UNL     1       4.580   0.418  -2.683  1.00  0.00    -0.011 C 
HETATM   30  C5  UNL     1       3.308   0.537  -1.889  1.00  0.00     0.154 C 
BRANCH  26  31
HETATM   31  O1  UNL     1       4.764   0.680   1.439  1.00  0.00    -0.376 OA
HETATM   32  H1  UNL     1       5.597   1.106   1.737  1.00  0.00     0.212 HD
ENDBRANCH  26  31
ENDBRANCH   1  25
TORSDOF 2
