REMARK  5 active torsions:
REMARK  status: ('A' for Active; 'I' for Inactive)
REMARK    1  A    between atoms: C6_6  and  N1_7 
REMARK    2  A    between atoms: N1_7  and  C7_8 
REMARK    3  A    between atoms: N4_18  and  C15_19 
REMARK    4  A    between atoms: C15_19  and  C16_20 
REMARK    5  A    between atoms: C16_20  and  C17_21 
ROOT
HETATM    1  C7  UNL     1       2.850  -0.713  -0.156  1.00  0.00     0.141 A 
HETATM    2  N2  UNL     1       3.882  -1.390  -0.665  1.00  0.00    -0.224 NA
HETATM    3  C8  UNL     1       4.048  -2.703  -0.439  1.00  0.00     0.236 A 
HETATM    4  N3  UNL     1       3.174  -3.391   0.316  1.00  0.00    -0.241 NA
HETATM    5  C9  UNL     1       2.098  -2.799   0.876  1.00  0.00     0.075 A 
HETATM    6  C10 UNL     1       1.194  -3.496   1.653  1.00  0.00     0.071 A 
HETATM    7  C11 UNL     1       0.088  -2.847   2.219  1.00  0.00     0.098 A 
HETATM    8  C12 UNL     1      -0.053  -1.486   1.963  1.00  0.00     0.068 A 
HETATM    9  C13 UNL     1       0.874  -0.826   1.181  1.00  0.00     0.050 A 
HETATM   10  C14 UNL     1       1.970  -1.437   0.612  1.00  0.00     0.041 A 
HETATM   11  N4  UNL     1      -1.184  -0.825   2.542  1.00  0.00    -0.354 N 
HETATM   12  P1  UNL     1      -1.928  -1.520   4.035  1.00  0.00    -0.002 P 
HETATM   13  C23 UNL     1      -1.532  -3.334   4.038  1.00  0.00     0.228 C 
HETATM   14  O1  UNL     1      -0.698  -3.690   2.955  1.00  0.00    -0.343 OA
HETATM   15  H28 UNL     1      -3.368  -1.383   3.896  1.00  0.00     0.082 HD
ENDROOT
BRANCH  11  16
HETATM   16  C15 UNL     1      -1.669   0.374   1.888  1.00  0.00     0.130 C 
BRANCH  16  17
HETATM   17  C16 UNL     1      -2.080   0.032   0.479  1.00  0.00     0.056 C 
BRANCH  17  18
HETATM   18  C17 UNL     1      -2.600   1.280  -0.247  1.00  0.00     0.225 C 
HETATM   19  N5  UNL     1      -3.720   1.736   0.508  1.00  0.00     0.088 N 
HETATM   20  C18 UNL     1      -4.999   1.597  -0.106  1.00  0.00     0.270 C 
HETATM   21  H17 UNL     1      -3.587   2.756   0.719  1.00  0.00     0.316 HD
HETATM   22  C19 UNL     1      -5.202   0.283  -0.829  1.00  0.00     0.030 C 
HETATM   23  C20 UNL     1      -4.109   0.020  -1.816  1.00  0.00     0.008 C 
HETATM   24  C21 UNL     1      -2.926   0.920  -1.669  1.00  0.00     0.015 C 
HETATM   25  C22 UNL     1      -3.093   2.142  -2.528  1.00  0.00     0.012 C 
ENDBRANCH  17  18
ENDBRANCH  16  17
ENDBRANCH  11  16
BRANCH   1  26
HETATM   26  N1  UNL     1       2.696   0.676  -0.410  1.00  0.00    -0.343 N 
HETATM   27  H8  UNL     1       1.939   1.287  -0.063  1.00  0.00     0.167 HD
BRANCH  26  28
HETATM   28  C6  UNL     1       3.693   1.310  -1.236  1.00  0.00     0.018 A 
HETATM   29  C2  UNL     1       4.998   0.750  -1.695  1.00  0.00     0.054 A 
HETATM   30  C1  UNL     1       5.971   0.523  -0.576  1.00  0.00     0.020 C 
HETATM   31  C3  UNL     1       5.543   1.898  -2.501  1.00  0.00    -0.016 A 
HETATM   32  C4  UNL     1       4.728   2.937  -2.521  1.00  0.00    -0.001 A 
HETATM   33  C5  UNL     1       3.592   2.554  -1.735  1.00  0.00     0.025 A 
ENDBRANCH  26  28
ENDBRANCH   1  26
TORSDOF 5
