REMARK  8 active torsions:
REMARK  status: ('A' for Active; 'I' for Inactive)
REMARK    1  A    between atoms: C7_10  and  N3_11 
REMARK    2  A    between atoms: N3_11  and  C8_12 
REMARK    3  A    between atoms: C8_12  and  C9_13 
REMARK    4  A    between atoms: C9_13  and  C10_14 
REMARK    5  A    between atoms: C10_14  and  C11_15 
REMARK    6  A    between atoms: C11_15  and  C12_16 
REMARK    7  A    between atoms: C12_16  and  C13_17 
REMARK    8  A    between atoms: C13_17  and  N4_18 
ROOT
HETATM    1  C1  UNL     1       4.400   3.640   0.911  1.00  0.00     0.020 C 
HETATM    2  C2  UNL     1       4.014   2.384   1.059  1.00  0.00    -0.050 A 
HETATM    3  C3  UNL     1       4.394   0.915   1.063  1.00  0.00    -0.021 A 
HETATM    4  C4  UNL     1       4.972  -0.303   1.020  1.00  0.00     0.152 C 
HETATM    5  O1  UNL     1       4.134  -1.430   1.222  1.00  0.00    -0.303 OA
HETATM    6  C5  UNL     1       2.906  -1.626   0.542  1.00  0.00     0.180 A 
HETATM    7  N1  UNL     1       2.654  -2.923   0.301  1.00  0.00    -0.217 NA
HETATM    8  C6  UNL     1       1.536  -3.304  -0.336  1.00  0.00     0.238 A 
HETATM    9  N2  UNL     1       0.683  -2.347  -0.723  1.00  0.00    -0.224 NA
HETATM   10  C7  UNL     1       0.897  -1.060  -0.504  1.00  0.00     0.135 A 
HETATM   11  C14 UNL     1       2.039  -0.596   0.155  1.00  0.00     0.042 A 
HETATM   12  C15 UNL     1       2.037   0.885   0.283  1.00  0.00     0.061 C 
HETATM   13  C16 UNL     1       3.031   1.307   1.317  1.00  0.00     0.058 A 
ENDROOT
BRANCH  10  14
HETATM   14  N3  UNL     1      -0.113  -0.158  -1.004  1.00  0.00    -0.371 N 
HETATM   15  H5  UNL     1      -0.137   0.884  -0.962  1.00  0.00     0.161 HD
BRANCH  14  16
HETATM   16  C8  UNL     1      -1.300  -0.692  -1.686  1.00  0.00     0.148 C 
BRANCH  16  17
HETATM   17  C9  UNL     1      -2.066  -1.577  -0.766  1.00  0.00    -0.007 C 
BRANCH  17  18
HETATM   18  C10 UNL     1      -3.339  -1.278  -0.458  1.00  0.00     0.006 C 
BRANCH  18  19
HETATM   19  C11 UNL     1      -3.976  -0.106  -1.009  1.00  0.00     0.057 C 
BRANCH  19  20
HETATM   20  C12 UNL     1      -4.678   0.648  -0.198  1.00  0.00    -0.112 C 
BRANCH  20  21
HETATM   21  C13 UNL     1      -5.482   1.171   0.718  1.00  0.00     0.137 C 
BRANCH  21  22
HETATM   22  N4  UNL     1      -6.800   0.645   0.795  1.00  0.00    -0.402 N 
HETATM   23  H12 UNL     1      -7.015  -0.335   1.088  1.00  0.00     0.156 HD
HETATM   24  H13 UNL     1      -7.793   0.975   0.624  1.00  0.00     0.156 HD
ENDBRANCH  21  22
ENDBRANCH  20  21
ENDBRANCH  19  20
ENDBRANCH  18  19
ENDBRANCH  17  18
ENDBRANCH  16  17
ENDBRANCH  14  16
ENDBRANCH  10  14
TORSDOF 8
