REMARK  6 active torsions:
REMARK  status: ('A' for Active; 'I' for Inactive)
REMARK    1  A    between atoms: C7_11  and  N3_12 
REMARK    2  A    between atoms: N3_12  and  C8_13 
REMARK    3  A    between atoms: N4_21  and  C16_22 
REMARK    4  A    between atoms: C16_22  and  C17_23 
REMARK    5  A    between atoms: C17_23  and  C18_24 
REMARK    6  A    between atoms: C18_24  and  N5_25 
ROOT
HETATM    1  O1  UNL     1       2.348  -4.056   0.042  1.00  0.00    -0.271 OA
HETATM    2  C1  UNL     1       1.194  -3.534  -0.057  1.00  0.00     0.248 A 
HETATM    3  C2  UNL     1       0.342  -4.161   0.969  1.00  0.00     0.279 A 
HETATM    4  O2  UNL     1      -1.011  -3.737   0.879  1.00  0.00    -0.340 OA
HETATM    5  C3  UNL     1      -1.430  -2.794  -0.046  1.00  0.00     0.098 A 
HETATM    6  C4  UNL     1      -2.744  -2.461  -0.072  1.00  0.00     0.071 C 
HETATM    7  C5  UNL     1      -3.034  -1.481  -1.111  1.00  0.00     0.093 A 
HETATM    8  N1  UNL     1      -4.061  -1.355  -1.900  1.00  0.00    -0.242 NA
HETATM    9  C6  UNL     1      -3.878  -0.223  -2.778  1.00  0.00     0.230 A 
HETATM   10  N2  UNL     1      -2.711   0.313  -2.482  1.00  0.00    -0.240 NA
HETATM   11  C7  UNL     1      -2.093  -0.403  -1.437  1.00  0.00     0.193 A 
HETATM   12  C14 UNL     1      -0.767  -1.023  -1.710  1.00  0.00     0.067 C 
HETATM   13  C15 UNL     1      -0.529  -2.153  -0.995  1.00  0.00     0.071 A 
HETATM   14  N4  UNL     1       0.876  -2.509  -1.039  1.00  0.00    -0.314 N 
ENDROOT
BRANCH  14  15
HETATM   15  C16 UNL     1       1.934  -2.061  -1.867  1.00  0.00     0.134 C 
BRANCH  15  16
HETATM   16  C17 UNL     1       2.810  -0.972  -1.314  1.00  0.00     0.050 C 
BRANCH  16  17
HETATM   17  C18 UNL     1       2.173   0.308  -0.957  1.00  0.00     0.274 C 
BRANCH  17  18
HETATM   18  N5  UNL     1       3.117   1.271  -0.438  1.00  0.00     0.092 N 
HETATM   19  C19 UNL     1       2.404   2.461  -0.128  1.00  0.00     0.298 C 
HETATM   20  C20 UNL     1       2.842   3.171   1.125  1.00  0.00     0.198 C 
HETATM   21  O3  UNL     1       4.252   3.073   1.169  1.00  0.00    -0.388 OA
HETATM   22  C21 UNL     1       4.488   1.759   1.567  1.00  0.00     0.198 C 
HETATM   23  C22 UNL     1       3.934   0.751   0.623  1.00  0.00     0.298 C 
ENDBRANCH  17  18
ENDBRANCH  16  17
ENDBRANCH  15  16
ENDBRANCH  14  15
BRANCH  11  24
HETATM   24  N3  UNL     1      -1.990   0.412  -0.204  1.00  0.00    -0.354 N 
HETATM   25  H5  UNL     1      -0.974   0.449   0.098  1.00  0.00     0.163 HD
BRANCH  24  26
HETATM   26  C8  UNL     1      -2.761   1.161   0.716  1.00  0.00     0.030 A 
HETATM   27  C9  UNL     1      -2.228   1.829   1.822  1.00  0.00     0.029 A 
HETATM   28  C10 UNL     1      -3.097   2.510   2.624  1.00  0.00     0.002 A 
HETATM   29  C11 UNL     1      -4.443   2.567   2.399  1.00  0.00     0.000 A 
HETATM   30  C12 UNL     1      -4.984   1.913   1.312  1.00  0.00     0.002 A 
HETATM   31  C13 UNL     1      -4.122   1.231   0.506  1.00  0.00     0.029 A 
ENDBRANCH  24  26
ENDBRANCH  11  24
TORSDOF 6
