REMARK  3 active torsions:
REMARK  status: ('A' for Active; 'I' for Inactive)
REMARK    1  A    between atoms: C5_7  and  C6_8 
REMARK    2  A    between atoms: C6_8  and  C7_9 
REMARK    3  A    between atoms: C7_9  and  N2_10 
ROOT
HETATM    1  N2  UNL     1       0.009  -0.798   1.109  1.00  0.00    -0.317 N 
HETATM    2  S1  UNL     1      -0.418  -1.676   2.584  1.00  0.00    -0.026 SA
HETATM    3  C8  UNL     1      -1.908  -2.659   2.165  1.00  0.00     0.273 C 
HETATM    4  O2  UNL     1      -2.014  -2.881   0.767  1.00  0.00    -0.335 OA
HETATM    5  C9  UNL     1      -1.776  -1.877  -0.141  1.00  0.00     0.129 A 
HETATM    6  C10 UNL     1      -0.833  -0.884  -0.008  1.00  0.00     0.077 A 
HETATM    7  C11 UNL     1      -0.699   0.094  -1.012  1.00  0.00     0.040 A 
HETATM    8  C12 UNL     1      -1.587  -0.201  -1.958  1.00  0.00    -0.020 A 
HETATM    9  C13 UNL     1      -1.897   0.439  -3.051  1.00  0.00     0.061 A 
HETATM   10  C14 UNL     1      -2.426   0.875  -4.240  1.00  0.00     0.014 A 
HETATM   11  C15 UNL     1      -3.393  -0.134  -4.532  1.00  0.00     0.110 A 
HETATM   12  N3  UNL     1      -3.324  -0.981  -3.508  1.00  0.00    -0.278 NA
HETATM   13  C16 UNL     1      -2.577  -0.991  -2.445  1.00  0.00     0.147 A 
HETATM   14  C17 UNL     1      -2.389  -1.670  -1.292  1.00  0.00     0.118 A 
HETATM   15  O3  UNL     1      -3.575  -2.383  -1.755  1.00  0.00    -0.346 OA
HETATM   16  C18 UNL     1      -4.670  -1.666  -0.962  1.00  0.00     0.203 C 
HETATM   17  C19 UNL     1      -4.430  -0.222  -0.947  1.00  0.00    -0.000 C 
HETATM   18  C20 UNL     1      -3.967   1.039  -1.113  1.00  0.00    -0.002 C 
HETATM   19  C21 UNL     1      -2.958   1.988  -1.728  1.00  0.00    -0.003 C 
HETATM   20  C22 UNL     1      -1.873   1.946  -2.645  1.00  0.00    -0.005 C 
ENDROOT
BRANCH   1  21
HETATM   21  C7  UNL     1       1.218   0.001   1.062  1.00  0.00     0.139 C 
BRANCH  21  22
HETATM   22  C6  UNL     1       2.344  -0.957   1.397  1.00  0.00     0.057 C 
BRANCH  22  23
HETATM   23  C5  UNL     1       3.712  -0.294   1.395  1.00  0.00     0.230 C 
HETATM   24  C2  UNL     1       3.810   0.823   2.391  1.00  0.00     0.039 C 
HETATM   25  C1  UNL     1       4.858   0.592   3.463  1.00  0.00     0.014 C 
HETATM   26  C3  UNL     1       4.114   2.153   1.756  1.00  0.00     0.176 C 
HETATM   27  O1  UNL     1       3.522   2.236   0.509  1.00  0.00    -0.362 OA
HETATM   28  C4  UNL     1       3.995   1.309  -0.391  1.00  0.00     0.438 C 
HETATM   29  N1  UNL     1       4.205   0.009   0.091  1.00  0.00     0.111 N 
HETATM   30  H9  UNL     1       3.876  -0.734  -0.563  1.00  0.00     0.319 HD
ENDBRANCH  22  23
ENDBRANCH  21  22
ENDBRANCH   1  21
TORSDOF 3
