REMARK  1 active torsions:
REMARK  status: ('A' for Active; 'I' for Inactive)
REMARK    1  A    between atoms: C18_23  and  C19_24 
ROOT
HETATM    1  O1  UNL     1       0.287   0.872  -1.019  1.00  0.00    -0.297 OA
HETATM    2  C1  UNL     1       1.338   1.362  -1.342  1.00  0.00     0.138 C 
HETATM    3  C2  UNL     1       1.515   2.808  -1.599  1.00  0.00     0.105 C 
HETATM    4  C3  UNL     1       0.291   3.602  -1.577  1.00  0.00    -0.019 C 
HETATM    5  C4  UNL     1      -0.961   3.918  -1.489  1.00  0.00    -0.004 C 
HETATM    6  C5  UNL     1      -2.276   3.412  -1.291  1.00  0.00    -0.001 C 
HETATM    7  C6  UNL     1      -3.500   3.015  -1.114  1.00  0.00    -0.002 C 
HETATM    8  C7  UNL     1      -4.397   1.906  -0.890  1.00  0.00     0.000 C 
HETATM    9  C8  UNL     1      -4.583   0.628  -0.724  1.00  0.00     0.132 C 
HETATM   10  N1  UNL     1      -4.491  -0.771  -0.577  1.00  0.00    -0.364 N 
HETATM   11  C9  UNL     1      -4.110  -1.587   0.509  1.00  0.00     0.138 A 
HETATM   12  N2  UNL     1      -5.169  -2.230   1.032  1.00  0.00    -0.224 NA
HETATM   13  C10 UNL     1      -5.118  -3.076   2.075  1.00  0.00     0.235 A 
HETATM   14  N3  UNL     1      -3.918  -3.321   2.671  1.00  0.00    -0.241 NA
HETATM   15  C11 UNL     1      -2.836  -2.680   2.157  1.00  0.00     0.072 A 
HETATM   16  C12 UNL     1      -1.666  -2.959   2.798  1.00  0.00     0.035 A 
HETATM   17  C13 UNL     1      -0.471  -2.377   2.397  1.00  0.00     0.031 A 
HETATM   18  C14 UNL     1      -0.472  -1.503   1.332  1.00  0.00     0.029 A 
HETATM   19  C15 UNL     1      -1.687  -1.261   0.722  1.00  0.00     0.046 A 
HETATM   20  C16 UNL     1      -2.887  -1.815   1.089  1.00  0.00     0.041 A 
HETATM   21  N4  UNL     1       0.573  -0.734   0.691  1.00  0.00    -0.389 N 
HETATM   22  C17 UNL     1       0.939  -0.990  -0.684  1.00  0.00     0.134 C 
HETATM   23  C18 UNL     1       1.876   0.004  -1.270  1.00  0.00     0.108 C 
HETATM   24  H9  UNL     1      -4.742  -1.388  -1.405  1.00  0.00     0.162 HD
HETATM   25  H14 UNL     1       0.732  -0.177   1.555  1.00  0.00     0.159 HD
ENDROOT
BRANCH  23  26
HETATM   26  C19 UNL     1       3.274  -0.001  -0.756  1.00  0.00     0.256 C 
HETATM   27  C20 UNL     1       3.491   0.606   0.585  1.00  0.00     0.204 C 
HETATM   28  O2  UNL     1       3.929  -0.416   1.435  1.00  0.00    -0.387 OA
HETATM   29  C21 UNL     1       5.263  -0.709   1.076  1.00  0.00     0.197 C 
HETATM   30  C22 UNL     1       5.248  -1.185  -0.347  1.00  0.00     0.296 C 
HETATM   31  N5  UNL     1       3.893  -1.327  -0.853  1.00  0.00     0.093 N 
HETATM   32  H25 UNL     1       3.375  -2.042  -0.340  1.00  0.00     0.316 HD
ENDBRANCH  23  26
TORSDOF 1
