REMARK  1 active torsions:
REMARK  status: ('A' for Active; 'I' for Inactive)
REMARK    1  A    between atoms: C3_3  and  C4_4 
ROOT
HETATM    1  C4  UNL     1       3.720  -0.370  -0.119  1.00  0.00     0.035 C 
HETATM    2  C5  UNL     1       2.963  -1.459  -0.362  1.00  0.00    -0.053 C 
HETATM    3  C6  UNL     1       3.061  -2.726   0.418  1.00  0.00     0.046 C 
HETATM    4  C7  UNL     1       1.966  -1.529  -1.449  1.00  0.00     0.074 C 
HETATM    5  C8  UNL     1       0.560  -1.617  -1.005  1.00  0.00    -0.051 A 
HETATM    6  C9  UNL     1      -0.303  -0.606  -1.459  1.00  0.00     0.010 A 
HETATM    7  C10 UNL     1      -1.642  -0.491  -1.169  1.00  0.00     0.033 A 
HETATM    8  C11 UNL     1      -2.316  -1.384  -0.371  1.00  0.00     0.072 A 
HETATM    9  C12 UNL     1      -1.471  -2.375   0.073  1.00  0.00     0.096 A 
HETATM   10  C13 UNL     1      -0.134  -2.493  -0.215  1.00  0.00     0.046 A 
HETATM   11  O1  UNL     1      -2.104  -3.299   0.880  1.00  0.00    -0.340 OA
HETATM   12  C14 UNL     1      -3.458  -3.585   0.724  1.00  0.00     0.279 C 
HETATM   13  C15 UNL     1      -4.243  -2.349   0.815  1.00  0.00     0.250 C 
HETATM   14  O2  UNL     1      -5.267  -1.955   1.439  1.00  0.00    -0.271 OA
HETATM   15  N1  UNL     1      -3.696  -1.341  -0.020  1.00  0.00    -0.286 N 
HETATM   16  C16 UNL     1      -4.363  -0.164  -0.601  1.00  0.00     0.402 C 
HETATM   17  N2  UNL     1      -3.779   1.034  -0.091  1.00  0.00     0.103 N 
HETATM   18  C17 UNL     1      -4.265   2.189  -0.820  1.00  0.00     0.297 C 
HETATM   19  C18 UNL     1      -3.454   3.426  -0.317  1.00  0.00     0.198 C 
HETATM   20  O3  UNL     1      -2.116   3.152  -0.544  1.00  0.00    -0.386 OA
HETATM   21  C19 UNL     1      -1.306   4.187  -0.124  1.00  0.00     0.196 C 
HETATM   22  C20 UNL     1       0.129   3.742  -0.329  1.00  0.00     0.018 C 
HETATM   23  C21 UNL     1       1.230   3.533   0.350  1.00  0.00     0.116 C 
HETATM   24  N3  UNL     1       2.522   3.083  -0.120  1.00  0.00    -0.256 NA
HETATM   25  C22 UNL     1       2.640   1.834  -0.525  1.00  0.00     0.207 C 
HETATM   26  N4  UNL     1       3.355   0.688  -1.053  1.00  0.00    -0.351 N 
HETATM   27  H18 UNL     1      -4.068   1.168   0.906  1.00  0.00     0.318 HD
HETATM   28  H28 UNL     1       3.521   0.789  -2.099  1.00  0.00     0.166 HD
ENDROOT
BRANCH   1  29
HETATM   29  C3  UNL     1       4.763  -0.067   0.853  1.00  0.00     0.025 C 
HETATM   30  C2  UNL     1       5.458  -0.526   1.863  1.00  0.00    -0.029 C 
HETATM   31  C1  UNL     1       5.608  -1.750   2.701  1.00  0.00     0.036 C 
ENDBRANCH   1  29
TORSDOF 1
