REMARK  4 active torsions:
REMARK  status: ('A' for Active; 'I' for Inactive)
REMARK    1  A    between atoms: C5_5  and  N1_6 
REMARK    2  A    between atoms: N1_6  and  C6_7 
REMARK    3  A    between atoms: N2_12  and  C10_13 
REMARK    4  A    between atoms: C10_13  and  N3_14 
ROOT
HETATM    1  C6  UNL     1       1.471  -1.776   1.151  1.00  0.00     0.204 C 
HETATM    2  C7  UNL     1       2.740  -2.581   1.041  1.00  0.00     0.214 C 
HETATM    3  O1  UNL     1       2.869  -3.345  -0.081  1.00  0.00    -0.386 OA
HETATM    4  C8  UNL     1       1.737  -4.083  -0.401  1.00  0.00     0.187 C 
HETATM    5  C9  UNL     1       0.514  -3.188  -0.536  1.00  0.00     0.147 C 
HETATM    6  N2  UNL     1       0.750  -1.877  -0.074  1.00  0.00    -0.373 N 
ENDROOT
BRANCH   6   7
HETATM    7  C10 UNL     1      -0.129  -0.834  -0.412  1.00  0.00     0.242 C 
BRANCH   7   8
HETATM    8  N3  UNL     1      -1.444  -0.979   0.119  1.00  0.00    -0.373 N 
HETATM    9  C11 UNL     1      -2.247  -2.024  -0.346  1.00  0.00     0.290 C 
HETATM   10  O2  UNL     1      -3.560  -1.521  -0.584  1.00  0.00    -0.359 OA
HETATM   11  C12 UNL     1      -3.366  -0.291  -1.167  1.00  0.00     0.180 A 
HETATM   12  C13 UNL     1      -4.558   0.269  -1.848  1.00  0.00     0.042 A 
HETATM   13  C18 UNL     1      -3.205   0.683  -0.054  1.00  0.00    -0.016 A 
HETATM   14  C14 UNL     1      -4.945   1.374  -1.186  1.00  0.00     0.069 A 
HETATM   15  N4  UNL     1      -5.941   2.275  -1.342  1.00  0.00    -0.242 NA
HETATM   16  C17 UNL     1      -4.117   1.607  -0.108  1.00  0.00     0.017 A 
HETATM   17  C15 UNL     1      -6.090   3.311  -0.494  1.00  0.00     0.233 A 
HETATM   18  N5  UNL     1      -5.262   3.527   0.568  1.00  0.00    -0.253 NA
HETATM   19  C16 UNL     1      -4.236   2.651   0.779  1.00  0.00     0.132 A 
HETATM   20  C19 UNL     1      -2.044   0.177   0.672  1.00  0.00     0.159 C 
ENDBRANCH   7   8
ENDBRANCH   6   7
BRANCH   1  21
HETATM   21  N1  UNL     1       1.737  -0.405   1.544  1.00  0.00    -0.367 N 
HETATM   22  H6  UNL     1       1.354  -0.011   2.434  1.00  0.00     0.161 HD
BRANCH  21  23
HETATM   23  C5  UNL     1       2.510   0.541   0.817  1.00  0.00     0.029 A 
HETATM   24  C4  UNL     1       2.750   1.853   1.240  1.00  0.00     0.029 A 
HETATM   25  C3  UNL     1       3.494   2.738   0.516  1.00  0.00     0.009 A 
HETATM   26  C2  UNL     1       4.057   2.398  -0.675  1.00  0.00    -0.062 A 
HETATM   27  C1  UNL     1       4.858   3.381  -1.434  1.00  0.00     0.048 C 
HETATM   28  C21 UNL     1       3.862   1.132  -1.147  1.00  0.00     0.009 A 
HETATM   29  C20 UNL     1       3.107   0.252  -0.402  1.00  0.00     0.029 A 
ENDBRANCH  21  23
ENDBRANCH   1  21
TORSDOF 4
