REMARK  9 active torsions:
REMARK  status: ('A' for Active; 'I' for Inactive)
REMARK    1  A    between atoms: C3_3  and  N1_4 
REMARK    2  A    between atoms: N1_4  and  C4_5 
REMARK    3  A    between atoms: C4_5  and  C5_6 
REMARK    4  A    between atoms: C12_16  and  C13_17 
REMARK    5  A    between atoms: C13_17  and  C14_18 
REMARK    6  A    between atoms: N4_20  and  C16_21 
REMARK    7  A    between atoms: C16_21  and  C17_22 
REMARK    8  A    between atoms: C17_22  and  C18_23 
REMARK    9  A    between atoms: C18_23  and  N5_24 
ROOT
HETATM    1  C1  UNL     1       3.151   1.867   1.087  1.00  0.00     0.049 C 
HETATM    2  C2  UNL     1       2.394   0.916   0.573  1.00  0.00     0.017 A 
HETATM    3  C3  UNL     1       2.973  -0.287   0.281  1.00  0.00     0.133 A 
HETATM    4  N2  UNL     1       2.191  -1.239  -0.240  1.00  0.00    -0.224 NA
HETATM    5  C11 UNL     1       0.874  -0.995  -0.461  1.00  0.00     0.235 A 
HETATM    6  N3  UNL     1       0.377   0.205  -0.151  1.00  0.00    -0.241 NA
HETATM    7  C12 UNL     1       1.071   1.228   0.374  1.00  0.00     0.070 A 
ENDROOT
BRANCH   7   8
HETATM    8  C13 UNL     1       0.540   2.400   0.667  1.00  0.00     0.070 C 
BRANCH   8   9
HETATM    9  C14 UNL     1      -0.819   2.897   0.527  1.00  0.00     0.087 C 
HETATM   10  C15 UNL     1      -1.840   2.214   0.043  1.00  0.00     0.130 C 
HETATM   11  N4  UNL     1      -3.183   2.672  -0.108  1.00  0.00    -0.324 N 
HETATM   12  C23 UNL     1      -3.449   4.026   0.314  1.00  0.00     0.248 C 
HETATM   13  O2  UNL     1      -4.455   4.619  -0.197  1.00  0.00    -0.271 OA
HETATM   14  C24 UNL     1      -2.442   4.491   1.318  1.00  0.00     0.278 C 
HETATM   15  O3  UNL     1      -1.130   4.188   0.915  1.00  0.00    -0.341 OA
BRANCH  11  16
HETATM   16  C16 UNL     1      -4.227   1.819  -0.659  1.00  0.00     0.133 C 
BRANCH  16  17
HETATM   17  C17 UNL     1      -4.857   1.086   0.489  1.00  0.00     0.050 C 
BRANCH  17  18
HETATM   18  C18 UNL     1      -5.958   0.163   0.072  1.00  0.00     0.277 C 
BRANCH  18  19
HETATM   19  N5  UNL     1      -5.549  -0.864  -0.841  1.00  0.00     0.118 N 
HETATM   20  C19 UNL     1      -4.668  -1.853  -0.289  1.00  0.00     0.301 C 
HETATM   21  C20 UNL     1      -5.603  -2.773   0.448  1.00  0.00     0.201 C 
HETATM   22  O1  UNL     1      -6.868  -2.586  -0.132  1.00  0.00    -0.356 OA
HETATM   23  C21 UNL     1      -6.736  -1.663  -1.140  1.00  0.00     0.354 C 
HETATM   24  C22 UNL     1      -7.969  -0.802  -1.294  1.00  0.00     0.073 C 
ENDBRANCH  18  19
ENDBRANCH  17  18
ENDBRANCH  16  17
ENDBRANCH  11  16
ENDBRANCH   8   9
ENDBRANCH   7   8
BRANCH   3  25
HETATM   25  N1  UNL     1       4.350  -0.479   0.535  1.00  0.00    -0.370 N 
HETATM   26  H3  UNL     1       4.929   0.288   0.940  1.00  0.00     0.161 HD
BRANCH  25  27
HETATM   27  C4  UNL     1       4.914  -1.792   0.203  1.00  0.00     0.155 C 
BRANCH  27  28
HETATM   28  C5  UNL     1       6.354  -1.738   0.557  1.00  0.00    -0.064 C 
HETATM   29  C6  UNL     1       6.726  -2.585   1.463  1.00  0.00    -0.101 C 
HETATM   30  B1  UNL     1       8.734  -1.861   1.620  1.00  0.00     0.218 B 
HETATM   31  C7  UNL     1       9.177  -2.052  -0.128  1.00  0.00    -0.128 C 
HETATM   32  C8  UNL     1      10.377  -2.833  -0.434  1.00  0.00     0.029 C 
HETATM   33  C9  UNL     1       8.310  -1.428  -0.898  1.00  0.00    -0.032 C 
HETATM   34  C10 UNL     1       7.232  -0.755  -0.120  1.00  0.00     0.061 C 
ENDBRANCH  27  28
ENDBRANCH  25  27
ENDBRANCH   3  25
TORSDOF 9
