REMARK  7 active torsions:
REMARK  status: ('A' for Active; 'I' for Inactive)
REMARK    1  A    between atoms: C5_5  and  N1_6 
REMARK    2  A    between atoms: N1_6  and  C6_7 
REMARK    3  A    between atoms: N4_15  and  C12_16 
REMARK    4  A    between atoms: C12_16  and  C13_17 
REMARK    5  A    between atoms: C13_17  and  C14_18 
REMARK    6  A    between atoms: C14_18  and  N5_19 
REMARK    7  A    between atoms: C21_27  and  O2_28 
ROOT
HETATM    1  C6  UNL     1      -2.879   1.910  -0.084  1.00  0.00     0.141 A 
HETATM    2  N2  UNL     1      -3.472   3.136  -0.136  1.00  0.00    -0.224 NA
HETATM    3  C7  UNL     1      -2.744   4.261  -0.298  1.00  0.00     0.236 A 
HETATM    4  N3  UNL     1      -1.423   4.145  -0.408  1.00  0.00    -0.239 NA
HETATM    5  C8  UNL     1      -0.786   2.977  -0.368  1.00  0.00     0.101 A 
HETATM    6  C9  UNL     1      -1.524   1.833  -0.198  1.00  0.00     0.039 A 
HETATM    7  C10 UNL     1      -1.257   0.573  -0.060  1.00  0.00     0.010 C 
HETATM    8  C11 UNL     1      -0.202  -0.418  -0.028  1.00  0.00     0.145 C 
HETATM    9  N4  UNL     1       1.055  -0.154  -0.565  1.00  0.00    -0.409 N 
HETATM   10  C19 UNL     1       1.197   1.010  -1.389  1.00  0.00     0.123 C 
HETATM   11  C20 UNL     1       1.647   2.217  -0.597  1.00  0.00     0.086 C 
HETATM   12  C21 UNL     1       0.511   3.218  -0.551  1.00  0.00     0.074 C 
ENDROOT
BRANCH   1  13
HETATM   13  N1  UNL     1      -3.813   0.925   0.063  1.00  0.00    -0.340 N 
HETATM   14  H6  UNL     1      -3.740   0.695  -0.990  1.00  0.00     0.167 HD
BRANCH  13  15
HETATM   15  C5  UNL     1      -4.763  -0.078   0.218  1.00  0.00     0.033 A 
HETATM   16  C4  UNL     1      -4.588  -1.334   0.759  1.00  0.00     0.030 A 
HETATM   17  C3  UNL     1      -5.670  -2.158   0.870  1.00  0.00     0.009 A 
HETATM   18  C2  UNL     1      -6.897  -1.727   0.448  1.00  0.00    -0.062 A 
HETATM   19  C1  UNL     1      -8.136  -2.557   0.532  1.00  0.00     0.048 C 
HETATM   20  C23 UNL     1      -7.203  -0.511  -0.104  1.00  0.00     0.009 A 
HETATM   21  C22 UNL     1      -6.060   0.306  -0.200  1.00  0.00     0.030 A 
ENDBRANCH  13  15
ENDBRANCH   1  13
BRANCH  12  22
HETATM   22  O2  UNL     1       0.658   4.581  -0.701  1.00  0.00    -0.362 OA
HETATM   23  H29 UNL     1       0.544   4.907  -1.679  1.00  0.00     0.217 HD
ENDBRANCH  12  22
BRANCH   9  24
HETATM   24  C12 UNL     1       2.184  -0.355   0.297  1.00  0.00     0.118 C 
BRANCH  24  25
HETATM   25  C13 UNL     1       2.409  -1.797   0.698  1.00  0.00     0.039 C 
BRANCH  25  26
HETATM   26  C14 UNL     1       3.714  -1.744   1.541  1.00  0.00     0.118 C 
BRANCH  26  27
HETATM   27  N5  UNL     1       4.793  -1.294   0.780  1.00  0.00    -0.408 N 
HETATM   28  C15 UNL     1       5.226  -2.161  -0.215  1.00  0.00     0.143 C 
HETATM   29  C16 UNL     1       6.389  -1.752  -1.063  1.00  0.00     0.187 C 
HETATM   30  O1  UNL     1       7.292  -1.039  -0.280  1.00  0.00    -0.388 OA
HETATM   31  C17 UNL     1       6.619   0.132   0.086  1.00  0.00     0.187 C 
HETATM   32  C18 UNL     1       5.539  -0.181   1.117  1.00  0.00     0.143 C 
ENDBRANCH  26  27
ENDBRANCH  25  26
ENDBRANCH  24  25
ENDBRANCH   9  24
TORSDOF 7
