REMARK  2 active torsions:
REMARK  status: ('A' for Active; 'I' for Inactive)
REMARK    1  A    between atoms: C2_2  and  O1_3 
REMARK    2  A    between atoms: O1_3  and  C3_4 
ROOT
HETATM    1  C3  UNL     1       2.596  -0.675  -2.720  1.00  0.00     0.066 C 
HETATM    2  C4  UNL     1       3.154  -0.476  -1.636  1.00  0.00     0.115 C 
HETATM    3  N1  UNL     1       3.713  -0.210  -0.254  1.00  0.00    -0.403 N 
HETATM    4  C5  UNL     1       3.067  -0.674   0.983  1.00  0.00     0.097 C 
HETATM    5  B1  UNL     1       1.515  -0.154   1.018  1.00  0.00     0.337 B 
HETATM    6  C6  UNL     1       0.630  -1.163   1.955  1.00  0.00     0.016 C 
HETATM    7  C7  UNL     1      -0.834  -1.006   1.764  1.00  0.00     0.213 C 
HETATM    8  C8  UNL     1      -1.440  -1.479   0.525  1.00  0.00     0.035 C 
HETATM    9  C9  UNL     1      -0.945  -1.296  -0.819  1.00  0.00     0.013 C 
HETATM   10  C10 UNL     1      -0.863   0.028  -1.553  1.00  0.00     0.039 C 
HETATM   11  C11 UNL     1      -0.124  -0.444  -2.829  1.00  0.00     0.012 C 
HETATM   12  C12 UNL     1       1.135  -0.504  -2.622  1.00  0.00     0.060 C 
HETATM   13  C13 UNL     1      -0.020   0.950  -0.752  1.00  0.00     0.019 C 
HETATM   14  N2  UNL     1       1.106   1.694  -0.727  1.00  0.00    -0.252 NA
HETATM   15  C14 UNL     1       1.259   2.342   0.572  1.00  0.00     0.208 C 
HETATM   16  N3  UNL     1       1.461   1.334   1.413  1.00  0.00    -0.346 NA
HETATM   17  C15 UNL     1      -1.190   1.482   0.143  1.00  0.00     0.028 C 
HETATM   18  C16 UNL     1      -2.212   2.019   0.945  1.00  0.00     0.056 C 
HETATM   19  C17 UNL     1      -2.397   3.354   1.399  1.00  0.00    -0.021 C 
HETATM   20  C18 UNL     1      -3.374   3.189   2.179  1.00  0.00    -0.002 C 
HETATM   21  C19 UNL     1      -3.923   1.835   2.388  1.00  0.00     0.024 C 
HETATM   22  C20 UNL     1      -4.478   0.692   2.644  1.00  0.00     0.134 C 
HETATM   23  O2  UNL     1      -5.104  -0.481   2.954  1.00  0.00    -0.361 OA
HETATM   24  C21 UNL     1      -4.061  -1.405   3.610  1.00  0.00     0.204 C 
HETATM   25  C22 UNL     1      -2.891  -1.143   2.762  1.00  0.00     0.296 C 
HETATM   26  N4  UNL     1      -1.604  -1.797   2.882  1.00  0.00     0.089 N 
HETATM   27  H7  UNL     1       4.615   0.330  -0.291  1.00  0.00     0.158 HD
HETATM   28  H31 UNL     1      -1.605  -2.776   2.572  1.00  0.00     0.316 HD
ENDROOT
BRANCH   1  29
HETATM   29  O1  UNL     1       3.709  -0.956  -3.473  1.00  0.00    -0.354 OA
BRANCH  29  30
HETATM   30  C2  UNL     1       4.721  -0.011  -3.774  1.00  0.00     0.171 C 
HETATM   31  C1  UNL     1       5.358  -0.426  -5.105  1.00  0.00     0.034 C 
ENDBRANCH  29  30
ENDBRANCH   1  29
TORSDOF 2
