REMARK  0 active torsions:
REMARK  status: ('A' for Active; 'I' for Inactive)
ROOT
HETATM    1 BR1  UNL     1       4.432   0.795  -2.021  1.00  0.00    -0.059 Br
HETATM    2  C1  UNL     1       3.302   0.159  -0.641  1.00  0.00    -0.015 A 
HETATM    3  C2  UNL     1       2.450  -0.451   0.164  1.00  0.00     0.060 A 
HETATM    4  C3  UNL     1       1.520  -1.066   1.147  1.00  0.00     0.008 C 
HETATM    5  C4  UNL     1       0.651  -2.045   0.956  1.00  0.00     0.132 C 
HETATM    6  O1  UNL     1       0.887  -2.245  -0.432  1.00  0.00    -0.348 OA
HETATM    7  C5  UNL     1       0.355  -1.121  -1.252  1.00  0.00     0.116 A 
HETATM    8  C6  UNL     1      -0.078  -1.645  -2.614  1.00  0.00     0.216 C 
HETATM    9  O2  UNL     1      -1.374  -2.264  -2.319  1.00  0.00    -0.351 OA
HETATM   10  C7  UNL     1      -2.160  -1.485  -1.496  1.00  0.00     0.062 A 
HETATM   11  C8  UNL     1      -3.019  -0.733  -0.696  1.00  0.00     0.061 A 
HETATM   12  C9  UNL     1      -2.561   0.227   0.225  1.00  0.00     0.057 A 
HETATM   13  N1  UNL     1      -3.579   0.832   0.930  1.00  0.00    -0.245 NA
HETATM   14  C10 UNL     1      -3.081   1.711   1.819  1.00  0.00     0.235 A 
HETATM   15  N2  UNL     1      -1.769   1.955   1.989  1.00  0.00    -0.227 NA
HETATM   16  C11 UNL     1      -0.805   1.343   1.280  1.00  0.00     0.122 A 
HETATM   17  C12 UNL     1      -1.163   0.397   0.303  1.00  0.00     0.095 A 
HETATM   18  C13 UNL     1      -0.078  -0.166  -0.327  1.00  0.00     0.048 A 
HETATM   19  C14 UNL     1      -1.100  -0.836  -0.923  1.00  0.00     0.077 A 
HETATM   20  N3  UNL     1       0.520   1.740   1.711  1.00  0.00    -0.356 N 
HETATM   21  C15 UNL     1       1.574   1.918   0.790  1.00  0.00     0.073 C 
HETATM   22  C16 UNL     1       2.452   1.201   0.056  1.00  0.00     0.073 A 
HETATM   23  H8  UNL     1       0.648   1.872   2.766  1.00  0.00     0.166 HD
ENDROOT
TORSDOF 0
