REMARK  7 active torsions:
REMARK  status: ('A' for Active; 'I' for Inactive)
REMARK    1  A    between atoms: B1_1  and  C1_2 
REMARK    2  A    between atoms: C4_5  and  N1_6 
REMARK    3  A    between atoms: N1_6  and  C5_7 
REMARK    4  A    between atoms: N4_17  and  C13_18 
REMARK    5  A    between atoms: C13_18  and  C14_19 
REMARK    6  A    between atoms: C14_19  and  C15_20 
REMARK    7  A    between atoms: C15_20  and  N5_21 
ROOT
HETATM    1  C5  UNL     1       3.215  -1.255  -0.452  1.00  0.00     0.142 A 
HETATM    2  N2  UNL     1       4.406  -1.857  -0.410  1.00  0.00    -0.224 NA
HETATM    3  C6  UNL     1       4.638  -3.155  -0.542  1.00  0.00     0.236 A 
HETATM    4  N3  UNL     1       3.579  -3.988  -0.741  1.00  0.00    -0.241 NA
HETATM    5  C7  UNL     1       2.334  -3.474  -0.799  1.00  0.00     0.075 A 
HETATM    6  C8  UNL     1       1.318  -4.379  -1.003  1.00  0.00     0.071 A 
HETATM    7  C9  UNL     1       0.018  -3.927  -1.073  1.00  0.00     0.098 A 
HETATM    8  C10 UNL     1      -0.221  -2.582  -0.936  1.00  0.00     0.071 A 
HETATM    9  C11 UNL     1       0.844  -1.733  -0.734  1.00  0.00     0.050 A 
HETATM   10  C12 UNL     1       2.166  -2.113  -0.653  1.00  0.00     0.041 A 
HETATM   11  N4  UNL     1      -1.567  -2.145  -1.011  1.00  0.00    -0.314 N 
HETATM   12  C20 UNL     1      -2.571  -3.142  -1.224  1.00  0.00     0.248 C 
HETATM   13  O2  UNL     1      -3.681  -2.784  -1.693  1.00  0.00    -0.271 OA
HETATM   14  C21 UNL     1      -2.347  -4.574  -0.911  1.00  0.00     0.279 C 
HETATM   15  O3  UNL     1      -0.988  -4.858  -1.279  1.00  0.00    -0.340 OA
ENDROOT
BRANCH   1  16
HETATM   16  N1  UNL     1       2.964   0.121  -0.313  1.00  0.00    -0.340 N 
HETATM   17  H5  UNL     1       2.018   0.502  -0.350  1.00  0.00     0.167 HD
BRANCH  16  18
HETATM   18  C4  UNL     1       3.890   1.165  -0.112  1.00  0.00     0.033 A 
HETATM   19  C3  UNL     1       5.248   0.957  -0.069  1.00  0.00     0.029 A 
HETATM   20  C2  UNL     1       6.178   1.954   0.128  1.00  0.00    -0.004 A 
HETATM   21  C1  UNL     1       5.787   3.253   0.298  1.00  0.00    -0.109 A 
HETATM   22  C23 UNL     1       4.441   3.514   0.264  1.00  0.00    -0.004 A 
HETATM   23  C22 UNL     1       3.561   2.487   0.066  1.00  0.00     0.029 A 
BRANCH  21  24
HETATM   24  B1  UNL     1       6.771   4.423   0.523  1.00  0.00     0.174 B 
HETATM   25  H1  UNL     1       7.798   4.184   1.066  1.00  0.00    -0.026 HD
HETATM   26  H2  UNL     1       6.618   5.427  -0.069  1.00  0.00    -0.026 HD
ENDBRANCH  21  24
ENDBRANCH  16  18
ENDBRANCH   1  16
BRANCH  11  27
HETATM   27  C13 UNL     1      -1.887  -0.739  -0.874  1.00  0.00     0.134 C 
BRANCH  27  28
HETATM   28  C14 UNL     1      -2.118  -0.474   0.593  1.00  0.00     0.050 C 
BRANCH  28  29
HETATM   29  C15 UNL     1      -2.465   0.950   0.915  1.00  0.00     0.274 C 
BRANCH  29  30
HETATM   30  N5  UNL     1      -3.669   1.406   0.262  1.00  0.00     0.092 N 
HETATM   31  C16 UNL     1      -3.875   2.786   0.663  1.00  0.00     0.298 C 
HETATM   32  C17 UNL     1      -5.076   3.349  -0.057  1.00  0.00     0.198 C 
HETATM   33  O1  UNL     1      -6.193   2.595   0.197  1.00  0.00    -0.388 OA
HETATM   34  C18 UNL     1      -6.017   1.509   1.015  1.00  0.00     0.198 C 
HETATM   35  C19 UNL     1      -4.835   0.660   0.659  1.00  0.00     0.298 C 
ENDBRANCH  29  30
ENDBRANCH  28  29
ENDBRANCH  27  28
ENDBRANCH  11  27
TORSDOF 7
