REMARK  5 active torsions:
REMARK  status: ('A' for Active; 'I' for Inactive)
REMARK    1  A    between atoms: S1_2  and  C2_3 
REMARK    2  A    between atoms: S1_2  and  N2_11 
REMARK    3  A    between atoms: C2_3  and  C3_4 
REMARK    4  A    between atoms: C3_4  and  N1_5 
REMARK    5  A    between atoms: C14_22  and  N5_23 
ROOT
HETATM    1  N2  UNL     1      -0.872  -1.058   0.845  1.00  0.00    -0.258 N 
HETATM    2  C8  UNL     1      -0.512  -2.437   0.835  1.00  0.00     0.258 C 
HETATM    3  O2  UNL     1       0.659  -2.681   1.260  1.00  0.00    -0.270 OA
HETATM    4  C9  UNL     1      -1.342  -3.586   0.391  1.00  0.00     0.280 C 
HETATM    5  O3  UNL     1      -2.519  -3.143  -0.252  1.00  0.00    -0.340 OA
HETATM    6  C10 UNL     1      -2.913  -1.806  -0.264  1.00  0.00     0.099 A 
HETATM    7  C11 UNL     1      -4.162  -1.595  -0.852  1.00  0.00     0.071 A 
HETATM    8  C12 UNL     1      -4.637  -0.283  -0.908  1.00  0.00     0.075 A 
HETATM    9  N3  UNL     1      -5.857  -0.077  -1.482  1.00  0.00    -0.241 NA
HETATM   10  C13 UNL     1      -6.295   1.195  -1.526  1.00  0.00     0.236 A 
HETATM   11  N4  UNL     1      -5.579   2.223  -1.033  1.00  0.00    -0.220 NA
HETATM   12  C14 UNL     1      -4.377   2.032  -0.466  1.00  0.00     0.193 A 
HETATM   13  C15 UNL     1      -3.877   0.754  -0.392  1.00  0.00     0.045 A 
HETATM   14  C16 UNL     1      -2.651   0.518   0.181  1.00  0.00     0.051 A 
HETATM   15  C17 UNL     1      -2.156  -0.772   0.251  1.00  0.00     0.083 A 
ENDROOT
BRANCH   1  16
HETATM   16  S1  UNL     1       0.014   0.243   1.461  1.00  0.00    -0.101 SA
HETATM   17  C1  UNL     1      -0.579   1.108   2.614  1.00  0.00     0.075 C 
BRANCH  16  18
HETATM   18  C2  UNL     1       1.135   1.033   0.344  1.00  0.00     0.119 C 
BRANCH  18  19
HETATM   19  C3  UNL     1       2.145   0.007  -0.122  1.00  0.00     0.283 C 
BRANCH  19  20
HETATM   20  N1  UNL     1       3.122   0.534  -1.046  1.00  0.00     0.093 N 
HETATM   21  C4  UNL     1       4.012   1.477  -0.418  1.00  0.00     0.298 C 
HETATM   22  C5  UNL     1       4.823   0.887   0.694  1.00  0.00     0.198 C 
HETATM   23  O1  UNL     1       5.428  -0.317   0.330  1.00  0.00    -0.388 OA
HETATM   24  C6  UNL     1       5.342  -0.552  -1.031  1.00  0.00     0.198 C 
HETATM   25  C7  UNL     1       3.902  -0.606  -1.516  1.00  0.00     0.298 C 
ENDBRANCH  19  20
ENDBRANCH  18  19
ENDBRANCH  16  18
ENDBRANCH   1  16
BRANCH  12  26
HETATM   26  N5  UNL     1      -3.667   3.164   0.038  1.00  0.00    -0.077 NA
HETATM   27  O4  UNL     1      -4.321   3.864   0.863  1.00  0.00    -0.059 OA
ENDBRANCH  12  26
TORSDOF 5
