REMARK  5 active torsions:
REMARK  status: ('A' for Active; 'I' for Inactive)
REMARK    1  A    between atoms: C6_7  and  C7_8 
REMARK    2  A    between atoms: C7_8  and  C8_9 
REMARK    3  A    between atoms: C8_9  and  N2_10 
REMARK    4  A    between atoms: C15_21  and  N5_22 
REMARK    5  A    between atoms: N5_22  and  C16_23 
ROOT
HETATM    1  N2  UNL     1      -1.154  -2.562   0.168  1.00  0.00    -0.314 N 
HETATM    2  C9  UNL     1      -1.919  -3.695   0.637  1.00  0.00     0.248 C 
HETATM    3  O1  UNL     1      -3.150  -3.774   0.377  1.00  0.00    -0.271 OA
HETATM    4  C10 UNL     1      -1.417  -4.845   1.432  1.00  0.00     0.279 C 
HETATM    5  O2  UNL     1      -0.022  -4.847   1.422  1.00  0.00    -0.340 OA
HETATM    6  C11 UNL     1       0.766  -3.806   1.000  1.00  0.00     0.098 A 
HETATM    7  C12 UNL     1       2.139  -3.879   1.194  1.00  0.00     0.071 A 
HETATM    8  C13 UNL     1       2.905  -2.818   0.759  1.00  0.00     0.075 A 
HETATM    9  N3  UNL     1       4.226  -2.925   0.963  1.00  0.00    -0.241 NA
HETATM   10  C14 UNL     1       5.020  -1.911   0.555  1.00  0.00     0.235 A 
HETATM   11  N4  UNL     1       4.513  -0.806  -0.047  1.00  0.00    -0.224 NA
HETATM   12  C15 UNL     1       3.199  -0.682  -0.259  1.00  0.00     0.138 A 
HETATM   13  C21 UNL     1       2.380  -1.711   0.154  1.00  0.00     0.041 A 
HETATM   14  C22 UNL     1       1.017  -1.629  -0.042  1.00  0.00     0.050 A 
HETATM   15  C23 UNL     1       0.245  -2.686   0.389  1.00  0.00     0.071 A 
ENDROOT
BRANCH   1  16
HETATM   16  C8  UNL     1      -1.869  -1.464  -0.452  1.00  0.00     0.134 C 
BRANCH  16  17
HETATM   17  C7  UNL     1      -2.237  -0.494   0.641  1.00  0.00     0.056 C 
BRANCH  17  18
HETATM   18  C6  UNL     1      -2.992   0.705   0.234  1.00  0.00     0.231 C 
HETATM   19  C2  UNL     1      -2.343   1.614  -0.737  1.00  0.00     0.000 C 
HETATM   20  C1  UNL     1      -1.083   1.483  -1.110  1.00  0.00     0.013 C 
HETATM   21  C3  UNL     1      -3.209   2.706  -1.271  1.00  0.00     0.014 C 
HETATM   22  C4  UNL     1      -4.503   2.684  -0.498  1.00  0.00     0.031 C 
HETATM   23  C5  UNL     1      -4.341   2.469   0.969  1.00  0.00     0.270 C 
HETATM   24  N1  UNL     1      -3.288   1.593   1.373  1.00  0.00     0.088 N 
HETATM   25  H9  UNL     1      -2.444   2.214   1.547  1.00  0.00     0.316 HD
ENDBRANCH  17  18
ENDBRANCH  16  17
ENDBRANCH   1  16
BRANCH  12  26
HETATM   26  N5  UNL     1       2.724   0.493  -0.894  1.00  0.00    -0.363 N 
HETATM   27  H19 UNL     1       1.746   0.755  -1.136  1.00  0.00     0.162 HD
BRANCH  26  28
HETATM   28  C16 UNL     1       3.708   1.490  -1.273  1.00  0.00     0.131 A 
HETATM   29  C17 UNL     1       4.443   1.987  -0.057  1.00  0.00     0.004 A 
HETATM   30  C18 UNL     1       4.284   3.311   0.041  1.00  0.00     0.022 A 
HETATM   31  C19 UNL     1       3.459   3.772  -1.068  1.00  0.00     0.032 A 
HETATM   32 CL1  UNL     1       3.030   5.471  -1.278  1.00  0.00    -0.085 Cl
HETATM   33  C20 UNL     1       3.136   2.725  -1.811  1.00  0.00     0.026 A 
ENDBRANCH  26  28
ENDBRANCH  12  26
TORSDOF 5
