REMARK  2 active torsions:
REMARK  status: ('A' for Active; 'I' for Inactive)
REMARK    1  A    between atoms: C7_8  and  N1_9 
REMARK    2  A    between atoms: N1_9  and  C8_10 
ROOT
HETATM    1  C8  UNL     1       1.917  -0.328  -1.276  1.00  0.00     0.132 C 
HETATM    2  C9  UNL     1       1.911  -1.837  -1.286  1.00  0.00     0.178 C 
HETATM    3  N2  UNL     1       0.741  -2.484  -0.770  1.00  0.00    -0.293 NA
HETATM    4  C10 UNL     1      -0.314  -1.833  -0.419  1.00  0.00     0.042 C 
HETATM    5  C11 UNL     1      -0.407  -0.802  -1.527  1.00  0.00     0.095 C 
HETATM    6  C12 UNL     1       0.584   0.171  -0.883  1.00  0.00    -0.035 C 
HETATM    7  C13 UNL     1      -0.004   1.108  -0.191  1.00  0.00     0.090 C 
HETATM    8  N3  UNL     1      -1.133   1.767   0.318  1.00  0.00    -0.388 N 
HETATM    9  C14 UNL     1      -2.043   2.652  -0.330  1.00  0.00     0.124 C 
HETATM   10  C15 UNL     1      -3.452   2.176  -0.345  1.00  0.00     0.050 C 
HETATM   11  C16 UNL     1      -3.762   0.764  -0.734  1.00  0.00     0.275 C 
HETATM   12  N4  UNL     1      -3.272  -0.140   0.239  1.00  0.00     0.100 N 
HETATM   13  C17 UNL     1      -4.298  -0.257   1.281  1.00  0.00     0.299 C 
HETATM   14  C18 UNL     1      -5.478  -1.041   0.822  1.00  0.00     0.198 C 
HETATM   15  O1  UNL     1      -5.033  -2.154   0.093  1.00  0.00    -0.387 OA
HETATM   16  C19 UNL     1      -3.731  -2.463   0.407  1.00  0.00     0.206 C 
HETATM   17  C20 UNL     1      -2.735  -1.402  -0.116  1.00  0.00     0.281 C 
HETATM   18  C21 UNL     1      -1.445  -1.624   0.637  1.00  0.00     0.204 C 
HETATM   19  O2  UNL     1      -1.170  -0.679   1.416  1.00  0.00    -0.376 OA
HETATM   20  C22 UNL     1      -0.896   0.264   2.195  1.00  0.00     0.188 C 
HETATM   21  C23 UNL     1      -1.512   1.616   1.696  1.00  0.00     0.148 C 
ENDROOT
BRANCH   1  22
HETATM   22  N1  UNL     1       2.916   0.240  -0.424  1.00  0.00    -0.379 N 
HETATM   23  H7  UNL     1       2.634   0.846   0.388  1.00  0.00     0.160 HD
BRANCH  22  24
HETATM   24  C7  UNL     1       4.320   0.066  -0.562  1.00  0.00     0.034 A 
HETATM   25  C2  UNL     1       5.260   0.622   0.277  1.00  0.00    -0.034 A 
HETATM   26  C1  UNL     1       4.794   1.463   1.409  1.00  0.00     0.050 C 
HETATM   27  C3  UNL     1       6.618   0.457   0.143  1.00  0.00     0.028 A 
HETATM   28  C4  UNL     1       7.098  -0.313  -0.891  1.00  0.00     0.011 A 
HETATM   29 BR1  UNL     1       8.976  -0.596  -1.151  1.00  0.00    -0.051 Br
HETATM   30  C5  UNL     1       6.226  -0.907  -1.778  1.00  0.00     0.021 A 
HETATM   31  C6  UNL     1       4.870  -0.698  -1.584  1.00  0.00     0.031 A 
ENDBRANCH  22  24
ENDBRANCH   1  22
TORSDOF 2
