REMARK  1 active torsions:
REMARK  status: ('A' for Active; 'I' for Inactive)
REMARK    1  A    between atoms: C1_2  and  C2_3 
ROOT
HETATM    1  C2  UNL     1      -1.408   0.577   1.997  1.00  0.00     0.173 C 
HETATM    2  N1  UNL     1      -0.496   1.447   2.237  1.00  0.00    -0.221 NA
HETATM    3  C3  UNL     1       0.395   1.750   1.198  1.00  0.00     0.231 C 
HETATM    4  N2  UNL     1       1.193   1.883   0.200  1.00  0.00    -0.257 NA
HETATM    5  C4  UNL     1       1.430   0.752  -0.673  1.00  0.00     0.222 C 
HETATM    6  C5  UNL     1       2.833   0.724  -1.156  1.00  0.00     0.031 C 
HETATM    7  C6  UNL     1       3.770  -0.060  -0.633  1.00  0.00    -0.011 C 
HETATM    8 BR1  UNL     1       5.557  -0.044  -1.306  1.00  0.00    -0.056 Br
HETATM    9  C7  UNL     1       3.351  -0.936   0.489  1.00  0.00     0.062 C 
HETATM   10  C8  UNL     1       1.924  -1.356   0.447  1.00  0.00     0.116 C 
HETATM   11  N3  UNL     1       0.992  -0.430  -0.047  1.00  0.00    -0.222 NA
HETATM   12  N4  UNL     1       0.031  -1.041  -0.832  1.00  0.00    -0.231 NA
HETATM   13  C9  UNL     1      -1.270  -1.141  -0.240  1.00  0.00     0.205 C 
HETATM   14  C10 UNL     1      -2.300  -0.973  -1.339  1.00  0.00     0.210 C 
HETATM   15  O2  UNL     1      -1.978   0.096  -2.179  1.00  0.00    -0.379 OA
HETATM   16  C11 UNL     1      -2.297   1.312  -1.526  1.00  0.00     0.271 C 
HETATM   17  C12 UNL     1      -2.180   1.073  -0.039  1.00  0.00     0.250 C 
HETATM   18  O3  UNL     1      -2.749   1.952   0.707  1.00  0.00    -0.271 OA
HETATM   19  N5  UNL     1      -1.514  -0.012   0.665  1.00  0.00    -0.277 N 
HETATM   20  H9  UNL     1       0.353  -1.898  -1.292  1.00  0.00     0.143 HD
ENDROOT
BRANCH   1  21
HETATM   21  C1  UNL     1      -2.553  -0.203   2.421  1.00  0.00     0.309 C 
HETATM   22  O1  UNL     1      -3.477  -1.036   2.291  1.00  0.00    -0.298 OA
ENDBRANCH   1  21
TORSDOF 1
