REMARK  5 active torsions:
REMARK  status: ('A' for Active; 'I' for Inactive)
REMARK    1  A    between atoms: O1_2  and  C2_3 
REMARK    2  A    between atoms: C12_15  and  N3_16 
REMARK    3  A    between atoms: N3_16  and  C13_17 
REMARK    4  A    between atoms: C13_17  and  C14_18 
REMARK    5  A    between atoms: C19_23  and  O2_24 
ROOT
HETATM    1  C2  UNL     1      -4.776   0.014  -0.709  1.00  0.00     0.068 A 
HETATM    2  C3  UNL     1      -4.719  -0.956   0.292  1.00  0.00     0.037 A 
HETATM    3  C4  UNL     1      -3.594  -1.108   1.094  1.00  0.00     0.017 A 
HETATM    4  C5  UNL     1      -2.659  -0.192   0.723  1.00  0.00    -0.002 A 
HETATM    5  C6  UNL     1      -2.549   0.832  -0.241  1.00  0.00    -0.015 A 
HETATM    6  C7  UNL     1      -3.734   0.905  -0.998  1.00  0.00     0.046 A 
HETATM    7  C8  UNL     1      -1.346   1.662  -0.462  1.00  0.00     0.315 C 
HETATM    8  N1  UNL     1      -0.218   1.405   0.405  1.00  0.00     0.122 N 
HETATM    9  C9  UNL     1      -0.760   1.215   1.789  1.00  0.00     0.335 C 
HETATM   10  C10 UNL     1      -1.403  -0.136   1.455  1.00  0.00     0.068 C 
HETATM   11  N2  UNL     1      -0.645  -1.121   1.808  1.00  0.00    -0.288 NA
HETATM   12  C11 UNL     1       0.751  -0.752   1.281  1.00  0.00     0.206 C 
HETATM   13  C12 UNL     1       0.490   0.156   0.119  1.00  0.00     0.338 C 
ENDROOT
BRANCH  13  14
HETATM   14  N3  UNL     1       1.563   0.388  -0.771  1.00  0.00    -0.388 N 
HETATM   15  H14 UNL     1       1.182   0.584  -1.725  1.00  0.00     0.155 HD
BRANCH  14  16
HETATM   16  C13 UNL     1       2.729   1.074  -0.436  1.00  0.00     0.157 C 
BRANCH  16  17
HETATM   17  C14 UNL     1       3.978   0.320  -0.233  1.00  0.00    -0.008 A 
HETATM   18  C15 UNL     1       4.801   0.195  -1.373  1.00  0.00     0.011 A 
HETATM   19  C16 UNL     1       5.996  -0.489  -1.467  1.00  0.00     0.001 A 
HETATM   20  C17 UNL     1       6.461  -1.126  -0.350  1.00  0.00     0.003 A 
HETATM   21  C18 UNL     1       5.720  -1.047   0.785  1.00  0.00     0.037 A 
HETATM   22  C19 UNL     1       4.538  -0.355   0.824  1.00  0.00     0.073 A 
BRANCH  22  23
HETATM   23  O2  UNL     1       3.815  -0.285   1.981  1.00  0.00    -0.360 OA
HETATM   24  H21 UNL     1       3.942  -0.967   2.708  1.00  0.00     0.217 HD
ENDBRANCH  22  23
ENDBRANCH  16  17
ENDBRANCH  14  16
ENDBRANCH  13  14
BRANCH   1  25
HETATM   25  O1  UNL     1      -5.965   0.068  -1.443  1.00  0.00    -0.356 OA
HETATM   26  C1  UNL     1      -7.027  -0.815  -1.164  1.00  0.00     0.210 C 
ENDBRANCH   1  25
TORSDOF 5
