REMARK  8 active torsions:
REMARK  status: ('A' for Active; 'I' for Inactive)
REMARK    1  A    between atoms: O1_1  and  C1_2 
REMARK    2  A    between atoms: C1_2  and  C2_3 
REMARK    3  A    between atoms: C2_3  and  O2_4 
REMARK    4  A    between atoms: O2_4  and  C3_5 
REMARK    5  A    between atoms: C3_5  and  C4_6 
REMARK    6  A    between atoms: C4_6  and  C5_7 
REMARK    7  A    between atoms: C5_7  and  C6_8 
REMARK    8  A    between atoms: N3_21  and  O4_22 
ROOT
HETATM    1  C6  UNL     1      -0.573  -1.505   1.242  1.00  0.00     0.124 C 
HETATM    2  C7  UNL     1      -1.618  -0.717   0.594  1.00  0.00    -0.004 A 
HETATM    3  C8  UNL     1      -1.843   0.630   0.770  1.00  0.00     0.027 A 
HETATM    4  C9  UNL     1      -2.848   1.335   0.133  1.00  0.00     0.011 A 
HETATM    5  C10 UNL     1      -3.022   2.684   0.353  1.00  0.00     0.131 A 
HETATM    6  N1  UNL     1      -4.025   3.297  -0.307  1.00  0.00    -0.253 NA
HETATM    7  C11 UNL     1      -4.856   2.640  -1.167  1.00  0.00     0.233 A 
HETATM    8  N2  UNL     1      -4.682   1.315  -1.379  1.00  0.00    -0.241 NA
HETATM    9  C12 UNL     1      -3.701   0.683  -0.743  1.00  0.00     0.072 A 
HETATM   10  C13 UNL     1      -3.493  -0.686  -0.939  1.00  0.00     0.070 A 
HETATM   11  C14 UNL     1      -2.482  -1.364  -0.290  1.00  0.00     0.080 A 
HETATM   12  O3  UNL     1      -2.366  -2.734  -0.563  1.00  0.00    -0.334 OA
HETATM   13  C15 UNL     1      -1.200  -3.383  -0.135  1.00  0.00     0.296 C 
HETATM   14  N3  UNL     1      -0.156  -2.553   0.351  1.00  0.00    -0.167 NA
ENDROOT
BRANCH   1  15
HETATM   15  C5  UNL     1       0.617  -0.708   1.686  1.00  0.00     0.029 C 
BRANCH  15  16
HETATM   16  C4  UNL     1       1.291  -0.007   0.499  1.00  0.00     0.028 C 
BRANCH  16  17
HETATM   17  C3  UNL     1       2.458   0.749   1.086  1.00  0.00     0.167 C 
BRANCH  17  18
HETATM   18  O2  UNL     1       3.204   1.467   0.191  1.00  0.00    -0.389 OA
BRANCH  18  19
HETATM   19  C2  UNL     1       3.756   0.662  -0.772  1.00  0.00     0.193 C 
BRANCH  19  20
HETATM   20  C1  UNL     1       4.608   1.470  -1.760  1.00  0.00     0.190 C 
BRANCH  20  21
HETATM   21  O1  UNL     1       5.649   2.109  -1.058  1.00  0.00    -0.399 OA
HETATM   22  H1  UNL     1       5.219   2.714  -0.400  1.00  0.00     0.209 HD
ENDBRANCH  20  21
ENDBRANCH  19  20
ENDBRANCH  18  19
ENDBRANCH  17  18
ENDBRANCH  16  17
ENDBRANCH  15  16
ENDBRANCH   1  15
BRANCH  14  23
HETATM   23  O4  UNL     1       0.729  -3.354   1.014  1.00  0.00    -0.310 OA
HETATM   24  H19 UNL     1       0.266  -4.046   1.564  1.00  0.00     0.237 HD
ENDBRANCH  14  23
TORSDOF 8
