REMARK  7 active torsions:
REMARK  status: ('A' for Active; 'I' for Inactive)
REMARK    1  A    between atoms: N1_1  and  C1_2 
REMARK    2  A    between atoms: C4_5  and  N2_6 
REMARK    3  A    between atoms: N2_6  and  C5_7 
REMARK    4  A    between atoms: N4_20  and  C15_21 
REMARK    5  A    between atoms: C15_21  and  C16_22 
REMARK    6  A    between atoms: C16_22  and  C17_23 
REMARK    7  A    between atoms: C17_23  and  N5_24 
ROOT
HETATM    1  C5  UNL     1       2.732  -1.262  -0.244  1.00  0.00     0.030 A 
HETATM    2  C6  UNL     1       1.415  -1.292  -0.233  1.00  0.00     0.043 A 
HETATM    3  C7  UNL     1       0.830  -2.600  -0.463  1.00  0.00     0.024 A 
HETATM    4  C8  UNL     1      -0.400  -3.070  -0.536  1.00  0.00     0.083 A 
HETATM    5  C9  UNL     1      -0.345  -4.495  -0.797  1.00  0.00     0.099 A 
HETATM    6  C10 UNL     1       0.932  -4.909  -0.887  1.00  0.00     0.071 A 
HETATM    7  C11 UNL     1       1.738  -3.715  -0.677  1.00  0.00     0.066 A 
HETATM    8  N3  UNL     1       2.997  -3.609  -0.671  1.00  0.00    -0.283 NA
HETATM    9  C12 UNL     1       3.705  -2.387  -0.458  1.00  0.00     0.206 A 
HETATM   10  O1  UNL     1      -1.527  -5.235  -0.921  1.00  0.00    -0.340 OA
HETATM   11  C13 UNL     1      -2.732  -4.563  -1.290  1.00  0.00     0.279 C 
HETATM   12  C14 UNL     1      -2.792  -3.230  -0.593  1.00  0.00     0.248 C 
HETATM   13  O2  UNL     1      -3.913  -2.858  -0.142  1.00  0.00    -0.271 OA
HETATM   14  N4  UNL     1      -1.636  -2.383  -0.422  1.00  0.00    -0.313 N 
ENDROOT
BRANCH   1  15
HETATM   15  N2  UNL     1       3.402  -0.058  -0.037  1.00  0.00    -0.358 N 
HETATM   16  H5  UNL     1       3.752   0.124  -1.031  1.00  0.00     0.166 HD
BRANCH  15  17
HETATM   17  C4  UNL     1       3.977   1.127   0.459  1.00  0.00     0.032 A 
HETATM   18  C3  UNL     1       3.625   2.450   0.211  1.00  0.00     0.031 A 
HETATM   19  C2  UNL     1       4.366   3.416   0.842  1.00  0.00     0.031 A 
HETATM   20  C1  UNL     1       5.398   3.044   1.671  1.00  0.00     0.025 A 
HETATM   21  C23 UNL     1       5.792   1.754   1.955  1.00  0.00     0.031 A 
HETATM   22  C22 UNL     1       5.033   0.786   1.311  1.00  0.00     0.031 A 
BRANCH  20  23
HETATM   23  N1  UNL     1       6.146   4.077   2.303  1.00  0.00    -0.399 N 
HETATM   24  H1  UNL     1       6.508   4.859   1.682  1.00  0.00     0.156 HD
HETATM   25  H2  UNL     1       6.422   4.202   3.328  1.00  0.00     0.156 HD
ENDBRANCH  20  23
ENDBRANCH  15  17
ENDBRANCH   1  15
BRANCH  14  26
HETATM   26  C15 UNL     1      -1.798  -0.965  -0.164  1.00  0.00     0.134 C 
BRANCH  26  27
HETATM   27  C16 UNL     1      -1.761  -0.122  -1.401  1.00  0.00     0.040 C 
BRANCH  27  28
HETATM   28  C17 UNL     1      -1.972   1.353  -1.059  1.00  0.00     0.118 C 
BRANCH  28  29
HETATM   29  N5  UNL     1      -3.227   1.577  -0.458  1.00  0.00    -0.408 N 
HETATM   30  C18 UNL     1      -4.385   1.407  -1.239  1.00  0.00     0.143 C 
HETATM   31  C19 UNL     1      -5.590   2.189  -0.802  1.00  0.00     0.187 C 
HETATM   32  O3  UNL     1      -5.731   2.108   0.570  1.00  0.00    -0.388 OA
HETATM   33  C20 UNL     1      -4.653   2.781   1.128  1.00  0.00     0.187 C 
HETATM   34  C21 UNL     1      -3.328   2.137   0.812  1.00  0.00     0.143 C 
ENDBRANCH  28  29
ENDBRANCH  27  28
ENDBRANCH  26  27
ENDBRANCH  14  26
TORSDOF 7
