REMARK  10 active torsions:
REMARK  status: ('A' for Active; 'I' for Inactive)
REMARK    1  A    between atoms: N1_2  and  C1_3 
REMARK    2  A    between atoms: C5_9  and  C6_10 
REMARK    3  A    between atoms: C6_10  and  O2_11 
REMARK    4  A    between atoms: O2_11  and  C7_12 
REMARK    5  A    between atoms: C7_12  and  C8_13 
REMARK    6  A    between atoms: C8_13  and  N4_14 
REMARK    7  A    between atoms: N4_14  and  C9_15 
REMARK    8  A    between atoms: C9_15  and  C10_16 
REMARK    9  A    between atoms: C10_16  and  C11_17 
REMARK   10  A    between atoms: C11_17  and  N5_18 
ROOT
HETATM    1  O2  UNL     1       2.220  -0.677   2.899  1.00  0.00    -0.385 OA
ENDROOT
BRANCH   1   2
HETATM    2  C6  UNL     1       3.395   0.027   3.009  1.00  0.00     0.206 C 
BRANCH   2   3
HETATM    3  C5  UNL     1       4.111  -0.005   1.724  1.00  0.00    -0.032 A 
HETATM    4  C4  UNL     1       3.985   0.932   0.707  1.00  0.00     0.042 A 
HETATM    5  C3  UNL     1       4.703   0.810  -0.462  1.00  0.00     0.072 A 
HETATM    6  N3  UNL     1       4.593   1.710  -1.460  1.00  0.00    -0.241 NA
HETATM    7  C18 UNL     1       5.578  -0.231  -0.694  1.00  0.00     0.043 A 
HETATM    8  C2  UNL     1       5.303   1.582  -2.610  1.00  0.00     0.236 A 
HETATM    9  N2  UNL     1       6.162   0.541  -2.812  1.00  0.00    -0.220 NA
HETATM   10  C1  UNL     1       6.320  -0.405  -1.840  1.00  0.00     0.193 A 
HETATM   11  C17 UNL     1       5.700  -1.170   0.334  1.00  0.00     0.018 A 
HETATM   12  C16 UNL     1       4.981  -1.055   1.515  1.00  0.00     0.010 A 
BRANCH  10  13
HETATM   13  N1  UNL     1       7.209  -1.511  -2.010  1.00  0.00    -0.077 NA
HETATM   14  O1  UNL     1       6.878  -2.576  -2.530  1.00  0.00    -0.059 OA
ENDBRANCH  10  13
ENDBRANCH   2   3
ENDBRANCH   1   2
BRANCH   1  15
HETATM   15  C7  UNL     1       1.349  -0.183   1.928  1.00  0.00     0.198 C 
BRANCH  15  16
HETATM   16  C8  UNL     1       0.087  -1.033   1.924  1.00  0.00     0.295 C 
BRANCH  16  17
HETATM   17  N4  UNL     1      -0.801  -0.535   0.931  1.00  0.00     0.085 N 
HETATM   18  H9  UNL     1      -0.461  -0.616  -0.030  1.00  0.00     0.315 HD
BRANCH  17  19
HETATM   19  C9  UNL     1      -1.338   0.768   1.256  1.00  0.00     0.271 C 
BRANCH  19  20
HETATM   20  C10 UNL     1      -2.287   1.098   0.086  1.00  0.00     0.060 C 
BRANCH  20  21
HETATM   21  C11 UNL     1      -3.317   0.007   0.095  1.00  0.00     0.274 C 
BRANCH  21  22
HETATM   22  N5  UNL     1      -4.320   0.109  -0.929  1.00  0.00     0.092 N 
HETATM   23  C12 UNL     1      -5.182   1.217  -0.744  1.00  0.00     0.298 C 
HETATM   24  C13 UNL     1      -6.641   0.969  -0.781  1.00  0.00     0.198 C 
HETATM   25  O3  UNL     1      -7.004  -0.346  -0.523  1.00  0.00    -0.388 OA
HETATM   26  C14 UNL     1      -6.371  -1.176  -1.447  1.00  0.00     0.198 C 
HETATM   27  C15 UNL     1      -4.910  -1.165  -1.144  1.00  0.00     0.298 C 
ENDBRANCH  21  22
ENDBRANCH  20  21
ENDBRANCH  19  20
ENDBRANCH  17  19
ENDBRANCH  16  17
ENDBRANCH  15  16
ENDBRANCH   1  15
TORSDOF 10
