REMARK  7 active torsions:
REMARK  status: ('A' for Active; 'I' for Inactive)
REMARK       I    between atoms: C2_2  and  N1_4 
REMARK    1  A    between atoms: N1_4  and  C3_5 
REMARK    2  A    between atoms: N1_4  and  C11_14 
REMARK    3  A    between atoms: C4_6  and  C5_7 
REMARK    4  A    between atoms: C5_7  and  C6_8 
REMARK    5  A    between atoms: C11_14  and  C12_15 
REMARK    6  A    between atoms: C12_15  and  C13_16 
REMARK    7  A    between atoms: C13_16  and  N2_17 
ROOT
HETATM    1  C1  UNL     1       1.147  -1.293  -2.516  1.00  0.00     0.117 C 
HETATM    2  C2  UNL     1      -0.130  -1.203  -1.723  1.00  0.00     0.219 C 
HETATM    3  O1  UNL     1      -1.196  -1.519  -2.269  1.00  0.00    -0.274 OA
HETATM    4  N1  UNL     1       0.122  -0.741  -0.400  1.00  0.00    -0.329 N 
ENDROOT
BRANCH   4   5
HETATM    5  C3  UNL     1       1.385  -0.384   0.202  1.00  0.00     0.090 C 
HETATM    6  C4  UNL     1       2.578  -0.931   0.491  1.00  0.00    -0.005 C 
BRANCH   6   7
HETATM    7  C5  UNL     1       3.658  -0.182   1.146  1.00  0.00     0.065 C 
BRANCH   7   8
HETATM    8  C6  UNL     1       4.875  -0.133   0.288  1.00  0.00    -0.051 A 
HETATM    9  C7  UNL     1       4.997  -0.685  -0.903  1.00  0.00     0.144 A 
HETATM   10  O2  UNL     1       6.216  -0.546  -1.586  1.00  0.00    -0.335 OA
HETATM   11  C8  UNL     1       7.259   0.150  -1.025  1.00  0.00     0.137 A 
HETATM   12  C9  UNL     1       7.162   0.712   0.166  1.00  0.00     0.002 A 
HETATM   13  C10 UNL     1       5.932   0.639   0.987  1.00  0.00     0.065 A 
ENDBRANCH   7   8
ENDBRANCH   6   7
ENDBRANCH   4   5
BRANCH   4  14
HETATM   14  C11 UNL     1      -1.105  -0.638   0.400  1.00  0.00     0.133 C 
BRANCH  14  15
HETATM   15  C12 UNL     1      -1.714   0.747   0.247  1.00  0.00     0.050 C 
BRANCH  15  16
HETATM   16  C13 UNL     1      -2.969   0.801   1.086  1.00  0.00     0.274 C 
BRANCH  16  17
HETATM   17  N2  UNL     1      -3.940  -0.176   0.686  1.00  0.00     0.092 N 
HETATM   18  C14 UNL     1      -4.533   0.054  -0.604  1.00  0.00     0.298 C 
HETATM   19  C15 UNL     1      -5.913   0.663  -0.500  1.00  0.00     0.198 C 
HETATM   20  O3  UNL     1      -6.014   1.575   0.534  1.00  0.00    -0.388 OA
HETATM   21  C16 UNL     1      -5.632   1.122   1.767  1.00  0.00     0.198 C 
HETATM   22  C17 UNL     1      -4.969  -0.211   1.710  1.00  0.00     0.298 C 
ENDBRANCH  16  17
ENDBRANCH  15  16
ENDBRANCH  14  15
ENDBRANCH   4  14
TORSDOF 7
