REMARK  6 active torsions:
REMARK  status: ('A' for Active; 'I' for Inactive)
REMARK    1  A    between atoms: C7_11  and  N3_12 
REMARK    2  A    between atoms: N3_12  and  C8_13 
REMARK    3  A    between atoms: N4_23  and  C17_24 
REMARK    4  A    between atoms: C17_24  and  C18_25 
REMARK    5  A    between atoms: C18_25  and  C19_26 
REMARK    6  A    between atoms: C19_26  and  N5_27 
ROOT
HETATM    1  O1  UNL     1       1.428  -1.590  -3.546  1.00  0.00    -0.271 OA
HETATM    2  C1  UNL     1       1.039  -0.473  -3.095  1.00  0.00     0.248 C 
HETATM    3  C2  UNL     1       1.365   0.876  -3.676  1.00  0.00     0.279 C 
HETATM    4  O2  UNL     1       0.230   1.716  -3.670  1.00  0.00    -0.340 OA
HETATM    5  C3  UNL     1      -0.596   1.765  -2.545  1.00  0.00     0.098 A 
HETATM    6  C4  UNL     1      -1.402   2.866  -2.269  1.00  0.00     0.071 A 
HETATM    7  C5  UNL     1      -2.209   2.890  -1.151  1.00  0.00     0.075 A 
HETATM    8  N1  UNL     1      -2.985   3.959  -0.888  1.00  0.00    -0.241 NA
HETATM    9  C6  UNL     1      -3.766   3.940   0.231  1.00  0.00     0.236 A 
HETATM   10  N2  UNL     1      -3.827   2.920   1.115  1.00  0.00    -0.224 NA
HETATM   11  C7  UNL     1      -3.049   1.829   0.866  1.00  0.00     0.142 A 
HETATM   12  C14 UNL     1      -2.238   1.821  -0.274  1.00  0.00     0.041 A 
HETATM   13  C15 UNL     1      -1.424   0.749  -0.585  1.00  0.00     0.050 A 
HETATM   14  C16 UNL     1      -0.601   0.673  -1.686  1.00  0.00     0.071 A 
HETATM   15  N4  UNL     1       0.218  -0.487  -1.932  1.00  0.00    -0.314 N 
ENDROOT
BRANCH  11  16
HETATM   16  N3  UNL     1      -2.995   0.678   1.694  1.00  0.00    -0.340 N 
HETATM   17  H5  UNL     1      -2.211   0.910   2.337  1.00  0.00     0.167 HD
BRANCH  16  18
HETATM   18  C8  UNL     1      -3.757  -0.498   1.708  1.00  0.00     0.033 A 
HETATM   19  C9  UNL     1      -4.809  -0.646   0.832  1.00  0.00     0.032 A 
HETATM   20  C10 UNL     1      -5.497  -1.830   0.916  1.00  0.00     0.044 A 
HETATM   21  C11 UNL     1      -5.139  -2.809   1.834  1.00  0.00     0.116 A 
HETATM   22  F1  UNL     1      -5.868  -3.972   1.868  1.00  0.00    -0.206 F 
HETATM   23  C12 UNL     1      -4.065  -2.635   2.714  1.00  0.00     0.044 A 
HETATM   24  C13 UNL     1      -3.376  -1.447   2.629  1.00  0.00     0.032 A 
ENDBRANCH  16  18
ENDBRANCH  11  16
BRANCH  15  25
HETATM   25  C17 UNL     1       0.160  -1.565  -1.002  1.00  0.00     0.134 C 
BRANCH  25  26
HETATM   26  C18 UNL     1       1.203  -1.317   0.068  1.00  0.00     0.050 C 
BRANCH  26  27
HETATM   27  C19 UNL     1       2.605  -1.240  -0.461  1.00  0.00     0.274 C 
BRANCH  27  28
HETATM   28  N5  UNL     1       3.549  -0.995   0.625  1.00  0.00     0.092 N 
HETATM   29  C20 UNL     1       3.325   0.326   1.109  1.00  0.00     0.298 C 
HETATM   30  C21 UNL     1       4.446   0.950   1.866  1.00  0.00     0.198 C 
HETATM   31  O3  UNL     1       5.544   0.111   2.010  1.00  0.00    -0.388 OA
HETATM   32  C22 UNL     1       5.945  -0.430   0.790  1.00  0.00     0.198 C 
HETATM   33  C23 UNL     1       4.885  -1.339   0.276  1.00  0.00     0.298 C 
ENDBRANCH  27  28
ENDBRANCH  26  27
ENDBRANCH  25  26
ENDBRANCH  15  25
TORSDOF 6
