REMARK  9 active torsions:
REMARK  status: ('A' for Active; 'I' for Inactive)
REMARK    1  A    between atoms: C4_7  and  N2_8 
REMARK    2  A    between atoms: N2_8  and  C5_9 
REMARK    3  A    between atoms: C5_9  and  C6_10 
REMARK    4  A    between atoms: C7_11  and  C8_12 
REMARK    5  A    between atoms: C8_12  and  C9_13 
REMARK    6  A    between atoms: C12_17  and  C13_18 
REMARK    7  A    between atoms: C13_18  and  C14_19 
REMARK    8  A    between atoms: C14_19  and  C15_20 
REMARK    9  A    between atoms: C15_20  and  N3_21 
ROOT
HETATM    1  O1  UNL     1       1.336  -3.951  -0.337  1.00  0.00    -0.271 OA
HETATM    2  C1  UNL     1       1.116  -3.184   0.629  1.00  0.00     0.246 C 
HETATM    3  C2  UNL     1       0.922  -3.329   2.152  1.00  0.00     0.280 C 
HETATM    4  O2  UNL     1       0.215  -2.162   2.653  1.00  0.00    -0.328 OA
HETATM    5  C3  UNL     1       0.429  -0.789   2.728  1.00  0.00     0.141 C 
HETATM    6  N1  UNL     1       1.657  -0.230   2.658  1.00  0.00    -0.228 NA
HETATM    7  C4  UNL     1       2.357   0.062   1.349  1.00  0.00     0.394 C 
HETATM    8  C10 UNL     1       1.344  -0.579   0.393  1.00  0.00     0.067 C 
HETATM    9  C11 UNL     1       0.189  -0.154  -0.228  1.00  0.00     0.036 C 
HETATM   10  C12 UNL     1      -0.937   0.633   0.421  1.00  0.00    -0.059 C 
HETATM   11  C20 UNL     1      -1.284   0.721   1.744  1.00  0.00    -0.012 C 
HETATM   12  C21 UNL     1      -0.911  -0.253   2.877  1.00  0.00     0.113 C 
HETATM   13  N4  UNL     1       1.076  -1.921  -0.160  1.00  0.00    -0.325 N 
HETATM   14  H31 UNL     1       0.846  -1.682  -1.128  1.00  0.00     0.168 HD
ENDROOT
BRANCH  10  15
HETATM   15  C13 UNL     1      -1.598   1.258  -0.699  1.00  0.00     0.040 C 
BRANCH  15  16
HETATM   16  C14 UNL     1      -2.162   0.355  -1.758  1.00  0.00     0.024 C 
BRANCH  16  17
HETATM   17  C15 UNL     1      -3.197  -0.603  -1.284  1.00  0.00     0.117 C 
BRANCH  17  18
HETATM   18  N3  UNL     1      -4.375  -0.085  -0.730  1.00  0.00    -0.408 N 
HETATM   19  C16 UNL     1      -5.289   0.599  -1.558  1.00  0.00     0.143 C 
HETATM   20  C17 UNL     1      -6.662   0.629  -0.925  1.00  0.00     0.187 C 
HETATM   21  O3  UNL     1      -6.734  -0.446  -0.035  1.00  0.00    -0.388 OA
HETATM   22  C18 UNL     1      -5.966  -0.092   1.072  1.00  0.00     0.187 C 
HETATM   23  C19 UNL     1      -4.509   0.006   0.669  1.00  0.00     0.143 C 
ENDBRANCH  17  18
ENDBRANCH  16  17
ENDBRANCH  15  16
ENDBRANCH  10  15
BRANCH   7  24
HETATM   24  N2  UNL     1       3.639  -0.486   1.275  1.00  0.00     0.117 N 
HETATM   25  H4  UNL     1       4.270   0.017   1.932  1.00  0.00     0.319 HD
BRANCH  24  26
HETATM   26  C5  UNL     1       4.156  -0.279  -0.064  1.00  0.00     0.300 C 
BRANCH  26  27
HETATM   27  C6  UNL     1       4.413   1.133  -0.355  1.00  0.00    -0.001 C 
HETATM   28  C7  UNL     1       5.530   1.766  -0.679  1.00  0.00    -0.027 C 
BRANCH  28  29
HETATM   29  C8  UNL     1       6.913   1.257  -0.857  1.00  0.00     0.058 C 
BRANCH  29  30
HETATM   30  C9  UNL     1       7.387   1.541  -2.267  1.00  0.00     0.225 C 
HETATM   31  F1  UNL     1       7.343   2.935  -2.425  1.00  0.00    -0.255 F 
ENDBRANCH  29  30
ENDBRANCH  28  29
ENDBRANCH  26  27
ENDBRANCH  24  26
ENDBRANCH   7  24
TORSDOF 9
